MODEL 1
REMARK VINA RESULT:     -11.4      0.000      0.000
REMARK SMILES C/C=C/C[N@H+]1CCC[C@H](C(=O)NCCCCNC(=O)c2ccc(-c3c4nc(c(-c5cc(S(=O)(=O)[O-])ccc5F)c5ccc([nH]5)c(-c5cc(S(=O)(=O)[O-])ccc5F)c5nc(c(-c6cc(S(=O)(=O)[O-])ccc6F)c6ccc3[nH]6)C=C5)C=C4)cc2)C1
REMARK SMILES IDX 15 1 14 2 13 3 12 4 10 5 11 6 9 8 5 9 6 10 83 11 7 13 8 14
REMARK SMILES IDX 4 15 3 16 1 17 2 18 16 19 17 20 18 21 19 23 20 24 21 25
REMARK SMILES IDX 82 26 22 27 81 28 23 29 24 30 25 31 75 32 26 33 80 34 74 35
REMARK SMILES IDX 76 36 27 37 79 38 73 39 72 40 28 42 60 43 40 44 59 45 41 46
REMARK SMILES IDX 44 47 58 48 77 49 42 50 43 51 57 53 78 54 45 55 29 56 30 57
REMARK SMILES IDX 38 58 31 59 37 60 39 61 36 62 32 63 33 64 34 65 35 66 61 67
REMARK SMILES IDX 62 68 70 69 63 70 69 71 71 72 68 73 64 74 65 75 66 76 67 77
REMARK SMILES IDX 46 78 47 79 55 80 48 81 54 82 56 83 53 84 49 85 50 86 51 87
REMARK SMILES IDX 52 88
REMARK H PARENT 12 7 5 12 17 22 76 41 44 52
REMARK Flexibility Score: inf
ROOT
ATOM      1  C   UNL A   1      31.800  29.181  26.617  1.00  0.00     0.023 C 
ENDROOT
BRANCH   1   2
ATOM      2  C   UNL A   1      32.132  27.882  27.345  1.00  0.00     0.023 C 
BRANCH   2   3
ATOM      3  C   UNL A   1      32.303  26.675  26.429  1.00  0.00     0.116 C 
BRANCH   3   4
ATOM      4  N   UNL A   1      31.493  25.550  26.839  1.00  0.00    -0.356 N 
ATOM      5  C   UNL A   1      31.687  24.216  26.701  1.00  0.00     0.228 C 
ATOM      6  O   UNL A   1      30.836  23.479  27.215  1.00  0.00    -0.275 OA
ATOM      7  H   UNL A   1      30.657  25.796  27.298  1.00  0.00     0.163 HD
BRANCH   5   8
ATOM      8  C   UNL A   1      32.860  23.587  25.946  1.00  0.00     0.133 C 
ATOM      9  N   UNL A   1      32.689  21.116  25.519  1.00  0.00    -0.331 N 
ATOM     10  C   UNL A   1      34.046  20.903  26.012  1.00  0.00     0.262 C 
ATOM     11  C   UNL A   1      32.481  22.459  24.979  1.00  0.00     0.276 C 
ATOM     12  H   UNL A   1      32.092  21.069  26.346  1.00  0.00     0.348 HD
ATOM     13  C   UNL A   1      34.353  21.866  27.158  1.00  0.00     0.062 C 
ATOM     14  C   UNL A   1      34.108  23.326  26.794  1.00  0.00     0.025 C 
BRANCH   9  15
ATOM     15  C   UNL A   1      32.186  20.039  24.670  1.00  0.00     0.290 C 
BRANCH  15  16
ATOM     16  C   UNL A   1      33.111  18.868  24.523  1.00  0.00     0.029 C 
ATOM     17  C   UNL A   1      34.063  16.902  23.308  1.00  0.00     0.035 C 
ATOM     18  C   UNL A   1      33.143  18.067  23.445  1.00  0.00    -0.029 C 
ENDBRANCH  15  16
ENDBRANCH   9  15
ENDBRANCH   5   8
ENDBRANCH   3   4
ENDBRANCH   2   3
ENDBRANCH   1   2
BRANCH   1  19
ATOM     19  C   UNL A   1      32.992  30.091  26.334  1.00  0.00     0.116 C 
BRANCH  19  20
ATOM     20  N   UNL A   1      32.850  31.445  26.857  1.00  0.00    -0.352 N 
ATOM     21  C   UNL A   1      33.737  32.140  27.651  1.00  0.00     0.251 C 
ATOM     22  H   UNL A   1      32.022  31.918  26.615  1.00  0.00     0.163 HD
ATOM     23  O   UNL A   1      33.456  33.252  28.078  1.00  0.00    -0.269 OA
BRANCH  21  24
ATOM     24  C   UNL A   1      35.014  31.488  28.011  1.00  0.00     0.039 A 
ATOM     25  C   UNL A   1      36.180  32.254  28.044  1.00  0.00     0.014 A 
ATOM     26  C   UNL A   1      35.026  30.153  28.423  1.00  0.00     0.014 A 
ATOM     27  C   UNL A   1      37.346  31.704  28.580  1.00  0.00     0.010 A 
ATOM     28  C   UNL A   1      36.166  29.635  29.027  1.00  0.00     0.010 A 
ATOM     29  C   UNL A   1      37.334  30.407  29.121  1.00  0.00    -0.014 A 
BRANCH  29  30
ATOM     30  C   UNL A   1      38.530  29.837  29.795  1.00  0.00     0.031 A 
ATOM     31  C   UNL A   1      38.919  30.325  31.163  1.00  0.00     0.074 A 
ATOM     32  C   UNL A   1      39.309  28.950  29.143  1.00  0.00     0.049 A 
ATOM     33  N   UNL A   1      39.978  30.040  31.875  1.00  0.00    -0.248 NA
ATOM     34  C   UNL A   1      38.013  31.298  31.794  1.00  0.00     0.031 C 
ATOM     35  C   UNL A   1      39.068  28.446  27.788  1.00  0.00     0.029 A 
ATOM     36  N   UNL A   1      40.468  28.323  29.526  1.00  0.00    -0.354 N 
ATOM     37  C   UNL A   1      39.879  30.816  33.025  1.00  0.00     0.074 A 
ATOM     38  C   UNL A   1      38.690  31.629  32.882  1.00  0.00     0.031 C 
ATOM     39  C   UNL A   1      40.037  27.572  27.465  1.00  0.00     0.029 A 
ATOM     40  C   UNL A   1      40.986  27.481  28.568  1.00  0.00     0.049 A 
ATOM     41  H   UNL A   1      40.890  28.463  30.404  1.00  0.00     0.167 HD
ATOM     42  C   UNL A   1      40.693  30.832  34.111  1.00  0.00     0.034 A 
ATOM     43  C   UNL A   1      42.103  26.726  28.579  1.00  0.00     0.034 A 
ATOM     44  C   UNL A   1      41.858  29.995  34.250  1.00  0.00     0.049 A 
ATOM     45  C   UNL A   1      42.976  26.738  29.807  1.00  0.00     0.074 A 
ATOM     46  C   UNL A   1      42.717  29.882  35.329  1.00  0.00     0.029 A 
ATOM     47  N   UNL A   1      42.326  29.120  33.278  1.00  0.00    -0.354 N 
ATOM     48  N   UNL A   1      42.841  27.440  30.910  1.00  0.00    -0.248 NA
ATOM     49  C   UNL A   1      44.142  25.847  29.799  1.00  0.00     0.031 C 
ATOM     50  C   UNL A   1      43.732  28.979  34.990  1.00  0.00     0.029 A 
ATOM     51  C   UNL A   1      43.471  28.478  33.724  1.00  0.00     0.049 A 
ATOM     52  H   UNL A   1      41.907  28.978  32.398  1.00  0.00     0.167 HD
ATOM     53  C   UNL A   1      43.890  27.049  31.737  1.00  0.00     0.074 A 
ATOM     54  C   UNL A   1      44.638  26.042  31.012  1.00  0.00     0.031 C 
ATOM     55  C   UNL A   1      44.205  27.480  32.985  1.00  0.00     0.034 A 
BRANCH  42  56
ATOM     56  C   UNL A   1      40.349  31.802  35.216  1.00  0.00     0.023 A 
ATOM     57  C   UNL A   1      39.440  31.466  36.234  1.00  0.00     0.031 A 
ATOM     58  C   UNL A   1      40.900  33.095  35.228  1.00  0.00     0.131 A 
ATOM     59  C   UNL A   1      39.043  32.433  37.168  1.00  0.00     0.055 A 
ATOM     60  C   UNL A   1      40.566  34.028  36.213  1.00  0.00     0.041 A 
ATOM     61  F   UNL A   1      41.759  33.482  34.272  1.00  0.00    -0.206 F 
ATOM     62  C   UNL A   1      39.619  33.705  37.180  1.00  0.00     0.022 A 
BRANCH  59  63
ATOM     63  S   UNL A   1      37.655  32.052  38.271  1.00  0.00     0.124 S 
ATOM     64  O   UNL A   1      38.252  32.286  39.585  1.00  0.00    -0.237 OA
ATOM     65  O   UNL A   1      36.643  33.015  37.850  1.00  0.00    -0.237 OA
ATOM     66  O   UNL A   1      37.351  30.655  37.971  1.00  0.00    -0.744 OA
ENDBRANCH  59  63
ENDBRANCH  42  56
BRANCH  43  67
ATOM     67  C   UNL A   1      42.465  25.891  27.398  1.00  0.00     0.023 A 
ATOM     68  C   UNL A   1      42.073  24.546  27.319  1.00  0.00     0.031 A 
ATOM     69  C   UNL A   1      43.246  26.414  26.353  1.00  0.00     0.131 A 
ATOM     70  C   UNL A   1      42.504  23.753  26.245  1.00  0.00     0.055 A 
ATOM     71  C   UNL A   1      43.633  25.634  25.261  1.00  0.00     0.041 A 
ATOM     72  F   UNL A   1      43.638  27.698  26.375  1.00  0.00    -0.206 F 
ATOM     73  C   UNL A   1      43.274  24.291  25.210  1.00  0.00     0.022 A 
BRANCH  70  74
ATOM     74  S   UNL A   1      42.112  21.982  26.259  1.00  0.00     0.124 S 
ATOM     75  O   UNL A   1      40.681  21.992  25.974  1.00  0.00    -0.237 OA
ATOM     76  O   UNL A   1      42.974  21.472  25.199  1.00  0.00    -0.237 OA
ATOM     77  O   UNL A   1      42.476  21.564  27.612  1.00  0.00    -0.744 OA
ENDBRANCH  70  74
ENDBRANCH  43  67
BRANCH  55  78
ATOM     78  C   UNL A   1      45.382  26.819  33.657  1.00  0.00     0.023 A 
ATOM     79  C   UNL A   1      45.227  25.678  34.463  1.00  0.00     0.031 A 
ATOM     80  C   UNL A   1      46.673  27.352  33.499  1.00  0.00     0.131 A 
ATOM     81  C   UNL A   1      46.339  25.137  35.124  1.00  0.00     0.055 A 
ATOM     82  C   UNL A   1      47.784  26.777  34.116  1.00  0.00     0.041 A 
ATOM     83  F   UNL A   1      46.874  28.441  32.740  1.00  0.00    -0.206 F 
ATOM     84  C   UNL A   1      47.619  25.670  34.944  1.00  0.00     0.022 A 
BRANCH  81  85
ATOM     85  S   UNL A   1      46.079  23.774  36.292  1.00  0.00     0.124 S 
ATOM     86  O   UNL A   1      44.951  23.070  35.693  1.00  0.00    -0.237 OA
ATOM     87  O   UNL A   1      47.361  23.078  36.250  1.00  0.00    -0.237 OA
ATOM     88  O   UNL A   1      45.787  24.454  37.553  1.00  0.00    -0.744 OA
ENDBRANCH  81  85
ENDBRANCH  55  78
ENDBRANCH  29  30
ENDBRANCH  21  24
ENDBRANCH  19  20
ENDBRANCH   1  19
TORSDOF 16
ENDMDL
MODEL 2
REMARK VINA RESULT:     -11.2      1.113      7.836
REMARK SMILES C/C=C/C[N@H+]1CCC[C@H](C(=O)NCCCCNC(=O)c2ccc(-c3c4nc(c(-c5cc(S(=O)(=O)[O-])ccc5F)c5ccc([nH]5)c(-c5cc(S(=O)(=O)[O-])ccc5F)c5nc(c(-c6cc(S(=O)(=O)[O-])ccc6F)c6ccc3[nH]6)C=C5)C=C4)cc2)C1
REMARK SMILES IDX 15 1 14 2 13 3 12 4 10 5 11 6 9 8 5 9 6 10 83 11 7 13 8 14
REMARK SMILES IDX 4 15 3 16 1 17 2 18 16 19 17 20 18 21 19 23 20 24 21 25
REMARK SMILES IDX 82 26 22 27 81 28 23 29 24 30 25 31 75 32 26 33 80 34 74 35
REMARK SMILES IDX 76 36 27 37 79 38 73 39 72 40 28 42 60 43 40 44 59 45 41 46
REMARK SMILES IDX 44 47 58 48 77 49 42 50 43 51 57 53 78 54 45 55 29 56 30 57
REMARK SMILES IDX 38 58 31 59 37 60 39 61 36 62 32 63 33 64 34 65 35 66 61 67
REMARK SMILES IDX 62 68 70 69 63 70 69 71 71 72 68 73 64 74 65 75 66 76 67 77
REMARK SMILES IDX 46 78 47 79 55 80 48 81 54 82 56 83 53 84 49 85 50 86 51 87
REMARK SMILES IDX 52 88
REMARK H PARENT 12 7 5 12 17 22 76 41 44 52
REMARK Flexibility Score: inf
ROOT
ATOM      1  C   UNL A   1      32.130  28.574  24.621  1.00  0.00     0.023 C 
ENDROOT
BRANCH   1   2
ATOM      2  C   UNL A   1      31.346  27.445  25.284  1.00  0.00     0.023 C 
BRANCH   2   3
ATOM      3  C   UNL A   1      32.062  26.792  26.461  1.00  0.00     0.116 C 
BRANCH   3   4
ATOM      4  N   UNL A   1      31.394  25.594  26.918  1.00  0.00    -0.356 N 
ATOM      5  C   UNL A   1      31.667  24.284  26.702  1.00  0.00     0.228 C 
ATOM      6  O   UNL A   1      30.942  23.466  27.284  1.00  0.00    -0.275 OA
ATOM      7  H   UNL A   1      30.604  25.758  27.483  1.00  0.00     0.163 HD
BRANCH   5   8
ATOM      8  C   UNL A   1      32.782  23.774  25.786  1.00  0.00     0.133 C 
ATOM      9  N   UNL A   1      32.779  21.302  25.330  1.00  0.00    -0.331 N 
ATOM     10  C   UNL A   1      34.202  21.210  25.636  1.00  0.00     0.262 C 
ATOM     11  C   UNL A   1      32.381  22.626  24.851  1.00  0.00     0.276 C 
ATOM     12  H   UNL A   1      32.303  21.191  26.226  1.00  0.00     0.348 HD
ATOM     13  C   UNL A   1      34.570  22.185  26.753  1.00  0.00     0.062 C 
ATOM     14  C   UNL A   1      34.150  23.620  26.458  1.00  0.00     0.025 C 
BRANCH   9  15
ATOM     15  C   UNL A   1      32.267  20.193  24.529  1.00  0.00     0.290 C 
BRANCH  15  16
ATOM     16  C   UNL A   1      33.107  18.951  24.561  1.00  0.00     0.029 C 
ATOM     17  C   UNL A   1      34.079  16.875  23.565  1.00  0.00     0.035 C 
ATOM     18  C   UNL A   1      33.244  18.110  23.524  1.00  0.00    -0.029 C 
ENDBRANCH  15  16
ENDBRANCH   9  15
ENDBRANCH   5   8
ENDBRANCH   3   4
ENDBRANCH   2   3
ENDBRANCH   1   2
BRANCH   1  19
ATOM     19  C   UNL A   1      33.090  29.326  25.539  1.00  0.00     0.116 C 
BRANCH  19  20
ATOM     20  N   UNL A   1      32.544  30.556  26.099  1.00  0.00    -0.352 N 
ATOM     21  C   UNL A   1      33.118  31.382  27.041  1.00  0.00     0.251 C 
ATOM     22  H   UNL A   1      31.659  30.829  25.764  1.00  0.00     0.163 HD
ATOM     23  O   UNL A   1      32.512  32.353  27.475  1.00  0.00    -0.269 OA
BRANCH  21  24
ATOM     24  C   UNL A   1      34.463  31.037  27.549  1.00  0.00     0.039 A 
ATOM     25  C   UNL A   1      35.396  32.057  27.743  1.00  0.00     0.014 A 
ATOM     26  C   UNL A   1      34.751  29.726  27.934  1.00  0.00     0.014 A 
ATOM     27  C   UNL A   1      36.589  31.776  28.411  1.00  0.00     0.010 A 
ATOM     28  C   UNL A   1      35.902  29.466  28.668  1.00  0.00     0.010 A 
ATOM     29  C   UNL A   1      36.828  30.489  28.923  1.00  0.00    -0.014 A 
BRANCH  29  30
ATOM     30  C   UNL A   1      38.038  30.189  29.732  1.00  0.00     0.031 A 
ATOM     31  C   UNL A   1      39.075  29.239  29.199  1.00  0.00     0.074 A 
ATOM     32  C   UNL A   1      38.159  30.700  30.974  1.00  0.00     0.049 A 
ATOM     33  N   UNL A   1      40.142  28.763  29.785  1.00  0.00    -0.248 NA
ATOM     34  C   UNL A   1      38.856  28.727  27.837  1.00  0.00     0.031 C 
ATOM     35  C   UNL A   1      37.188  31.585  31.625  1.00  0.00     0.029 A 
ATOM     36  N   UNL A   1      39.143  30.539  31.917  1.00  0.00    -0.354 N 
ATOM     37  C   UNL A   1      40.707  27.875  28.875  1.00  0.00     0.074 A 
ATOM     38  C   UNL A   1      39.828  27.835  27.726  1.00  0.00     0.031 C 
ATOM     39  C   UNL A   1      37.638  31.905  32.850  1.00  0.00     0.029 A 
ATOM     40  C   UNL A   1      38.904  31.223  33.089  1.00  0.00     0.049 A 
ATOM     41  H   UNL A   1      39.944  29.987  31.771  1.00  0.00     0.167 HD
ATOM     42  C   UNL A   1      41.866  27.175  28.979  1.00  0.00     0.034 A 
ATOM     43  C   UNL A   1      39.623  31.285  34.227  1.00  0.00     0.034 A 
ATOM     44  C   UNL A   1      42.745  27.249  30.119  1.00  0.00     0.049 A 
ATOM     45  C   UNL A   1      40.921  30.522  34.308  1.00  0.00     0.074 A 
ATOM     46  C   UNL A   1      43.971  26.635  30.305  1.00  0.00     0.029 A 
ATOM     47  N   UNL A   1      42.493  27.987  31.268  1.00  0.00    -0.354 N 
ATOM     48  N   UNL A   1      41.469  29.726  33.418  1.00  0.00    -0.248 NA
ATOM     49  C   UNL A   1      41.704  30.677  35.541  1.00  0.00     0.031 C 
ATOM     50  C   UNL A   1      44.436  26.960  31.585  1.00  0.00     0.029 A 
ATOM     51  C   UNL A   1      43.531  27.830  32.173  1.00  0.00     0.049 A 
ATOM     52  H   UNL A   1      41.693  28.541  31.419  1.00  0.00     0.167 HD
ATOM     53  C   UNL A   1      42.676  29.312  33.974  1.00  0.00     0.074 A 
ATOM     54  C   UNL A   1      42.781  29.956  35.267  1.00  0.00     0.031 C 
ATOM     55  C   UNL A   1      43.615  28.478  33.461  1.00  0.00     0.034 A 
BRANCH  42  56
ATOM     56  C   UNL A   1      42.225  26.262  27.832  1.00  0.00     0.023 A 
ATOM     57  C   UNL A   1      41.730  24.949  27.754  1.00  0.00     0.031 A 
ATOM     58  C   UNL A   1      43.107  26.693  26.826  1.00  0.00     0.131 A 
ATOM     59  C   UNL A   1      42.187  24.085  26.747  1.00  0.00     0.055 A 
ATOM     60  C   UNL A   1      43.492  25.855  25.776  1.00  0.00     0.041 A 
ATOM     61  F   UNL A   1      43.628  27.930  26.856  1.00  0.00    -0.206 F 
ATOM     62  C   UNL A   1      43.046  24.537  25.743  1.00  0.00     0.022 A 
BRANCH  59  63
ATOM     63  S   UNL A   1      41.762  22.326  26.858  1.00  0.00     0.124 S 
ATOM     64  O   UNL A   1      42.028  21.874  25.493  1.00  0.00    -0.237 OA
ATOM     65  O   UNL A   1      42.683  21.842  27.881  1.00  0.00    -0.237 OA
ATOM     66  O   UNL A   1      40.353  22.337  27.242  1.00  0.00    -0.744 OA
ENDBRANCH  59  63
ENDBRANCH  42  56
BRANCH  43  67
ATOM     67  C   UNL A   1      39.147  32.097  35.382  1.00  0.00     0.023 A 
ATOM     68  C   UNL A   1      38.506  31.491  36.474  1.00  0.00     0.031 A 
ATOM     69  C   UNL A   1      39.286  33.495  35.391  1.00  0.00     0.131 A 
ATOM     70  C   UNL A   1      37.981  32.285  37.507  1.00  0.00     0.055 A 
ATOM     71  C   UNL A   1      38.805  34.278  36.443  1.00  0.00     0.041 A 
ATOM     72  F   UNL A   1      39.901  34.123  34.376  1.00  0.00    -0.206 F 
ATOM     73  C   UNL A   1      38.136  33.673  37.503  1.00  0.00     0.022 A 
BRANCH  70  74
ATOM     74  S   UNL A   1      37.022  31.480  38.818  1.00  0.00     0.124 S 
ATOM     75  O   UNL A   1      37.913  31.614  39.965  1.00  0.00    -0.237 OA
ATOM     76  O   UNL A   1      35.811  32.293  38.849  1.00  0.00    -0.237 OA
ATOM     77  O   UNL A   1      36.843  30.117  38.322  1.00  0.00    -0.744 OA
ENDBRANCH  70  74
ENDBRANCH  43  67
BRANCH  55  78
ATOM     78  C   UNL A   1      44.860  28.262  34.285  1.00  0.00     0.023 A 
ATOM     79  C   UNL A   1      44.945  27.233  35.238  1.00  0.00     0.031 A 
ATOM     80  C   UNL A   1      45.968  29.112  34.121  1.00  0.00     0.131 A 
ATOM     81  C   UNL A   1      46.097  27.112  36.030  1.00  0.00     0.055 A 
ATOM     82  C   UNL A   1      47.131  28.953  34.874  1.00  0.00     0.041 A 
ATOM     83  F   UNL A   1      45.936  30.111  33.225  1.00  0.00    -0.206 F 
ATOM     84  C   UNL A   1      47.196  27.956  35.844  1.00  0.00     0.022 A 
BRANCH  81  85
ATOM     85  S   UNL A   1      46.108  25.887  37.368  1.00  0.00     0.124 S 
ATOM     86  O   UNL A   1      47.522  25.538  37.449  1.00  0.00    -0.237 OA
ATOM     87  O   UNL A   1      45.573  26.648  38.492  1.00  0.00    -0.237 OA
ATOM     88  O   UNL A   1      45.235  24.826  36.868  1.00  0.00    -0.744 OA
ENDBRANCH  81  85
ENDBRANCH  55  78
ENDBRANCH  29  30
ENDBRANCH  21  24
ENDBRANCH  19  20
ENDBRANCH   1  19
TORSDOF 16
ENDMDL
MODEL 3
REMARK VINA RESULT:     -11.1      2.021      8.122
REMARK SMILES C/C=C/C[N@H+]1CCC[C@H](C(=O)NCCCCNC(=O)c2ccc(-c3c4nc(c(-c5cc(S(=O)(=O)[O-])ccc5F)c5ccc([nH]5)c(-c5cc(S(=O)(=O)[O-])ccc5F)c5nc(c(-c6cc(S(=O)(=O)[O-])ccc6F)c6ccc3[nH]6)C=C5)C=C4)cc2)C1
REMARK SMILES IDX 15 1 14 2 13 3 12 4 10 5 11 6 9 8 5 9 6 10 83 11 7 13 8 14
REMARK SMILES IDX 4 15 3 16 1 17 2 18 16 19 17 20 18 21 19 23 20 24 21 25
REMARK SMILES IDX 82 26 22 27 81 28 23 29 24 30 25 31 75 32 26 33 80 34 74 35
REMARK SMILES IDX 76 36 27 37 79 38 73 39 72 40 28 42 60 43 40 44 59 45 41 46
REMARK SMILES IDX 44 47 58 48 77 49 42 50 43 51 57 53 78 54 45 55 29 56 30 57
REMARK SMILES IDX 38 58 31 59 37 60 39 61 36 62 32 63 33 64 34 65 35 66 61 67
REMARK SMILES IDX 62 68 70 69 63 70 69 71 71 72 68 73 64 74 65 75 66 76 67 77
REMARK SMILES IDX 46 78 47 79 55 80 48 81 54 82 56 83 53 84 49 85 50 86 51 87
REMARK SMILES IDX 52 88
REMARK H PARENT 12 7 5 12 17 22 76 41 44 52
REMARK Flexibility Score: inf
ROOT
ATOM      1  C   UNL A   1      32.831  28.947  23.966  1.00  0.00     0.023 C 
ENDROOT
BRANCH   1   2
ATOM      2  C   UNL A   1      31.355  28.927  23.583  1.00  0.00     0.023 C 
BRANCH   2   3
ATOM      3  C   UNL A   1      30.915  27.668  22.844  1.00  0.00     0.116 C 
BRANCH   3   4
ATOM      4  N   UNL A   1      31.956  27.134  21.994  1.00  0.00    -0.356 N 
ATOM      5  C   UNL A   1      32.742  26.038  22.131  1.00  0.00     0.228 C 
ATOM      6  O   UNL A   1      33.516  25.795  21.196  1.00  0.00    -0.275 OA
ATOM      7  H   UNL A   1      32.122  27.656  21.176  1.00  0.00     0.163 HD
BRANCH   5   8
ATOM      8  C   UNL A   1      32.740  25.121  23.356  1.00  0.00     0.133 C 
ATOM      9  N   UNL A   1      34.440  23.269  23.339  1.00  0.00    -0.331 N 
ATOM     10  C   UNL A   1      33.424  22.288  23.708  1.00  0.00     0.262 C 
ATOM     11  C   UNL A   1      34.122  24.622  23.797  1.00  0.00     0.276 C 
ATOM     12  H   UNL A   1      34.408  23.321  22.320  1.00  0.00     0.348 HD
ATOM     13  C   UNL A   1      32.085  22.642  23.063  1.00  0.00     0.062 C 
ATOM     14  C   UNL A   1      31.631  24.064  23.368  1.00  0.00     0.025 C 
BRANCH   9  15
ATOM     15  C   UNL A   1      35.809  22.845  23.619  1.00  0.00     0.290 C 
BRANCH  15  16
ATOM     16  C   UNL A   1      36.547  23.704  24.602  1.00  0.00     0.029 C 
ATOM     17  C   UNL A   1      38.122  24.088  26.505  1.00  0.00     0.035 C 
ATOM     18  C   UNL A   1      37.394  23.228  25.529  1.00  0.00    -0.029 C 
ENDBRANCH  15  16
ENDBRANCH   9  15
ENDBRANCH   5   8
ENDBRANCH   3   4
ENDBRANCH   2   3
ENDBRANCH   1   2
BRANCH   1  19
ATOM     19  C   UNL A   1      33.117  29.192  25.445  1.00  0.00     0.116 C 
BRANCH  19  20
ATOM     20  N   UNL A   1      32.577  30.444  25.961  1.00  0.00    -0.352 N 
ATOM     21  C   UNL A   1      33.138  31.280  26.902  1.00  0.00     0.251 C 
ATOM     22  H   UNL A   1      31.709  30.725  25.592  1.00  0.00     0.163 HD
ATOM     23  O   UNL A   1      32.538  32.271  27.296  1.00  0.00    -0.269 OA
BRANCH  21  24
ATOM     24  C   UNL A   1      34.460  30.921  27.458  1.00  0.00     0.039 A 
ATOM     25  C   UNL A   1      35.396  31.932  27.685  1.00  0.00     0.014 A 
ATOM     26  C   UNL A   1      34.720  29.607  27.855  1.00  0.00     0.014 A 
ATOM     27  C   UNL A   1      36.561  31.639  28.397  1.00  0.00     0.010 A 
ATOM     28  C   UNL A   1      35.841  29.337  28.630  1.00  0.00     0.010 A 
ATOM     29  C   UNL A   1      36.768  30.351  28.918  1.00  0.00    -0.014 A 
BRANCH  29  30
ATOM     30  C   UNL A   1      37.944  30.039  29.771  1.00  0.00     0.031 A 
ATOM     31  C   UNL A   1      39.012  29.111  29.260  1.00  0.00     0.074 A 
ATOM     32  C   UNL A   1      38.007  30.519  31.030  1.00  0.00     0.049 A 
ATOM     33  N   UNL A   1      40.056  28.627  29.880  1.00  0.00    -0.248 NA
ATOM     34  C   UNL A   1      38.856  28.632  27.878  1.00  0.00     0.031 C 
ATOM     35  C   UNL A   1      37.002  31.380  31.660  1.00  0.00     0.029 A 
ATOM     36  N   UNL A   1      38.950  30.342  32.011  1.00  0.00    -0.354 N 
ATOM     37  C   UNL A   1      40.668  27.767  28.973  1.00  0.00     0.074 A 
ATOM     38  C   UNL A   1      39.839  27.750  27.787  1.00  0.00     0.031 C 
ATOM     39  C   UNL A   1      37.395  31.672  32.911  1.00  0.00     0.029 A 
ATOM     40  C   UNL A   1      38.656  30.993  33.188  1.00  0.00     0.049 A 
ATOM     41  H   UNL A   1      39.762  29.799  31.885  1.00  0.00     0.167 HD
ATOM     42  C   UNL A   1      41.826  27.074  29.109  1.00  0.00     0.034 A 
ATOM     43  C   UNL A   1      39.325  31.031  34.357  1.00  0.00     0.034 A 
ATOM     44  C   UNL A   1      42.655  27.125  30.288  1.00  0.00     0.049 A 
ATOM     45  C   UNL A   1      40.624  30.277  34.475  1.00  0.00     0.074 A 
ATOM     46  C   UNL A   1      43.877  26.516  30.511  1.00  0.00     0.029 A 
ATOM     47  N   UNL A   1      42.347  27.832  31.443  1.00  0.00    -0.354 N 
ATOM     48  N   UNL A   1      41.217  29.508  33.590  1.00  0.00    -0.248 NA
ATOM     49  C   UNL A   1      41.352  30.406  35.744  1.00  0.00     0.031 C 
ATOM     50  C   UNL A   1      44.283  26.812  31.818  1.00  0.00     0.029 A 
ATOM     51  C   UNL A   1      43.347  27.660  32.388  1.00  0.00     0.049 A 
ATOM     52  H   UNL A   1      41.537  28.375  31.573  1.00  0.00     0.167 HD
ATOM     53  C   UNL A   1      42.402  29.089  34.186  1.00  0.00     0.074 A 
ATOM     54  C   UNL A   1      42.446  29.700  35.499  1.00  0.00     0.031 C 
ATOM     55  C   UNL A   1      43.370  28.275  33.694  1.00  0.00     0.034 A 
BRANCH  42  56
ATOM     56  C   UNL A   1      42.242  26.193  27.956  1.00  0.00     0.023 A 
ATOM     57  C   UNL A   1      41.851  24.845  27.881  1.00  0.00     0.031 A 
ATOM     58  C   UNL A   1      43.077  26.692  26.941  1.00  0.00     0.131 A 
ATOM     59  C   UNL A   1      42.362  24.021  26.868  1.00  0.00     0.055 A 
ATOM     60  C   UNL A   1      43.514  25.889  25.886  1.00  0.00     0.041 A 
ATOM     61  F   UNL A   1      43.499  27.966  26.968  1.00  0.00    -0.206 F 
ATOM     62  C   UNL A   1      43.171  24.540  25.855  1.00  0.00     0.022 A 
BRANCH  59  63
ATOM     63  S   UNL A   1      42.077  22.234  26.980  1.00  0.00     0.124 S 
ATOM     64  O   UNL A   1      43.360  21.704  26.521  1.00  0.00    -0.237 OA
ATOM     65  O   UNL A   1      41.780  22.049  28.395  1.00  0.00    -0.237 OA
ATOM     66  O   UNL A   1      40.955  22.008  26.072  1.00  0.00    -0.744 OA
ENDBRANCH  59  63
ENDBRANCH  42  56
BRANCH  43  67
ATOM     67  C   UNL A   1      38.792  31.810  35.511  1.00  0.00     0.023 A 
ATOM     68  C   UNL A   1      38.239  31.161  36.626  1.00  0.00     0.031 A 
ATOM     69  C   UNL A   1      38.788  33.216  35.496  1.00  0.00     0.131 A 
ATOM     70  C   UNL A   1      37.658  31.915  37.658  1.00  0.00     0.055 A 
ATOM     71  C   UNL A   1      38.252  33.963  36.547  1.00  0.00     0.041 A 
ATOM     72  F   UNL A   1      39.315  33.885  34.457  1.00  0.00    -0.206 F 
ATOM     73  C   UNL A   1      37.670  33.312  37.630  1.00  0.00     0.022 A 
BRANCH  70  74
ATOM     74  S   UNL A   1      36.813  31.039  39.002  1.00  0.00     0.124 S 
ATOM     75  O   UNL A   1      35.588  31.820  39.143  1.00  0.00    -0.237 OA
ATOM     76  O   UNL A   1      36.659  29.701  38.441  1.00  0.00    -0.237 OA
ATOM     77  O   UNL A   1      37.751  31.141  40.118  1.00  0.00    -0.744 OA
ENDBRANCH  70  74
ENDBRANCH  43  67
BRANCH  55  78
ATOM     78  C   UNL A   1      44.579  28.048  34.566  1.00  0.00     0.023 A 
ATOM     79  C   UNL A   1      44.647  26.975  35.471  1.00  0.00     0.031 A 
ATOM     80  C   UNL A   1      45.672  28.930  34.496  1.00  0.00     0.131 A 
ATOM     81  C   UNL A   1      45.762  26.841  36.310  1.00  0.00     0.055 A 
ATOM     82  C   UNL A   1      46.802  28.761  35.296  1.00  0.00     0.041 A 
ATOM     83  F   UNL A   1      45.657  29.972  33.650  1.00  0.00    -0.206 F 
ATOM     84  C   UNL A   1      46.847  27.719  36.219  1.00  0.00     0.022 A 
BRANCH  81  85
ATOM     85  S   UNL A   1      45.742  25.552  37.585  1.00  0.00     0.124 S 
ATOM     86  O   UNL A   1      47.129  25.551  38.040  1.00  0.00    -0.237 OA
ATOM     87  O   UNL A   1      44.760  26.066  38.534  1.00  0.00    -0.237 OA
ATOM     88  O   UNL A   1      45.329  24.354  36.856  1.00  0.00    -0.744 OA
ENDBRANCH  81  85
ENDBRANCH  55  78
ENDBRANCH  29  30
ENDBRANCH  21  24
ENDBRANCH  19  20
ENDBRANCH   1  19
TORSDOF 16
ENDMDL
