MODEL 1
REMARK VINA RESULT:     -13.0      0.000      0.000
REMARK SMILES O=C(CCC(=O)Nc1scc2c1c(=O)oc1ccccc12)NCCCCNC(=O)c1ccc(-c2c3nc(c(-c4cc(S(=O)(=O)[O-])ccc4F)c4ccc([nH]4)c(-c4cc(S(=O)(=O)[O-])ccc4F)c4nc(c(-c5cc(S(=O)(=O)[O-])ccc5F)c5ccc2[nH]5)C=C4)C=C3)cc1
REMARK SMILES IDX 24 1 23 2 22 3 1 4 2 5 3 7 4 8 5 9 6 10 7 11 8 13 9 14 12 15
REMARK SMILES IDX 10 16 11 17 13 18 21 19 14 20 15 21 16 22 20 23 17 24 19 25
REMARK SMILES IDX 18 26 25 27 26 28 27 29 28 30 29 32 30 33 31 34 92 35 32 36
REMARK SMILES IDX 91 37 33 38 34 39 35 40 85 41 36 42 90 43 84 44 86 45 37 46
REMARK SMILES IDX 89 47 83 48 82 49 38 51 70 52 50 53 69 54 51 55 54 56 68 57
REMARK SMILES IDX 87 58 52 59 53 60 67 62 88 63 55 64 39 65 40 66 48 67 41 68
REMARK SMILES IDX 47 69 49 70 46 71 42 72 43 73 44 74 45 75 71 76 72 77 80 78
REMARK SMILES IDX 73 79 79 80 81 81 78 82 74 83 75 84 76 85 77 86 56 87 57 88
REMARK SMILES IDX 65 89 58 90 64 91 66 92 63 93 59 94 60 95 61 96 62 97
REMARK H PARENT 22 6 7 12 27 31 86 50 54 61
REMARK Flexibility Score: inf
ROOT
ATOM      1  C   UNL A   1      35.364  21.022  24.844  1.00  0.00     0.023 C 
ENDROOT
BRANCH   1   2
ATOM      2  C   UNL A   1      34.573  21.375  26.079  1.00  0.00     0.116 C 
BRANCH   2   3
ATOM      3  N   UNL A   1      33.159  21.643  25.905  1.00  0.00    -0.356 N 
ATOM      4  O   UNL A   1      32.572  22.573  27.960  1.00  0.00    -0.275 OA
ATOM      5  C   UNL A   1      32.457  22.485  26.743  1.00  0.00     0.220 C 
ATOM      6  H   UNL A   1      32.682  21.208  25.162  1.00  0.00     0.163 HD
BRANCH   5   7
ATOM      7  C   UNL A   1      31.661  23.527  26.008  1.00  0.00     0.110 C 
BRANCH   7   8
ATOM      8  C   UNL A   1      32.120  24.894  26.522  1.00  0.00     0.110 C 
BRANCH   8   9
ATOM      9  C   UNL A   1      33.272  25.410  25.703  1.00  0.00     0.225 C 
ATOM     10  O   UNL A   1      34.327  24.760  25.680  1.00  0.00    -0.275 OA
ATOM     11  N   UNL A   1      33.226  26.518  24.928  1.00  0.00    -0.317 N 
ATOM     12  H   UNL A   1      33.999  26.560  24.321  1.00  0.00     0.170 HD
BRANCH  11  13
ATOM     13  C   UNL A   1      32.398  27.605  24.750  1.00  0.00     0.110 A 
ATOM     14  S   UNL A   1      32.832  28.757  25.973  1.00  0.00    -0.125 S 
ATOM     15  C   UNL A   1      31.328  28.082  24.016  1.00  0.00     0.103 A 
ATOM     16  C   UNL A   1      31.704  29.916  25.437  1.00  0.00     0.076 A 
ATOM     17  C   UNL A   1      31.015  29.458  24.347  1.00  0.00     0.013 A 
ATOM     18  C   UNL A   1      30.308  27.521  23.122  1.00  0.00     0.347 A 
ATOM     19  C   UNL A   1      29.913  30.107  23.642  1.00  0.00     0.026 A 
ATOM     20  O   UNL A   1      29.361  26.856  23.530  1.00  0.00    -0.246 OA
ATOM     21  O   UNL A   1      30.157  28.313  21.991  1.00  0.00    -0.422 OA
ATOM     22  C   UNL A   1      29.482  29.457  22.457  1.00  0.00     0.139 A 
ATOM     23  C   UNL A   1      29.193  31.201  24.111  1.00  0.00     0.012 A 
ATOM     24  C   UNL A   1      28.359  29.877  21.755  1.00  0.00     0.048 A 
ATOM     25  C   UNL A   1      28.060  31.625  23.407  1.00  0.00     0.001 A 
ATOM     26  C   UNL A   1      27.641  30.965  22.243  1.00  0.00     0.004 A 
ENDBRANCH  11  13
ENDBRANCH   8   9
ENDBRANCH   7   8
ENDBRANCH   5   7
ENDBRANCH   2   3
ENDBRANCH   1   2
BRANCH   1  27
ATOM     27  C   UNL A   1      36.417  22.064  24.487  1.00  0.00     0.023 C 
BRANCH  27  28
ATOM     28  C   UNL A   1      37.199  22.652  25.673  1.00  0.00     0.116 C 
BRANCH  28  29
ATOM     29  N   UNL A   1      38.396  21.918  26.034  1.00  0.00    -0.352 N 
ATOM     30  C   UNL A   1      39.477  22.232  26.821  1.00  0.00     0.251 C 
ATOM     31  H   UNL A   1      38.444  21.018  25.638  1.00  0.00     0.163 HD
ATOM     32  O   UNL A   1      40.174  21.284  27.193  1.00  0.00    -0.269 OA
BRANCH  30  33
ATOM     33  C   UNL A   1      39.886  23.621  27.182  1.00  0.00     0.039 A 
ATOM     34  C   UNL A   1      41.107  23.965  27.754  1.00  0.00     0.014 A 
ATOM     35  C   UNL A   1      38.920  24.635  27.027  1.00  0.00     0.014 A 
ATOM     36  C   UNL A   1      41.319  25.238  28.263  1.00  0.00     0.010 A 
ATOM     37  C   UNL A   1      39.143  25.929  27.503  1.00  0.00     0.010 A 
ATOM     38  C   UNL A   1      40.328  26.217  28.167  1.00  0.00    -0.014 A 
BRANCH  38  39
ATOM     39  C   UNL A   1      40.663  27.532  28.712  1.00  0.00     0.031 A 
ATOM     40  C   UNL A   1      41.954  28.099  28.228  1.00  0.00     0.074 A 
ATOM     41  C   UNL A   1      39.910  28.246  29.569  1.00  0.00     0.049 A 
ATOM     42  N   UNL A   1      43.051  28.257  28.895  1.00  0.00    -0.248 NA
ATOM     43  C   UNL A   1      42.072  28.392  26.795  1.00  0.00     0.031 C 
ATOM     44  C   UNL A   1      38.517  28.033  29.962  1.00  0.00     0.029 A 
ATOM     45  N   UNL A   1      40.244  29.398  30.221  1.00  0.00    -0.354 N 
ATOM     46  C   UNL A   1      43.959  28.843  28.014  1.00  0.00     0.074 A 
ATOM     47  C   UNL A   1      43.347  28.771  26.708  1.00  0.00     0.031 C 
ATOM     48  C   UNL A   1      38.063  29.140  30.595  1.00  0.00     0.029 A 
ATOM     49  C   UNL A   1      39.172  30.060  30.795  1.00  0.00     0.049 A 
ATOM     50  H   UNL A   1      41.169  29.730  30.278  1.00  0.00     0.167 HD
ATOM     51  C   UNL A   1      45.070  29.501  28.450  1.00  0.00     0.034 A 
ATOM     52  C   UNL A   1      39.179  31.302  31.339  1.00  0.00     0.034 A 
ATOM     53  C   UNL A   1      45.367  29.190  29.823  1.00  0.00     0.049 A 
ATOM     54  C   UNL A   1      40.573  31.652  31.698  1.00  0.00     0.074 A 
ATOM     55  C   UNL A   1      45.693  28.040  30.514  1.00  0.00     0.029 A 
ATOM     56  N   UNL A   1      45.020  30.111  30.782  1.00  0.00    -0.354 N 
ATOM     57  N   UNL A   1      41.234  31.110  32.681  1.00  0.00    -0.248 NA
ATOM     58  C   UNL A   1      41.382  32.331  30.699  1.00  0.00     0.031 C 
ATOM     59  C   UNL A   1      45.062  28.179  31.784  1.00  0.00     0.029 A 
ATOM     60  C   UNL A   1      44.429  29.424  31.810  1.00  0.00     0.049 A 
ATOM     61  H   UNL A   1      45.170  31.082  30.739  1.00  0.00     0.167 HD
ATOM     62  C   UNL A   1      42.519  30.959  32.186  1.00  0.00     0.074 A 
ATOM     63  C   UNL A   1      42.580  31.836  31.018  1.00  0.00     0.031 C 
ATOM     64  C   UNL A   1      43.323  29.933  32.596  1.00  0.00     0.034 A 
BRANCH  51  65
ATOM     65  C   UNL A   1      45.703  30.667  27.727  1.00  0.00     0.023 A 
ATOM     66  C   UNL A   1      44.952  31.595  26.980  1.00  0.00     0.031 A 
ATOM     67  C   UNL A   1      47.050  31.016  27.959  1.00  0.00     0.131 A 
ATOM     68  C   UNL A   1      45.517  32.781  26.496  1.00  0.00     0.055 A 
ATOM     69  C   UNL A   1      47.597  32.234  27.535  1.00  0.00     0.041 A 
ATOM     70  F   UNL A   1      47.862  30.210  28.663  1.00  0.00    -0.206 F 
ATOM     71  C   UNL A   1      46.828  33.127  26.800  1.00  0.00     0.022 A 
BRANCH  68  72
ATOM     72  S   UNL A   1      44.533  33.907  25.470  1.00  0.00     0.124 S 
ATOM     73  O   UNL A   1      45.563  34.566  24.676  1.00  0.00    -0.237 OA
ATOM     74  O   UNL A   1      43.675  32.973  24.746  1.00  0.00    -0.237 OA
ATOM     75  O   UNL A   1      43.845  34.744  26.448  1.00  0.00    -0.744 OA
ENDBRANCH  68  72
ENDBRANCH  51  65
BRANCH  52  76
ATOM     76  C   UNL A   1      38.157  32.351  31.125  1.00  0.00     0.023 A 
ATOM     77  C   UNL A   1      37.367  32.778  32.208  1.00  0.00     0.031 A 
ATOM     78  C   UNL A   1      37.723  32.689  29.831  1.00  0.00     0.131 A 
ATOM     79  C   UNL A   1      36.163  33.456  31.984  1.00  0.00     0.055 A 
ATOM     80  C   UNL A   1      36.529  33.384  29.610  1.00  0.00     0.041 A 
ATOM     81  F   UNL A   1      38.413  32.283  28.754  1.00  0.00    -0.206 F 
ATOM     82  C   UNL A   1      35.734  33.757  30.690  1.00  0.00     0.022 A 
BRANCH  79  83
ATOM     83  S   UNL A   1      35.084  33.880  33.378  1.00  0.00     0.124 S 
ATOM     84  O   UNL A   1      33.774  33.447  32.898  1.00  0.00    -0.237 OA
ATOM     85  O   UNL A   1      35.658  33.078  34.452  1.00  0.00    -0.237 OA
ATOM     86  O   UNL A   1      35.245  35.326  33.508  1.00  0.00    -0.744 OA
ENDBRANCH  79  83
ENDBRANCH  52  76
BRANCH  64  87
ATOM     87  C   UNL A   1      42.902  29.100  33.790  1.00  0.00     0.023 A 
ATOM     88  C   UNL A   1      43.630  29.262  34.982  1.00  0.00     0.031 A 
ATOM     89  C   UNL A   1      41.970  28.045  33.742  1.00  0.00     0.131 A 
ATOM     90  C   UNL A   1      43.440  28.385  36.058  1.00  0.00     0.055 A 
ATOM     91  C   UNL A   1      41.730  27.216  34.844  1.00  0.00     0.041 A 
ATOM     92  F   UNL A   1      41.322  27.727  32.613  1.00  0.00    -0.206 F 
ATOM     93  C   UNL A   1      42.478  27.374  36.004  1.00  0.00     0.022 A 
BRANCH  90  94
ATOM     94  S   UNL A   1      44.545  28.442  37.492  1.00  0.00     0.124 S 
ATOM     95  O   UNL A   1      45.862  28.330  36.872  1.00  0.00    -0.237 OA
ATOM     96  O   UNL A   1      44.235  29.747  38.073  1.00  0.00    -0.237 OA
ATOM     97  O   UNL A   1      44.135  27.297  38.300  1.00  0.00    -0.744 OA
ENDBRANCH  90  94
ENDBRANCH  64  87
ENDBRANCH  38  39
ENDBRANCH  30  33
ENDBRANCH  28  29
ENDBRANCH  27  28
ENDBRANCH   1  27
TORSDOF 17
ENDMDL
MODEL 2
REMARK VINA RESULT:     -12.8      3.162      9.006
REMARK SMILES O=C(CCC(=O)Nc1scc2c1c(=O)oc1ccccc12)NCCCCNC(=O)c1ccc(-c2c3nc(c(-c4cc(S(=O)(=O)[O-])ccc4F)c4ccc([nH]4)c(-c4cc(S(=O)(=O)[O-])ccc4F)c4nc(c(-c5cc(S(=O)(=O)[O-])ccc5F)c5ccc2[nH]5)C=C4)C=C3)cc1
REMARK SMILES IDX 24 1 23 2 22 3 1 4 2 5 3 7 4 8 5 9 6 10 7 11 8 13 9 14 12 15
REMARK SMILES IDX 10 16 11 17 13 18 21 19 14 20 15 21 16 22 20 23 17 24 19 25
REMARK SMILES IDX 18 26 25 27 26 28 27 29 28 30 29 32 30 33 31 34 92 35 32 36
REMARK SMILES IDX 91 37 33 38 34 39 35 40 85 41 36 42 90 43 84 44 86 45 37 46
REMARK SMILES IDX 89 47 83 48 82 49 38 51 70 52 50 53 69 54 51 55 54 56 68 57
REMARK SMILES IDX 87 58 52 59 53 60 67 62 88 63 55 64 39 65 40 66 48 67 41 68
REMARK SMILES IDX 47 69 49 70 46 71 42 72 43 73 44 74 45 75 71 76 72 77 80 78
REMARK SMILES IDX 73 79 79 80 81 81 78 82 74 83 75 84 76 85 77 86 56 87 57 88
REMARK SMILES IDX 65 89 58 90 64 91 66 92 63 93 59 94 60 95 61 96 62 97
REMARK H PARENT 22 6 7 12 27 31 86 50 54 61
REMARK Flexibility Score: inf
ROOT
ATOM      1  C   UNL A   1      32.083  30.519  26.565  1.00  0.00     0.023 C 
ENDROOT
BRANCH   1   2
ATOM      2  C   UNL A   1      32.157  29.469  25.484  1.00  0.00     0.116 C 
BRANCH   2   3
ATOM      3  N   UNL A   1      31.267  29.624  24.349  1.00  0.00    -0.356 N 
ATOM      4  O   UNL A   1      32.566  28.827  22.585  1.00  0.00    -0.275 OA
ATOM      5  C   UNL A   1      31.487  28.989  23.144  1.00  0.00     0.220 C 
ATOM      6  H   UNL A   1      30.477  30.205  24.442  1.00  0.00     0.163 HD
BRANCH   5   7
ATOM      7  C   UNL A   1      30.283  28.247  22.635  1.00  0.00     0.110 C 
BRANCH   7   8
ATOM      8  C   UNL A   1      30.569  26.752  22.800  1.00  0.00     0.110 C 
BRANCH   8   9
ATOM      9  C   UNL A   1      29.732  26.169  23.906  1.00  0.00     0.225 C 
ATOM     10  O   UNL A   1      28.665  26.725  24.204  1.00  0.00    -0.275 OA
ATOM     11  N   UNL A   1      30.030  25.030  24.574  1.00  0.00    -0.317 N 
ATOM     12  H   UNL A   1      29.259  24.715  25.099  1.00  0.00     0.170 HD
BRANCH  11  13
ATOM     13  C   UNL A   1      31.109  24.187  24.723  1.00  0.00     0.110 A 
ATOM     14  S   UNL A   1      30.639  22.992  25.891  1.00  0.00    -0.125 S 
ATOM     15  C   UNL A   1      32.423  23.982  24.346  1.00  0.00     0.103 A 
ATOM     16  C   UNL A   1      32.115  22.148  25.783  1.00  0.00     0.076 A 
ATOM     17  C   UNL A   1      32.950  22.740  24.875  1.00  0.00     0.013 A 
ATOM     18  C   UNL A   1      33.487  24.764  23.705  1.00  0.00     0.347 A 
ATOM     19  C   UNL A   1      34.327  22.377  24.551  1.00  0.00     0.026 A 
ATOM     20  O   UNL A   1      34.095  25.657  24.284  1.00  0.00    -0.246 OA
ATOM     21  O   UNL A   1      34.133  24.009  22.733  1.00  0.00    -0.422 OA
ATOM     22  C   UNL A   1      34.903  23.087  23.465  1.00  0.00     0.139 A 
ATOM     23  C   UNL A   1      35.127  21.516  25.294  1.00  0.00     0.012 A 
ATOM     24  C   UNL A   1      36.244  22.951  23.128  1.00  0.00     0.048 A 
ATOM     25  C   UNL A   1      36.479  21.378  24.957  1.00  0.00     0.001 A 
ATOM     26  C   UNL A   1      37.035  22.095  23.888  1.00  0.00     0.004 A 
ENDBRANCH  11  13
ENDBRANCH   8   9
ENDBRANCH   7   8
ENDBRANCH   5   7
ENDBRANCH   2   3
ENDBRANCH   1   2
BRANCH   1  27
ATOM     27  C   UNL A   1      33.386  30.676  27.338  1.00  0.00     0.023 C 
BRANCH  27  28
ATOM     28  C   UNL A   1      33.815  32.124  27.631  1.00  0.00     0.116 C 
BRANCH  28  29
ATOM     29  N   UNL A   1      33.960  32.440  29.039  1.00  0.00    -0.352 N 
ATOM     30  C   UNL A   1      35.018  32.340  29.909  1.00  0.00     0.251 C 
ATOM     31  H   UNL A   1      33.141  32.796  29.452  1.00  0.00     0.163 HD
ATOM     32  O   UNL A   1      34.925  32.986  30.956  1.00  0.00    -0.269 OA
BRANCH  30  33
ATOM     33  C   UNL A   1      36.207  31.464  29.699  1.00  0.00     0.039 A 
ATOM     34  C   UNL A   1      36.164  30.075  29.609  1.00  0.00     0.014 A 
ATOM     35  C   UNL A   1      37.471  32.087  29.698  1.00  0.00     0.014 A 
ATOM     36  C   UNL A   1      37.331  29.326  29.639  1.00  0.00     0.010 A 
ATOM     37  C   UNL A   1      38.650  31.338  29.689  1.00  0.00     0.010 A 
ATOM     38  C   UNL A   1      38.578  29.951  29.708  1.00  0.00    -0.014 A 
BRANCH  38  39
ATOM     39  C   UNL A   1      39.744  29.070  29.708  1.00  0.00     0.031 A 
ATOM     40  C   UNL A   1      40.232  28.677  31.061  1.00  0.00     0.074 A 
ATOM     41  C   UNL A   1      40.371  28.591  28.617  1.00  0.00     0.049 A 
ATOM     42  N   UNL A   1      41.320  29.052  31.652  1.00  0.00    -0.248 NA
ATOM     43  C   UNL A   1      39.329  27.886  31.904  1.00  0.00     0.031 C 
ATOM     44  C   UNL A   1      39.928  28.608  27.223  1.00  0.00     0.029 A 
ATOM     45  N   UNL A   1      41.545  27.896  28.561  1.00  0.00    -0.354 N 
ATOM     46  C   UNL A   1      41.336  28.399  32.883  1.00  0.00     0.074 A 
ATOM     47  C   UNL A   1      40.026  27.812  33.038  1.00  0.00     0.031 C 
ATOM     48  C   UNL A   1      40.701  27.763  26.503  1.00  0.00     0.029 A 
ATOM     49  C   UNL A   1      41.784  27.279  27.344  1.00  0.00     0.049 A 
ATOM     50  H   UNL A   1      42.168  27.839  29.321  1.00  0.00     0.167 HD
ATOM     51  C   UNL A   1      42.482  28.242  33.605  1.00  0.00     0.034 A 
ATOM     52  C   UNL A   1      42.765  26.386  27.065  1.00  0.00     0.034 A 
ATOM     53  C   UNL A   1      43.524  29.122  33.147  1.00  0.00     0.049 A 
ATOM     54  C   UNL A   1      43.844  26.538  28.068  1.00  0.00     0.074 A 
ATOM     55  C   UNL A   1      43.679  30.492  33.070  1.00  0.00     0.029 A 
ATOM     56  N   UNL A   1      44.510  28.593  32.350  1.00  0.00    -0.354 N 
ATOM     57  N   UNL A   1      44.653  27.558  28.126  1.00  0.00    -0.248 NA
ATOM     58  C   UNL A   1      43.767  25.734  29.276  1.00  0.00     0.031 C 
ATOM     59  C   UNL A   1      44.415  30.714  31.871  1.00  0.00     0.029 A 
ATOM     60  C   UNL A   1      44.706  29.468  31.312  1.00  0.00     0.049 A 
ATOM     61  H   UNL A   1      44.987  27.746  32.497  1.00  0.00     0.167 HD
ATOM     62  C   UNL A   1      44.803  27.800  29.480  1.00  0.00     0.074 A 
ATOM     63  C   UNL A   1      44.341  26.578  30.137  1.00  0.00     0.031 C 
ATOM     64  C   UNL A   1      45.022  29.062  29.958  1.00  0.00     0.034 A 
BRANCH  51  65
ATOM     65  C   UNL A   1      42.754  27.068  34.518  1.00  0.00     0.023 A 
ATOM     66  C   UNL A   1      43.511  25.953  34.114  1.00  0.00     0.031 A 
ATOM     67  C   UNL A   1      42.458  27.142  35.895  1.00  0.00     0.131 A 
ATOM     68  C   UNL A   1      43.932  24.979  35.028  1.00  0.00     0.055 A 
ATOM     69  C   UNL A   1      42.939  26.205  36.820  1.00  0.00     0.041 A 
ATOM     70  F   UNL A   1      41.746  28.163  36.397  1.00  0.00    -0.206 F 
ATOM     71  C   UNL A   1      43.683  25.115  36.388  1.00  0.00     0.022 A 
BRANCH  68  72
ATOM     72  S   UNL A   1      44.837  23.517  34.450  1.00  0.00     0.124 S 
ATOM     73  O   UNL A   1      44.637  23.591  33.008  1.00  0.00    -0.237 OA
ATOM     74  O   UNL A   1      46.190  23.804  34.918  1.00  0.00    -0.237 OA
ATOM     75  O   UNL A   1      44.171  22.413  35.133  1.00  0.00    -0.744 OA
ENDBRANCH  68  72
ENDBRANCH  51  65
BRANCH  52  76
ATOM     76  C   UNL A   1      42.604  25.130  26.299  1.00  0.00     0.023 A 
ATOM     77  C   UNL A   1      41.644  24.187  26.710  1.00  0.00     0.031 A 
ATOM     78  C   UNL A   1      43.589  24.700  25.392  1.00  0.00     0.131 A 
ATOM     79  C   UNL A   1      41.721  22.859  26.275  1.00  0.00     0.055 A 
ATOM     80  C   UNL A   1      43.653  23.376  24.943  1.00  0.00     0.041 A 
ATOM     81  F   UNL A   1      44.553  25.540  24.987  1.00  0.00    -0.206 F 
ATOM     82  C   UNL A   1      42.725  22.444  25.398  1.00  0.00     0.022 A 
BRANCH  79  83
ATOM     83  S   UNL A   1      40.563  21.621  26.919  1.00  0.00     0.124 S 
ATOM     84  O   UNL A   1      39.267  22.227  26.624  1.00  0.00    -0.237 OA
ATOM     85  O   UNL A   1      40.906  20.450  26.120  1.00  0.00    -0.237 OA
ATOM     86  O   UNL A   1      40.899  21.544  28.338  1.00  0.00    -0.744 OA
ENDBRANCH  79  83
ENDBRANCH  52  76
BRANCH  64  87
ATOM     87  C   UNL A   1      45.358  30.170  28.981  1.00  0.00     0.023 A 
ATOM     88  C   UNL A   1      46.716  30.495  28.810  1.00  0.00     0.031 A 
ATOM     89  C   UNL A   1      44.411  31.024  28.382  1.00  0.00     0.131 A 
ATOM     90  C   UNL A   1      47.091  31.637  28.091  1.00  0.00     0.055 A 
ATOM     91  C   UNL A   1      44.791  32.123  27.602  1.00  0.00     0.041 A 
ATOM     92  F   UNL A   1      43.096  30.877  28.592  1.00  0.00    -0.206 F 
ATOM     93  C   UNL A   1      46.136  32.443  27.467  1.00  0.00     0.022 A 
BRANCH  90  94
ATOM     94  S   UNL A   1      48.817  32.187  28.079  1.00  0.00     0.124 S 
ATOM     95  O   UNL A   1      49.307  31.694  29.363  1.00  0.00    -0.237 OA
ATOM     96  O   UNL A   1      49.353  31.505  26.901  1.00  0.00    -0.237 OA
ATOM     97  O   UNL A   1      48.725  33.638  27.960  1.00  0.00    -0.744 OA
ENDBRANCH  90  94
ENDBRANCH  64  87
ENDBRANCH  38  39
ENDBRANCH  30  33
ENDBRANCH  28  29
ENDBRANCH  27  28
ENDBRANCH   1  27
TORSDOF 17
ENDMDL
MODEL 3
REMARK VINA RESULT:     -12.8      2.504      3.200
REMARK SMILES O=C(CCC(=O)Nc1scc2c1c(=O)oc1ccccc12)NCCCCNC(=O)c1ccc(-c2c3nc(c(-c4cc(S(=O)(=O)[O-])ccc4F)c4ccc([nH]4)c(-c4cc(S(=O)(=O)[O-])ccc4F)c4nc(c(-c5cc(S(=O)(=O)[O-])ccc5F)c5ccc2[nH]5)C=C4)C=C3)cc1
REMARK SMILES IDX 24 1 23 2 22 3 1 4 2 5 3 7 4 8 5 9 6 10 7 11 8 13 9 14 12 15
REMARK SMILES IDX 10 16 11 17 13 18 21 19 14 20 15 21 16 22 20 23 17 24 19 25
REMARK SMILES IDX 18 26 25 27 26 28 27 29 28 30 29 32 30 33 31 34 92 35 32 36
REMARK SMILES IDX 91 37 33 38 34 39 35 40 85 41 36 42 90 43 84 44 86 45 37 46
REMARK SMILES IDX 89 47 83 48 82 49 38 51 70 52 50 53 69 54 51 55 54 56 68 57
REMARK SMILES IDX 87 58 52 59 53 60 67 62 88 63 55 64 39 65 40 66 48 67 41 68
REMARK SMILES IDX 47 69 49 70 46 71 42 72 43 73 44 74 45 75 71 76 72 77 80 78
REMARK SMILES IDX 73 79 79 80 81 81 78 82 74 83 75 84 76 85 77 86 56 87 57 88
REMARK SMILES IDX 65 89 58 90 64 91 66 92 63 93 59 94 60 95 61 96 62 97
REMARK H PARENT 22 6 7 12 27 31 86 50 54 61
REMARK Flexibility Score: inf
ROOT
ATOM      1  C   UNL A   1      38.238  23.382  26.188  1.00  0.00     0.023 C 
ENDROOT
BRANCH   1   2
ATOM      2  C   UNL A   1      36.746  23.399  25.959  1.00  0.00     0.116 C 
BRANCH   2   3
ATOM      3  N   UNL A   1      36.143  22.189  25.437  1.00  0.00    -0.356 N 
ATOM      4  O   UNL A   1      34.135  22.085  26.616  1.00  0.00    -0.275 OA
ATOM      5  C   UNL A   1      34.805  21.896  25.607  1.00  0.00     0.220 C 
ATOM      6  H   UNL A   1      36.709  21.552  24.943  1.00  0.00     0.163 HD
BRANCH   5   7
ATOM      7  C   UNL A   1      34.110  21.528  24.327  1.00  0.00     0.110 C 
BRANCH   7   8
ATOM      8  C   UNL A   1      32.654  21.986  24.455  1.00  0.00     0.110 C 
BRANCH   8   9
ATOM      9  C   UNL A   1      32.066  22.273  23.100  1.00  0.00     0.225 C 
ATOM     10  O   UNL A   1      31.949  21.342  22.290  1.00  0.00    -0.275 OA
ATOM     11  N   UNL A   1      31.592  23.479  22.711  1.00  0.00    -0.317 N 
ATOM     12  H   UNL A   1      31.066  23.403  21.883  1.00  0.00     0.170 HD
BRANCH  11  13
ATOM     13  C   UNL A   1      31.639  24.785  23.149  1.00  0.00     0.110 A 
ATOM     14  S   UNL A   1      31.780  25.774  21.730  1.00  0.00    -0.125 S 
ATOM     15  C   UNL A   1      31.682  25.579  24.280  1.00  0.00     0.103 A 
ATOM     16  C   UNL A   1      31.758  27.232  22.611  1.00  0.00     0.076 A 
ATOM     17  C   UNL A   1      31.635  26.990  23.952  1.00  0.00     0.013 A 
ATOM     18  C   UNL A   1      31.944  25.390  25.712  1.00  0.00     0.347 A 
ATOM     19  C   UNL A   1      31.659  27.957  25.046  1.00  0.00     0.026 A 
ATOM     20  O   UNL A   1      33.067  25.190  26.161  1.00  0.00    -0.246 OA
ATOM     21  O   UNL A   1      31.008  26.077  26.476  1.00  0.00    -0.422 OA
ATOM     22  C   UNL A   1      31.368  27.429  26.330  1.00  0.00     0.139 A 
ATOM     23  C   UNL A   1      32.068  29.282  24.937  1.00  0.00     0.012 A 
ATOM     24  C   UNL A   1      31.488  28.196  27.483  1.00  0.00     0.048 A 
ATOM     25  C   UNL A   1      32.190  30.056  26.098  1.00  0.00     0.001 A 
ATOM     26  C   UNL A   1      31.910  29.516  27.361  1.00  0.00     0.004 A 
ENDBRANCH  11  13
ENDBRANCH   8   9
ENDBRANCH   7   8
ENDBRANCH   5   7
ENDBRANCH   2   3
ENDBRANCH   1   2
BRANCH   1  27
ATOM     27  C   UNL A   1      38.868  22.018  25.936  1.00  0.00     0.023 C 
BRANCH  27  28
ATOM     28  C   UNL A   1      39.992  21.616  26.904  1.00  0.00     0.116 C 
BRANCH  28  29
ATOM     29  N   UNL A   1      41.322  21.623  26.326  1.00  0.00    -0.352 N 
ATOM     30  C   UNL A   1      42.392  22.472  26.468  1.00  0.00     0.251 C 
ATOM     31  H   UNL A   1      41.491  20.873  25.711  1.00  0.00     0.163 HD
ATOM     32  O   UNL A   1      43.486  22.035  26.099  1.00  0.00    -0.269 OA
BRANCH  30  33
ATOM     33  C   UNL A   1      42.300  23.876  26.963  1.00  0.00     0.039 A 
ATOM     34  C   UNL A   1      42.839  24.332  28.163  1.00  0.00     0.014 A 
ATOM     35  C   UNL A   1      41.519  24.772  26.207  1.00  0.00     0.014 A 
ATOM     36  C   UNL A   1      42.518  25.589  28.653  1.00  0.00     0.010 A 
ATOM     37  C   UNL A   1      41.224  26.054  26.678  1.00  0.00     0.010 A 
ATOM     38  C   UNL A   1      41.686  26.445  27.929  1.00  0.00    -0.014 A 
BRANCH  38  39
ATOM     39  C   UNL A   1      41.432  27.756  28.523  1.00  0.00     0.031 A 
ATOM     40  C   UNL A   1      42.323  28.847  28.035  1.00  0.00     0.074 A 
ATOM     41  C   UNL A   1      40.475  28.041  29.426  1.00  0.00     0.049 A 
ATOM     42  N   UNL A   1      43.265  29.451  28.685  1.00  0.00    -0.248 NA
ATOM     43  C   UNL A   1      42.244  29.204  26.614  1.00  0.00     0.031 C 
ATOM     44  C   UNL A   1      39.333  27.226  29.840  1.00  0.00     0.029 A 
ATOM     45  N   UNL A   1      40.296  29.203  30.120  1.00  0.00    -0.354 N 
ATOM     46  C   UNL A   1      43.789  30.402  27.810  1.00  0.00     0.074 A 
ATOM     47  C   UNL A   1      43.220  30.107  26.516  1.00  0.00     0.031 C 
ATOM     48  C   UNL A   1      38.465  28.001  30.531  1.00  0.00     0.029 A 
ATOM     49  C   UNL A   1      39.065  29.309  30.746  1.00  0.00     0.049 A 
ATOM     50  H   UNL A   1      40.983  29.905  30.172  1.00  0.00     0.167 HD
ATOM     51  C   UNL A   1      44.516  31.468  28.249  1.00  0.00     0.034 A 
ATOM     52  C   UNL A   1      38.549  30.411  31.343  1.00  0.00     0.034 A 
ATOM     53  C   UNL A   1      44.972  31.280  29.601  1.00  0.00     0.049 A 
ATOM     54  C   UNL A   1      39.660  31.328  31.687  1.00  0.00     0.074 A 
ATOM     55  C   UNL A   1      45.796  30.370  30.234  1.00  0.00     0.029 A 
ATOM     56  N   UNL A   1      44.294  31.926  30.606  1.00  0.00    -0.354 N 
ATOM     57  N   UNL A   1      40.530  31.103  32.630  1.00  0.00    -0.248 NA
ATOM     58  C   UNL A   1      40.050  32.322  30.701  1.00  0.00     0.031 C 
ATOM     59  C   UNL A   1      45.217  30.180  31.522  1.00  0.00     0.029 A 
ATOM     60  C   UNL A   1      44.104  31.018  31.616  1.00  0.00     0.049 A 
ATOM     61  H   UNL A   1      44.001  32.865  30.602  1.00  0.00     0.167 HD
ATOM     62  C   UNL A   1      41.731  31.546  32.101  1.00  0.00     0.074 A 
ATOM     63  C   UNL A   1      41.355  32.395  30.971  1.00  0.00     0.031 C 
ATOM     64  C   UNL A   1      42.919  30.966  32.447  1.00  0.00     0.034 A 
BRANCH  51  65
ATOM     65  C   UNL A   1      44.544  32.815  27.564  1.00  0.00     0.023 A 
ATOM     66  C   UNL A   1      43.681  33.867  27.922  1.00  0.00     0.031 A 
ATOM     67  C   UNL A   1      45.597  33.157  26.689  1.00  0.00     0.131 A 
ATOM     68  C   UNL A   1      43.859  35.166  27.430  1.00  0.00     0.055 A 
ATOM     69  C   UNL A   1      45.816  34.470  26.252  1.00  0.00     0.041 A 
ATOM     70  F   UNL A   1      46.485  32.236  26.281  1.00  0.00    -0.206 F 
ATOM     71  C   UNL A   1      44.945  35.485  26.624  1.00  0.00     0.022 A 
BRANCH  68  72
ATOM     72  S   UNL A   1      42.675  36.473  27.855  1.00  0.00     0.124 S 
ATOM     73  O   UNL A   1      41.557  35.703  28.387  1.00  0.00    -0.237 OA
ATOM     74  O   UNL A   1      43.432  37.249  28.833  1.00  0.00    -0.237 OA
ATOM     75  O   UNL A   1      42.440  37.146  26.582  1.00  0.00    -0.744 OA
ENDBRANCH  68  72
ENDBRANCH  51  65
BRANCH  52  76
ATOM     76  C   UNL A   1      37.163  30.909  31.198  1.00  0.00     0.023 A 
ATOM     77  C   UNL A   1      36.630  31.106  29.911  1.00  0.00     0.031 A 
ATOM     78  C   UNL A   1      36.487  31.503  32.278  1.00  0.00     0.131 A 
ATOM     79  C   UNL A   1      35.507  31.921  29.724  1.00  0.00     0.055 A 
ATOM     80  C   UNL A   1      35.353  32.302  32.091  1.00  0.00     0.041 A 
ATOM     81  F   UNL A   1      36.962  31.382  33.527  1.00  0.00    -0.206 F 
ATOM     82  C   UNL A   1      34.868  32.527  30.807  1.00  0.00     0.022 A 
BRANCH  79  83
ATOM     83  S   UNL A   1      34.911  32.281  28.050  1.00  0.00     0.124 S 
ATOM     84  O   UNL A   1      35.773  33.389  27.646  1.00  0.00    -0.237 OA
ATOM     85  O   UNL A   1      35.155  31.014  27.369  1.00  0.00    -0.237 OA
ATOM     86  O   UNL A   1      33.508  32.634  28.254  1.00  0.00    -0.744 OA
ENDBRANCH  79  83
ENDBRANCH  52  76
BRANCH  64  87
ATOM     87  C   UNL A   1      42.952  29.999  33.613  1.00  0.00     0.023 A 
ATOM     88  C   UNL A   1      43.644  30.401  34.770  1.00  0.00     0.031 A 
ATOM     89  C   UNL A   1      42.514  28.661  33.556  1.00  0.00     0.131 A 
ATOM     90  C   UNL A   1      43.898  29.488  35.802  1.00  0.00     0.055 A 
ATOM     91  C   UNL A   1      42.705  27.771  34.621  1.00  0.00     0.041 A 
ATOM     92  F   UNL A   1      41.963  28.146  32.450  1.00  0.00    -0.206 F 
ATOM     93  C   UNL A   1      43.413  28.180  35.745  1.00  0.00     0.022 A 
BRANCH  90  94
ATOM     94  S   UNL A   1      44.993  29.937  37.173  1.00  0.00     0.124 S 
ATOM     95  O   UNL A   1      46.129  29.043  36.966  1.00  0.00    -0.237 OA
ATOM     96  O   UNL A   1      45.255  31.351  36.914  1.00  0.00    -0.237 OA
ATOM     97  O   UNL A   1      44.195  29.668  38.366  1.00  0.00    -0.744 OA
ENDBRANCH  90  94
ENDBRANCH  64  87
ENDBRANCH  38  39
ENDBRANCH  30  33
ENDBRANCH  28  29
ENDBRANCH  27  28
ENDBRANCH   1  27
TORSDOF 17
ENDMDL
