MODEL 1
REMARK VINA RESULT:     -12.4      0.000      0.000
REMARK SMILES C[C@@H](Sc1nc(C[NH+]2CCCC2)nc2ccccc12)C(=O)NCCCCNC(=O)c1ccc(-c2c3nc(c(-c4cc(S(=O)(=O)[O-])ccc4F)c4ccc([nH]4)c(-c4cc(S(=O)(=O)[O-])ccc4F)c4nc(c(-c5cc(S(=O)(=O)[O-])ccc5F)c5ccc2[nH]5)C=C4)C=C3)cc1
REMARK SMILES IDX 24 1 23 2 22 3 20 4 21 5 2 7 1 8 3 9 4 10 5 11 19 12 6 13
REMARK SMILES IDX 14 14 18 15 13 16 15 17 17 18 16 19 7 20 8 21 9 22 12 23
REMARK SMILES IDX 10 25 11 26 25 27 26 28 27 29 28 30 29 32 30 33 31 34 92 35
REMARK SMILES IDX 32 36 91 37 33 38 34 39 35 40 85 41 36 42 90 43 84 44 86 45
REMARK SMILES IDX 37 46 89 47 83 48 82 49 38 51 70 52 50 53 69 54 51 55 54 56
REMARK SMILES IDX 68 57 87 58 52 59 53 60 67 62 88 63 55 64 39 65 40 66 48 67
REMARK SMILES IDX 41 68 47 69 49 70 46 71 42 72 43 73 44 74 45 75 71 76 72 77
REMARK SMILES IDX 80 78 73 79 79 80 81 81 78 82 74 83 75 84 76 85 77 86 56 87
REMARK SMILES IDX 57 88 65 89 58 90 64 91 66 92 63 93 59 94 60 95 61 96 62 97
REMARK H PARENT 22 6 8 24 27 31 86 50 54 61
REMARK Flexibility Score: inf
ROOT
ATOM      1  C   UNL A   1      31.778  28.089  27.095  1.00  0.00     0.023 C 
ENDROOT
BRANCH   1   2
ATOM      2  C   UNL A   1      31.249  26.676  26.868  1.00  0.00     0.116 C 
BRANCH   2   3
ATOM      3  N   UNL A   1      30.672  26.491  25.546  1.00  0.00    -0.355 N 
ATOM      4  C   UNL A   1      30.573  25.346  24.799  1.00  0.00     0.233 C 
ATOM      5  O   UNL A   1      29.974  25.395  23.722  1.00  0.00    -0.274 OA
ATOM      6  H   UNL A   1      30.302  27.303  25.128  1.00  0.00     0.163 HD
BRANCH   4   7
ATOM      7  C   UNL A   1      31.225  24.044  25.276  1.00  0.00     0.139 C 
ATOM      8  C   UNL A   1      30.329  23.388  26.322  1.00  0.00     0.030 C 
BRANCH   7   9
ATOM      9  S   UNL A   1      31.681  23.065  23.777  1.00  0.00    -0.093 SA
BRANCH   9  10
ATOM     10  C   UNL A   1      32.841  21.871  24.420  1.00  0.00     0.109 A 
ATOM     11  N   UNL A   1      32.289  20.704  24.808  1.00  0.00    -0.220 NA
ATOM     12  C   UNL A   1      34.226  22.086  24.354  1.00  0.00     0.033 A 
ATOM     13  C   UNL A   1      33.131  19.721  25.170  1.00  0.00     0.185 A 
ATOM     14  C   UNL A   1      35.000  20.985  24.737  1.00  0.00     0.075 A 
ATOM     15  C   UNL A   1      34.873  23.276  23.923  1.00  0.00     0.013 A 
ATOM     16  N   UNL A   1      34.471  19.831  25.154  1.00  0.00    -0.227 NA
ATOM     17  C   UNL A   1      36.385  21.087  24.662  1.00  0.00     0.029 A 
ATOM     18  C   UNL A   1      36.262  23.355  23.864  1.00  0.00     0.001 A 
ATOM     19  C   UNL A   1      37.021  22.253  24.228  1.00  0.00     0.002 A 
BRANCH  13  20
ATOM     20  C   UNL A   1      32.535  18.387  25.606  1.00  0.00     0.340 C 
BRANCH  20  21
ATOM     21  N   UNL A   1      32.366  17.312  24.600  1.00  0.00    -0.329 N 
ATOM     22  C   UNL A   1      33.097  16.087  24.921  1.00  0.00     0.262 C 
ATOM     23  C   UNL A   1      32.753  17.704  23.242  1.00  0.00     0.262 C 
ATOM     24  H   UNL A   1      31.363  17.135  24.635  1.00  0.00     0.348 HD
ATOM     25  C   UNL A   1      34.384  16.157  24.124  1.00  0.00     0.067 C 
ATOM     26  C   UNL A   1      34.030  16.952  22.888  1.00  0.00     0.067 C 
ENDBRANCH  20  21
ENDBRANCH  13  20
ENDBRANCH   9  10
ENDBRANCH   7   9
ENDBRANCH   4   7
ENDBRANCH   2   3
ENDBRANCH   1   2
BRANCH   1  27
ATOM     27  C   UNL A   1      31.585  29.038  25.920  1.00  0.00     0.023 C 
BRANCH  27  28
ATOM     28  C   UNL A   1      32.663  30.103  25.773  1.00  0.00     0.116 C 
BRANCH  28  29
ATOM     29  N   UNL A   1      32.258  31.408  26.275  1.00  0.00    -0.352 N 
ATOM     30  C   UNL A   1      32.887  32.196  27.214  1.00  0.00     0.251 C 
ATOM     31  H   UNL A   1      31.428  31.775  25.896  1.00  0.00     0.163 HD
ATOM     32  O   UNL A   1      32.366  33.225  27.609  1.00  0.00    -0.269 OA
BRANCH  30  33
ATOM     33  C   UNL A   1      34.182  31.739  27.761  1.00  0.00     0.039 A 
ATOM     34  C   UNL A   1      35.181  32.684  28.003  1.00  0.00     0.014 A 
ATOM     35  C   UNL A   1      34.369  30.399  28.106  1.00  0.00     0.014 A 
ATOM     36  C   UNL A   1      36.346  32.292  28.667  1.00  0.00     0.010 A 
ATOM     37  C   UNL A   1      35.490  30.030  28.838  1.00  0.00     0.010 A 
ATOM     38  C   UNL A   1      36.489  30.973  29.127  1.00  0.00    -0.014 A 
BRANCH  38  39
ATOM     39  C   UNL A   1      37.681  30.552  29.905  1.00  0.00     0.031 A 
ATOM     40  C   UNL A   1      38.674  29.606  29.290  1.00  0.00     0.074 A 
ATOM     41  C   UNL A   1      37.826  30.959  31.181  1.00  0.00     0.049 A 
ATOM     42  N   UNL A   1      39.723  29.040  29.828  1.00  0.00    -0.248 NA
ATOM     43  C   UNL A   1      38.431  29.217  27.893  1.00  0.00     0.031 C 
ATOM     44  C   UNL A   1      36.898  31.836  31.901  1.00  0.00     0.029 A 
ATOM     45  N   UNL A   1      38.801  30.681  32.106  1.00  0.00    -0.354 N 
ATOM     46  C   UNL A   1      40.256  28.217  28.842  1.00  0.00     0.074 A 
ATOM     47  C   UNL A   1      39.372  28.306  27.699  1.00  0.00     0.031 C 
ATOM     48  C   UNL A   1      37.360  32.039  33.146  1.00  0.00     0.029 A 
ATOM     49  C   UNL A   1      38.590  31.276  33.329  1.00  0.00     0.049 A 
ATOM     50  H   UNL A   1      39.578  30.109  31.912  1.00  0.00     0.167 HD
ATOM     51  C   UNL A   1      41.392  27.477  28.876  1.00  0.00     0.034 A 
ATOM     52  C   UNL A   1      39.303  31.204  34.470  1.00  0.00     0.034 A 
ATOM     53  C   UNL A   1      42.269  27.415  30.019  1.00  0.00     0.049 A 
ATOM     54  C   UNL A   1      40.561  30.373  34.488  1.00  0.00     0.074 A 
ATOM     55  C   UNL A   1      43.470  26.740  30.150  1.00  0.00     0.029 A 
ATOM     56  N   UNL A   1      42.036  28.050  31.232  1.00  0.00    -0.354 N 
ATOM     57  N   UNL A   1      41.078  29.637  33.531  1.00  0.00    -0.248 NA
ATOM     58  C   UNL A   1      41.338  30.373  35.734  1.00  0.00     0.031 C 
ATOM     59  C   UNL A   1      43.933  26.919  31.458  1.00  0.00     0.029 A 
ATOM     60  C   UNL A   1      43.059  27.765  32.124  1.00  0.00     0.049 A 
ATOM     61  H   UNL A   1      41.259  28.620  31.432  1.00  0.00     0.167 HD
ATOM     62  C   UNL A   1      42.257  29.110  34.052  1.00  0.00     0.074 A 
ATOM     63  C   UNL A   1      42.379  29.625  35.401  1.00  0.00     0.031 C 
ATOM     64  C   UNL A   1      43.158  28.280  33.469  1.00  0.00     0.034 A 
BRANCH  51  65
ATOM     65  C   UNL A   1      41.728  26.671  27.644  1.00  0.00     0.023 A 
ATOM     66  C   UNL A   1      41.398  25.307  27.543  1.00  0.00     0.031 A 
ATOM     67  C   UNL A   1      42.425  27.259  26.574  1.00  0.00     0.131 A 
ATOM     68  C   UNL A   1      41.838  24.558  26.442  1.00  0.00     0.055 A 
ATOM     69  C   UNL A   1      42.784  26.526  25.440  1.00  0.00     0.041 A 
ATOM     70  F   UNL A   1      42.787  28.550  26.619  1.00  0.00    -0.206 F 
ATOM     71  C   UNL A   1      42.507  25.164  25.377  1.00  0.00     0.022 A 
BRANCH  68  72
ATOM     72  S   UNL A   1      41.655  22.755  26.497  1.00  0.00     0.124 S 
ATOM     73  O   UNL A   1      40.213  22.600  26.321  1.00  0.00    -0.237 OA
ATOM     74  O   UNL A   1      42.486  22.318  25.382  1.00  0.00    -0.237 OA
ATOM     75  O   UNL A   1      42.154  22.401  27.825  1.00  0.00    -0.744 OA
ENDBRANCH  68  72
ENDBRANCH  51  65
BRANCH  52  76
ATOM     76  C   UNL A   1      38.849  31.928  35.693  1.00  0.00     0.023 A 
ATOM     77  C   UNL A   1      38.224  31.246  36.748  1.00  0.00     0.031 A 
ATOM     78  C   UNL A   1      39.000  33.322  35.805  1.00  0.00     0.131 A 
ATOM     79  C   UNL A   1      37.731  31.963  37.849  1.00  0.00     0.055 A 
ATOM     80  C   UNL A   1      38.554  34.024  36.926  1.00  0.00     0.041 A 
ATOM     81  F   UNL A   1      39.599  34.021  34.827  1.00  0.00    -0.206 F 
ATOM     82  C   UNL A   1      37.903  33.345  37.951  1.00  0.00     0.022 A 
BRANCH  79  83
ATOM     83  S   UNL A   1      36.790  31.069  39.116  1.00  0.00     0.124 S 
ATOM     84  O   UNL A   1      35.575  31.873  39.206  1.00  0.00    -0.237 OA
ATOM     85  O   UNL A   1      36.643  29.750  38.509  1.00  0.00    -0.237 OA
ATOM     86  O   UNL A   1      37.662  31.120  40.288  1.00  0.00    -0.744 OA
ENDBRANCH  79  83
ENDBRANCH  52  76
BRANCH  64  87
ATOM     87  C   UNL A   1      44.377  27.918  34.281  1.00  0.00     0.023 A 
ATOM     88  C   UNL A   1      44.422  26.755  35.069  1.00  0.00     0.031 A 
ATOM     89  C   UNL A   1      45.505  28.757  34.271  1.00  0.00     0.131 A 
ATOM     90  C   UNL A   1      45.552  26.490  35.857  1.00  0.00     0.055 A 
ATOM     91  C   UNL A   1      46.649  28.459  35.012  1.00  0.00     0.041 A 
ATOM     92  F   UNL A   1      45.514  29.881  33.537  1.00  0.00    -0.206 F 
ATOM     93  C   UNL A   1      46.671  27.326  35.821  1.00  0.00     0.022 A 
BRANCH  90  94
ATOM     94  S   UNL A   1      45.508  25.081  36.998  1.00  0.00     0.124 S 
ATOM     95  O   UNL A   1      45.730  25.727  38.288  1.00  0.00    -0.237 OA
ATOM     96  O   UNL A   1      44.170  24.543  36.777  1.00  0.00    -0.237 OA
ATOM     97  O   UNL A   1      46.601  24.229  36.535  1.00  0.00    -0.744 OA
ENDBRANCH  90  94
ENDBRANCH  64  87
ENDBRANCH  38  39
ENDBRANCH  30  33
ENDBRANCH  28  29
ENDBRANCH  27  28
ENDBRANCH   1  27
TORSDOF 18
ENDMDL
MODEL 2
REMARK VINA RESULT:     -12.2      1.780      7.603
REMARK SMILES C[C@@H](Sc1nc(C[NH+]2CCCC2)nc2ccccc12)C(=O)NCCCCNC(=O)c1ccc(-c2c3nc(c(-c4cc(S(=O)(=O)[O-])ccc4F)c4ccc([nH]4)c(-c4cc(S(=O)(=O)[O-])ccc4F)c4nc(c(-c5cc(S(=O)(=O)[O-])ccc5F)c5ccc2[nH]5)C=C4)C=C3)cc1
REMARK SMILES IDX 24 1 23 2 22 3 20 4 21 5 2 7 1 8 3 9 4 10 5 11 19 12 6 13
REMARK SMILES IDX 14 14 18 15 13 16 15 17 17 18 16 19 7 20 8 21 9 22 12 23
REMARK SMILES IDX 10 25 11 26 25 27 26 28 27 29 28 30 29 32 30 33 31 34 92 35
REMARK SMILES IDX 32 36 91 37 33 38 34 39 35 40 85 41 36 42 90 43 84 44 86 45
REMARK SMILES IDX 37 46 89 47 83 48 82 49 38 51 70 52 50 53 69 54 51 55 54 56
REMARK SMILES IDX 68 57 87 58 52 59 53 60 67 62 88 63 55 64 39 65 40 66 48 67
REMARK SMILES IDX 41 68 47 69 49 70 46 71 42 72 43 73 44 74 45 75 71 76 72 77
REMARK SMILES IDX 80 78 73 79 79 80 81 81 78 82 74 83 75 84 76 85 77 86 56 87
REMARK SMILES IDX 57 88 65 89 58 90 64 91 66 92 63 93 59 94 60 95 61 96 62 97
REMARK H PARENT 22 6 8 24 27 31 86 50 54 61
REMARK Flexibility Score: inf
ROOT
ATOM      1  C   UNL A   1      31.947  27.795  26.784  1.00  0.00     0.023 C 
ENDROOT
BRANCH   1   2
ATOM      2  C   UNL A   1      32.464  27.125  25.515  1.00  0.00     0.116 C 
BRANCH   2   3
ATOM      3  N   UNL A   1      31.399  26.749  24.598  1.00  0.00    -0.355 N 
ATOM      4  C   UNL A   1      30.884  25.506  24.337  1.00  0.00     0.233 C 
ATOM      5  O   UNL A   1      29.923  25.415  23.570  1.00  0.00    -0.274 OA
ATOM      6  H   UNL A   1      30.992  27.490  24.094  1.00  0.00     0.163 HD
BRANCH   4   7
ATOM      7  C   UNL A   1      31.515  24.253  24.954  1.00  0.00     0.139 C 
ATOM      8  C   UNL A   1      30.713  23.844  26.186  1.00  0.00     0.030 C 
BRANCH   7   9
ATOM      9  S   UNL A   1      31.736  23.014  23.603  1.00  0.00    -0.093 SA
BRANCH   9  10
ATOM     10  C   UNL A   1      32.871  21.839  24.323  1.00  0.00     0.109 A 
ATOM     11  N   UNL A   1      32.303  20.690  24.737  1.00  0.00    -0.220 NA
ATOM     12  C   UNL A   1      34.259  22.047  24.288  1.00  0.00     0.033 A 
ATOM     13  C   UNL A   1      33.129  19.719  25.160  1.00  0.00     0.185 A 
ATOM     14  C   UNL A   1      35.017  20.958  24.734  1.00  0.00     0.075 A 
ATOM     15  C   UNL A   1      34.924  23.217  23.833  1.00  0.00     0.013 A 
ATOM     16  N   UNL A   1      34.470  19.822  25.178  1.00  0.00    -0.227 NA
ATOM     17  C   UNL A   1      36.403  21.052  24.695  1.00  0.00     0.029 A 
ATOM     18  C   UNL A   1      36.314  23.289  23.811  1.00  0.00     0.001 A 
ATOM     19  C   UNL A   1      37.058  22.198  24.237  1.00  0.00     0.002 A 
BRANCH  13  20
ATOM     20  C   UNL A   1      32.515  18.404  25.627  1.00  0.00     0.340 C 
BRANCH  20  21
ATOM     21  N   UNL A   1      32.368  17.293  24.657  1.00  0.00    -0.329 N 
ATOM     22  C   UNL A   1      33.101  16.085  25.032  1.00  0.00     0.262 C 
ATOM     23  C   UNL A   1      32.774  17.639  23.293  1.00  0.00     0.262 C 
ATOM     24  H   UNL A   1      31.365  17.111  24.683  1.00  0.00     0.348 HD
ATOM     25  C   UNL A   1      34.400  16.134  24.253  1.00  0.00     0.067 C 
ATOM     26  C   UNL A   1      34.061  16.884  22.985  1.00  0.00     0.067 C 
ENDBRANCH  20  21
ENDBRANCH  13  20
ENDBRANCH   9  10
ENDBRANCH   7   9
ENDBRANCH   4   7
ENDBRANCH   2   3
ENDBRANCH   1   2
BRANCH   1  27
ATOM     27  C   UNL A   1      31.812  29.310  26.697  1.00  0.00     0.023 C 
BRANCH  27  28
ATOM     28  C   UNL A   1      33.129  30.065  26.590  1.00  0.00     0.116 C 
BRANCH  28  29
ATOM     29  N   UNL A   1      33.039  31.449  27.032  1.00  0.00    -0.352 N 
ATOM     30  C   UNL A   1      33.930  32.159  27.808  1.00  0.00     0.251 C 
ATOM     31  H   UNL A   1      32.239  31.942  26.741  1.00  0.00     0.163 HD
ATOM     32  O   UNL A   1      33.662  33.287  28.183  1.00  0.00    -0.269 OA
BRANCH  30  33
ATOM     33  C   UNL A   1      35.191  31.500  28.209  1.00  0.00     0.039 A 
ATOM     34  C   UNL A   1      36.374  32.242  28.187  1.00  0.00     0.014 A 
ATOM     35  C   UNL A   1      35.183  30.186  28.680  1.00  0.00     0.014 A 
ATOM     36  C   UNL A   1      37.540  31.685  28.714  1.00  0.00     0.010 A 
ATOM     37  C   UNL A   1      36.324  29.665  29.278  1.00  0.00     0.010 A 
ATOM     38  C   UNL A   1      37.513  30.410  29.303  1.00  0.00    -0.014 A 
BRANCH  38  39
ATOM     39  C   UNL A   1      38.720  29.829  29.941  1.00  0.00     0.031 A 
ATOM     40  C   UNL A   1      39.167  30.334  31.285  1.00  0.00     0.074 A 
ATOM     41  C   UNL A   1      39.449  28.908  29.281  1.00  0.00     0.049 A 
ATOM     42  N   UNL A   1      40.241  30.034  31.969  1.00  0.00    -0.248 NA
ATOM     43  C   UNL A   1      38.307  31.340  31.927  1.00  0.00     0.031 C 
ATOM     44  C   UNL A   1      39.142  28.380  27.950  1.00  0.00     0.029 A 
ATOM     45  N   UNL A   1      40.607  28.260  29.634  1.00  0.00    -0.354 N 
ATOM     46  C   UNL A   1      40.193  30.824  33.112  1.00  0.00     0.074 A 
ATOM     47  C   UNL A   1      39.022  31.666  32.992  1.00  0.00     0.031 C 
ATOM     48  C   UNL A   1      40.075  27.476  27.608  1.00  0.00     0.029 A 
ATOM     49  C   UNL A   1      41.068  27.390  28.673  1.00  0.00     0.049 A 
ATOM     50  H   UNL A   1      41.064  28.405  30.493  1.00  0.00     0.167 HD
ATOM     51  C   UNL A   1      41.034  30.828  34.176  1.00  0.00     0.034 A 
ATOM     52  C   UNL A   1      42.173  26.619  28.651  1.00  0.00     0.034 A 
ATOM     53  C   UNL A   1      42.188  29.970  34.284  1.00  0.00     0.049 A 
ATOM     54  C   UNL A   1      43.097  26.641  29.842  1.00  0.00     0.074 A 
ATOM     55  C   UNL A   1      43.081  29.852  35.335  1.00  0.00     0.029 A 
ATOM     56  N   UNL A   1      42.611  29.083  33.302  1.00  0.00    -0.354 N 
ATOM     57  N   UNL A   1      43.013  27.359  30.939  1.00  0.00    -0.248 NA
ATOM     58  C   UNL A   1      44.256  25.740  29.800  1.00  0.00     0.031 C 
ATOM     59  C   UNL A   1      44.075  28.939  34.965  1.00  0.00     0.029 A 
ATOM     60  C   UNL A   1      43.764  28.432  33.713  1.00  0.00     0.049 A 
ATOM     61  H   UNL A   1      42.159  28.938  32.440  1.00  0.00     0.167 HD
ATOM     62  C   UNL A   1      44.093  26.974  31.728  1.00  0.00     0.074 A 
ATOM     63  C   UNL A   1      44.803  25.951  30.988  1.00  0.00     0.031 C 
ATOM     64  C   UNL A   1      44.464  27.421  32.955  1.00  0.00     0.034 A 
BRANCH  51  65
ATOM     65  C   UNL A   1      40.734  31.804  35.289  1.00  0.00     0.023 A 
ATOM     66  C   UNL A   1      39.655  31.607  36.170  1.00  0.00     0.031 A 
ATOM     67  C   UNL A   1      41.507  32.968  35.446  1.00  0.00     0.131 A 
ATOM     68  C   UNL A   1      39.327  32.596  37.110  1.00  0.00     0.055 A 
ATOM     69  C   UNL A   1      41.226  33.907  36.441  1.00  0.00     0.041 A 
ATOM     70  F   UNL A   1      42.536  33.222  34.623  1.00  0.00    -0.206 F 
ATOM     71  C   UNL A   1      40.121  33.733  37.269  1.00  0.00     0.022 A 
BRANCH  68  72
ATOM     72  S   UNL A   1      37.762  32.443  38.012  1.00  0.00     0.124 S 
ATOM     73  O   UNL A   1      37.996  33.321  39.156  1.00  0.00    -0.237 OA
ATOM     74  O   UNL A   1      36.786  32.911  37.036  1.00  0.00    -0.237 OA
ATOM     75  O   UNL A   1      37.690  31.018  38.334  1.00  0.00    -0.744 OA
ENDBRANCH  68  72
ENDBRANCH  51  65
BRANCH  52  76
ATOM     76  C   UNL A   1      42.478  25.767  27.465  1.00  0.00     0.023 A 
ATOM     77  C   UNL A   1      42.022  24.442  27.390  1.00  0.00     0.031 A 
ATOM     78  C   UNL A   1      43.263  26.256  26.406  1.00  0.00     0.131 A 
ATOM     79  C   UNL A   1      42.393  23.635  26.302  1.00  0.00     0.055 A 
ATOM     80  C   UNL A   1      43.587  25.466  25.302  1.00  0.00     0.041 A 
ATOM     81  F   UNL A   1      43.717  27.520  26.424  1.00  0.00    -0.206 F 
ATOM     82  C   UNL A   1      43.162  24.142  25.252  1.00  0.00     0.022 A 
BRANCH  79  83
ATOM     83  S   UNL A   1      41.919  21.885  26.318  1.00  0.00     0.124 S 
ATOM     84  O   UNL A   1      42.770  21.336  25.268  1.00  0.00    -0.237 OA
ATOM     85  O   UNL A   1      42.253  21.494  27.685  1.00  0.00    -0.237 OA
ATOM     86  O   UNL A   1      40.490  21.916  26.013  1.00  0.00    -0.744 OA
ENDBRANCH  79  83
ENDBRANCH  52  76
BRANCH  64  87
ATOM     87  C   UNL A   1      45.668  26.768  33.584  1.00  0.00     0.023 A 
ATOM     88  C   UNL A   1      46.966  27.278  33.405  1.00  0.00     0.031 A 
ATOM     89  C   UNL A   1      45.513  25.610  34.367  1.00  0.00     0.131 A 
ATOM     90  C   UNL A   1      48.064  26.602  33.957  1.00  0.00     0.055 A 
ATOM     91  C   UNL A   1      46.604  24.974  34.961  1.00  0.00     0.041 A 
ATOM     92  F   UNL A   1      44.296  25.079  34.569  1.00  0.00    -0.206 F 
ATOM     93  C   UNL A   1      47.890  25.463  34.747  1.00  0.00     0.022 A 
BRANCH  90  94
ATOM     94  S   UNL A   1      49.735  27.183  33.557  1.00  0.00     0.124 S 
ATOM     95  O   UNL A   1      50.443  25.930  33.318  1.00  0.00    -0.237 OA
ATOM     96  O   UNL A   1      49.503  28.018  32.384  1.00  0.00    -0.237 OA
ATOM     97  O   UNL A   1      50.143  27.906  34.760  1.00  0.00    -0.744 OA
ENDBRANCH  90  94
ENDBRANCH  64  87
ENDBRANCH  38  39
ENDBRANCH  30  33
ENDBRANCH  28  29
ENDBRANCH  27  28
ENDBRANCH   1  27
TORSDOF 18
ENDMDL
MODEL 3
REMARK VINA RESULT:     -12.2      5.111      8.552
REMARK SMILES C[C@@H](Sc1nc(C[NH+]2CCCC2)nc2ccccc12)C(=O)NCCCCNC(=O)c1ccc(-c2c3nc(c(-c4cc(S(=O)(=O)[O-])ccc4F)c4ccc([nH]4)c(-c4cc(S(=O)(=O)[O-])ccc4F)c4nc(c(-c5cc(S(=O)(=O)[O-])ccc5F)c5ccc2[nH]5)C=C4)C=C3)cc1
REMARK SMILES IDX 24 1 23 2 22 3 20 4 21 5 2 7 1 8 3 9 4 10 5 11 19 12 6 13
REMARK SMILES IDX 14 14 18 15 13 16 15 17 17 18 16 19 7 20 8 21 9 22 12 23
REMARK SMILES IDX 10 25 11 26 25 27 26 28 27 29 28 30 29 32 30 33 31 34 92 35
REMARK SMILES IDX 32 36 91 37 33 38 34 39 35 40 85 41 36 42 90 43 84 44 86 45
REMARK SMILES IDX 37 46 89 47 83 48 82 49 38 51 70 52 50 53 69 54 51 55 54 56
REMARK SMILES IDX 68 57 87 58 52 59 53 60 67 62 88 63 55 64 39 65 40 66 48 67
REMARK SMILES IDX 41 68 47 69 49 70 46 71 42 72 43 73 44 74 45 75 71 76 72 77
REMARK SMILES IDX 80 78 73 79 79 80 81 81 78 82 74 83 75 84 76 85 77 86 56 87
REMARK SMILES IDX 57 88 65 89 58 90 64 91 66 92 63 93 59 94 60 95 61 96 62 97
REMARK H PARENT 22 6 8 24 27 31 86 50 54 61
REMARK Flexibility Score: inf
ROOT
ATOM      1  C   UNL A   1      35.325  22.881  26.353  1.00  0.00     0.023 C 
ENDROOT
BRANCH   1   2
ATOM      2  C   UNL A   1      34.118  23.664  25.845  1.00  0.00     0.116 C 
BRANCH   2   3
ATOM      3  N   UNL A   1      32.967  23.569  26.730  1.00  0.00    -0.355 N 
ATOM      4  C   UNL A   1      31.651  23.847  26.467  1.00  0.00     0.233 C 
ATOM      5  O   UNL A   1      30.815  23.627  27.346  1.00  0.00    -0.274 OA
ATOM      6  H   UNL A   1      33.160  23.264  27.646  1.00  0.00     0.163 HD
BRANCH   4   7
ATOM      7  C   UNL A   1      31.234  24.454  25.123  1.00  0.00     0.139 C 
ATOM      8  C   UNL A   1      30.961  23.330  24.128  1.00  0.00     0.030 C 
BRANCH   7   9
ATOM      9  S   UNL A   1      29.888  25.675  25.453  1.00  0.00    -0.093 SA
BRANCH   9  10
ATOM     10  C   UNL A   1      30.585  27.206  24.858  1.00  0.00     0.109 A 
ATOM     11  N   UNL A   1      30.031  27.672  23.722  1.00  0.00    -0.220 NA
ATOM     12  C   UNL A   1      31.511  27.934  25.620  1.00  0.00     0.033 A 
ATOM     13  C   UNL A   1      30.423  28.887  23.305  1.00  0.00     0.185 A 
ATOM     14  C   UNL A   1      31.827  29.193  25.097  1.00  0.00     0.075 A 
ATOM     15  C   UNL A   1      32.108  27.519  26.842  1.00  0.00     0.013 A 
ATOM     16  N   UNL A   1      31.311  29.659  23.956  1.00  0.00    -0.227 NA
ATOM     17  C   UNL A   1      32.703  30.008  25.806  1.00  0.00     0.029 A 
ATOM     18  C   UNL A   1      32.987  28.351  27.529  1.00  0.00     0.001 A 
ATOM     19  C   UNL A   1      33.280  29.605  27.013  1.00  0.00     0.002 A 
BRANCH  13  20
ATOM     20  C   UNL A   1      29.806  29.443  22.026  1.00  0.00     0.340 C 
BRANCH  20  21
ATOM     21  N   UNL A   1      28.388  29.873  22.038  1.00  0.00    -0.329 N 
ATOM     22  C   UNL A   1      28.058  30.840  20.992  1.00  0.00     0.262 C 
ATOM     23  C   UNL A   1      27.955  30.451  23.313  1.00  0.00     0.262 C 
ATOM     24  H   UNL A   1      27.892  28.999  21.870  1.00  0.00     0.348 HD
ATOM     25  C   UNL A   1      28.117  32.201  21.657  1.00  0.00     0.067 C 
ATOM     26  C   UNL A   1      27.737  31.944  23.097  1.00  0.00     0.067 C 
ENDBRANCH  20  21
ENDBRANCH  13  20
ENDBRANCH   9  10
ENDBRANCH   7   9
ENDBRANCH   4   7
ENDBRANCH   2   3
ENDBRANCH   1   2
BRANCH   1  27
ATOM     27  C   UNL A   1      35.769  21.737  25.452  1.00  0.00     0.023 C 
BRANCH  27  28
ATOM     28  C   UNL A   1      37.182  21.866  24.902  1.00  0.00     0.116 C 
BRANCH  28  29
ATOM     29  N   UNL A   1      38.055  20.765  25.283  1.00  0.00    -0.352 N 
ATOM     30  C   UNL A   1      39.229  20.813  26.001  1.00  0.00     0.251 C 
ATOM     31  H   UNL A   1      37.769  19.870  24.989  1.00  0.00     0.163 HD
ATOM     32  O   UNL A   1      39.905  19.809  26.152  1.00  0.00    -0.269 OA
BRANCH  30  33
ATOM     33  C   UNL A   1      39.669  22.116  26.542  1.00  0.00     0.039 A 
ATOM     34  C   UNL A   1      40.724  22.144  27.456  1.00  0.00     0.014 A 
ATOM     35  C   UNL A   1      39.092  23.302  26.082  1.00  0.00     0.014 A 
ATOM     36  C   UNL A   1      41.254  23.374  27.850  1.00  0.00     0.010 A 
ATOM     37  C   UNL A   1      39.675  24.520  26.411  1.00  0.00     0.010 A 
ATOM     38  C   UNL A   1      40.762  24.568  27.297  1.00  0.00    -0.014 A 
BRANCH  38  39
ATOM     39  C   UNL A   1      41.362  25.882  27.639  1.00  0.00     0.031 A 
ATOM     40  C   UNL A   1      42.775  26.184  27.225  1.00  0.00     0.074 A 
ATOM     41  C   UNL A   1      40.665  26.763  28.382  1.00  0.00     0.049 A 
ATOM     42  N   UNL A   1      43.517  27.224  27.506  1.00  0.00    -0.248 NA
ATOM     43  C   UNL A   1      43.456  25.161  26.417  1.00  0.00     0.031 C 
ATOM     44  C   UNL A   1      39.304  26.557  28.885  1.00  0.00     0.029 A 
ATOM     45  N   UNL A   1      41.007  28.005  28.855  1.00  0.00    -0.354 N 
ATOM     46  C   UNL A   1      44.755  26.973  26.924  1.00  0.00     0.074 A 
ATOM     47  C   UNL A   1      44.682  25.652  26.336  1.00  0.00     0.031 C 
ATOM     48  C   UNL A   1      38.921  27.642  29.577  1.00  0.00     0.029 A 
ATOM     49  C   UNL A   1      40.019  28.603  29.605  1.00  0.00     0.049 A 
ATOM     50  H   UNL A   1      41.876  28.429  28.674  1.00  0.00     0.167 HD
ATOM     51  C   UNL A   1      45.842  27.781  26.861  1.00  0.00     0.034 A 
ATOM     52  C   UNL A   1      40.008  29.785  30.251  1.00  0.00     0.034 A 
ATOM     53  C   UNL A   1      45.890  29.102  27.439  1.00  0.00     0.049 A 
ATOM     54  C   UNL A   1      41.229  30.667  30.172  1.00  0.00     0.074 A 
ATOM     55  C   UNL A   1      46.917  30.027  27.395  1.00  0.00     0.029 A 
ATOM     56  N   UNL A   1      44.862  29.684  28.171  1.00  0.00    -0.354 N 
ATOM     57  N   UNL A   1      42.377  30.436  29.576  1.00  0.00    -0.248 NA
ATOM     58  C   UNL A   1      41.149  31.972  30.839  1.00  0.00     0.031 C 
ATOM     59  C   UNL A   1      46.535  31.143  28.148  1.00  0.00     0.029 A 
ATOM     60  C   UNL A   1      45.240  30.946  28.603  1.00  0.00     0.049 A 
ATOM     61  H   UNL A   1      43.992  29.262  28.357  1.00  0.00     0.167 HD
ATOM     62  C   UNL A   1      43.144  31.581  29.774  1.00  0.00     0.074 A 
ATOM     63  C   UNL A   1      42.322  32.504  30.530  1.00  0.00     0.031 C 
ATOM     64  C   UNL A   1      44.410  31.848  29.365  1.00  0.00     0.034 A 
BRANCH  51  65
ATOM     65  C   UNL A   1      47.063  27.240  26.156  1.00  0.00     0.023 A 
ATOM     66  C   UNL A   1      48.054  26.520  26.848  1.00  0.00     0.031 A 
ATOM     67  C   UNL A   1      47.265  27.484  24.786  1.00  0.00     0.131 A 
ATOM     68  C   UNL A   1      49.236  26.144  26.191  1.00  0.00     0.055 A 
ATOM     69  C   UNL A   1      48.405  27.031  24.119  1.00  0.00     0.041 A 
ATOM     70  F   UNL A   1      46.366  28.184  24.077  1.00  0.00    -0.206 F 
ATOM     71  C   UNL A   1      49.407  26.372  24.825  1.00  0.00     0.022 A 
BRANCH  68  72
ATOM     72  S   UNL A   1      50.605  25.491  27.185  1.00  0.00     0.124 S 
ATOM     73  O   UNL A   1      50.024  24.258  27.710  1.00  0.00    -0.237 OA
ATOM     74  O   UNL A   1      51.664  25.329  26.198  1.00  0.00    -0.237 OA
ATOM     75  O   UNL A   1      50.834  26.537  28.181  1.00  0.00    -0.744 OA
ENDBRANCH  68  72
ENDBRANCH  51  65
BRANCH  52  76
ATOM     76  C   UNL A   1      38.811  30.208  31.034  1.00  0.00     0.023 A 
ATOM     77  C   UNL A   1      37.768  30.927  30.431  1.00  0.00     0.031 A 
ATOM     78  C   UNL A   1      38.713  29.931  32.409  1.00  0.00     0.131 A 
ATOM     79  C   UNL A   1      36.693  31.386  31.208  1.00  0.00     0.055 A 
ATOM     80  C   UNL A   1      37.617  30.345  33.168  1.00  0.00     0.041 A 
ATOM     81  F   UNL A   1      39.679  29.239  33.034  1.00  0.00    -0.206 F 
ATOM     82  C   UNL A   1      36.605  31.089  32.570  1.00  0.00     0.022 A 
BRANCH  79  83
ATOM     83  S   UNL A   1      35.447  32.447  30.427  1.00  0.00     0.124 S 
ATOM     84  O   UNL A   1      35.173  31.723  29.190  1.00  0.00    -0.237 OA
ATOM     85  O   UNL A   1      34.379  32.442  31.423  1.00  0.00    -0.237 OA
ATOM     86  O   UNL A   1      36.140  33.723  30.264  1.00  0.00    -0.744 OA
ENDBRANCH  79  83
ENDBRANCH  52  76
BRANCH  64  87
ATOM     87  C   UNL A   1      44.960  33.213  29.694  1.00  0.00     0.023 A 
ATOM     88  C   UNL A   1      44.712  34.328  28.874  1.00  0.00     0.031 A 
ATOM     89  C   UNL A   1      45.752  33.397  30.841  1.00  0.00     0.131 A 
ATOM     90  C   UNL A   1      45.296  35.565  29.184  1.00  0.00     0.055 A 
ATOM     91  C   UNL A   1      46.283  34.643  31.176  1.00  0.00     0.041 A 
ATOM     92  F   UNL A   1      46.021  32.365  31.658  1.00  0.00    -0.206 F 
ATOM     93  C   UNL A   1      46.066  35.733  30.338  1.00  0.00     0.022 A 
BRANCH  90  94
ATOM     94  S   UNL A   1      45.106  36.936  28.011  1.00  0.00     0.124 S 
ATOM     95  O   UNL A   1      46.490  37.347  27.798  1.00  0.00    -0.237 OA
ATOM     96  O   UNL A   1      44.452  36.289  26.879  1.00  0.00    -0.237 OA
ATOM     97  O   UNL A   1      44.278  37.897  28.738  1.00  0.00    -0.744 OA
ENDBRANCH  90  94
ENDBRANCH  64  87
ENDBRANCH  38  39
ENDBRANCH  30  33
ENDBRANCH  28  29
ENDBRANCH  27  28
ENDBRANCH   1  27
TORSDOF 18
ENDMDL
