MODEL 1
REMARK VINA RESULT:     -12.9      0.000      0.000
REMARK SMILES O=C(NCCCCNC(=O)[C@H]1CC2(CCN(C(=O)C3CC3)CC2)CN1C(=O)CCn1cccn1)c1ccc(-c2c3nc(c(-c4cc(S(=O)(=O)[O-])ccc4F)c4ccc([nH]4)c(-c4cc(S(=O)(=O)[O-])ccc4F)c4nc(c(-c5cc(S(=O)(=O)[O-])ccc5F)c5ccc2[nH]5)C=C4)C=C3)cc1
REMARK SMILES IDX 6 1 5 2 4 3 3 4 1 5 2 6 35 8 36 9 97 10 37 11 96 12 38 13
REMARK SMILES IDX 39 14 40 15 90 16 41 17 95 18 89 19 91 20 42 21 94 22 88 23
REMARK SMILES IDX 87 24 43 26 75 27 55 28 74 29 56 30 59 31 73 32 92 33 57 34
REMARK SMILES IDX 58 35 72 37 93 38 60 39 44 40 45 41 53 42 46 43 52 44 54 45
REMARK SMILES IDX 51 46 47 47 48 48 49 49 50 50 76 51 77 52 85 53 78 54 84 55
REMARK SMILES IDX 86 56 83 57 79 58 80 59 81 60 82 61 61 62 62 63 70 64 63 65
REMARK SMILES IDX 69 66 71 67 68 68 64 69 65 70 66 71 67 72 7 73 8 74 9 75
REMARK SMILES IDX 10 77 11 78 12 79 25 80 13 81 24 82 14 83 23 84 15 85 22 86
REMARK SMILES IDX 16 87 17 88 18 89 26 90 27 91 28 92 29 93 30 94 31 95 34 96
REMARK SMILES IDX 32 97 33 98 19 99 20 100 21 101
REMARK H PARENT 3 7 91 25 59 36 8 76
REMARK Flexibility Score: inf
ROOT
ATOM      1  C   UNL A   1      32.099  31.097  26.513  1.00  0.00     0.023 C 
ENDROOT
BRANCH   1   2
ATOM      2  C   UNL A   1      32.714  32.210  27.369  1.00  0.00     0.023 C 
BRANCH   2   3
ATOM      3  C   UNL A   1      34.123  31.921  27.868  1.00  0.00     0.116 C 
BRANCH   3   4
ATOM      4  N   UNL A   1      34.315  32.235  29.271  1.00  0.00    -0.352 N 
ATOM      5  O   UNL A   1      34.984  32.362  31.359  1.00  0.00    -0.269 OA
ATOM      6  C   UNL A   1      35.263  31.970  30.221  1.00  0.00     0.251 C 
ATOM      7  H   UNL A   1      33.574  32.776  29.631  1.00  0.00     0.163 HD
BRANCH   6   8
ATOM      8  C   UNL A   1      36.548  31.245  30.011  1.00  0.00     0.039 A 
ATOM      9  C   UNL A   1      37.789  31.832  29.761  1.00  0.00     0.014 A 
ATOM     10  C   UNL A   1      36.485  29.841  30.125  1.00  0.00     0.014 A 
ATOM     11  C   UNL A   1      38.927  31.033  29.599  1.00  0.00     0.010 A 
ATOM     12  C   UNL A   1      37.616  29.042  29.978  1.00  0.00     0.010 A 
ATOM     13  C   UNL A   1      38.843  29.637  29.706  1.00  0.00    -0.014 A 
BRANCH  13  14
ATOM     14  C   UNL A   1      40.087  28.863  29.812  1.00  0.00     0.031 A 
ATOM     15  C   UNL A   1      40.516  28.648  31.229  1.00  0.00     0.074 A 
ATOM     16  C   UNL A   1      40.702  28.229  28.790  1.00  0.00     0.049 A 
ATOM     17  N   UNL A   1      41.586  29.077  31.814  1.00  0.00    -0.248 NA
ATOM     18  C   UNL A   1      39.553  28.021  32.154  1.00  0.00     0.031 C 
ATOM     19  C   UNL A   1      40.248  28.113  27.405  1.00  0.00     0.029 A 
ATOM     20  N   UNL A   1      41.831  27.456  28.801  1.00  0.00    -0.354 N 
ATOM     21  C   UNL A   1      41.542  28.581  33.116  1.00  0.00     0.074 A 
ATOM     22  C   UNL A   1      40.195  28.122  33.318  1.00  0.00     0.031 C 
ATOM     23  C   UNL A   1      40.954  27.141  26.779  1.00  0.00     0.029 A 
ATOM     24  C   UNL A   1      41.990  26.646  27.674  1.00  0.00     0.049 A 
ATOM     25  H   UNL A   1      42.479  27.470  29.542  1.00  0.00     0.167 HD
ATOM     26  C   UNL A   1      42.678  28.376  33.839  1.00  0.00     0.034 A 
ATOM     27  C   UNL A   1      42.859  25.606  27.509  1.00  0.00     0.034 A 
ATOM     28  C   UNL A   1      43.790  29.100  33.269  1.00  0.00     0.049 A 
ATOM     29  C   UNL A   1      43.947  25.792  28.501  1.00  0.00     0.074 A 
ATOM     30  C   UNL A   1      44.050  30.433  33.010  1.00  0.00     0.029 A 
ATOM     31  N   UNL A   1      44.706  28.395  32.520  1.00  0.00    -0.354 N 
ATOM     32  N   UNL A   1      44.791  26.785  28.459  1.00  0.00    -0.248 NA
ATOM     33  C   UNL A   1      43.791  25.169  29.808  1.00  0.00     0.031 C 
ATOM     34  C   UNL A   1      44.726  30.433  31.755  1.00  0.00     0.029 A 
ATOM     35  C   UNL A   1      44.918  29.106  31.367  1.00  0.00     0.049 A 
ATOM     36  H   UNL A   1      45.128  27.541  32.768  1.00  0.00     0.167 HD
ATOM     37  C   UNL A   1      44.921  27.199  29.774  1.00  0.00     0.074 A 
ATOM     38  C   UNL A   1      44.353  26.112  30.571  1.00  0.00     0.031 C 
ATOM     39  C   UNL A   1      45.213  28.497  30.084  1.00  0.00     0.034 A 
BRANCH  26  40
ATOM     40  C   UNL A   1      42.889  27.236  34.816  1.00  0.00     0.023 A 
ATOM     41  C   UNL A   1      43.651  26.140  34.364  1.00  0.00     0.031 A 
ATOM     42  C   UNL A   1      42.152  27.019  36.002  1.00  0.00     0.131 A 
ATOM     43  C   UNL A   1      43.552  24.883  34.987  1.00  0.00     0.055 A 
ATOM     44  C   UNL A   1      42.114  25.786  36.659  1.00  0.00     0.041 A 
ATOM     45  F   UNL A   1      41.356  27.947  36.545  1.00  0.00    -0.206 F 
ATOM     46  C   UNL A   1      42.784  24.697  36.131  1.00  0.00     0.022 A 
BRANCH  43  47
ATOM     47  S   UNL A   1      44.287  23.454  34.150  1.00  0.00     0.124 S 
ATOM     48  O   UNL A   1      45.465  24.051  33.536  1.00  0.00    -0.237 OA
ATOM     49  O   UNL A   1      44.530  22.546  35.266  1.00  0.00    -0.237 OA
ATOM     50  O   UNL A   1      43.241  23.032  33.219  1.00  0.00    -0.744 OA
ENDBRANCH  43  47
ENDBRANCH  26  40
BRANCH  27  51
ATOM     51  C   UNL A   1      42.613  24.308  26.802  1.00  0.00     0.023 A 
ATOM     52  C   UNL A   1      43.559  23.678  25.958  1.00  0.00     0.031 A 
ATOM     53  C   UNL A   1      41.488  23.532  27.164  1.00  0.00     0.131 A 
ATOM     54  C   UNL A   1      43.353  22.344  25.514  1.00  0.00     0.055 A 
ATOM     55  C   UNL A   1      41.290  22.221  26.725  1.00  0.00     0.041 A 
ATOM     56  F   UNL A   1      40.578  23.994  28.036  1.00  0.00    -0.206 F 
ATOM     57  C   UNL A   1      42.226  21.618  25.904  1.00  0.00     0.022 A 
BRANCH  54  58
ATOM     58  S   UNL A   1      44.592  21.487  24.479  1.00  0.00     0.124 S 
ATOM     59  O   UNL A   1      44.095  20.116  24.471  1.00  0.00    -0.237 OA
ATOM     60  O   UNL A   1      44.509  22.215  23.218  1.00  0.00    -0.237 OA
ATOM     61  O   UNL A   1      45.844  21.679  25.213  1.00  0.00    -0.744 OA
ENDBRANCH  54  58
ENDBRANCH  27  51
BRANCH  39  62
ATOM     62  C   UNL A   1      45.683  29.422  28.979  1.00  0.00     0.023 A 
ATOM     63  C   UNL A   1      44.913  30.458  28.402  1.00  0.00     0.031 A 
ATOM     64  C   UNL A   1      47.029  29.314  28.589  1.00  0.00     0.131 A 
ATOM     65  C   UNL A   1      45.501  31.330  27.463  1.00  0.00     0.055 A 
ATOM     66  C   UNL A   1      47.612  30.192  27.677  1.00  0.00     0.041 A 
ATOM     67  F   UNL A   1      47.819  28.368  29.122  1.00  0.00    -0.206 F 
ATOM     68  C   UNL A   1      46.847  31.201  27.106  1.00  0.00     0.022 A 
BRANCH  65  69
ATOM     69  S   UNL A   1      44.523  32.649  26.670  1.00  0.00     0.124 S 
ATOM     70  O   UNL A   1      43.784  31.947  25.626  1.00  0.00    -0.237 OA
ATOM     71  O   UNL A   1      43.727  33.165  27.781  1.00  0.00    -0.237 OA
ATOM     72  O   UNL A   1      45.542  33.577  26.175  1.00  0.00    -0.744 OA
ENDBRANCH  65  69
ENDBRANCH  39  62
ENDBRANCH  13  14
ENDBRANCH   6   8
ENDBRANCH   3   4
ENDBRANCH   2   3
ENDBRANCH   1   2
BRANCH   1  73
ATOM     73  C   UNL A   1      31.846  29.693  27.119  1.00  0.00     0.116 C 
BRANCH  73  74
ATOM     74  N   UNL A   1      33.010  28.904  27.530  1.00  0.00    -0.354 N 
ATOM     75  C   UNL A   1      34.008  28.284  26.820  1.00  0.00     0.242 C 
ATOM     76  H   UNL A   1      33.092  28.796  28.505  1.00  0.00     0.163 HD
ATOM     77  O   UNL A   1      35.168  28.570  27.168  1.00  0.00    -0.273 OA
BRANCH  75  78
ATOM     78  C   UNL A   1      33.845  27.248  25.633  1.00  0.00     0.175 C 
ATOM     79  C   UNL A   1      33.887  25.752  26.096  1.00  0.00     0.044 C 
ATOM     80  N   UNL A   1      32.962  27.072  24.477  1.00  0.00    -0.330 N 
ATOM     81  C   UNL A   1      33.740  24.885  24.783  1.00  0.00    -0.006 C 
ATOM     82  C   UNL A   1      33.565  25.984  23.697  1.00  0.00     0.127 C 
ATOM     83  C   UNL A   1      32.468  23.984  24.748  1.00  0.00     0.030 C 
ATOM     84  C   UNL A   1      34.975  23.983  24.587  1.00  0.00     0.030 C 
ATOM     85  C   UNL A   1      32.523  22.740  25.618  1.00  0.00     0.120 C 
ATOM     86  C   UNL A   1      34.948  22.772  25.539  1.00  0.00     0.120 C 
ATOM     87  N   UNL A   1      33.727  21.985  25.344  1.00  0.00    -0.342 N 
ATOM     88  C   UNL A   1      33.851  20.670  24.885  1.00  0.00     0.225 C 
ATOM     89  O   UNL A   1      34.963  20.191  24.681  1.00  0.00    -0.275 OA
BRANCH  80  90
ATOM     90  C   UNL A   1      31.560  27.027  24.552  1.00  0.00     0.225 C 
ATOM     91  O   UNL A   1      30.951  27.012  25.624  1.00  0.00    -0.275 OA
BRANCH  90  92
ATOM     92  C   UNL A   1      30.807  26.873  23.274  1.00  0.00     0.124 C 
BRANCH  92  93
ATOM     93  C   UNL A   1      30.581  27.978  22.252  1.00  0.00     0.154 C 
BRANCH  93  94
ATOM     94  N   UNL A   1      29.406  28.825  22.351  1.00  0.00    -0.272 N 
ATOM     95  C   UNL A   1      28.308  28.602  23.137  1.00  0.00     0.108 A 
ATOM     96  N   UNL A   1      29.210  29.845  21.490  1.00  0.00    -0.182 NA
ATOM     97  C   UNL A   1      27.428  29.629  22.882  1.00  0.00     0.042 A 
ATOM     98  C   UNL A   1      28.047  30.382  21.870  1.00  0.00     0.135 A 
ENDBRANCH  93  94
ENDBRANCH  92  93
ENDBRANCH  90  92
ENDBRANCH  80  90
BRANCH  88  99
ATOM     99  C   UNL A   1      32.710  19.749  24.575  1.00  0.00     0.079 C 
ATOM    100  C   UNL A   1      32.608  18.525  23.712  1.00  0.00     0.014 C 
ATOM    101  C   UNL A   1      32.606  18.383  25.210  1.00  0.00     0.014 C 
ENDBRANCH  88  99
ENDBRANCH  75  78
ENDBRANCH  73  74
ENDBRANCH   1  73
TORSDOF 19
ENDMDL
MODEL 2
REMARK VINA RESULT:     -12.7      2.385      6.660
REMARK SMILES O=C(NCCCCNC(=O)[C@H]1CC2(CCN(C(=O)C3CC3)CC2)CN1C(=O)CCn1cccn1)c1ccc(-c2c3nc(c(-c4cc(S(=O)(=O)[O-])ccc4F)c4ccc([nH]4)c(-c4cc(S(=O)(=O)[O-])ccc4F)c4nc(c(-c5cc(S(=O)(=O)[O-])ccc5F)c5ccc2[nH]5)C=C4)C=C3)cc1
REMARK SMILES IDX 6 1 5 2 4 3 3 4 1 5 2 6 35 8 36 9 97 10 37 11 96 12 38 13
REMARK SMILES IDX 39 14 40 15 90 16 41 17 95 18 89 19 91 20 42 21 94 22 88 23
REMARK SMILES IDX 87 24 43 26 75 27 55 28 74 29 56 30 59 31 73 32 92 33 57 34
REMARK SMILES IDX 58 35 72 37 93 38 60 39 44 40 45 41 53 42 46 43 52 44 54 45
REMARK SMILES IDX 51 46 47 47 48 48 49 49 50 50 76 51 77 52 85 53 78 54 84 55
REMARK SMILES IDX 86 56 83 57 79 58 80 59 81 60 82 61 61 62 62 63 70 64 63 65
REMARK SMILES IDX 69 66 71 67 68 68 64 69 65 70 66 71 67 72 7 73 8 74 9 75
REMARK SMILES IDX 10 77 11 78 12 79 25 80 13 81 24 82 14 83 23 84 15 85 22 86
REMARK SMILES IDX 16 87 17 88 18 89 26 90 27 91 28 92 29 93 30 94 31 95 34 96
REMARK SMILES IDX 32 97 33 98 19 99 20 100 21 101
REMARK H PARENT 3 7 91 25 59 36 8 76
REMARK Flexibility Score: inf
ROOT
ATOM      1  C   UNL A   1      34.163  30.110  26.510  1.00  0.00     0.023 C 
ENDROOT
BRANCH   1   2
ATOM      2  C   UNL A   1      35.193  29.860  27.616  1.00  0.00     0.023 C 
BRANCH   2   3
ATOM      3  C   UNL A   1      35.341  30.999  28.617  1.00  0.00     0.116 C 
BRANCH   3   4
ATOM      4  N   UNL A   1      35.563  30.548  29.977  1.00  0.00    -0.352 N 
ATOM      5  O   UNL A   1      36.284  29.596  31.821  1.00  0.00    -0.269 OA
ATOM      6  C   UNL A   1      36.541  29.859  30.641  1.00  0.00     0.251 C 
ATOM      7  H   UNL A   1      34.821  30.800  30.574  1.00  0.00     0.163 HD
BRANCH   6   8
ATOM      8  C   UNL A   1      37.835  29.388  30.070  1.00  0.00     0.039 A 
ATOM      9  C   UNL A   1      38.527  29.977  29.012  1.00  0.00     0.014 A 
ATOM     10  C   UNL A   1      38.414  28.271  30.707  1.00  0.00     0.014 A 
ATOM     11  C   UNL A   1      39.748  29.442  28.584  1.00  0.00     0.010 A 
ATOM     12  C   UNL A   1      39.635  27.743  30.293  1.00  0.00     0.010 A 
ATOM     13  C   UNL A   1      40.303  28.324  29.222  1.00  0.00    -0.014 A 
BRANCH  13  14
ATOM     14  C   UNL A   1      41.700  27.971  28.934  1.00  0.00     0.031 A 
ATOM     15  C   UNL A   1      41.830  26.675  28.199  1.00  0.00     0.074 A 
ATOM     16  C   UNL A   1      42.764  28.783  29.116  1.00  0.00     0.049 A 
ATOM     17  N   UNL A   1      42.396  25.583  28.599  1.00  0.00    -0.248 NA
ATOM     18  C   UNL A   1      41.091  26.523  26.932  1.00  0.00     0.031 C 
ATOM     19  C   UNL A   1      42.762  30.177  29.558  1.00  0.00     0.029 A 
ATOM     20  N   UNL A   1      44.086  28.559  28.840  1.00  0.00    -0.354 N 
ATOM     21  C   UNL A   1      42.285  24.680  27.541  1.00  0.00     0.074 A 
ATOM     22  C   UNL A   1      41.312  25.240  26.645  1.00  0.00     0.031 C 
ATOM     23  C   UNL A   1      43.970  30.734  29.300  1.00  0.00     0.029 A 
ATOM     24  C   UNL A   1      44.871  29.712  28.786  1.00  0.00     0.049 A 
ATOM     25  H   UNL A   1      44.453  27.658  28.692  1.00  0.00     0.167 HD
ATOM     26  C   UNL A   1      43.175  23.661  27.379  1.00  0.00     0.034 A 
ATOM     27  C   UNL A   1      46.140  29.837  28.297  1.00  0.00     0.034 A 
ATOM     28  C   UNL A   1      43.910  23.419  28.599  1.00  0.00     0.049 A 
ATOM     29  C   UNL A   1      46.739  28.480  28.304  1.00  0.00     0.074 A 
ATOM     30  C   UNL A   1      43.561  23.070  29.890  1.00  0.00     0.029 A 
ATOM     31  N   UNL A   1      45.198  23.898  28.683  1.00  0.00    -0.354 N 
ATOM     32  N   UNL A   1      46.996  27.818  29.398  1.00  0.00    -0.248 NA
ATOM     33  C   UNL A   1      46.592  27.663  27.108  1.00  0.00     0.031 C 
ATOM     34  C   UNL A   1      44.431  23.835  30.720  1.00  0.00     0.029 A 
ATOM     35  C   UNL A   1      45.315  24.532  29.894  1.00  0.00     0.049 A 
ATOM     36  H   UNL A   1      45.902  23.804  28.002  1.00  0.00     0.167 HD
ATOM     37  C   UNL A   1      46.598  26.518  29.129  1.00  0.00     0.074 A 
ATOM     38  C   UNL A   1      46.442  26.463  27.676  1.00  0.00     0.031 C 
ATOM     39  C   UNL A   1      46.157  25.691  30.123  1.00  0.00     0.034 A 
BRANCH  26  40
ATOM     40  C   UNL A   1      43.662  23.142  26.041  1.00  0.00     0.023 A 
ATOM     41  C   UNL A   1      43.644  21.745  25.851  1.00  0.00     0.031 A 
ATOM     42  C   UNL A   1      44.416  23.876  25.097  1.00  0.00     0.131 A 
ATOM     43  C   UNL A   1      44.448  21.137  24.871  1.00  0.00     0.055 A 
ATOM     44  C   UNL A   1      45.156  23.269  24.078  1.00  0.00     0.041 A 
ATOM     45  F   UNL A   1      44.559  25.204  25.154  1.00  0.00    -0.206 F 
ATOM     46  C   UNL A   1      45.208  21.891  23.984  1.00  0.00     0.022 A 
BRANCH  43  47
ATOM     47  S   UNL A   1      44.632  19.335  24.913  1.00  0.00     0.124 S 
ATOM     48  O   UNL A   1      45.957  19.192  25.502  1.00  0.00    -0.237 OA
ATOM     49  O   UNL A   1      43.506  18.938  25.752  1.00  0.00    -0.237 OA
ATOM     50  O   UNL A   1      44.528  18.952  23.506  1.00  0.00    -0.744 OA
ENDBRANCH  43  47
ENDBRANCH  26  40
BRANCH  27  51
ATOM     51  C   UNL A   1      46.713  30.978  27.513  1.00  0.00     0.023 A 
ATOM     52  C   UNL A   1      45.932  32.001  26.923  1.00  0.00     0.031 A 
ATOM     53  C   UNL A   1      48.108  31.203  27.550  1.00  0.00     0.131 A 
ATOM     54  C   UNL A   1      46.550  33.169  26.402  1.00  0.00     0.055 A 
ATOM     55  C   UNL A   1      48.712  32.354  27.037  1.00  0.00     0.041 A 
ATOM     56  F   UNL A   1      48.934  30.345  28.171  1.00  0.00    -0.206 F 
ATOM     57  C   UNL A   1      47.934  33.347  26.467  1.00  0.00     0.022 A 
BRANCH  54  58
ATOM     58  S   UNL A   1      45.558  34.533  25.697  1.00  0.00     0.124 S 
ATOM     59  O   UNL A   1      44.406  34.573  26.589  1.00  0.00    -0.237 OA
ATOM     60  O   UNL A   1      46.477  35.663  25.772  1.00  0.00    -0.237 OA
ATOM     61  O   UNL A   1      45.263  34.076  24.337  1.00  0.00    -0.744 OA
ENDBRANCH  54  58
ENDBRANCH  27  51
BRANCH  39  62
ATOM     62  C   UNL A   1      46.380  26.101  31.564  1.00  0.00     0.023 A 
ATOM     63  C   UNL A   1      45.389  26.632  32.422  1.00  0.00     0.031 A 
ATOM     64  C   UNL A   1      47.639  25.815  32.121  1.00  0.00     0.131 A 
ATOM     65  C   UNL A   1      45.687  26.865  33.781  1.00  0.00     0.055 A 
ATOM     66  C   UNL A   1      47.923  26.026  33.468  1.00  0.00     0.041 A 
ATOM     67  F   UNL A   1      48.613  25.284  31.363  1.00  0.00    -0.206 F 
ATOM     68  C   UNL A   1      46.949  26.558  34.303  1.00  0.00     0.022 A 
BRANCH  65  69
ATOM     69  S   UNL A   1      44.444  27.588  34.901  1.00  0.00     0.124 S 
ATOM     70  O   UNL A   1      43.325  26.656  34.819  1.00  0.00    -0.237 OA
ATOM     71  O   UNL A   1      45.153  27.628  36.178  1.00  0.00    -0.237 OA
ATOM     72  O   UNL A   1      44.183  28.905  34.315  1.00  0.00    -0.744 OA
ENDBRANCH  65  69
ENDBRANCH  39  62
ENDBRANCH  13  14
ENDBRANCH   6   8
ENDBRANCH   3   4
ENDBRANCH   2   3
ENDBRANCH   1   2
BRANCH   1  73
ATOM     73  C   UNL A   1      32.744  30.625  26.864  1.00  0.00     0.116 C 
BRANCH  73  74
ATOM     74  N   UNL A   1      31.735  29.638  27.257  1.00  0.00    -0.354 N 
ATOM     75  C   UNL A   1      31.718  28.265  27.227  1.00  0.00     0.242 C 
ATOM     76  H   UNL A   1      30.907  30.036  27.611  1.00  0.00     0.163 HD
ATOM     77  O   UNL A   1      31.423  27.711  28.302  1.00  0.00    -0.273 OA
BRANCH  75  78
ATOM     78  C   UNL A   1      32.016  27.325  25.988  1.00  0.00     0.175 C 
ATOM     79  C   UNL A   1      32.306  25.837  26.385  1.00  0.00     0.044 C 
ATOM     80  N   UNL A   1      31.428  27.067  24.671  1.00  0.00    -0.330 N 
ATOM     81  C   UNL A   1      32.605  25.075  25.033  1.00  0.00    -0.006 C 
ATOM     82  C   UNL A   1      32.394  26.202  23.983  1.00  0.00     0.127 C 
ATOM     83  C   UNL A   1      31.597  23.932  24.703  1.00  0.00     0.030 C 
ATOM     84  C   UNL A   1      34.025  24.476  25.052  1.00  0.00     0.030 C 
ATOM     85  C   UNL A   1      31.765  22.658  25.513  1.00  0.00     0.120 C 
ATOM     86  C   UNL A   1      34.092  23.209  25.926  1.00  0.00     0.120 C 
ATOM     87  N   UNL A   1      33.138  22.201  25.455  1.00  0.00    -0.342 N 
ATOM     88  C   UNL A   1      33.637  20.987  24.974  1.00  0.00     0.225 C 
ATOM     89  O   UNL A   1      34.846  20.773  24.978  1.00  0.00    -0.275 OA
BRANCH  80  90
ATOM     90  C   UNL A   1      30.083  26.720  24.460  1.00  0.00     0.225 C 
ATOM     91  O   UNL A   1      29.497  25.879  25.145  1.00  0.00    -0.275 OA
BRANCH  90  92
ATOM     92  C   UNL A   1      29.393  27.321  23.282  1.00  0.00     0.124 C 
BRANCH  92  93
ATOM     93  C   UNL A   1      29.932  28.473  22.444  1.00  0.00     0.154 C 
BRANCH  93  94
ATOM     94  N   UNL A   1      29.169  29.702  22.331  1.00  0.00    -0.272 N 
ATOM     95  C   UNL A   1      28.481  30.327  23.335  1.00  0.00     0.108 A 
ATOM     96  N   UNL A   1      28.905  30.246  21.125  1.00  0.00    -0.182 NA
ATOM     97  C   UNL A   1      27.874  31.426  22.770  1.00  0.00     0.042 A 
ATOM     98  C   UNL A   1      28.188  31.339  21.404  1.00  0.00     0.135 A 
ENDBRANCH  93  94
ENDBRANCH  92  93
ENDBRANCH  90  92
ENDBRANCH  80  90
BRANCH  88  99
ATOM     99  C   UNL A   1      32.810  19.875  24.401  1.00  0.00     0.079 C 
ATOM    100  C   UNL A   1      33.179  18.542  23.819  1.00  0.00     0.014 C 
ATOM    101  C   UNL A   1      32.542  18.611  25.181  1.00  0.00     0.014 C 
ENDBRANCH  88  99
ENDBRANCH  75  78
ENDBRANCH  73  74
ENDBRANCH   1  73
TORSDOF 19
ENDMDL
MODEL 3
REMARK VINA RESULT:     -12.5      3.361      7.071
REMARK SMILES O=C(NCCCCNC(=O)[C@H]1CC2(CCN(C(=O)C3CC3)CC2)CN1C(=O)CCn1cccn1)c1ccc(-c2c3nc(c(-c4cc(S(=O)(=O)[O-])ccc4F)c4ccc([nH]4)c(-c4cc(S(=O)(=O)[O-])ccc4F)c4nc(c(-c5cc(S(=O)(=O)[O-])ccc5F)c5ccc2[nH]5)C=C4)C=C3)cc1
REMARK SMILES IDX 6 1 5 2 4 3 3 4 1 5 2 6 35 8 36 9 97 10 37 11 96 12 38 13
REMARK SMILES IDX 39 14 40 15 90 16 41 17 95 18 89 19 91 20 42 21 94 22 88 23
REMARK SMILES IDX 87 24 43 26 75 27 55 28 74 29 56 30 59 31 73 32 92 33 57 34
REMARK SMILES IDX 58 35 72 37 93 38 60 39 44 40 45 41 53 42 46 43 52 44 54 45
REMARK SMILES IDX 51 46 47 47 48 48 49 49 50 50 76 51 77 52 85 53 78 54 84 55
REMARK SMILES IDX 86 56 83 57 79 58 80 59 81 60 82 61 61 62 62 63 70 64 63 65
REMARK SMILES IDX 69 66 71 67 68 68 64 69 65 70 66 71 67 72 7 73 8 74 9 75
REMARK SMILES IDX 10 77 11 78 12 79 25 80 13 81 24 82 14 83 23 84 15 85 22 86
REMARK SMILES IDX 16 87 17 88 18 89 26 90 27 91 28 92 29 93 30 94 31 95 34 96
REMARK SMILES IDX 32 97 33 98 19 99 20 100 21 101
REMARK H PARENT 3 7 91 25 59 36 8 76
REMARK Flexibility Score: inf
ROOT
ATOM      1  C   UNL A   1      33.848  29.621  26.529  1.00  0.00     0.023 C 
ENDROOT
BRANCH   1   2
ATOM      2  C   UNL A   1      33.128  30.652  27.404  1.00  0.00     0.023 C 
BRANCH   2   3
ATOM      3  C   UNL A   1      32.210  31.600  26.644  1.00  0.00     0.116 C 
BRANCH   3   4
ATOM      4  N   UNL A   1      32.106  32.913  27.251  1.00  0.00    -0.352 N 
ATOM      5  O   UNL A   1      32.351  34.738  28.448  1.00  0.00    -0.269 OA
ATOM      6  C   UNL A   1      32.871  33.676  28.090  1.00  0.00     0.251 C 
ATOM      7  H   UNL A   1      31.273  33.372  26.994  1.00  0.00     0.163 HD
BRANCH   6   8
ATOM      8  C   UNL A   1      34.222  33.329  28.615  1.00  0.00     0.039 A 
ATOM      9  C   UNL A   1      34.491  32.646  29.802  1.00  0.00     0.014 A 
ATOM     10  C   UNL A   1      35.310  33.696  27.796  1.00  0.00     0.014 A 
ATOM     11  C   UNL A   1      35.812  32.368  30.171  1.00  0.00     0.010 A 
ATOM     12  C   UNL A   1      36.626  33.409  28.152  1.00  0.00     0.010 A 
ATOM     13  C   UNL A   1      36.881  32.750  29.349  1.00  0.00    -0.014 A 
BRANCH  13  14
ATOM     14  C   UNL A   1      38.214  32.197  29.626  1.00  0.00     0.031 A 
ATOM     15  C   UNL A   1      38.333  30.755  29.244  1.00  0.00     0.074 A 
ATOM     16  C   UNL A   1      39.296  32.915  29.996  1.00  0.00     0.049 A 
ATOM     17  N   UNL A   1      38.549  29.740  30.015  1.00  0.00    -0.248 NA
ATOM     18  C   UNL A   1      38.005  30.380  27.856  1.00  0.00     0.031 C 
ATOM     19  C   UNL A   1      39.403  34.368  30.133  1.00  0.00     0.029 A 
ATOM     20  N   UNL A   1      40.577  32.498  30.233  1.00  0.00    -0.354 N 
ATOM     21  C   UNL A   1      38.611  28.625  29.179  1.00  0.00     0.074 A 
ATOM     22  C   UNL A   1      38.075  29.049  27.915  1.00  0.00     0.031 C 
ATOM     23  C   UNL A   1      40.709  34.720  30.197  1.00  0.00     0.029 A 
ATOM     24  C   UNL A   1      41.531  33.518  30.226  1.00  0.00     0.049 A 
ATOM     25  H   UNL A   1      40.808  31.555  30.396  1.00  0.00     0.167 HD
ATOM     26  C   UNL A   1      39.314  27.512  29.528  1.00  0.00     0.034 A 
ATOM     27  C   UNL A   1      42.890  33.391  30.181  1.00  0.00     0.034 A 
ATOM     28  C   UNL A   1      39.585  27.496  30.947  1.00  0.00     0.049 A 
ATOM     29  C   UNL A   1      43.210  32.021  30.654  1.00  0.00     0.074 A 
ATOM     30  C   UNL A   1      38.800  27.506  32.084  1.00  0.00     0.029 A 
ATOM     31  N   UNL A   1      40.848  27.848  31.368  1.00  0.00    -0.354 N 
ATOM     32  N   UNL A   1      42.998  31.619  31.876  1.00  0.00    -0.248 NA
ATOM     33  C   UNL A   1      43.297  30.961  29.661  1.00  0.00     0.031 C 
ATOM     34  C   UNL A   1      39.494  28.355  32.996  1.00  0.00     0.029 A 
ATOM     35  C   UNL A   1      40.697  28.739  32.400  1.00  0.00     0.049 A 
ATOM     36  H   UNL A   1      41.699  27.521  30.998  1.00  0.00     0.167 HD
ATOM     37  C   UNL A   1      42.481  30.340  31.745  1.00  0.00     0.074 A 
ATOM     38  C   UNL A   1      42.771  29.954  30.365  1.00  0.00     0.031 C 
ATOM     39  C   UNL A   1      41.618  29.826  32.671  1.00  0.00     0.034 A 
BRANCH  26  40
ATOM     40  C   UNL A   1      40.090  26.639  28.561  1.00  0.00     0.023 A 
ATOM     41  C   UNL A   1      41.239  27.204  27.970  1.00  0.00     0.031 A 
ATOM     42  C   UNL A   1      39.616  25.452  27.959  1.00  0.00     0.131 A 
ATOM     43  C   UNL A   1      41.770  26.684  26.777  1.00  0.00     0.055 A 
ATOM     44  C   UNL A   1      40.193  24.898  26.813  1.00  0.00     0.041 A 
ATOM     45  F   UNL A   1      38.521  24.810  28.379  1.00  0.00    -0.206 F 
ATOM     46  C   UNL A   1      41.252  25.535  26.191  1.00  0.00     0.022 A 
BRANCH  43  47
ATOM     47  S   UNL A   1      43.022  27.658  25.902  1.00  0.00     0.124 S 
ATOM     48  O   UNL A   1      43.123  28.835  26.755  1.00  0.00    -0.237 OA
ATOM     49  O   UNL A   1      44.166  26.753  25.912  1.00  0.00    -0.237 OA
ATOM     50  O   UNL A   1      42.418  27.886  24.590  1.00  0.00    -0.744 OA
ENDBRANCH  43  47
ENDBRANCH  26  40
BRANCH  27  51
ATOM     51  C   UNL A   1      43.867  34.245  29.433  1.00  0.00     0.023 A 
ATOM     52  C   UNL A   1      44.410  33.902  28.171  1.00  0.00     0.031 A 
ATOM     53  C   UNL A   1      44.092  35.571  29.868  1.00  0.00     0.131 A 
ATOM     54  C   UNL A   1      45.140  34.860  27.417  1.00  0.00     0.055 A 
ATOM     55  C   UNL A   1      44.811  36.509  29.122  1.00  0.00     0.041 A 
ATOM     56  F   UNL A   1      43.543  36.033  31.002  1.00  0.00    -0.206 F 
ATOM     57  C   UNL A   1      45.331  36.160  27.888  1.00  0.00     0.022 A 
BRANCH  54  58
ATOM     58  S   UNL A   1      45.792  34.461  25.756  1.00  0.00     0.124 S 
ATOM     59  O   UNL A   1      44.602  34.571  24.920  1.00  0.00    -0.237 OA
ATOM     60  O   UNL A   1      46.817  35.481  25.566  1.00  0.00    -0.237 OA
ATOM     61  O   UNL A   1      46.308  33.099  25.908  1.00  0.00    -0.744 OA
ENDBRANCH  54  58
ENDBRANCH  27  51
BRANCH  39  62
ATOM     62  C   UNL A   1      41.455  30.546  33.994  1.00  0.00     0.023 A 
ATOM     63  C   UNL A   1      40.465  31.515  34.278  1.00  0.00     0.031 A 
ATOM     64  C   UNL A   1      42.278  30.124  35.054  1.00  0.00     0.131 A 
ATOM     65  C   UNL A   1      40.339  32.029  35.585  1.00  0.00     0.055 A 
ATOM     66  C   UNL A   1      42.136  30.619  36.349  1.00  0.00     0.041 A 
ATOM     67  F   UNL A   1      43.219  29.187  34.854  1.00  0.00    -0.206 F 
ATOM     68  C   UNL A   1      41.168  31.578  36.618  1.00  0.00     0.022 A 
BRANCH  65  69
ATOM     69  S   UNL A   1      39.100  33.310  35.972  1.00  0.00     0.124 S 
ATOM     70  O   UNL A   1      37.832  32.673  35.635  1.00  0.00    -0.237 OA
ATOM     71  O   UNL A   1      39.335  33.559  37.393  1.00  0.00    -0.237 OA
ATOM     72  O   UNL A   1      39.475  34.421  35.094  1.00  0.00    -0.744 OA
ENDBRANCH  65  69
ENDBRANCH  39  62
ENDBRANCH  13  14
ENDBRANCH   6   8
ENDBRANCH   3   4
ENDBRANCH   2   3
ENDBRANCH   1   2
BRANCH   1  73
ATOM     73  C   UNL A   1      33.125  28.983  25.315  1.00  0.00     0.116 C 
BRANCH  73  74
ATOM     74  N   UNL A   1      32.099  27.971  25.581  1.00  0.00    -0.354 N 
ATOM     75  C   UNL A   1      32.166  26.683  26.049  1.00  0.00     0.242 C 
ATOM     76  H   UNL A   1      31.183  28.274  25.385  1.00  0.00     0.163 HD
ATOM     77  O   UNL A   1      31.434  26.429  27.023  1.00  0.00    -0.273 OA
BRANCH  75  78
ATOM     78  C   UNL A   1      33.053  25.498  25.485  1.00  0.00     0.175 C 
ATOM     79  C   UNL A   1      32.380  24.089  25.626  1.00  0.00     0.044 C 
ATOM     80  N   UNL A   1      33.832  25.224  24.275  1.00  0.00    -0.330 N 
ATOM     81  C   UNL A   1      33.418  23.050  25.042  1.00  0.00    -0.006 C 
ATOM     82  C   UNL A   1      34.565  23.984  24.564  1.00  0.00     0.127 C 
ATOM     83  C   UNL A   1      32.905  22.262  23.798  1.00  0.00     0.030 C 
ATOM     84  C   UNL A   1      33.830  22.031  26.121  1.00  0.00     0.030 C 
ATOM     85  C   UNL A   1      31.898  21.163  24.088  1.00  0.00     0.120 C 
ATOM     86  C   UNL A   1      32.727  20.983  26.361  1.00  0.00     0.120 C 
ATOM     87  N   UNL A   1      32.399  20.278  25.119  1.00  0.00    -0.342 N 
ATOM     88  C   UNL A   1      32.646  18.904  25.049  1.00  0.00     0.225 C 
ATOM     89  O   UNL A   1      33.099  18.309  26.023  1.00  0.00    -0.275 OA
BRANCH  80  90
ATOM     90  C   UNL A   1      33.321  25.306  22.969  1.00  0.00     0.225 C 
ATOM     91  O   UNL A   1      33.976  24.985  21.976  1.00  0.00    -0.275 OA
BRANCH  90  92
ATOM     92  C   UNL A   1      31.972  25.919  22.796  1.00  0.00     0.124 C 
BRANCH  92  93
ATOM     93  C   UNL A   1      31.701  27.273  22.155  1.00  0.00     0.154 C 
BRANCH  93  94
ATOM     94  N   UNL A   1      30.468  27.978  22.452  1.00  0.00    -0.272 N 
ATOM     95  C   UNL A   1      30.199  29.294  22.187  1.00  0.00     0.108 A 
ATOM     96  N   UNL A   1      29.515  27.416  23.225  1.00  0.00    -0.182 NA
ATOM     97  C   UNL A   1      28.936  29.543  22.675  1.00  0.00     0.042 A 
ATOM     98  C   UNL A   1      28.551  28.340  23.288  1.00  0.00     0.135 A 
ENDBRANCH  93  94
ENDBRANCH  92  93
ENDBRANCH  90  92
ENDBRANCH  80  90
BRANCH  88  99
ATOM     99  C   UNL A   1      32.427  18.044  23.841  1.00  0.00     0.079 C 
ATOM    100  C   UNL A   1      32.698  18.268  22.381  1.00  0.00     0.014 C 
ATOM    101  C   UNL A   1      33.572  17.328  23.167  1.00  0.00     0.014 C 
ENDBRANCH  88  99
ENDBRANCH  75  78
ENDBRANCH  73  74
ENDBRANCH   1  73
TORSDOF 19
ENDMDL
