MODEL 1
REMARK VINA RESULT:     -13.0      0.000      0.000
REMARK SMILES Cc1ccc([C@@H](CC(=O)NCCCCNC(=O)c2ccc(-c3c4nc(c(-c5cc(S(=O)(=O)[O-])ccc5F)c5ccc([nH]5)c(-c5cc(S(=O)(=O)[O-])ccc5F)c5nc(c(-c6cc(S(=O)(=O)[O-])ccc6F)c6ccc3[nH]6)C=C5)C=C4)cc2)NC(=O)c2ccc(OC(F)F)cc2)cc1
REMARK SMILES IDX 11 1 10 2 8 3 9 4 7 6 6 7 5 8 1 9 2 10 3 11 95 12 4 13 94 14
REMARK SMILES IDX 81 15 82 16 83 18 84 19 85 20 93 21 86 22 92 23 87 24 88 25
REMARK SMILES IDX 89 26 90 27 91 28 12 29 13 30 14 31 15 32 16 33 17 35 18 36
REMARK SMILES IDX 19 37 80 38 20 39 79 40 21 41 22 42 23 43 73 44 24 45 78 46
REMARK SMILES IDX 72 47 74 48 25 49 77 50 71 51 70 52 26 54 58 55 38 56 57 57
REMARK SMILES IDX 39 58 42 59 56 60 75 61 40 62 41 63 55 65 76 66 43 67 27 68
REMARK SMILES IDX 28 69 36 70 29 71 35 72 37 73 34 74 30 75 31 76 32 77 33 78
REMARK SMILES IDX 59 79 60 80 68 81 61 82 67 83 69 84 66 85 62 86 63 87 64 88
REMARK SMILES IDX 65 89 44 90 45 91 53 92 46 93 52 94 54 95 51 96 47 97 48 98
REMARK SMILES IDX 49 99 50 100
REMARK H PARENT 10 5 81 17 15 34 74 53 42 64
REMARK Flexibility Score: inf
ROOT
ATOM      1  C   UNL A   1      31.749  28.005  24.156  1.00  0.00     0.116 C 
ENDROOT
BRANCH   1   2
ATOM      2  N   UNL A   1      32.343  27.467  22.927  1.00  0.00    -0.356 N 
ATOM      3  C   UNL A   1      33.030  26.326  22.658  1.00  0.00     0.222 C 
ATOM      4  O   UNL A   1      33.639  26.270  21.583  1.00  0.00    -0.275 OA
ATOM      5  H   UNL A   1      32.219  28.048  22.142  1.00  0.00     0.163 HD
BRANCH   3   6
ATOM      6  C   UNL A   1      33.015  25.129  23.580  1.00  0.00     0.129 C 
BRANCH   6   7
ATOM      7  C   UNL A   1      33.853  25.224  24.874  1.00  0.00     0.122 C 
BRANCH   7   8
ATOM      8  C   UNL A   1      35.066  24.302  24.781  1.00  0.00    -0.025 A 
ATOM      9  C   UNL A   1      37.901  21.049  24.848  1.00  0.00     0.044 C 
ATOM     10  C   UNL A   1      37.014  22.255  24.760  1.00  0.00    -0.051 A 
ATOM     11  C   UNL A   1      36.947  23.158  25.819  1.00  0.00     0.004 A 
ATOM     12  C   UNL A   1      36.153  22.426  23.673  1.00  0.00     0.004 A 
ATOM     13  C   UNL A   1      36.007  24.189  25.811  1.00  0.00     0.006 A 
ATOM     14  C   UNL A   1      35.187  23.435  23.683  1.00  0.00     0.006 A 
ENDBRANCH   7   8
BRANCH   7  15
ATOM     15  N   UNL A   1      33.101  25.004  26.113  1.00  0.00    -0.345 N 
ATOM     16  C   UNL A   1      32.260  23.974  26.443  1.00  0.00     0.251 C 
ATOM     17  H   UNL A   1      33.219  25.693  26.806  1.00  0.00     0.164 HD
ATOM     18  O   UNL A   1      31.328  24.164  27.222  1.00  0.00    -0.269 OA
BRANCH  16  19
ATOM     19  C   UNL A   1      32.510  22.607  25.938  1.00  0.00     0.040 A 
ATOM     20  C   UNL A   1      33.477  21.809  26.556  1.00  0.00     0.017 A 
ATOM     21  C   UNL A   1      31.908  22.171  24.755  1.00  0.00     0.017 A 
ATOM     22  C   UNL A   1      33.809  20.567  26.006  1.00  0.00     0.047 A 
ATOM     23  C   UNL A   1      32.237  20.925  24.215  1.00  0.00     0.047 A 
ATOM     24  C   UNL A   1      33.188  20.114  24.836  1.00  0.00     0.126 A 
BRANCH  24  25
ATOM     25  O   UNL A   1      33.615  18.893  24.398  1.00  0.00    -0.435 OA
BRANCH  25  26
ATOM     26  C   UNL A   1      32.628  17.935  24.031  1.00  0.00     0.542 C 
ATOM     27  F   UNL A   1      33.183  16.954  23.281  1.00  0.00    -0.167 F 
ATOM     28  F   UNL A   1      32.085  17.378  25.140  1.00  0.00    -0.167 F 
ENDBRANCH  25  26
ENDBRANCH  24  25
ENDBRANCH  16  19
ENDBRANCH   7  15
ENDBRANCH   6   7
ENDBRANCH   3   6
ENDBRANCH   1   2
BRANCH   1  29
ATOM     29  C   UNL A   1      32.804  28.852  24.887  1.00  0.00     0.023 C 
BRANCH  29  30
ATOM     30  C   UNL A   1      33.083  28.693  26.387  1.00  0.00     0.023 C 
BRANCH  30  31
ATOM     31  C   UNL A   1      34.459  28.995  26.952  1.00  0.00     0.116 C 
BRANCH  31  32
ATOM     32  N   UNL A   1      34.823  30.409  27.063  1.00  0.00    -0.352 N 
ATOM     33  C   UNL A   1      35.646  30.959  28.048  1.00  0.00     0.251 C 
ATOM     34  H   UNL A   1      34.456  31.024  26.387  1.00  0.00     0.163 HD
ATOM     35  O   UNL A   1      35.464  32.097  28.479  1.00  0.00    -0.269 OA
BRANCH  33  36
ATOM     36  C   UNL A   1      36.737  30.111  28.571  1.00  0.00     0.039 A 
ATOM     37  C   UNL A   1      36.700  29.363  29.756  1.00  0.00     0.014 A 
ATOM     38  C   UNL A   1      37.851  30.061  27.755  1.00  0.00     0.014 A 
ATOM     39  C   UNL A   1      37.779  28.515  30.062  1.00  0.00     0.010 A 
ATOM     40  C   UNL A   1      38.720  29.027  27.885  1.00  0.00     0.010 A 
ATOM     41  C   UNL A   1      38.782  28.350  29.104  1.00  0.00    -0.014 A 
BRANCH  41  42
ATOM     42  C   UNL A   1      40.076  27.695  29.252  1.00  0.00     0.031 A 
ATOM     43  C   UNL A   1      40.392  26.369  28.718  1.00  0.00     0.074 A 
ATOM     44  C   UNL A   1      41.071  28.550  29.583  1.00  0.00     0.049 A 
ATOM     45  N   UNL A   1      41.492  25.747  28.967  1.00  0.00    -0.248 NA
ATOM     46  C   UNL A   1      39.498  25.633  27.836  1.00  0.00     0.031 C 
ATOM     47  C   UNL A   1      42.495  28.487  29.297  1.00  0.00     0.029 A 
ATOM     48  N   UNL A   1      40.941  29.740  30.281  1.00  0.00    -0.354 N 
ATOM     49  C   UNL A   1      41.604  24.717  28.063  1.00  0.00     0.074 A 
ATOM     50  C   UNL A   1      40.294  24.623  27.456  1.00  0.00     0.031 C 
ATOM     51  C   UNL A   1      43.118  29.446  30.011  1.00  0.00     0.029 A 
ATOM     52  C   UNL A   1      42.140  30.025  30.922  1.00  0.00     0.049 A 
ATOM     53  H   UNL A   1      40.129  30.295  30.316  1.00  0.00     0.167 HD
ATOM     54  C   UNL A   1      42.834  24.165  27.841  1.00  0.00     0.034 A 
ATOM     55  C   UNL A   1      42.136  29.908  32.288  1.00  0.00     0.034 A 
ATOM     56  C   UNL A   1      43.865  24.823  28.655  1.00  0.00     0.049 A 
ATOM     57  C   UNL A   1      42.881  28.681  32.765  1.00  0.00     0.074 A 
ATOM     58  C   UNL A   1      44.814  25.803  28.408  1.00  0.00     0.029 A 
ATOM     59  N   UNL A   1      43.812  24.690  30.029  1.00  0.00    -0.354 N 
ATOM     60  N   UNL A   1      43.519  27.855  31.982  1.00  0.00    -0.248 NA
ATOM     61  C   UNL A   1      42.901  28.252  34.160  1.00  0.00     0.031 C 
ATOM     62  C   UNL A   1      45.254  26.317  29.669  1.00  0.00     0.029 A 
ATOM     63  C   UNL A   1      44.605  25.620  30.675  1.00  0.00     0.049 A 
ATOM     64  H   UNL A   1      43.271  24.011  30.494  1.00  0.00     0.167 HD
ATOM     65  C   UNL A   1      43.939  26.775  32.697  1.00  0.00     0.074 A 
ATOM     66  C   UNL A   1      43.548  27.079  34.066  1.00  0.00     0.031 C 
ATOM     67  C   UNL A   1      44.539  25.688  32.128  1.00  0.00     0.034 A 
BRANCH  54  68
ATOM     68  C   UNL A   1      43.182  23.185  26.741  1.00  0.00     0.023 A 
ATOM     69  C   UNL A   1      42.792  21.836  26.889  1.00  0.00     0.031 A 
ATOM     70  C   UNL A   1      43.859  23.483  25.543  1.00  0.00     0.131 A 
ATOM     71  C   UNL A   1      43.135  20.857  25.939  1.00  0.00     0.055 A 
ATOM     72  C   UNL A   1      44.246  22.502  24.618  1.00  0.00     0.041 A 
ATOM     73  F   UNL A   1      44.126  24.742  25.172  1.00  0.00    -0.206 F 
ATOM     74  C   UNL A   1      43.889  21.177  24.816  1.00  0.00     0.022 A 
BRANCH  71  75
ATOM     75  S   UNL A   1      42.552  19.158  26.181  1.00  0.00     0.124 S 
ATOM     76  O   UNL A   1      41.328  19.139  25.387  1.00  0.00    -0.237 OA
ATOM     77  O   UNL A   1      43.669  18.373  25.668  1.00  0.00    -0.237 OA
ATOM     78  O   UNL A   1      42.351  19.071  27.626  1.00  0.00    -0.744 OA
ENDBRANCH  71  75
ENDBRANCH  54  68
BRANCH  55  79
ATOM     79  C   UNL A   1      40.842  30.430  32.866  1.00  0.00     0.023 A 
ATOM     80  C   UNL A   1      40.670  31.829  32.787  1.00  0.00     0.031 A 
ATOM     81  C   UNL A   1      39.686  29.626  32.918  1.00  0.00     0.131 A 
ATOM     82  C   UNL A   1      39.403  32.349  32.496  1.00  0.00     0.055 A 
ATOM     83  C   UNL A   1      38.409  30.176  32.744  1.00  0.00     0.041 A 
ATOM     84  F   UNL A   1      39.782  28.290  32.975  1.00  0.00    -0.206 F 
ATOM     85  C   UNL A   1      38.267  31.536  32.476  1.00  0.00     0.022 A 
BRANCH  82  86
ATOM     86  S   UNL A   1      39.287  34.026  31.819  1.00  0.00     0.124 S 
ATOM     87  O   UNL A   1      39.200  33.812  30.376  1.00  0.00    -0.237 OA
ATOM     88  O   UNL A   1      38.060  34.503  32.453  1.00  0.00    -0.237 OA
ATOM     89  O   UNL A   1      40.527  34.646  32.272  1.00  0.00    -0.744 OA
ENDBRANCH  82  86
ENDBRANCH  55  79
BRANCH  67  90
ATOM     90  C   UNL A   1      45.068  24.575  32.981  1.00  0.00     0.023 A 
ATOM     91  C   UNL A   1      46.348  24.675  33.542  1.00  0.00     0.031 A 
ATOM     92  C   UNL A   1      44.355  23.388  33.235  1.00  0.00     0.131 A 
ATOM     93  C   UNL A   1      46.815  23.699  34.430  1.00  0.00     0.055 A 
ATOM     94  C   UNL A   1      44.876  22.359  34.021  1.00  0.00     0.041 A 
ATOM     95  F   UNL A   1      43.105  23.199  32.787  1.00  0.00    -0.206 F 
ATOM     96  C   UNL A   1      46.103  22.522  34.648  1.00  0.00     0.022 A 
BRANCH  93  97
ATOM     97  S   UNL A   1      48.286  24.085  35.405  1.00  0.00     0.124 S 
ATOM     98  O   UNL A   1      47.991  25.416  35.922  1.00  0.00    -0.237 OA
ATOM     99  O   UNL A   1      48.270  23.006  36.392  1.00  0.00    -0.237 OA
ATOM    100  O   UNL A   1      49.371  24.017  34.429  1.00  0.00    -0.744 OA
ENDBRANCH  93  97
ENDBRANCH  67  90
ENDBRANCH  41  42
ENDBRANCH  33  36
ENDBRANCH  31  32
ENDBRANCH  30  31
ENDBRANCH  29  30
ENDBRANCH   1  29
TORSDOF 20
ENDMDL
MODEL 2
REMARK VINA RESULT:     -13.0      1.572      2.613
REMARK SMILES Cc1ccc([C@@H](CC(=O)NCCCCNC(=O)c2ccc(-c3c4nc(c(-c5cc(S(=O)(=O)[O-])ccc5F)c5ccc([nH]5)c(-c5cc(S(=O)(=O)[O-])ccc5F)c5nc(c(-c6cc(S(=O)(=O)[O-])ccc6F)c6ccc3[nH]6)C=C5)C=C4)cc2)NC(=O)c2ccc(OC(F)F)cc2)cc1
REMARK SMILES IDX 11 1 10 2 8 3 9 4 7 6 6 7 5 8 1 9 2 10 3 11 95 12 4 13 94 14
REMARK SMILES IDX 81 15 82 16 83 18 84 19 85 20 93 21 86 22 92 23 87 24 88 25
REMARK SMILES IDX 89 26 90 27 91 28 12 29 13 30 14 31 15 32 16 33 17 35 18 36
REMARK SMILES IDX 19 37 80 38 20 39 79 40 21 41 22 42 23 43 73 44 24 45 78 46
REMARK SMILES IDX 72 47 74 48 25 49 77 50 71 51 70 52 26 54 58 55 38 56 57 57
REMARK SMILES IDX 39 58 42 59 56 60 75 61 40 62 41 63 55 65 76 66 43 67 27 68
REMARK SMILES IDX 28 69 36 70 29 71 35 72 37 73 34 74 30 75 31 76 32 77 33 78
REMARK SMILES IDX 59 79 60 80 68 81 61 82 67 83 69 84 66 85 62 86 63 87 64 88
REMARK SMILES IDX 65 89 44 90 45 91 53 92 46 93 52 94 54 95 51 96 47 97 48 98
REMARK SMILES IDX 49 99 50 100
REMARK H PARENT 10 5 81 17 15 34 74 53 42 64
REMARK Flexibility Score: inf
ROOT
ATOM      1  C   UNL A   1      31.899  28.239  24.111  1.00  0.00     0.116 C 
ENDROOT
BRANCH   1   2
ATOM      2  N   UNL A   1      30.516  27.767  24.248  1.00  0.00    -0.356 N 
ATOM      3  C   UNL A   1      29.957  26.529  24.207  1.00  0.00     0.222 C 
ATOM      4  O   UNL A   1      28.728  26.465  24.088  1.00  0.00    -0.275 OA
ATOM      5  H   UNL A   1      29.866  28.490  24.398  1.00  0.00     0.163 HD
BRANCH   3   6
ATOM      6  C   UNL A   1      30.767  25.263  24.370  1.00  0.00     0.129 C 
BRANCH   6   7
ATOM      7  C   UNL A   1      30.923  24.361  23.127  1.00  0.00     0.122 C 
BRANCH   7   8
ATOM      8  C   UNL A   1      31.345  22.956  23.549  1.00  0.00    -0.025 A 
ATOM      9  C   UNL A   1      33.396  19.360  24.771  1.00  0.00     0.044 C 
ATOM     10  C   UNL A   1      32.563  20.540  24.365  1.00  0.00    -0.051 A 
ATOM     11  C   UNL A   1      32.276  20.769  23.021  1.00  0.00     0.004 A 
ATOM     12  C   UNL A   1      32.169  21.490  25.310  1.00  0.00     0.004 A 
ATOM     13  C   UNL A   1      31.643  21.949  22.624  1.00  0.00     0.006 A 
ATOM     14  C   UNL A   1      31.570  22.686  24.909  1.00  0.00     0.006 A 
ENDBRANCH   7   8
BRANCH   7  15
ATOM     15  N   UNL A   1      31.801  24.896  22.082  1.00  0.00    -0.345 N 
ATOM     16  C   UNL A   1      33.098  25.327  22.180  1.00  0.00     0.251 C 
ATOM     17  H   UNL A   1      31.402  24.954  21.184  1.00  0.00     0.164 HD
ATOM     18  O   UNL A   1      33.515  26.203  21.425  1.00  0.00    -0.269 OA
BRANCH  16  19
ATOM     19  C   UNL A   1      34.034  24.687  23.129  1.00  0.00     0.040 A 
ATOM     20  C   UNL A   1      34.712  23.525  22.752  1.00  0.00     0.017 A 
ATOM     21  C   UNL A   1      34.119  25.140  24.448  1.00  0.00     0.017 A 
ATOM     22  C   UNL A   1      35.499  22.844  23.686  1.00  0.00     0.047 A 
ATOM     23  C   UNL A   1      34.914  24.460  25.376  1.00  0.00     0.047 A 
ATOM     24  C   UNL A   1      35.609  23.309  25.002  1.00  0.00     0.126 A 
BRANCH  24  25
ATOM     25  O   UNL A   1      36.395  22.543  25.816  1.00  0.00    -0.435 OA
BRANCH  25  26
ATOM     26  C   UNL A   1      37.772  22.415  25.483  1.00  0.00     0.542 C 
ATOM     27  F   UNL A   1      38.286  23.620  25.142  1.00  0.00    -0.167 F 
ATOM     28  F   UNL A   1      38.465  21.933  26.543  1.00  0.00    -0.167 F 
ENDBRANCH  25  26
ENDBRANCH  24  25
ENDBRANCH  16  19
ENDBRANCH   7  15
ENDBRANCH   6   7
ENDBRANCH   3   6
ENDBRANCH   1   2
BRANCH   1  29
ATOM     29  C   UNL A   1      32.475  28.499  25.513  1.00  0.00     0.023 C 
BRANCH  29  30
ATOM     30  C   UNL A   1      33.985  28.535  25.783  1.00  0.00     0.023 C 
BRANCH  30  31
ATOM     31  C   UNL A   1      34.520  29.053  27.105  1.00  0.00     0.116 C 
BRANCH  31  32
ATOM     32  N   UNL A   1      34.978  30.444  27.124  1.00  0.00    -0.352 N 
ATOM     33  C   UNL A   1      35.862  30.993  28.055  1.00  0.00     0.251 C 
ATOM     34  H   UNL A   1      34.634  31.042  26.422  1.00  0.00     0.163 HD
ATOM     35  O   UNL A   1      35.767  32.163  28.422  1.00  0.00    -0.269 OA
BRANCH  33  36
ATOM     36  C   UNL A   1      36.909  30.105  28.601  1.00  0.00     0.039 A 
ATOM     37  C   UNL A   1      36.809  29.342  29.773  1.00  0.00     0.014 A 
ATOM     38  C   UNL A   1      38.048  30.034  27.823  1.00  0.00     0.014 A 
ATOM     39  C   UNL A   1      37.852  28.458  30.102  1.00  0.00     0.010 A 
ATOM     40  C   UNL A   1      38.882  28.974  27.966  1.00  0.00     0.010 A 
ATOM     41  C   UNL A   1      38.883  28.277  29.176  1.00  0.00    -0.014 A 
BRANCH  41  42
ATOM     42  C   UNL A   1      40.151  27.581  29.358  1.00  0.00     0.031 A 
ATOM     43  C   UNL A   1      40.438  26.245  28.834  1.00  0.00     0.074 A 
ATOM     44  C   UNL A   1      41.164  28.406  29.712  1.00  0.00     0.049 A 
ATOM     45  N   UNL A   1      41.511  25.589  29.112  1.00  0.00    -0.248 NA
ATOM     46  C   UNL A   1      39.544  25.536  27.931  1.00  0.00     0.031 C 
ATOM     47  C   UNL A   1      42.591  28.297  29.462  1.00  0.00     0.029 A 
ATOM     48  N   UNL A   1      41.055  29.601  30.404  1.00  0.00    -0.354 N 
ATOM     49  C   UNL A   1      41.613  24.554  28.213  1.00  0.00     0.074 A 
ATOM     50  C   UNL A   1      40.316  24.500  27.573  1.00  0.00     0.031 C 
ATOM     51  C   UNL A   1      43.227  29.237  30.190  1.00  0.00     0.029 A 
ATOM     52  C   UNL A   1      42.246  29.849  31.075  1.00  0.00     0.049 A 
ATOM     53  H   UNL A   1      40.260  30.182  30.418  1.00  0.00     0.167 HD
ATOM     54  C   UNL A   1      42.830  23.963  28.022  1.00  0.00     0.034 A 
ATOM     55  C   UNL A   1      42.203  29.736  32.441  1.00  0.00     0.034 A 
ATOM     56  C   UNL A   1      43.861  24.590  28.861  1.00  0.00     0.049 A 
ATOM     57  C   UNL A   1      42.897  28.488  32.938  1.00  0.00     0.074 A 
ATOM     58  C   UNL A   1      44.846  25.539  28.636  1.00  0.00     0.029 A 
ATOM     59  N   UNL A   1      43.769  24.462  30.233  1.00  0.00    -0.354 N 
ATOM     60  N   UNL A   1      43.528  27.640  32.173  1.00  0.00    -0.248 NA
ATOM     61  C   UNL A   1      42.868  28.062  34.334  1.00  0.00     0.031 C 
ATOM     62  C   UNL A   1      45.270  26.042  29.907  1.00  0.00     0.029 A 
ATOM     63  C   UNL A   1      44.575  25.368  30.898  1.00  0.00     0.049 A 
ATOM     64  H   UNL A   1      43.196  23.802  30.686  1.00  0.00     0.167 HD
ATOM     65  C   UNL A   1      43.895  26.549  32.900  1.00  0.00     0.074 A 
ATOM     66  C   UNL A   1      43.479  26.869  34.258  1.00  0.00     0.031 C 
ATOM     67  C   UNL A   1      44.474  25.442  32.348  1.00  0.00     0.034 A 
BRANCH  54  68
ATOM     68  C   UNL A   1      43.174  22.970  26.934  1.00  0.00     0.023 A 
ATOM     69  C   UNL A   1      42.671  21.654  27.034  1.00  0.00     0.031 A 
ATOM     70  C   UNL A   1      43.953  23.225  25.788  1.00  0.00     0.131 A 
ATOM     71  C   UNL A   1      43.000  20.661  26.094  1.00  0.00     0.055 A 
ATOM     72  C   UNL A   1      44.323  22.225  24.876  1.00  0.00     0.041 A 
ATOM     73  F   UNL A   1      44.341  24.462  25.456  1.00  0.00    -0.206 F 
ATOM     74  C   UNL A   1      43.852  20.932  25.029  1.00  0.00     0.022 A 
BRANCH  71  75
ATOM     75  S   UNL A   1      42.271  19.010  26.270  1.00  0.00     0.124 S 
ATOM     76  O   UNL A   1      40.928  19.211  25.737  1.00  0.00    -0.237 OA
ATOM     77  O   UNL A   1      43.170  18.188  25.468  1.00  0.00    -0.237 OA
ATOM     78  O   UNL A   1      42.332  18.765  27.710  1.00  0.00    -0.744 OA
ENDBRANCH  71  75
ENDBRANCH  54  68
BRANCH  55  79
ATOM     79  C   UNL A   1      40.912  30.300  32.985  1.00  0.00     0.023 A 
ATOM     80  C   UNL A   1      40.776  31.701  32.876  1.00  0.00     0.031 A 
ATOM     81  C   UNL A   1      39.737  29.526  33.031  1.00  0.00     0.131 A 
ATOM     82  C   UNL A   1      39.528  32.246  32.552  1.00  0.00     0.055 A 
ATOM     83  C   UNL A   1      38.477  30.103  32.823  1.00  0.00     0.041 A 
ATOM     84  F   UNL A   1      39.798  28.189  33.115  1.00  0.00    -0.206 F 
ATOM     85  C   UNL A   1      38.373  31.461  32.528  1.00  0.00     0.022 A 
BRANCH  82  86
ATOM     86  S   UNL A   1      39.465  33.911  31.842  1.00  0.00     0.124 S 
ATOM     87  O   UNL A   1      40.827  34.411  32.009  1.00  0.00    -0.237 OA
ATOM     88  O   UNL A   1      39.073  33.617  30.464  1.00  0.00    -0.237 OA
ATOM     89  O   UNL A   1      38.462  34.578  32.665  1.00  0.00    -0.744 OA
ENDBRANCH  82  86
ENDBRANCH  55  79
BRANCH  67  90
ATOM     90  C   UNL A   1      44.946  24.315  33.216  1.00  0.00     0.023 A 
ATOM     91  C   UNL A   1      46.266  24.303  33.686  1.00  0.00     0.031 A 
ATOM     92  C   UNL A   1      44.136  23.220  33.573  1.00  0.00     0.131 A 
ATOM     93  C   UNL A   1      46.693  23.320  34.587  1.00  0.00     0.055 A 
ATOM     94  C   UNL A   1      44.604  22.175  34.370  1.00  0.00     0.041 A 
ATOM     95  F   UNL A   1      42.845  23.145  33.217  1.00  0.00    -0.206 F 
ATOM     96  C   UNL A   1      45.882  22.234  34.906  1.00  0.00     0.022 A 
BRANCH  93  97
ATOM     97  S   UNL A   1      48.260  23.588  35.444  1.00  0.00     0.124 S 
ATOM     98  O   UNL A   1      47.839  24.168  36.714  1.00  0.00    -0.237 OA
ATOM     99  O   UNL A   1      48.788  22.227  35.514  1.00  0.00    -0.237 OA
ATOM    100  O   UNL A   1      48.987  24.491  34.554  1.00  0.00    -0.744 OA
ENDBRANCH  93  97
ENDBRANCH  67  90
ENDBRANCH  41  42
ENDBRANCH  33  36
ENDBRANCH  31  32
ENDBRANCH  30  31
ENDBRANCH  29  30
ENDBRANCH   1  29
TORSDOF 20
ENDMDL
MODEL 3
REMARK VINA RESULT:     -12.7      2.465      3.431
REMARK SMILES Cc1ccc([C@@H](CC(=O)NCCCCNC(=O)c2ccc(-c3c4nc(c(-c5cc(S(=O)(=O)[O-])ccc5F)c5ccc([nH]5)c(-c5cc(S(=O)(=O)[O-])ccc5F)c5nc(c(-c6cc(S(=O)(=O)[O-])ccc6F)c6ccc3[nH]6)C=C5)C=C4)cc2)NC(=O)c2ccc(OC(F)F)cc2)cc1
REMARK SMILES IDX 11 1 10 2 8 3 9 4 7 6 6 7 5 8 1 9 2 10 3 11 95 12 4 13 94 14
REMARK SMILES IDX 81 15 82 16 83 18 84 19 85 20 93 21 86 22 92 23 87 24 88 25
REMARK SMILES IDX 89 26 90 27 91 28 12 29 13 30 14 31 15 32 16 33 17 35 18 36
REMARK SMILES IDX 19 37 80 38 20 39 79 40 21 41 22 42 23 43 73 44 24 45 78 46
REMARK SMILES IDX 72 47 74 48 25 49 77 50 71 51 70 52 26 54 58 55 38 56 57 57
REMARK SMILES IDX 39 58 42 59 56 60 75 61 40 62 41 63 55 65 76 66 43 67 27 68
REMARK SMILES IDX 28 69 36 70 29 71 35 72 37 73 34 74 30 75 31 76 32 77 33 78
REMARK SMILES IDX 59 79 60 80 68 81 61 82 67 83 69 84 66 85 62 86 63 87 64 88
REMARK SMILES IDX 65 89 44 90 45 91 53 92 46 93 52 94 54 95 51 96 47 97 48 98
REMARK SMILES IDX 49 99 50 100
REMARK H PARENT 10 5 81 17 15 34 74 53 42 64
REMARK Flexibility Score: inf
ROOT
ATOM      1  C   UNL A   1      31.988  27.908  24.425  1.00  0.00     0.116 C 
ENDROOT
BRANCH   1   2
ATOM      2  N   UNL A   1      30.577  27.513  24.360  1.00  0.00    -0.356 N 
ATOM      3  C   UNL A   1      29.962  26.311  24.199  1.00  0.00     0.222 C 
ATOM      4  O   UNL A   1      28.759  26.323  23.916  1.00  0.00    -0.275 OA
ATOM      5  H   UNL A   1      29.952  28.267  24.450  1.00  0.00     0.163 HD
BRANCH   3   6
ATOM      6  C   UNL A   1      30.674  24.996  24.420  1.00  0.00     0.129 C 
BRANCH   6   7
ATOM      7  C   UNL A   1      30.931  24.116  23.178  1.00  0.00     0.122 C 
BRANCH   7   8
ATOM      8  C   UNL A   1      31.448  22.745  23.606  1.00  0.00    -0.025 A 
ATOM      9  C   UNL A   1      33.753  19.286  24.769  1.00  0.00     0.044 C 
ATOM     10  C   UNL A   1      32.837  20.414  24.394  1.00  0.00    -0.051 A 
ATOM     11  C   UNL A   1      32.443  20.589  23.069  1.00  0.00     0.004 A 
ATOM     12  C   UNL A   1      32.467  21.373  25.340  1.00  0.00     0.004 A 
ATOM     13  C   UNL A   1      31.727  21.725  22.688  1.00  0.00     0.006 A 
ATOM     14  C   UNL A   1      31.784  22.527  24.952  1.00  0.00     0.006 A 
ENDBRANCH   7   8
BRANCH   7  15
ATOM     15  N   UNL A   1      31.791  24.723  22.158  1.00  0.00    -0.345 N 
ATOM     16  C   UNL A   1      33.075  25.183  22.273  1.00  0.00     0.251 C 
ATOM     17  H   UNL A   1      31.387  24.813  21.265  1.00  0.00     0.164 HD
ATOM     18  O   UNL A   1      33.467  26.105  21.560  1.00  0.00    -0.269 OA
BRANCH  16  19
ATOM     19  C   UNL A   1      34.032  24.524  23.189  1.00  0.00     0.040 A 
ATOM     20  C   UNL A   1      34.262  25.069  24.455  1.00  0.00     0.017 A 
ATOM     21  C   UNL A   1      34.823  23.464  22.739  1.00  0.00     0.017 A 
ATOM     22  C   UNL A   1      35.257  24.528  25.275  1.00  0.00     0.047 A 
ATOM     23  C   UNL A   1      35.811  22.921  23.566  1.00  0.00     0.047 A 
ATOM     24  C   UNL A   1      36.034  23.449  24.839  1.00  0.00     0.126 A 
BRANCH  24  25
ATOM     25  O   UNL A   1      36.980  23.027  25.730  1.00  0.00    -0.435 OA
BRANCH  25  26
ATOM     26  C   UNL A   1      37.613  21.777  25.487  1.00  0.00     0.542 C 
ATOM     27  F   UNL A   1      38.672  21.619  26.315  1.00  0.00    -0.167 F 
ATOM     28  F   UNL A   1      36.740  20.763  25.703  1.00  0.00    -0.167 F 
ENDBRANCH  25  26
ENDBRANCH  24  25
ENDBRANCH  16  19
ENDBRANCH   7  15
ENDBRANCH   6   7
ENDBRANCH   3   6
ENDBRANCH   1   2
BRANCH   1  29
ATOM     29  C   UNL A   1      32.149  28.994  25.502  1.00  0.00     0.023 C 
BRANCH  29  30
ATOM     30  C   UNL A   1      32.624  28.670  26.925  1.00  0.00     0.023 C 
BRANCH  30  31
ATOM     31  C   UNL A   1      34.022  29.048  27.377  1.00  0.00     0.116 C 
BRANCH  31  32
ATOM     32  N   UNL A   1      34.466  30.407  27.057  1.00  0.00    -0.352 N 
ATOM     33  C   UNL A   1      35.487  31.101  27.709  1.00  0.00     0.251 C 
ATOM     34  H   UNL A   1      34.004  30.871  26.320  1.00  0.00     0.163 HD
ATOM     35  O   UNL A   1      35.444  32.321  27.859  1.00  0.00    -0.269 OA
BRANCH  33  36
ATOM     36  C   UNL A   1      36.617  30.308  28.234  1.00  0.00     0.039 A 
ATOM     37  C   UNL A   1      36.692  29.727  29.508  1.00  0.00     0.014 A 
ATOM     38  C   UNL A   1      37.644  30.124  27.329  1.00  0.00     0.014 A 
ATOM     39  C   UNL A   1      37.789  28.905  29.820  1.00  0.00     0.010 A 
ATOM     40  C   UNL A   1      38.514  29.099  27.512  1.00  0.00     0.010 A 
ATOM     41  C   UNL A   1      38.691  28.591  28.800  1.00  0.00    -0.014 A 
BRANCH  41  42
ATOM     42  C   UNL A   1      39.988  27.934  28.910  1.00  0.00     0.031 A 
ATOM     43  C   UNL A   1      40.196  26.493  28.748  1.00  0.00     0.074 A 
ATOM     44  C   UNL A   1      41.029  28.789  28.792  1.00  0.00     0.049 A 
ATOM     45  N   UNL A   1      41.320  25.909  28.976  1.00  0.00    -0.248 NA
ATOM     46  C   UNL A   1      39.153  25.585  28.294  1.00  0.00     0.031 C 
ATOM     47  C   UNL A   1      42.376  28.563  28.296  1.00  0.00     0.029 A 
ATOM     48  N   UNL A   1      41.034  30.136  29.115  1.00  0.00    -0.354 N 
ATOM     49  C   UNL A   1      41.261  24.655  28.414  1.00  0.00     0.074 A 
ATOM     50  C   UNL A   1      39.862  24.464  28.100  1.00  0.00     0.031 C 
ATOM     51  C   UNL A   1      43.123  29.651  28.572  1.00  0.00     0.029 A 
ATOM     52  C   UNL A   1      42.331  30.526  29.424  1.00  0.00     0.049 A 
ATOM     53  H   UNL A   1      40.244  30.724  29.124  1.00  0.00     0.167 HD
ATOM     54  C   UNL A   1      42.428  23.992  28.156  1.00  0.00     0.034 A 
ATOM     55  C   UNL A   1      42.576  30.814  30.742  1.00  0.00     0.034 A 
ATOM     56  C   UNL A   1      43.593  24.799  28.546  1.00  0.00     0.049 A 
ATOM     57  C   UNL A   1      43.392  29.739  31.426  1.00  0.00     0.074 A 
ATOM     58  C   UNL A   1      44.484  25.607  27.857  1.00  0.00     0.029 A 
ATOM     59  N   UNL A   1      43.792  25.076  29.884  1.00  0.00    -0.354 N 
ATOM     60  N   UNL A   1      43.873  28.685  30.825  1.00  0.00    -0.248 NA
ATOM     61  C   UNL A   1      43.666  29.736  32.859  1.00  0.00     0.031 C 
ATOM     62  C   UNL A   1      45.149  26.441  28.812  1.00  0.00     0.029 A 
ATOM     63  C   UNL A   1      44.694  26.106  30.076  1.00  0.00     0.049 A 
ATOM     64  H   UNL A   1      43.343  24.595  30.617  1.00  0.00     0.167 HD
ATOM     65  C   UNL A   1      44.413  27.839  31.746  1.00  0.00     0.074 A 
ATOM     66  C   UNL A   1      44.280  28.551  33.008  1.00  0.00     0.031 C 
ATOM     67  C   UNL A   1      44.894  26.599  31.431  1.00  0.00     0.034 A 
BRANCH  54  68
ATOM     68  C   UNL A   1      42.565  22.715  27.356  1.00  0.00     0.023 A 
ATOM     69  C   UNL A   1      43.591  22.629  26.390  1.00  0.00     0.031 A 
ATOM     70  C   UNL A   1      41.766  21.563  27.483  1.00  0.00     0.131 A 
ATOM     71  C   UNL A   1      43.740  21.499  25.565  1.00  0.00     0.055 A 
ATOM     72  C   UNL A   1      41.880  20.455  26.629  1.00  0.00     0.041 A 
ATOM     73  F   UNL A   1      40.881  21.418  28.476  1.00  0.00    -0.206 F 
ATOM     74  C   UNL A   1      42.868  20.421  25.658  1.00  0.00     0.022 A 
BRANCH  71  75
ATOM     75  S   UNL A   1      45.114  21.451  24.384  1.00  0.00     0.124 S 
ATOM     76  O   UNL A   1      44.725  20.350  23.508  1.00  0.00    -0.237 OA
ATOM     77  O   UNL A   1      45.070  22.788  23.803  1.00  0.00    -0.237 OA
ATOM     78  O   UNL A   1      46.277  21.184  25.228  1.00  0.00    -0.744 OA
ENDBRANCH  71  75
ENDBRANCH  54  68
BRANCH  55  79
ATOM     79  C   UNL A   1      41.412  31.556  31.354  1.00  0.00     0.023 A 
ATOM     80  C   UNL A   1      40.463  30.744  32.012  1.00  0.00     0.031 A 
ATOM     81  C   UNL A   1      41.533  32.896  31.770  1.00  0.00     0.131 A 
ATOM     82  C   UNL A   1      39.880  31.197  33.203  1.00  0.00     0.055 A 
ATOM     83  C   UNL A   1      40.850  33.373  32.896  1.00  0.00     0.041 A 
ATOM     84  F   UNL A   1      42.429  33.713  31.197  1.00  0.00    -0.206 F 
ATOM     85  C   UNL A   1      40.061  32.507  33.651  1.00  0.00     0.022 A 
BRANCH  82  86
ATOM     86  S   UNL A   1      39.156  29.980  34.333  1.00  0.00     0.124 S 
ATOM     87  O   UNL A   1      38.383  29.107  33.454  1.00  0.00    -0.237 OA
ATOM     88  O   UNL A   1      40.357  29.380  34.910  1.00  0.00    -0.237 OA
ATOM     89  O   UNL A   1      38.357  30.807  35.231  1.00  0.00    -0.744 OA
ENDBRANCH  82  86
ENDBRANCH  55  79
BRANCH  67  90
ATOM     90  C   UNL A   1      45.567  25.756  32.471  1.00  0.00     0.023 A 
ATOM     91  C   UNL A   1      44.793  25.037  33.393  1.00  0.00     0.031 A 
ATOM     92  C   UNL A   1      46.965  25.663  32.608  1.00  0.00     0.131 A 
ATOM     93  C   UNL A   1      45.398  24.159  34.298  1.00  0.00     0.055 A 
ATOM     94  C   UNL A   1      47.567  24.882  33.596  1.00  0.00     0.041 A 
ATOM     95  F   UNL A   1      47.804  26.272  31.758  1.00  0.00    -0.206 F 
ATOM     96  C   UNL A   1      46.783  24.101  34.432  1.00  0.00     0.022 A 
BRANCH  93  97
ATOM     97  S   UNL A   1      44.335  22.989  35.173  1.00  0.00     0.124 S 
ATOM     98  O   UNL A   1      44.833  21.696  34.716  1.00  0.00    -0.237 OA
ATOM     99  O   UNL A   1      44.624  23.320  36.566  1.00  0.00    -0.237 OA
ATOM    100  O   UNL A   1      42.992  23.339  34.717  1.00  0.00    -0.744 OA
ENDBRANCH  93  97
ENDBRANCH  67  90
ENDBRANCH  41  42
ENDBRANCH  33  36
ENDBRANCH  31  32
ENDBRANCH  30  31
ENDBRANCH  29  30
ENDBRANCH   1  29
TORSDOF 20
ENDMDL
