MODEL 1
REMARK VINA RESULT:     -10.8      0.000      0.000
REMARK SMILES COCc1cccc(C[NH2+][C@H](C)[C@H](C)C(=O)NCCCCNC(=O)c2ccc(-c3c4nc(c(-c5cc(S(=O)(=O)[O-])ccc5F)c5ccc([nH]5)c(-c5cc(S(=O)(=O)[O-])ccc5F)c5nc(c(-c6cc(S(=O)(=O)[O-])ccc6F)c6ccc3[nH]6)C=C5)C=C4)cc2)c1
REMARK SMILES IDX 18 1 17 2 15 3 16 4 13 6 14 7 11 8 12 9 10 10 9 13 8 14 4 15
REMARK SMILES IDX 5 16 88 17 6 18 7 19 3 20 2 21 1 22 19 23 20 24 21 25 22 26
REMARK SMILES IDX 23 27 24 29 25 30 26 31 87 32 27 33 86 34 28 35 29 36 30 37
REMARK SMILES IDX 80 38 31 39 85 40 79 41 81 42 32 43 84 44 78 45 77 46 33 48
REMARK SMILES IDX 65 49 45 50 64 51 46 52 49 53 63 54 82 55 47 56 48 57 62 59
REMARK SMILES IDX 83 60 50 61 34 62 35 63 43 64 36 65 42 66 44 67 41 68 37 69
REMARK SMILES IDX 38 70 39 71 40 72 66 73 67 74 75 75 68 76 74 77 76 78 73 79
REMARK SMILES IDX 69 80 70 81 71 82 72 83 51 84 52 85 60 86 53 87 59 88 61 89
REMARK SMILES IDX 58 90 54 91 55 92 56 93 57 94
REMARK H PARENT 17 5 10 11 10 12 22 28 81 47 49 58
REMARK Flexibility Score: inf
ROOT
ATOM      1  C   UNL A   1      32.847  29.841  25.819  1.00  0.00     0.116 C 
ENDROOT
BRANCH   1   2
ATOM      2  N   UNL A   1      33.351  29.567  24.492  1.00  0.00    -0.356 N 
ATOM      3  C   UNL A   1      32.953  28.663  23.568  1.00  0.00     0.228 C 
ATOM      4  O   UNL A   1      33.577  28.630  22.503  1.00  0.00    -0.275 OA
ATOM      5  H   UNL A   1      34.107  30.132  24.215  1.00  0.00     0.163 HD
BRANCH   3   6
ATOM      6  C   UNL A   1      31.764  27.740  23.781  1.00  0.00     0.133 C 
ATOM      7  C   UNL A   1      30.573  28.062  22.875  1.00  0.00     0.024 C 
BRANCH   6   8
ATOM      8  C   UNL A   1      32.110  26.218  23.830  1.00  0.00     0.191 C 
ATOM      9  C   UNL A   1      30.893  25.279  23.808  1.00  0.00     0.076 C 
BRANCH   8  10
ATOM     10  N   UNL A   1      33.096  25.766  22.808  1.00  0.00    -0.340 N 
ATOM     11  H   UNL A   1      32.960  26.318  21.960  1.00  0.00     0.346 HD
ATOM     12  H   UNL A   1      34.025  25.896  23.210  1.00  0.00     0.346 HD
BRANCH  10  13
ATOM     13  C   UNL A   1      32.973  24.347  22.461  1.00  0.00     0.297 C 
BRANCH  13  14
ATOM     14  C   UNL A   1      33.854  23.428  23.271  1.00  0.00     0.006 A 
ATOM     15  C   UNL A   1      34.059  21.338  24.536  1.00  0.00    -0.022 A 
ATOM     16  C   UNL A   1      35.439  21.550  24.613  1.00  0.00     0.006 A 
ATOM     17  C   UNL A   1      33.281  22.286  23.856  1.00  0.00     0.015 A 
ATOM     18  C   UNL A   1      36.023  22.684  24.043  1.00  0.00     0.001 A 
ATOM     19  C   UNL A   1      35.236  23.615  23.366  1.00  0.00     0.009 A 
BRANCH  15  20
ATOM     20  C   UNL A   1      33.401  20.090  25.076  1.00  0.00     0.195 C 
BRANCH  20  21
ATOM     21  O   UNL A   1      33.730  18.909  24.349  1.00  0.00    -0.380 OA
ATOM     22  C   UNL A   1      32.661  17.983  24.227  1.00  0.00     0.195 C 
ENDBRANCH  20  21
ENDBRANCH  15  20
ENDBRANCH  13  14
ENDBRANCH  10  13
ENDBRANCH   8  10
ENDBRANCH   6   8
ENDBRANCH   3   6
ENDBRANCH   1   2
BRANCH   1  23
ATOM     23  C   UNL A   1      31.526  30.598  25.750  1.00  0.00     0.023 C 
BRANCH  23  24
ATOM     24  C   UNL A   1      31.391  31.714  26.789  1.00  0.00     0.023 C 
BRANCH  24  25
ATOM     25  C   UNL A   1      32.701  32.380  27.191  1.00  0.00     0.116 C 
BRANCH  25  26
ATOM     26  N   UNL A   1      32.544  33.797  27.479  1.00  0.00    -0.352 N 
ATOM     27  C   UNL A   1      33.219  34.547  28.415  1.00  0.00     0.251 C 
ATOM     28  H   UNL A   1      31.874  34.278  26.940  1.00  0.00     0.163 HD
ATOM     29  O   UNL A   1      32.895  35.703  28.643  1.00  0.00    -0.269 OA
BRANCH  27  30
ATOM     30  C   UNL A   1      34.318  33.899  29.157  1.00  0.00     0.039 A 
ATOM     31  C   UNL A   1      34.012  33.034  30.209  1.00  0.00     0.014 A 
ATOM     32  C   UNL A   1      35.637  34.081  28.735  1.00  0.00     0.014 A 
ATOM     33  C   UNL A   1      35.036  32.293  30.802  1.00  0.00     0.010 A 
ATOM     34  C   UNL A   1      36.642  33.295  29.285  1.00  0.00     0.010 A 
ATOM     35  C   UNL A   1      36.351  32.390  30.321  1.00  0.00    -0.014 A 
BRANCH  35  36
ATOM     36  C   UNL A   1      37.460  31.590  30.901  1.00  0.00     0.031 A 
ATOM     37  C   UNL A   1      37.910  31.878  32.305  1.00  0.00     0.074 A 
ATOM     38  C   UNL A   1      38.106  30.678  30.148  1.00  0.00     0.049 A 
ATOM     39  N   UNL A   1      38.962  31.441  32.946  1.00  0.00    -0.248 NA
ATOM     40  C   UNL A   1      37.079  32.815  33.078  1.00  0.00     0.031 C 
ATOM     41  C   UNL A   1      37.769  30.321  28.769  1.00  0.00     0.029 A 
ATOM     42  N   UNL A   1      39.199  29.896  30.433  1.00  0.00    -0.354 N 
ATOM     43  C   UNL A   1      38.932  32.065  34.188  1.00  0.00     0.074 A 
ATOM     44  C   UNL A   1      37.790  32.954  34.186  1.00  0.00     0.031 C 
ATOM     45  C   UNL A   1      38.626  29.383  28.335  1.00  0.00     0.029 A 
ATOM     46  C   UNL A   1      39.607  29.109  29.381  1.00  0.00     0.049 A 
ATOM     47  H   UNL A   1      39.648  29.899  31.308  1.00  0.00     0.167 HD
ATOM     48  C   UNL A   1      39.768  31.895  35.242  1.00  0.00     0.034 A 
ATOM     49  C   UNL A   1      40.664  28.279  29.269  1.00  0.00     0.034 A 
ATOM     50  C   UNL A   1      40.889  30.991  35.235  1.00  0.00     0.049 A 
ATOM     51  C   UNL A   1      41.598  28.129  30.447  1.00  0.00     0.074 A 
ATOM     52  C   UNL A   1      41.795  30.729  36.248  1.00  0.00     0.029 A 
ATOM     53  N   UNL A   1      41.252  30.190  34.160  1.00  0.00    -0.354 N 
ATOM     54  N   UNL A   1      41.555  28.724  31.617  1.00  0.00    -0.248 NA
ATOM     55  C   UNL A   1      42.716  27.188  30.294  1.00  0.00     0.031 C 
ATOM     56  C   UNL A   1      42.731  29.805  35.772  1.00  0.00     0.029 A 
ATOM     57  C   UNL A   1      42.371  29.439  34.484  1.00  0.00     0.049 A 
ATOM     58  H   UNL A   1      40.784  30.158  33.295  1.00  0.00     0.167 HD
ATOM     59  C   UNL A   1      42.610  28.191  32.352  1.00  0.00     0.074 A 
ATOM     60  C   UNL A   1      43.271  27.229  31.496  1.00  0.00     0.031 C 
ATOM     61  C   UNL A   1      42.997  28.466  33.623  1.00  0.00     0.034 A 
BRANCH  48  62
ATOM     62  C   UNL A   1      39.501  32.721  36.476  1.00  0.00     0.023 A 
ATOM     63  C   UNL A   1      38.646  32.262  37.494  1.00  0.00     0.031 A 
ATOM     64  C   UNL A   1      40.080  33.993  36.625  1.00  0.00     0.131 A 
ATOM     65  C   UNL A   1      38.335  33.097  38.576  1.00  0.00     0.055 A 
ATOM     66  C   UNL A   1      39.830  34.787  37.745  1.00  0.00     0.041 A 
ATOM     67  F   UNL A   1      40.885  34.493  35.675  1.00  0.00    -0.206 F 
ATOM     68  C   UNL A   1      38.941  34.347  38.723  1.00  0.00     0.022 A 
BRANCH  65  69
ATOM     69  S   UNL A   1      37.023  32.582  39.716  1.00  0.00     0.124 S 
ATOM     70  O   UNL A   1      37.443  31.224  40.050  1.00  0.00    -0.237 OA
ATOM     71  O   UNL A   1      37.128  33.565  40.787  1.00  0.00    -0.237 OA
ATOM     72  O   UNL A   1      35.810  32.670  38.905  1.00  0.00    -0.744 OA
ENDBRANCH  65  69
ENDBRANCH  48  62
BRANCH  49  73
ATOM     73  C   UNL A   1      40.920  27.529  28.005  1.00  0.00     0.023 A 
ATOM     74  C   UNL A   1      40.678  26.148  27.928  1.00  0.00     0.031 A 
ATOM     75  C   UNL A   1      41.479  28.162  26.881  1.00  0.00     0.131 A 
ATOM     76  C   UNL A   1      41.052  25.433  26.780  1.00  0.00     0.055 A 
ATOM     77  C   UNL A   1      41.796  27.456  25.718  1.00  0.00     0.041 A 
ATOM     78  F   UNL A   1      41.727  29.481  26.896  1.00  0.00    -0.206 F 
ATOM     79  C   UNL A   1      41.600  26.079  25.670  1.00  0.00     0.022 A 
BRANCH  76  80
ATOM     80  S   UNL A   1      40.923  23.623  26.807  1.00  0.00     0.124 S 
ATOM     81  O   UNL A   1      41.886  23.243  25.780  1.00  0.00    -0.237 OA
ATOM     82  O   UNL A   1      41.295  23.316  28.184  1.00  0.00    -0.237 OA
ATOM     83  O   UNL A   1      39.522  23.379  26.472  1.00  0.00    -0.744 OA
ENDBRANCH  76  80
ENDBRANCH  49  73
BRANCH  61  84
ATOM     84  C   UNL A   1      44.128  27.649  34.192  1.00  0.00     0.023 A 
ATOM     85  C   UNL A   1      43.935  26.347  34.680  1.00  0.00     0.031 A 
ATOM     86  C   UNL A   1      45.426  28.191  34.231  1.00  0.00     0.131 A 
ATOM     87  C   UNL A   1      45.019  25.642  35.226  1.00  0.00     0.055 A 
ATOM     88  C   UNL A   1      46.509  27.466  34.729  1.00  0.00     0.041 A 
ATOM     89  F   UNL A   1      45.662  29.431  33.776  1.00  0.00    -0.206 F 
ATOM     90  C   UNL A   1      46.306  26.187  35.240  1.00  0.00     0.022 A 
BRANCH  87  91
ATOM     91  S   UNL A   1      44.714  24.019  35.978  1.00  0.00     0.124 S 
ATOM     92  O   UNL A   1      43.312  23.788  35.647  1.00  0.00    -0.237 OA
ATOM     93  O   UNL A   1      45.680  23.169  35.291  1.00  0.00    -0.237 OA
ATOM     94  O   UNL A   1      44.988  24.242  37.397  1.00  0.00    -0.744 OA
ENDBRANCH  87  91
ENDBRANCH  61  84
ENDBRANCH  35  36
ENDBRANCH  27  30
ENDBRANCH  25  26
ENDBRANCH  24  25
ENDBRANCH  23  24
ENDBRANCH   1  23
TORSDOF 20
ENDMDL
MODEL 2
REMARK VINA RESULT:     -10.8      1.917      7.907
REMARK SMILES COCc1cccc(C[NH2+][C@H](C)[C@H](C)C(=O)NCCCCNC(=O)c2ccc(-c3c4nc(c(-c5cc(S(=O)(=O)[O-])ccc5F)c5ccc([nH]5)c(-c5cc(S(=O)(=O)[O-])ccc5F)c5nc(c(-c6cc(S(=O)(=O)[O-])ccc6F)c6ccc3[nH]6)C=C5)C=C4)cc2)c1
REMARK SMILES IDX 18 1 17 2 15 3 16 4 13 6 14 7 11 8 12 9 10 10 9 13 8 14 4 15
REMARK SMILES IDX 5 16 88 17 6 18 7 19 3 20 2 21 1 22 19 23 20 24 21 25 22 26
REMARK SMILES IDX 23 27 24 29 25 30 26 31 87 32 27 33 86 34 28 35 29 36 30 37
REMARK SMILES IDX 80 38 31 39 85 40 79 41 81 42 32 43 84 44 78 45 77 46 33 48
REMARK SMILES IDX 65 49 45 50 64 51 46 52 49 53 63 54 82 55 47 56 48 57 62 59
REMARK SMILES IDX 83 60 50 61 34 62 35 63 43 64 36 65 42 66 44 67 41 68 37 69
REMARK SMILES IDX 38 70 39 71 40 72 66 73 67 74 75 75 68 76 74 77 76 78 73 79
REMARK SMILES IDX 69 80 70 81 71 82 72 83 51 84 52 85 60 86 53 87 59 88 61 89
REMARK SMILES IDX 58 90 54 91 55 92 56 93 57 94
REMARK H PARENT 17 5 10 11 10 12 22 28 81 47 49 58
REMARK Flexibility Score: inf
ROOT
ATOM      1  C   UNL A   1      32.888  29.613  25.302  1.00  0.00     0.116 C 
ENDROOT
BRANCH   1   2
ATOM      2  N   UNL A   1      31.684  29.720  24.508  1.00  0.00    -0.356 N 
ATOM      3  C   UNL A   1      30.857  28.764  24.028  1.00  0.00     0.228 C 
ATOM      4  O   UNL A   1      29.892  29.136  23.354  1.00  0.00    -0.275 OA
ATOM      5  H   UNL A   1      31.423  30.641  24.280  1.00  0.00     0.163 HD
BRANCH   3   6
ATOM      6  C   UNL A   1      31.054  27.285  24.322  1.00  0.00     0.133 C 
ATOM      7  C   UNL A   1      30.663  26.890  25.748  1.00  0.00     0.024 C 
BRANCH   6   8
ATOM      8  C   UNL A   1      30.492  26.315  23.236  1.00  0.00     0.191 C 
ATOM      9  C   UNL A   1      31.472  25.978  22.101  1.00  0.00     0.076 C 
BRANCH   8  10
ATOM     10  N   UNL A   1      29.905  25.052  23.767  1.00  0.00    -0.340 N 
ATOM     11  H   UNL A   1      29.839  25.128  24.783  1.00  0.00     0.346 HD
ATOM     12  H   UNL A   1      28.992  24.937  23.327  1.00  0.00     0.346 HD
BRANCH  10  13
ATOM     13  C   UNL A   1      30.691  23.858  23.444  1.00  0.00     0.297 C 
BRANCH  13  14
ATOM     14  C   UNL A   1      31.668  23.444  24.518  1.00  0.00     0.006 A 
ATOM     15  C   UNL A   1      34.005  23.078  25.163  1.00  0.00    -0.022 A 
ATOM     16  C   UNL A   1      33.584  22.893  26.484  1.00  0.00     0.006 A 
ATOM     17  C   UNL A   1      33.032  23.357  24.192  1.00  0.00     0.015 A 
ATOM     18  C   UNL A   1      32.230  22.968  26.822  1.00  0.00     0.001 A 
ATOM     19  C   UNL A   1      31.276  23.252  25.846  1.00  0.00     0.009 A 
BRANCH  15  20
ATOM     20  C   UNL A   1      35.464  23.076  24.771  1.00  0.00     0.195 C 
BRANCH  20  21
ATOM     21  O   UNL A   1      35.945  21.799  24.360  1.00  0.00    -0.380 OA
ATOM     22  C   UNL A   1      36.672  21.101  25.360  1.00  0.00     0.195 C 
ENDBRANCH  20  21
ENDBRANCH  15  20
ENDBRANCH  13  14
ENDBRANCH  10  13
ENDBRANCH   8  10
ENDBRANCH   6   8
ENDBRANCH   3   6
ENDBRANCH   1   2
BRANCH   1  23
ATOM     23  C   UNL A   1      32.602  29.945  26.762  1.00  0.00     0.023 C 
BRANCH  23  24
ATOM     24  C   UNL A   1      32.155  31.390  26.998  1.00  0.00     0.023 C 
BRANCH  24  25
ATOM     25  C   UNL A   1      33.275  32.359  27.356  1.00  0.00     0.116 C 
BRANCH  25  26
ATOM     26  N   UNL A   1      32.788  33.702  27.628  1.00  0.00    -0.352 N 
ATOM     27  C   UNL A   1      33.203  34.565  28.617  1.00  0.00     0.251 C 
ATOM     28  H   UNL A   1      32.076  34.034  27.035  1.00  0.00     0.163 HD
ATOM     29  O   UNL A   1      32.616  35.618  28.816  1.00  0.00    -0.269 OA
BRANCH  27  30
ATOM     30  C   UNL A   1      34.353  34.161  29.449  1.00  0.00     0.039 A 
ATOM     31  C   UNL A   1      34.134  33.356  30.569  1.00  0.00     0.014 A 
ATOM     32  C   UNL A   1      35.647  34.502  29.051  1.00  0.00     0.014 A 
ATOM     33  C   UNL A   1      35.229  32.835  31.260  1.00  0.00     0.010 A 
ATOM     34  C   UNL A   1      36.733  33.930  29.702  1.00  0.00     0.010 A 
ATOM     35  C   UNL A   1      36.535  33.088  30.810  1.00  0.00    -0.014 A 
BRANCH  35  36
ATOM     36  C   UNL A   1      37.724  32.520  31.495  1.00  0.00     0.031 A 
ATOM     37  C   UNL A   1      38.457  31.375  30.856  1.00  0.00     0.074 A 
ATOM     38  C   UNL A   1      38.088  32.971  32.712  1.00  0.00     0.049 A 
ATOM     39  N   UNL A   1      39.395  30.610  31.349  1.00  0.00    -0.248 NA
ATOM     40  C   UNL A   1      38.048  31.022  29.486  1.00  0.00     0.031 C 
ATOM     41  C   UNL A   1      37.447  34.069  33.438  1.00  0.00     0.029 A 
ATOM     42  N   UNL A   1      39.080  32.547  33.563  1.00  0.00    -0.354 N 
ATOM     43  C   UNL A   1      39.675  29.673  30.360  1.00  0.00     0.074 A 
ATOM     44  C   UNL A   1      38.765  29.932  29.264  1.00  0.00     0.031 C 
ATOM     45  C   UNL A   1      38.069  34.240  34.617  1.00  0.00     0.029 A 
ATOM     46  C   UNL A   1      39.117  33.233  34.756  1.00  0.00     0.049 A 
ATOM     47  H   UNL A   1      39.705  31.821  33.340  1.00  0.00     0.167 HD
ATOM     48  C   UNL A   1      40.619  28.700  30.358  1.00  0.00     0.034 A 
ATOM     49  C   UNL A   1      39.895  33.053  35.843  1.00  0.00     0.034 A 
ATOM     50  C   UNL A   1      41.530  28.468  31.449  1.00  0.00     0.049 A 
ATOM     51  C   UNL A   1      40.920  31.944  35.827  1.00  0.00     0.074 A 
ATOM     52  C   UNL A   1      42.534  27.521  31.551  1.00  0.00     0.029 A 
ATOM     53  N   UNL A   1      41.556  29.202  32.628  1.00  0.00    -0.354 N 
ATOM     54  N   UNL A   1      41.174  31.067  34.883  1.00  0.00    -0.248 NA
ATOM     55  C   UNL A   1      41.768  31.805  37.019  1.00  0.00     0.031 C 
ATOM     56  C   UNL A   1      43.135  27.652  32.807  1.00  0.00     0.029 A 
ATOM     57  C   UNL A   1      42.552  28.725  33.463  1.00  0.00     0.049 A 
ATOM     58  H   UNL A   1      40.955  29.953  32.839  1.00  0.00     0.167 HD
ATOM     59  C   UNL A   1      42.244  30.308  35.350  1.00  0.00     0.074 A 
ATOM     60  C   UNL A   1      42.587  30.828  36.657  1.00  0.00     0.031 C 
ATOM     61  C   UNL A   1      42.892  29.277  34.751  1.00  0.00     0.034 A 
BRANCH  48  62
ATOM     62  C   UNL A   1      40.691  27.811  29.141  1.00  0.00     0.023 A 
ATOM     63  C   UNL A   1      41.618  28.052  28.112  1.00  0.00     0.031 A 
ATOM     64  C   UNL A   1      39.807  26.729  28.992  1.00  0.00     0.131 A 
ATOM     65  C   UNL A   1      41.589  27.273  26.947  1.00  0.00     0.055 A 
ATOM     66  C   UNL A   1      39.838  25.905  27.866  1.00  0.00     0.041 A 
ATOM     67  F   UNL A   1      38.886  26.464  29.931  1.00  0.00    -0.206 F 
ATOM     68  C   UNL A   1      40.723  26.184  26.827  1.00  0.00     0.022 A 
BRANCH  65  69
ATOM     69  S   UNL A   1      42.606  27.788  25.537  1.00  0.00     0.124 S 
ATOM     70  O   UNL A   1      43.891  28.045  26.182  1.00  0.00    -0.237 OA
ATOM     71  O   UNL A   1      42.551  26.622  24.664  1.00  0.00    -0.237 OA
ATOM     72  O   UNL A   1      41.919  28.976  25.035  1.00  0.00    -0.744 OA
ENDBRANCH  65  69
ENDBRANCH  48  62
BRANCH  49  73
ATOM     73  C   UNL A   1      39.743  33.922  37.046  1.00  0.00     0.023 A 
ATOM     74  C   UNL A   1      39.127  33.435  38.210  1.00  0.00     0.031 A 
ATOM     75  C   UNL A   1      40.142  35.270  37.027  1.00  0.00     0.131 A 
ATOM     76  C   UNL A   1      38.868  34.303  39.282  1.00  0.00     0.055 A 
ATOM     77  C   UNL A   1      39.935  36.116  38.120  1.00  0.00     0.041 A 
ATOM     78  F   UNL A   1      40.740  35.787  35.943  1.00  0.00    -0.206 F 
ATOM     79  C   UNL A   1      39.277  35.638  39.249  1.00  0.00     0.022 A 
BRANCH  76  80
ATOM     80  S   UNL A   1      37.879  33.689  40.674  1.00  0.00     0.124 S 
ATOM     81  O   UNL A   1      37.711  34.898  41.473  1.00  0.00    -0.237 OA
ATOM     82  O   UNL A   1      36.684  33.194  39.998  1.00  0.00    -0.237 OA
ATOM     83  O   UNL A   1      38.730  32.661  41.267  1.00  0.00    -0.744 OA
ENDBRANCH  76  80
ENDBRANCH  49  73
BRANCH  61  84
ATOM     84  C   UNL A   1      44.093  28.709  35.464  1.00  0.00     0.023 A 
ATOM     85  C   UNL A   1      43.978  27.684  36.416  1.00  0.00     0.031 A 
ATOM     86  C   UNL A   1      45.375  29.204  35.167  1.00  0.00     0.131 A 
ATOM     87  C   UNL A   1      45.127  27.213  37.072  1.00  0.00     0.055 A 
ATOM     88  C   UNL A   1      46.519  28.697  35.786  1.00  0.00     0.041 A 
ATOM     89  F   UNL A   1      45.537  30.183  34.264  1.00  0.00    -0.206 F 
ATOM     90  C   UNL A   1      46.396  27.702  36.751  1.00  0.00     0.022 A 
BRANCH  87  91
ATOM     91  S   UNL A   1      44.935  25.990  38.398  1.00  0.00     0.124 S 
ATOM     92  O   UNL A   1      44.697  24.762  37.647  1.00  0.00    -0.237 OA
ATOM     93  O   UNL A   1      46.216  26.076  39.091  1.00  0.00    -0.237 OA
ATOM     94  O   UNL A   1      43.787  26.485  39.157  1.00  0.00    -0.744 OA
ENDBRANCH  87  91
ENDBRANCH  61  84
ENDBRANCH  35  36
ENDBRANCH  27  30
ENDBRANCH  25  26
ENDBRANCH  24  25
ENDBRANCH  23  24
ENDBRANCH   1  23
TORSDOF 20
ENDMDL
MODEL 3
REMARK VINA RESULT:     -10.8      6.285      9.756
REMARK SMILES COCc1cccc(C[NH2+][C@H](C)[C@H](C)C(=O)NCCCCNC(=O)c2ccc(-c3c4nc(c(-c5cc(S(=O)(=O)[O-])ccc5F)c5ccc([nH]5)c(-c5cc(S(=O)(=O)[O-])ccc5F)c5nc(c(-c6cc(S(=O)(=O)[O-])ccc6F)c6ccc3[nH]6)C=C5)C=C4)cc2)c1
REMARK SMILES IDX 18 1 17 2 15 3 16 4 13 6 14 7 11 8 12 9 10 10 9 13 8 14 4 15
REMARK SMILES IDX 5 16 88 17 6 18 7 19 3 20 2 21 1 22 19 23 20 24 21 25 22 26
REMARK SMILES IDX 23 27 24 29 25 30 26 31 87 32 27 33 86 34 28 35 29 36 30 37
REMARK SMILES IDX 80 38 31 39 85 40 79 41 81 42 32 43 84 44 78 45 77 46 33 48
REMARK SMILES IDX 65 49 45 50 64 51 46 52 49 53 63 54 82 55 47 56 48 57 62 59
REMARK SMILES IDX 83 60 50 61 34 62 35 63 43 64 36 65 42 66 44 67 41 68 37 69
REMARK SMILES IDX 38 70 39 71 40 72 66 73 67 74 75 75 68 76 74 77 76 78 73 79
REMARK SMILES IDX 69 80 70 81 71 82 72 83 51 84 52 85 60 86 53 87 59 88 61 89
REMARK SMILES IDX 58 90 54 91 55 92 56 93 57 94
REMARK H PARENT 17 5 10 11 10 12 22 28 81 47 49 58
REMARK Flexibility Score: inf
ROOT
ATOM      1  C   UNL A   1      38.165  23.994  26.319  1.00  0.00     0.116 C 
ENDROOT
BRANCH   1   2
ATOM      2  N   UNL A   1      37.561  23.621  25.060  1.00  0.00    -0.356 N 
ATOM      3  C   UNL A   1      36.277  23.690  24.643  1.00  0.00     0.228 C 
ATOM      4  O   UNL A   1      36.027  23.283  23.504  1.00  0.00    -0.275 OA
ATOM      5  H   UNL A   1      38.189  23.257  24.395  1.00  0.00     0.163 HD
BRANCH   3   6
ATOM      6  C   UNL A   1      35.167  24.279  25.499  1.00  0.00     0.133 C 
ATOM      7  C   UNL A   1      34.258  25.247  24.738  1.00  0.00     0.024 C 
BRANCH   6   8
ATOM      8  C   UNL A   1      34.381  23.245  26.365  1.00  0.00     0.191 C 
ATOM      9  C   UNL A   1      32.900  23.587  26.594  1.00  0.00     0.076 C 
BRANCH   8  10
ATOM     10  N   UNL A   1      34.491  21.831  25.906  1.00  0.00    -0.340 N 
ATOM     11  H   UNL A   1      34.800  21.829  24.934  1.00  0.00     0.346 HD
ATOM     12  H   UNL A   1      35.157  21.367  26.525  1.00  0.00     0.346 HD
BRANCH  10  13
ATOM     13  C   UNL A   1      33.232  21.086  25.992  1.00  0.00     0.297 C 
BRANCH  13  14
ATOM     14  C   UNL A   1      33.006  20.111  24.863  1.00  0.00     0.006 A 
ATOM     15  C   UNL A   1      32.955  17.773  24.123  1.00  0.00    -0.022 A 
ATOM     16  C   UNL A   1      32.416  18.199  22.904  1.00  0.00     0.006 A 
ATOM     17  C   UNL A   1      33.240  18.744  25.094  1.00  0.00     0.015 A 
ATOM     18  C   UNL A   1      32.186  19.554  22.656  1.00  0.00     0.001 A 
ATOM     19  C   UNL A   1      32.469  20.506  23.634  1.00  0.00     0.009 A 
BRANCH  15  20
ATOM     20  C   UNL A   1      33.150  16.313  24.455  1.00  0.00     0.195 C 
BRANCH  20  21
ATOM     21  O   UNL A   1      34.459  15.830  24.164  1.00  0.00    -0.380 OA
ATOM     22  C   UNL A   1      35.318  15.759  25.291  1.00  0.00     0.195 C 
ENDBRANCH  20  21
ENDBRANCH  15  20
ENDBRANCH  13  14
ENDBRANCH  10  13
ENDBRANCH   8  10
ENDBRANCH   6   8
ENDBRANCH   3   6
ENDBRANCH   1   2
BRANCH   1  23
ATOM     23  C   UNL A   1      39.467  23.232  26.541  1.00  0.00     0.023 C 
BRANCH  23  24
ATOM     24  C   UNL A   1      39.286  21.720  26.698  1.00  0.00     0.023 C 
BRANCH  24  25
ATOM     25  C   UNL A   1      39.594  20.904  25.448  1.00  0.00     0.116 C 
BRANCH  25  26
ATOM     26  N   UNL A   1      40.348  19.695  25.741  1.00  0.00    -0.352 N 
ATOM     27  C   UNL A   1      41.662  19.596  26.141  1.00  0.00     0.251 C 
ATOM     28  H   UNL A   1      39.861  18.844  25.641  1.00  0.00     0.163 HD
ATOM     29  O   UNL A   1      42.211  18.508  26.226  1.00  0.00    -0.269 OA
BRANCH  27  30
ATOM     30  C   UNL A   1      42.392  20.846  26.426  1.00  0.00     0.039 A 
ATOM     31  C   UNL A   1      42.766  21.674  25.365  1.00  0.00     0.014 A 
ATOM     32  C   UNL A   1      42.610  21.232  27.750  1.00  0.00     0.014 A 
ATOM     33  C   UNL A   1      43.306  22.932  25.638  1.00  0.00     0.010 A 
ATOM     34  C   UNL A   1      43.088  22.510  28.018  1.00  0.00     0.010 A 
ATOM     35  C   UNL A   1      43.437  23.373  26.964  1.00  0.00    -0.014 A 
BRANCH  35  36
ATOM     36  C   UNL A   1      43.971  24.719  27.294  1.00  0.00     0.031 A 
ATOM     37  C   UNL A   1      43.034  25.765  27.830  1.00  0.00     0.074 A 
ATOM     38  C   UNL A   1      45.259  25.021  27.038  1.00  0.00     0.049 A 
ATOM     39  N   UNL A   1      43.233  27.043  28.012  1.00  0.00    -0.248 NA
ATOM     40  C   UNL A   1      41.676  25.310  28.172  1.00  0.00     0.031 C 
ATOM     41  C   UNL A   1      46.260  24.094  26.507  1.00  0.00     0.029 A 
ATOM     42  N   UNL A   1      45.943  26.205  27.172  1.00  0.00    -0.354 N 
ATOM     43  C   UNL A   1      42.022  27.552  28.468  1.00  0.00     0.074 A 
ATOM     44  C   UNL A   1      41.080  26.452  28.478  1.00  0.00     0.031 C 
ATOM     45  C   UNL A   1      47.431  24.740  26.375  1.00  0.00     0.029 A 
ATOM     46  C   UNL A   1      47.254  26.137  26.758  1.00  0.00     0.049 A 
ATOM     47  H   UNL A   1      45.534  27.024  27.531  1.00  0.00     0.167 HD
ATOM     48  C   UNL A   1      41.728  28.814  28.864  1.00  0.00     0.034 A 
ATOM     49  C   UNL A   1      48.196  27.099  26.679  1.00  0.00     0.034 A 
ATOM     50  C   UNL A   1      42.682  29.894  28.866  1.00  0.00     0.049 A 
ATOM     51  C   UNL A   1      47.836  28.505  27.098  1.00  0.00     0.074 A 
ATOM     52  C   UNL A   1      42.500  31.209  29.256  1.00  0.00     0.029 A 
ATOM     53  N   UNL A   1      44.008  29.778  28.467  1.00  0.00    -0.354 N 
ATOM     54  N   UNL A   1      46.686  28.969  27.530  1.00  0.00    -0.248 NA
ATOM     55  C   UNL A   1      48.902  29.514  27.028  1.00  0.00     0.031 C 
ATOM     56  C   UNL A   1      43.699  31.898  29.051  1.00  0.00     0.029 A 
ATOM     57  C   UNL A   1      44.651  30.998  28.596  1.00  0.00     0.049 A 
ATOM     58  H   UNL A   1      44.430  28.950  28.141  1.00  0.00     0.167 HD
ATOM     59  C   UNL A   1      46.908  30.311  27.829  1.00  0.00     0.074 A 
ATOM     60  C   UNL A   1      48.298  30.582  27.528  1.00  0.00     0.031 C 
ATOM     61  C   UNL A   1      46.044  31.238  28.315  1.00  0.00     0.034 A 
BRANCH  48  62
ATOM     62  C   UNL A   1      40.312  29.088  29.306  1.00  0.00     0.023 A 
ATOM     63  C   UNL A   1      39.937  28.999  30.659  1.00  0.00     0.031 A 
ATOM     64  C   UNL A   1      39.317  29.411  28.367  1.00  0.00     0.131 A 
ATOM     65  C   UNL A   1      38.593  29.154  31.025  1.00  0.00     0.055 A 
ATOM     66  C   UNL A   1      37.996  29.646  28.748  1.00  0.00     0.041 A 
ATOM     67  F   UNL A   1      39.612  29.487  27.060  1.00  0.00    -0.206 F 
ATOM     68  C   UNL A   1      37.623  29.503  30.082  1.00  0.00     0.022 A 
BRANCH  65  69
ATOM     69  S   UNL A   1      38.109  28.760  32.727  1.00  0.00     0.124 S 
ATOM     70  O   UNL A   1      39.156  29.432  33.492  1.00  0.00    -0.237 OA
ATOM     71  O   UNL A   1      36.776  29.342  32.821  1.00  0.00    -0.237 OA
ATOM     72  O   UNL A   1      38.157  27.300  32.767  1.00  0.00    -0.744 OA
ENDBRANCH  65  69
ENDBRANCH  48  62
BRANCH  49  73
ATOM     73  C   UNL A   1      49.567  26.790  26.177  1.00  0.00     0.023 A 
ATOM     74  C   UNL A   1      49.977  27.215  24.903  1.00  0.00     0.031 A 
ATOM     75  C   UNL A   1      50.459  26.004  26.927  1.00  0.00     0.131 A 
ATOM     76  C   UNL A   1      51.216  26.800  24.390  1.00  0.00     0.055 A 
ATOM     77  C   UNL A   1      51.716  25.641  26.436  1.00  0.00     0.041 A 
ATOM     78  F   UNL A   1      50.121  25.574  28.153  1.00  0.00    -0.206 F 
ATOM     79  C   UNL A   1      52.093  26.025  25.153  1.00  0.00     0.022 A 
BRANCH  76  80
ATOM     80  S   UNL A   1      51.613  27.190  22.664  1.00  0.00     0.124 S 
ATOM     81  O   UNL A   1      50.377  26.819  21.985  1.00  0.00    -0.237 OA
ATOM     82  O   UNL A   1      51.903  28.618  22.737  1.00  0.00    -0.237 OA
ATOM     83  O   UNL A   1      52.763  26.336  22.379  1.00  0.00    -0.744 OA
ENDBRANCH  76  80
ENDBRANCH  49  73
BRANCH  61  84
ATOM     84  C   UNL A   1      46.603  32.600  28.637  1.00  0.00     0.023 A 
ATOM     85  C   UNL A   1      46.457  33.691  27.766  1.00  0.00     0.031 A 
ATOM     86  C   UNL A   1      47.284  32.801  29.852  1.00  0.00     0.131 A 
ATOM     87  C   UNL A   1      47.023  34.930  28.104  1.00  0.00     0.055 A 
ATOM     88  C   UNL A   1      47.800  34.049  30.204  1.00  0.00     0.041 A 
ATOM     89  F   UNL A   1      47.448  31.791  30.719  1.00  0.00    -0.206 F 
ATOM     90  C   UNL A   1      47.680  35.119  29.323  1.00  0.00     0.022 A 
BRANCH  87  91
ATOM     91  S   UNL A   1      46.943  36.283  26.898  1.00  0.00     0.124 S 
ATOM     92  O   UNL A   1      45.506  36.413  26.681  1.00  0.00    -0.237 OA
ATOM     93  O   UNL A   1      47.581  37.381  27.617  1.00  0.00    -0.237 OA
ATOM     94  O   UNL A   1      47.698  35.770  25.756  1.00  0.00    -0.744 OA
ENDBRANCH  87  91
ENDBRANCH  61  84
ENDBRANCH  35  36
ENDBRANCH  27  30
ENDBRANCH  25  26
ENDBRANCH  24  25
ENDBRANCH  23  24
ENDBRANCH   1  23
TORSDOF 20
ENDMDL
