MODEL 1
REMARK VINA RESULT:     -10.6      0.000      0.000
REMARK SMILES C=CC[N@H+](CC(=O)NCCCCNC(=O)c1ccc(-c2c3nc(c(-c4cc(S(=O)(=O)[O-])ccc4F)c4ccc([nH]4)c(-c4cc(S(=O)(=O)[O-])ccc4F)c4nc(c(-c5cc(S(=O)(=O)[O-])ccc5F)c5ccc2[nH]5)C=C4)C=C3)cc1)Cc1ccc([N+](=O)[O-])o1
REMARK SMILES IDX 10 1 9 2 8 3 6 4 7 5 5 7 4 8 3 10 2 11 1 12 79 13 80 14
REMARK SMILES IDX 81 15 87 16 82 17 83 18 84 19 85 20 86 21 11 22 12 23 13 24
REMARK SMILES IDX 14 25 15 27 16 28 17 29 78 30 18 31 77 32 19 33 20 34 21 35
REMARK SMILES IDX 71 36 22 37 76 38 70 39 72 40 23 41 75 42 69 43 68 44 24 46
REMARK SMILES IDX 56 47 36 48 55 49 37 50 40 51 54 52 73 53 38 54 39 55 53 57
REMARK SMILES IDX 74 58 41 59 25 60 26 61 34 62 27 63 33 64 35 65 32 66 28 67
REMARK SMILES IDX 29 68 30 69 31 70 57 71 58 72 66 73 59 74 65 75 67 76 64 77
REMARK SMILES IDX 60 78 61 79 62 80 63 81 42 82 43 83 51 84 44 85 50 86 52 87
REMARK SMILES IDX 49 88 45 89 46 90 47 91 48 92
REMARK H PARENT 8 6 4 9 13 26 72 45 40 56
REMARK Flexibility Score: inf
ROOT
ATOM      1  C   UNL A   1      32.075  29.449  27.230  1.00  0.00     0.023 C 
ENDROOT
BRANCH   1   2
ATOM      2  C   UNL A   1      31.390  28.457  26.285  1.00  0.00     0.116 C 
BRANCH   2   3
ATOM      3  N   UNL A   1      31.185  27.139  26.850  1.00  0.00    -0.351 N 
ATOM      4  C   UNL A   1      31.610  25.922  26.382  1.00  0.00     0.275 C 
ATOM      5  O   UNL A   1      31.405  24.905  27.050  1.00  0.00    -0.269 OA
ATOM      6  H   UNL A   1      30.667  27.113  27.686  1.00  0.00     0.163 HD
BRANCH   4   7
ATOM      7  C   UNL A   1      32.313  25.838  25.025  1.00  0.00     0.364 C 
BRANCH   7   8
ATOM      8  N   UNL A   1      31.417  25.287  24.002  1.00  0.00    -0.318 N 
ATOM      9  H   UNL A   1      31.711  25.673  23.105  1.00  0.00     0.349 HD
BRANCH   8  10
ATOM     10  C   UNL A   1      31.674  23.915  23.621  1.00  0.00     0.291 C 
BRANCH  10  11
ATOM     11  C   UNL A   1      33.013  23.604  23.021  1.00  0.00     0.025 C 
ATOM     12  C   UNL A   1      33.207  22.957  21.864  1.00  0.00     0.010 C 
ENDBRANCH  10  11
ENDBRANCH   8  10
BRANCH   8  13
ATOM     13  C   UNL A   1      30.098  25.894  23.893  1.00  0.00     0.339 C 
BRANCH  13  14
ATOM     14  C   UNL A   1      30.107  27.278  23.297  1.00  0.00     0.165 A 
ATOM     15  C   UNL A   1      31.112  28.047  22.735  1.00  0.00     0.059 A 
ATOM     16  O   UNL A   1      28.917  27.948  23.188  1.00  0.00    -0.400 OA
ATOM     17  C   UNL A   1      30.500  29.219  22.212  1.00  0.00     0.134 A 
ATOM     18  C   UNL A   1      29.162  29.075  22.479  1.00  0.00     0.433 A 
BRANCH  18  19
ATOM     19  N   UNL A   1      28.030  29.876  22.132  1.00  0.00     0.102 N 
ATOM     20  O   UNL A   1      27.894  30.132  20.930  1.00  0.00    -0.256 OA
ATOM     21  O   UNL A   1      27.270  30.241  23.042  1.00  0.00    -0.256 OA
ENDBRANCH  18  19
ENDBRANCH  13  14
ENDBRANCH   8  13
ENDBRANCH   7   8
ENDBRANCH   4   7
ENDBRANCH   2   3
ENDBRANCH   1   2
BRANCH   1  22
ATOM     22  C   UNL A   1      32.455  30.808  26.659  1.00  0.00     0.023 C 
BRANCH  22  23
ATOM     23  C   UNL A   1      33.348  31.660  27.536  1.00  0.00     0.116 C 
BRANCH  23  24
ATOM     24  N   UNL A   1      32.905  33.044  27.619  1.00  0.00    -0.352 N 
ATOM     25  C   UNL A   1      33.345  34.025  28.490  1.00  0.00     0.251 C 
ATOM     26  H   UNL A   1      32.207  33.315  26.978  1.00  0.00     0.163 HD
ATOM     27  O   UNL A   1      32.789  35.100  28.553  1.00  0.00    -0.269 OA
BRANCH  25  28
ATOM     28  C   UNL A   1      34.490  33.695  29.371  1.00  0.00     0.039 A 
ATOM     29  C   UNL A   1      34.296  32.846  30.462  1.00  0.00     0.014 A 
ATOM     30  C   UNL A   1      35.771  34.140  29.033  1.00  0.00     0.014 A 
ATOM     31  C   UNL A   1      35.405  32.375  31.171  1.00  0.00     0.010 A 
ATOM     32  C   UNL A   1      36.872  33.594  29.677  1.00  0.00     0.010 A 
ATOM     33  C   UNL A   1      36.704  32.711  30.757  1.00  0.00    -0.014 A 
BRANCH  33  34
ATOM     34  C   UNL A   1      37.920  32.213  31.451  1.00  0.00     0.031 A 
ATOM     35  C   UNL A   1      38.714  31.107  30.809  1.00  0.00     0.074 A 
ATOM     36  C   UNL A   1      38.245  32.659  32.681  1.00  0.00     0.049 A 
ATOM     37  N   UNL A   1      39.660  30.359  31.312  1.00  0.00    -0.248 NA
ATOM     38  C   UNL A   1      38.349  30.768  29.424  1.00  0.00     0.031 C 
ATOM     39  C   UNL A   1      37.539  33.708  33.418  1.00  0.00     0.029 A 
ATOM     40  N   UNL A   1      39.243  32.266  33.538  1.00  0.00    -0.354 N 
ATOM     41  C   UNL A   1      39.971  29.432  30.322  1.00  0.00     0.074 A 
ATOM     42  C   UNL A   1      39.069  29.677  29.217  1.00  0.00     0.031 C 
ATOM     43  C   UNL A   1      38.135  33.884  34.611  1.00  0.00     0.029 A 
ATOM     44  C   UNL A   1      39.226  32.924  34.748  1.00  0.00     0.049 A 
ATOM     45  H   UNL A   1      39.908  31.577  33.310  1.00  0.00     0.167 HD
ATOM     46  C   UNL A   1      40.936  28.480  30.326  1.00  0.00     0.034 A 
ATOM     47  C   UNL A   1      39.987  32.752  35.848  1.00  0.00     0.034 A 
ATOM     48  C   UNL A   1      41.849  28.280  31.422  1.00  0.00     0.049 A 
ATOM     49  C   UNL A   1      41.052  31.682  35.835  1.00  0.00     0.074 A 
ATOM     50  C   UNL A   1      42.899  27.386  31.518  1.00  0.00     0.029 A 
ATOM     51  N   UNL A   1      41.823  28.994  32.614  1.00  0.00    -0.354 N 
ATOM     52  N   UNL A   1      41.349  30.824  34.886  1.00  0.00    -0.248 NA
ATOM     53  C   UNL A   1      41.886  31.558  37.039  1.00  0.00     0.031 C 
ATOM     54  C   UNL A   1      43.474  27.521  32.786  1.00  0.00     0.029 A 
ATOM     55  C   UNL A   1      42.829  28.549  33.454  1.00  0.00     0.049 A 
ATOM     56  H   UNL A   1      41.183  29.711  32.828  1.00  0.00     0.167 HD
ATOM     57  C   UNL A   1      42.430  30.089  35.363  1.00  0.00     0.074 A 
ATOM     58  C   UNL A   1      42.733  30.601  36.684  1.00  0.00     0.031 C 
ATOM     59  C   UNL A   1      43.120  29.087  34.762  1.00  0.00     0.034 A 
BRANCH  46  60
ATOM     60  C   UNL A   1      41.026  27.581  29.116  1.00  0.00     0.023 A 
ATOM     61  C   UNL A   1      42.022  27.756  28.139  1.00  0.00     0.031 A 
ATOM     62  C   UNL A   1      40.074  26.568  28.908  1.00  0.00     0.131 A 
ATOM     63  C   UNL A   1      41.989  26.999  26.960  1.00  0.00     0.055 A 
ATOM     64  C   UNL A   1      40.102  25.754  27.774  1.00  0.00     0.041 A 
ATOM     65  F   UNL A   1      39.086  26.364  29.795  1.00  0.00    -0.206 F 
ATOM     66  C   UNL A   1      41.051  25.980  26.782  1.00  0.00     0.022 A 
BRANCH  63  67
ATOM     67  S   UNL A   1      43.088  27.475  25.599  1.00  0.00     0.124 S 
ATOM     68  O   UNL A   1      44.152  28.177  26.312  1.00  0.00    -0.237 OA
ATOM     69  O   UNL A   1      43.449  26.188  25.018  1.00  0.00    -0.237 OA
ATOM     70  O   UNL A   1      42.245  28.324  24.758  1.00  0.00    -0.744 OA
ENDBRANCH  63  67
ENDBRANCH  46  60
BRANCH  47  71
ATOM     71  C   UNL A   1      39.772  33.594  37.061  1.00  0.00     0.023 A 
ATOM     72  C   UNL A   1      40.578  34.716  37.312  1.00  0.00     0.031 A 
ATOM     73  C   UNL A   1      38.787  33.266  38.010  1.00  0.00     0.131 A 
ATOM     74  C   UNL A   1      40.418  35.442  38.503  1.00  0.00     0.055 A 
ATOM     75  C   UNL A   1      38.597  34.022  39.168  1.00  0.00     0.041 A 
ATOM     76  F   UNL A   1      37.987  32.206  37.819  1.00  0.00    -0.206 F 
ATOM     77  C   UNL A   1      39.424  35.110  39.426  1.00  0.00     0.022 A 
BRANCH  74  78
ATOM     78  S   UNL A   1      41.586  36.782  38.867  1.00  0.00     0.124 S 
ATOM     79  O   UNL A   1      42.209  36.995  37.566  1.00  0.00    -0.237 OA
ATOM     80  O   UNL A   1      40.698  37.839  39.335  1.00  0.00    -0.237 OA
ATOM     81  O   UNL A   1      42.457  36.205  39.890  1.00  0.00    -0.744 OA
ENDBRANCH  74  78
ENDBRANCH  47  71
BRANCH  59  82
ATOM     82  C   UNL A   1      44.317  28.535  35.490  1.00  0.00     0.023 A 
ATOM     83  C   UNL A   1      44.195  27.561  36.496  1.00  0.00     0.031 A 
ATOM     84  C   UNL A   1      45.608  28.973  35.141  1.00  0.00     0.131 A 
ATOM     85  C   UNL A   1      45.344  27.078  37.139  1.00  0.00     0.055 A 
ATOM     86  C   UNL A   1      46.749  28.453  35.749  1.00  0.00     0.041 A 
ATOM     87  F   UNL A   1      45.777  29.900  34.185  1.00  0.00    -0.206 F 
ATOM     88  C   UNL A   1      46.621  27.505  36.759  1.00  0.00     0.022 A 
BRANCH  85  89
ATOM     89  S   UNL A   1      45.153  25.911  38.513  1.00  0.00     0.124 S 
ATOM     90  O   UNL A   1      43.961  26.423  39.183  1.00  0.00    -0.237 OA
ATOM     91  O   UNL A   1      44.998  24.635  37.823  1.00  0.00    -0.237 OA
ATOM     92  O   UNL A   1      46.398  26.058  39.266  1.00  0.00    -0.744 OA
ENDBRANCH  85  89
ENDBRANCH  59  82
ENDBRANCH  33  34
ENDBRANCH  25  28
ENDBRANCH  23  24
ENDBRANCH  22  23
ENDBRANCH   1  22
TORSDOF 20
ENDMDL
MODEL 2
REMARK VINA RESULT:     -10.6      4.335      9.717
REMARK SMILES C=CC[N@H+](CC(=O)NCCCCNC(=O)c1ccc(-c2c3nc(c(-c4cc(S(=O)(=O)[O-])ccc4F)c4ccc([nH]4)c(-c4cc(S(=O)(=O)[O-])ccc4F)c4nc(c(-c5cc(S(=O)(=O)[O-])ccc5F)c5ccc2[nH]5)C=C4)C=C3)cc1)Cc1ccc([N+](=O)[O-])o1
REMARK SMILES IDX 10 1 9 2 8 3 6 4 7 5 5 7 4 8 3 10 2 11 1 12 79 13 80 14
REMARK SMILES IDX 81 15 87 16 82 17 83 18 84 19 85 20 86 21 11 22 12 23 13 24
REMARK SMILES IDX 14 25 15 27 16 28 17 29 78 30 18 31 77 32 19 33 20 34 21 35
REMARK SMILES IDX 71 36 22 37 76 38 70 39 72 40 23 41 75 42 69 43 68 44 24 46
REMARK SMILES IDX 56 47 36 48 55 49 37 50 40 51 54 52 73 53 38 54 39 55 53 57
REMARK SMILES IDX 74 58 41 59 25 60 26 61 34 62 27 63 33 64 35 65 32 66 28 67
REMARK SMILES IDX 29 68 30 69 31 70 57 71 58 72 66 73 59 74 65 75 67 76 64 77
REMARK SMILES IDX 60 78 61 79 62 80 63 81 42 82 43 83 51 84 44 85 50 86 52 87
REMARK SMILES IDX 49 88 45 89 46 90 47 91 48 92
REMARK H PARENT 8 6 4 9 13 26 72 45 40 56
REMARK Flexibility Score: inf
ROOT
ATOM      1  C   UNL A   1      32.101  26.964  26.634  1.00  0.00     0.023 C 
ENDROOT
BRANCH   1   2
ATOM      2  C   UNL A   1      32.531  26.015  25.512  1.00  0.00     0.116 C 
BRANCH   2   3
ATOM      3  N   UNL A   1      33.944  25.694  25.509  1.00  0.00    -0.351 N 
ATOM      4  C   UNL A   1      34.553  24.470  25.613  1.00  0.00     0.275 C 
ATOM      5  O   UNL A   1      35.780  24.388  25.508  1.00  0.00    -0.269 OA
ATOM      6  H   UNL A   1      34.552  26.464  25.421  1.00  0.00     0.163 HD
BRANCH   4   7
ATOM      7  C   UNL A   1      33.705  23.225  25.882  1.00  0.00     0.364 C 
BRANCH   7   8
ATOM      8  N   UNL A   1      33.698  22.333  24.716  1.00  0.00    -0.318 N 
ATOM      9  H   UNL A   1      32.895  21.713  24.817  1.00  0.00     0.349 HD
BRANCH   8  10
ATOM     10  C   UNL A   1      33.225  22.924  23.482  1.00  0.00     0.291 C 
BRANCH  10  11
ATOM     11  C   UNL A   1      32.011  22.315  22.846  1.00  0.00     0.025 C 
ATOM     12  C   UNL A   1      32.000  21.174  22.144  1.00  0.00     0.010 C 
ENDBRANCH  10  11
ENDBRANCH   8  10
BRANCH   8  13
ATOM     13  C   UNL A   1      34.633  21.217  24.740  1.00  0.00     0.339 C 
BRANCH  13  14
ATOM     14  C   UNL A   1      33.975  19.869  24.884  1.00  0.00     0.165 A 
ATOM     15  C   UNL A   1      32.712  19.485  25.300  1.00  0.00     0.059 A 
ATOM     16  O   UNL A   1      34.670  18.759  24.481  1.00  0.00    -0.400 OA
ATOM     17  C   UNL A   1      32.611  18.082  25.093  1.00  0.00     0.134 A 
ATOM     18  C   UNL A   1      33.816  17.711  24.551  1.00  0.00     0.433 A 
BRANCH  18  19
ATOM     19  N   UNL A   1      34.291  16.458  24.055  1.00  0.00     0.102 N 
ATOM     20  O   UNL A   1      34.753  15.681  24.899  1.00  0.00    -0.256 OA
ATOM     21  O   UNL A   1      34.197  16.235  22.839  1.00  0.00    -0.256 OA
ENDBRANCH  18  19
ENDBRANCH  13  14
ENDBRANCH   8  13
ENDBRANCH   7   8
ENDBRANCH   4   7
ENDBRANCH   2   3
ENDBRANCH   1   2
BRANCH   1  22
ATOM     22  C   UNL A   1      32.172  28.457  26.351  1.00  0.00     0.023 C 
BRANCH  22  23
ATOM     23  C   UNL A   1      33.559  29.065  26.389  1.00  0.00     0.116 C 
BRANCH  23  24
ATOM     24  N   UNL A   1      33.559  30.445  26.853  1.00  0.00    -0.352 N 
ATOM     25  C   UNL A   1      34.476  31.058  27.688  1.00  0.00     0.251 C 
ATOM     26  H   UNL A   1      32.817  31.010  26.535  1.00  0.00     0.163 HD
ATOM     27  O   UNL A   1      34.282  32.176  28.117  1.00  0.00    -0.269 OA
BRANCH  25  28
ATOM     28  C   UNL A   1      35.680  30.284  28.070  1.00  0.00     0.039 A 
ATOM     29  C   UNL A   1      36.840  30.393  27.300  1.00  0.00     0.014 A 
ATOM     30  C   UNL A   1      35.681  29.549  29.258  1.00  0.00     0.014 A 
ATOM     31  C   UNL A   1      38.030  29.827  27.767  1.00  0.00     0.010 A 
ATOM     32  C   UNL A   1      36.882  29.074  29.764  1.00  0.00     0.010 A 
ATOM     33  C   UNL A   1      38.070  29.201  29.023  1.00  0.00    -0.014 A 
BRANCH  33  34
ATOM     34  C   UNL A   1      39.312  28.612  29.586  1.00  0.00     0.031 A 
ATOM     35  C   UNL A   1      39.994  29.320  30.727  1.00  0.00     0.074 A 
ATOM     36  C   UNL A   1      39.883  27.530  29.018  1.00  0.00     0.049 A 
ATOM     37  N   UNL A   1      41.187  29.137  31.227  1.00  0.00    -0.248 NA
ATOM     38  C   UNL A   1      39.240  30.420  31.348  1.00  0.00     0.031 C 
ATOM     39  C   UNL A   1      39.334  26.772  27.893  1.00  0.00     0.029 A 
ATOM     40  N   UNL A   1      41.068  26.895  29.298  1.00  0.00    -0.354 N 
ATOM     41  C   UNL A   1      41.343  30.128  32.192  1.00  0.00     0.074 A 
ATOM     42  C   UNL A   1      40.147  30.942  32.158  1.00  0.00     0.031 C 
ATOM     43  C   UNL A   1      40.173  25.767  27.588  1.00  0.00     0.029 A 
ATOM     44  C   UNL A   1      41.346  25.842  28.454  1.00  0.00     0.049 A 
ATOM     45  H   UNL A   1      41.664  27.167  30.033  1.00  0.00     0.167 HD
ATOM     46  C   UNL A   1      42.379  30.326  33.043  1.00  0.00     0.034 A 
ATOM     47  C   UNL A   1      42.433  25.049  28.375  1.00  0.00     0.034 A 
ATOM     48  C   UNL A   1      43.544  29.479  33.087  1.00  0.00     0.049 A 
ATOM     49  C   UNL A   1      43.580  25.290  29.327  1.00  0.00     0.074 A 
ATOM     50  C   UNL A   1      44.630  29.548  33.939  1.00  0.00     0.029 A 
ATOM     51  N   UNL A   1      43.768  28.399  32.240  1.00  0.00    -0.354 N 
ATOM     52  N   UNL A   1      43.708  26.218  30.247  1.00  0.00    -0.248 NA
ATOM     53  C   UNL A   1      44.726  24.374  29.233  1.00  0.00     0.031 C 
ATOM     54  C   UNL A   1      45.535  28.545  33.576  1.00  0.00     0.029 A 
ATOM     55  C   UNL A   1      44.982  27.806  32.543  1.00  0.00     0.049 A 
ATOM     56  H   UNL A   1      43.155  28.101  31.531  1.00  0.00     0.167 HD
ATOM     57  C   UNL A   1      44.929  25.972  30.868  1.00  0.00     0.074 A 
ATOM     58  C   UNL A   1      45.501  24.810  30.218  1.00  0.00     0.031 C 
ATOM     59  C   UNL A   1      45.523  26.638  31.890  1.00  0.00     0.034 A 
BRANCH  46  60
ATOM     60  C   UNL A   1      42.296  31.515  33.970  1.00  0.00     0.023 A 
ATOM     61  C   UNL A   1      41.566  31.463  35.172  1.00  0.00     0.031 A 
ATOM     62  C   UNL A   1      42.910  32.732  33.627  1.00  0.00     0.131 A 
ATOM     63  C   UNL A   1      41.390  32.626  35.935  1.00  0.00     0.055 A 
ATOM     64  C   UNL A   1      42.808  33.862  34.440  1.00  0.00     0.041 A 
ATOM     65  F   UNL A   1      43.604  32.850  32.483  1.00  0.00    -0.206 F 
ATOM     66  C   UNL A   1      42.028  33.820  35.592  1.00  0.00     0.022 A 
BRANCH  63  67
ATOM     67  S   UNL A   1      40.187  32.593  37.291  1.00  0.00     0.124 S 
ATOM     68  O   UNL A   1      41.046  32.320  38.440  1.00  0.00    -0.237 OA
ATOM     69  O   UNL A   1      39.605  33.928  37.231  1.00  0.00    -0.237 OA
ATOM     70  O   UNL A   1      39.285  31.502  36.923  1.00  0.00    -0.744 OA
ENDBRANCH  63  67
ENDBRANCH  46  60
BRANCH  47  71
ATOM     71  C   UNL A   1      42.509  23.963  27.355  1.00  0.00     0.023 A 
ATOM     72  C   UNL A   1      41.877  22.727  27.569  1.00  0.00     0.031 A 
ATOM     73  C   UNL A   1      43.250  24.125  26.171  1.00  0.00     0.131 A 
ATOM     74  C   UNL A   1      42.035  21.688  26.639  1.00  0.00     0.055 A 
ATOM     75  C   UNL A   1      43.361  23.106  25.223  1.00  0.00     0.041 A 
ATOM     76  F   UNL A   1      43.871  25.287  25.913  1.00  0.00    -0.206 F 
ATOM     77  C   UNL A   1      42.762  21.873  25.461  1.00  0.00     0.022 A 
BRANCH  74  78
ATOM     78  S   UNL A   1      41.342  20.057  27.032  1.00  0.00     0.124 S 
ATOM     79  O   UNL A   1      40.924  20.238  28.418  1.00  0.00    -0.237 OA
ATOM     80  O   UNL A   1      40.272  19.938  26.049  1.00  0.00    -0.237 OA
ATOM     81  O   UNL A   1      42.471  19.151  26.833  1.00  0.00    -0.744 OA
ENDBRANCH  74  78
ENDBRANCH  47  71
BRANCH  59  82
ATOM     82  C   UNL A   1      46.817  26.080  32.423  1.00  0.00     0.023 A 
ATOM     83  C   UNL A   1      48.053  26.349  31.811  1.00  0.00     0.031 A 
ATOM     84  C   UNL A   1      46.808  25.292  33.588  1.00  0.00     0.131 A 
ATOM     85  C   UNL A   1      49.228  25.806  32.352  1.00  0.00     0.055 A 
ATOM     86  C   UNL A   1      47.984  24.797  34.149  1.00  0.00     0.041 A 
ATOM     87  F   UNL A   1      45.652  25.009  34.210  1.00  0.00    -0.206 F 
ATOM     88  C   UNL A   1      49.203  25.048  33.526  1.00  0.00     0.022 A 
BRANCH  85  89
ATOM     89  S   UNL A   1      50.796  26.068  31.478  1.00  0.00     0.124 S 
ATOM     90  O   UNL A   1      50.417  27.047  30.464  1.00  0.00    -0.237 OA
ATOM     91  O   UNL A   1      51.670  26.555  32.540  1.00  0.00    -0.237 OA
ATOM     92  O   UNL A   1      51.129  24.741  30.964  1.00  0.00    -0.744 OA
ENDBRANCH  85  89
ENDBRANCH  59  82
ENDBRANCH  33  34
ENDBRANCH  25  28
ENDBRANCH  23  24
ENDBRANCH  22  23
ENDBRANCH   1  22
TORSDOF 20
ENDMDL
MODEL 3
REMARK VINA RESULT:     -10.4      3.124      8.810
REMARK SMILES C=CC[N@H+](CC(=O)NCCCCNC(=O)c1ccc(-c2c3nc(c(-c4cc(S(=O)(=O)[O-])ccc4F)c4ccc([nH]4)c(-c4cc(S(=O)(=O)[O-])ccc4F)c4nc(c(-c5cc(S(=O)(=O)[O-])ccc5F)c5ccc2[nH]5)C=C4)C=C3)cc1)Cc1ccc([N+](=O)[O-])o1
REMARK SMILES IDX 10 1 9 2 8 3 6 4 7 5 5 7 4 8 3 10 2 11 1 12 79 13 80 14
REMARK SMILES IDX 81 15 87 16 82 17 83 18 84 19 85 20 86 21 11 22 12 23 13 24
REMARK SMILES IDX 14 25 15 27 16 28 17 29 78 30 18 31 77 32 19 33 20 34 21 35
REMARK SMILES IDX 71 36 22 37 76 38 70 39 72 40 23 41 75 42 69 43 68 44 24 46
REMARK SMILES IDX 56 47 36 48 55 49 37 50 40 51 54 52 73 53 38 54 39 55 53 57
REMARK SMILES IDX 74 58 41 59 25 60 26 61 34 62 27 63 33 64 35 65 32 66 28 67
REMARK SMILES IDX 29 68 30 69 31 70 57 71 58 72 66 73 59 74 65 75 67 76 64 77
REMARK SMILES IDX 60 78 61 79 62 80 63 81 42 82 43 83 51 84 44 85 50 86 52 87
REMARK SMILES IDX 49 88 45 89 46 90 47 91 48 92
REMARK H PARENT 8 6 4 9 13 26 72 45 40 56
REMARK Flexibility Score: inf
ROOT
ATOM      1  C   UNL A   1      31.984  28.146  27.509  1.00  0.00     0.023 C 
ENDROOT
BRANCH   1   2
ATOM      2  C   UNL A   1      32.190  26.960  26.562  1.00  0.00     0.116 C 
BRANCH   2   3
ATOM      3  N   UNL A   1      32.882  27.289  25.332  1.00  0.00    -0.351 N 
ATOM      4  C   UNL A   1      33.379  26.450  24.369  1.00  0.00     0.275 C 
ATOM      5  O   UNL A   1      33.871  26.924  23.341  1.00  0.00    -0.269 OA
ATOM      6  H   UNL A   1      33.013  28.250  25.165  1.00  0.00     0.163 HD
BRANCH   4   7
ATOM      7  C   UNL A   1      33.341  24.936  24.592  1.00  0.00     0.364 C 
BRANCH   7   8
ATOM      8  N   UNL A   1      34.684  24.356  24.488  1.00  0.00    -0.318 N 
ATOM      9  H   UNL A   1      35.268  25.036  24.002  1.00  0.00     0.349 HD
BRANCH   8  10
ATOM     10  C   UNL A   1      35.471  24.384  25.702  1.00  0.00     0.291 C 
BRANCH  10  11
ATOM     11  C   UNL A   1      36.796  23.681  25.684  1.00  0.00     0.025 C 
ATOM     12  C   UNL A   1      37.888  24.078  26.351  1.00  0.00     0.010 C 
ENDBRANCH  10  11
ENDBRANCH   8  10
BRANCH   8  13
ATOM     13  C   UNL A   1      34.887  23.357  23.449  1.00  0.00     0.339 C 
BRANCH  13  14
ATOM     14  C   UNL A   1      33.819  22.295  23.402  1.00  0.00     0.165 A 
ATOM     15  C   UNL A   1      32.696  22.133  22.607  1.00  0.00     0.059 A 
ATOM     16  O   UNL A   1      33.945  21.207  24.224  1.00  0.00    -0.400 OA
ATOM     17  C   UNL A   1      32.139  20.863  22.923  1.00  0.00     0.134 A 
ATOM     18  C   UNL A   1      32.971  20.333  23.877  1.00  0.00     0.433 A 
BRANCH  18  19
ATOM     19  N   UNL A   1      32.986  19.060  24.525  1.00  0.00     0.102 N 
ATOM     20  O   UNL A   1      32.155  18.900  25.427  1.00  0.00    -0.256 OA
ATOM     21  O   UNL A   1      33.805  18.214  24.137  1.00  0.00    -0.256 OA
ENDBRANCH  18  19
ENDBRANCH  13  14
ENDBRANCH   8  13
ENDBRANCH   7   8
ENDBRANCH   4   7
ENDBRANCH   2   3
ENDBRANCH   1   2
BRANCH   1  22
ATOM     22  C   UNL A   1      31.669  29.495  26.879  1.00  0.00     0.023 C 
BRANCH  22  23
ATOM     23  C   UNL A   1      32.867  30.306  26.433  1.00  0.00     0.116 C 
BRANCH  23  24
ATOM     24  N   UNL A   1      32.777  31.707  26.818  1.00  0.00    -0.352 N 
ATOM     25  C   UNL A   1      33.643  32.421  27.626  1.00  0.00     0.251 C 
ATOM     26  H   UNL A   1      32.007  32.206  26.460  1.00  0.00     0.163 HD
ATOM     27  O   UNL A   1      33.375  33.547  27.988  1.00  0.00    -0.269 OA
BRANCH  25  28
ATOM     28  C   UNL A   1      34.887  31.745  28.065  1.00  0.00     0.039 A 
ATOM     29  C   UNL A   1      36.072  32.479  28.156  1.00  0.00     0.014 A 
ATOM     30  C   UNL A   1      34.836  30.417  28.494  1.00  0.00     0.014 A 
ATOM     31  C   UNL A   1      37.192  31.899  28.758  1.00  0.00     0.010 A 
ATOM     32  C   UNL A   1      35.919  29.881  29.177  1.00  0.00     0.010 A 
ATOM     33  C   UNL A   1      37.111  30.612  29.312  1.00  0.00    -0.014 A 
BRANCH  33  34
ATOM     34  C   UNL A   1      38.259  29.958  29.993  1.00  0.00     0.031 A 
ATOM     35  C   UNL A   1      38.612  30.393  31.390  1.00  0.00     0.074 A 
ATOM     36  C   UNL A   1      39.041  29.076  29.337  1.00  0.00     0.049 A 
ATOM     37  N   UNL A   1      39.684  30.148  32.094  1.00  0.00    -0.248 NA
ATOM     38  C   UNL A   1      37.638  31.272  32.059  1.00  0.00     0.031 C 
ATOM     39  C   UNL A   1      38.818  28.594  27.973  1.00  0.00     0.029 A 
ATOM     40  N   UNL A   1      40.197  28.446  29.727  1.00  0.00    -0.354 N 
ATOM     41  C   UNL A   1      39.535  30.877  33.270  1.00  0.00     0.074 A 
ATOM     42  C   UNL A   1      38.299  31.620  33.152  1.00  0.00     0.031 C 
ATOM     43  C   UNL A   1      39.799  27.734  27.645  1.00  0.00     0.029 A 
ATOM     44  C   UNL A   1      40.749  27.646  28.750  1.00  0.00     0.049 A 
ATOM     45  H   UNL A   1      40.595  28.555  30.621  1.00  0.00     0.167 HD
ATOM     46  C   UNL A   1      40.344  30.906  34.358  1.00  0.00     0.034 A 
ATOM     47  C   UNL A   1      41.902  26.947  28.741  1.00  0.00     0.034 A 
ATOM     48  C   UNL A   1      41.550  30.127  34.470  1.00  0.00     0.049 A 
ATOM     49  C   UNL A   1      42.792  26.997  29.959  1.00  0.00     0.074 A 
ATOM     50  C   UNL A   1      42.420  30.033  35.541  1.00  0.00     0.029 A 
ATOM     51  N   UNL A   1      42.054  29.300  33.473  1.00  0.00    -0.354 N 
ATOM     52  N   UNL A   1      42.631  27.675  31.072  1.00  0.00    -0.248 NA
ATOM     53  C   UNL A   1      44.017  26.185  29.923  1.00  0.00     0.031 C 
ATOM     54  C   UNL A   1      43.476  29.192  35.174  1.00  0.00     0.029 A 
ATOM     55  C   UNL A   1      43.229  28.705  33.900  1.00  0.00     0.049 A 
ATOM     56  H   UNL A   1      41.636  29.158  32.593  1.00  0.00     0.167 HD
ATOM     57  C   UNL A   1      43.712  27.339  31.882  1.00  0.00     0.074 A 
ATOM     58  C   UNL A   1      44.520  26.400  31.131  1.00  0.00     0.031 C 
ATOM     59  C   UNL A   1      44.008  27.759  33.138  1.00  0.00     0.034 A 
BRANCH  46  60
ATOM     60  C   UNL A   1      39.950  31.825  35.489  1.00  0.00     0.023 A 
ATOM     61  C   UNL A   1      39.113  31.392  36.533  1.00  0.00     0.031 A 
ATOM     62  C   UNL A   1      40.373  33.165  35.499  1.00  0.00     0.131 A 
ATOM     63  C   UNL A   1      38.650  32.310  37.487  1.00  0.00     0.055 A 
ATOM     64  C   UNL A   1      39.984  34.052  36.505  1.00  0.00     0.041 A 
ATOM     65  F   UNL A   1      41.158  33.643  34.520  1.00  0.00    -0.206 F 
ATOM     66  C   UNL A   1      39.102  33.631  37.496  1.00  0.00     0.022 A 
BRANCH  63  67
ATOM     67  S   UNL A   1      37.330  31.789  38.614  1.00  0.00     0.124 S 
ATOM     68  O   UNL A   1      37.992  31.895  39.912  1.00  0.00    -0.237 OA
ATOM     69  O   UNL A   1      36.283  32.769  38.350  1.00  0.00    -0.237 OA
ATOM     70  O   UNL A   1      37.029  30.424  38.185  1.00  0.00    -0.744 OA
ENDBRANCH  63  67
ENDBRANCH  46  60
BRANCH  47  71
ATOM     71  C   UNL A   1      42.298  26.149  27.544  1.00  0.00     0.023 A 
ATOM     72  C   UNL A   1      41.974  24.786  27.447  1.00  0.00     0.031 A 
ATOM     73  C   UNL A   1      43.043  26.724  26.499  1.00  0.00     0.131 A 
ATOM     74  C   UNL A   1      42.433  24.033  26.355  1.00  0.00     0.055 A 
ATOM     75  C   UNL A   1      43.452  25.983  25.390  1.00  0.00     0.041 A 
ATOM     76  F   UNL A   1      43.376  28.024  26.539  1.00  0.00    -0.206 F 
ATOM     77  C   UNL A   1      43.159  24.625  25.319  1.00  0.00     0.022 A 
BRANCH  74  78
ATOM     78  S   UNL A   1      42.137  22.242  26.349  1.00  0.00     0.124 S 
ATOM     79  O   UNL A   1      42.691  21.845  27.638  1.00  0.00    -0.237 OA
ATOM     80  O   UNL A   1      40.685  22.176  26.226  1.00  0.00    -0.237 OA
ATOM     81  O   UNL A   1      42.881  21.778  25.180  1.00  0.00    -0.744 OA
ENDBRANCH  74  78
ENDBRANCH  47  71
BRANCH  59  82
ATOM     82  C   UNL A   1      45.209  27.146  33.809  1.00  0.00     0.023 A 
ATOM     83  C   UNL A   1      45.119  25.967  34.569  1.00  0.00     0.031 A 
ATOM     84  C   UNL A   1      46.474  27.741  33.651  1.00  0.00     0.131 A 
ATOM     85  C   UNL A   1      46.271  25.438  35.169  1.00  0.00     0.055 A 
ATOM     86  C   UNL A   1      47.623  27.183  34.209  1.00  0.00     0.041 A 
ATOM     87  F   UNL A   1      46.613  28.867  32.933  1.00  0.00    -0.206 F 
ATOM     88  C   UNL A   1      47.524  26.028  34.979  1.00  0.00     0.022 A 
BRANCH  85  89
ATOM     89  S   UNL A   1      46.109  23.984  36.241  1.00  0.00     0.124 S 
ATOM     90  O   UNL A   1      47.229  23.158  35.802  1.00  0.00    -0.237 OA
ATOM     91  O   UNL A   1      46.227  24.563  37.575  1.00  0.00    -0.237 OA
ATOM     92  O   UNL A   1      44.785  23.459  35.911  1.00  0.00    -0.744 OA
ENDBRANCH  85  89
ENDBRANCH  59  82
ENDBRANCH  33  34
ENDBRANCH  25  28
ENDBRANCH  23  24
ENDBRANCH  22  23
ENDBRANCH   1  22
TORSDOF 20
ENDMDL
