MODEL 1
REMARK VINA RESULT:      -9.5      0.000      0.000
REMARK SMILES COc1ccc(-c2noc(CC(=O)NCCCCNC(=O)c3ccc(-c4c5nc(c(-c6cc(S(=O)(=O)[O-])ccc6F)c6ccc([nH]6)c(-c6cc(S(=O)(=O)[O-])ccc6F)c6nc(c(-c7cc(S(=O)(=O)[O-])ccc7F)c7ccc4[nH]7)C=C6)C=C5)cc3)c2-c2ccc(OC)cc2)cc1
REMARK SMILES IDX 16 1 15 2 14 3 12 4 13 5 11 7 10 8 7 9 8 10 85 11 9 12 6 13
REMARK SMILES IDX 3 14 4 15 95 16 5 17 94 18 2 19 1 20 86 21 87 22 93 23 88 24
REMARK SMILES IDX 92 25 89 26 90 27 91 28 17 29 18 30 19 31 20 32 21 34 22 35
REMARK SMILES IDX 23 36 84 37 24 38 83 39 25 40 26 41 27 42 77 43 28 44 82 45
REMARK SMILES IDX 76 46 78 47 29 48 81 49 75 50 74 51 30 53 62 54 42 55 61 56
REMARK SMILES IDX 43 57 46 58 60 59 79 60 44 61 45 62 59 64 80 65 47 66 31 67
REMARK SMILES IDX 32 68 40 69 33 70 39 71 41 72 38 73 34 74 35 75 36 76 37 77
REMARK SMILES IDX 63 78 64 79 72 80 65 81 71 82 73 83 70 84 66 85 67 86 68 87
REMARK SMILES IDX 69 88 48 89 49 90 57 91 50 92 56 93 58 94 55 95 51 96 52 97
REMARK SMILES IDX 53 98 54 99
REMARK H PARENT 14 6 19 33 78 52 46 63
REMARK Flexibility Score: inf
ROOT
ATOM      1  C   UNL A   1      36.212  33.021  30.007  1.00  0.00     0.023 C 
ENDROOT
BRANCH   1   2
ATOM      2  C   UNL A   1      37.173  33.654  29.000  1.00  0.00     0.116 C 
BRANCH   2   3
ATOM      3  N   UNL A   1      38.541  33.243  29.247  1.00  0.00    -0.356 N 
ATOM      4  C   UNL A   1      39.452  33.782  30.112  1.00  0.00     0.227 C 
ATOM      5  O   UNL A   1      40.595  33.320  30.124  1.00  0.00    -0.275 OA
ATOM      6  H   UNL A   1      38.857  32.473  28.722  1.00  0.00     0.163 HD
BRANCH   4   7
ATOM      7  C   UNL A   1      39.030  34.852  31.101  1.00  0.00     0.179 C 
BRANCH   7   8
ATOM      8  C   UNL A   1      39.115  34.391  32.507  1.00  0.00     0.154 A 
ATOM      9  C   UNL A   1      38.979  33.717  34.615  1.00  0.00     0.122 A 
ATOM     10  N   UNL A   1      40.285  33.864  34.349  1.00  0.00    -0.079 NA
ATOM     11  C   UNL A   1      38.192  34.039  33.471  1.00  0.00     0.053 A 
ATOM     12  O   UNL A   1      40.365  34.267  33.030  1.00  0.00    -0.360 OA
BRANCH   9  13
ATOM     13  C   UNL A   1      38.512  33.266  35.917  1.00  0.00     0.005 A 
ATOM     14  C   UNL A   1      37.673  32.413  38.451  1.00  0.00     0.118 A 
ATOM     15  C   UNL A   1      37.726  31.510  37.388  1.00  0.00     0.047 A 
ATOM     16  C   UNL A   1      38.069  33.736  38.259  1.00  0.00     0.047 A 
ATOM     17  C   UNL A   1      38.129  31.936  36.118  1.00  0.00     0.014 A 
ATOM     18  C   UNL A   1      38.484  34.161  36.995  1.00  0.00     0.014 A 
BRANCH  14  19
ATOM     19  O   UNL A   1      37.270  31.902  39.655  1.00  0.00    -0.497 OA
ATOM     20  C   UNL A   1      35.861  31.933  39.856  1.00  0.00     0.278 C 
ENDBRANCH  14  19
ENDBRANCH   9  13
BRANCH  11  21
ATOM     21  C   UNL A   1      36.752  34.106  33.310  1.00  0.00    -0.012 A 
ATOM     22  C   UNL A   1      36.150  35.314  32.937  1.00  0.00     0.013 A 
ATOM     23  C   UNL A   1      35.950  32.981  33.517  1.00  0.00     0.013 A 
ATOM     24  C   UNL A   1      34.768  35.383  32.752  1.00  0.00     0.047 A 
ATOM     25  C   UNL A   1      34.564  33.055  33.336  1.00  0.00     0.047 A 
ATOM     26  C   UNL A   1      33.968  34.256  32.948  1.00  0.00     0.118 A 
BRANCH  26  27
ATOM     27  O   UNL A   1      32.634  34.462  32.735  1.00  0.00    -0.497 OA
ATOM     28  C   UNL A   1      32.241  35.760  32.311  1.00  0.00     0.278 C 
ENDBRANCH  26  27
ENDBRANCH  11  21
ENDBRANCH   7   8
ENDBRANCH   4   7
ENDBRANCH   2   3
ENDBRANCH   1   2
BRANCH   1  29
ATOM     29  C   UNL A   1      34.767  32.908  29.516  1.00  0.00     0.023 C 
BRANCH  29  30
ATOM     30  C   UNL A   1      34.608  32.764  28.006  1.00  0.00     0.116 C 
BRANCH  30  31
ATOM     31  N   UNL A   1      33.927  31.538  27.617  1.00  0.00    -0.352 N 
ATOM     32  C   UNL A   1      34.404  30.249  27.649  1.00  0.00     0.251 C 
ATOM     33  H   UNL A   1      33.006  31.646  27.289  1.00  0.00     0.163 HD
ATOM     34  O   UNL A   1      33.737  29.339  27.164  1.00  0.00    -0.269 OA
BRANCH  32  35
ATOM     35  C   UNL A   1      35.736  29.980  28.230  1.00  0.00     0.039 A 
ATOM     36  C   UNL A   1      35.818  29.466  29.526  1.00  0.00     0.014 A 
ATOM     37  C   UNL A   1      36.897  30.200  27.483  1.00  0.00     0.014 A 
ATOM     38  C   UNL A   1      37.061  29.104  30.047  1.00  0.00     0.010 A 
ATOM     39  C   UNL A   1      38.127  29.774  27.978  1.00  0.00     0.010 A 
ATOM     40  C   UNL A   1      38.221  29.219  29.263  1.00  0.00    -0.014 A 
BRANCH  40  41
ATOM     41  C   UNL A   1      39.542  28.765  29.768  1.00  0.00     0.031 A 
ATOM     42  C   UNL A   1      40.249  27.617  29.103  1.00  0.00     0.074 A 
ATOM     43  C   UNL A   1      40.071  29.340  30.866  1.00  0.00     0.049 A 
ATOM     44  N   UNL A   1      41.366  27.023  29.437  1.00  0.00    -0.248 NA
ATOM     45  C   UNL A   1      39.590  27.041  27.922  1.00  0.00     0.031 C 
ATOM     46  C   UNL A   1      39.461  30.435  31.623  1.00  0.00     0.029 A 
ATOM     47  N   UNL A   1      41.236  29.079  31.541  1.00  0.00    -0.354 N 
ATOM     48  C   UNL A   1      41.540  25.997  28.515  1.00  0.00     0.074 A 
ATOM     49  C   UNL A   1      40.375  26.009  27.655  1.00  0.00     0.031 C 
ATOM     50  C   UNL A   1      40.273  30.771  32.639  1.00  0.00     0.029 A 
ATOM     51  C   UNL A   1      41.436  29.889  32.633  1.00  0.00     0.049 A 
ATOM     52  H   UNL A   1      41.871  28.377  31.268  1.00  0.00     0.167 HD
ATOM     53  C   UNL A   1      42.587  25.144  28.378  1.00  0.00     0.034 A 
ATOM     54  C   UNL A   1      42.438  29.913  33.534  1.00  0.00     0.034 A 
ATOM     55  C   UNL A   1      43.741  25.148  29.244  1.00  0.00     0.049 A 
ATOM     56  C   UNL A   1      43.570  28.931  33.391  1.00  0.00     0.074 A 
ATOM     57  C   UNL A   1      44.879  24.363  29.173  1.00  0.00     0.029 A 
ATOM     58  N   UNL A   1      43.901  25.974  30.352  1.00  0.00    -0.354 N 
ATOM     59  N   UNL A   1      43.745  27.995  32.488  1.00  0.00    -0.248 NA
ATOM     60  C   UNL A   1      44.644  29.015  34.388  1.00  0.00     0.031 C 
ATOM     61  C   UNL A   1      45.694  24.668  30.270  1.00  0.00     0.029 A 
ATOM     62  C   UNL A   1      45.103  25.696  30.988  1.00  0.00     0.049 A 
ATOM     63  H   UNL A   1      43.255  26.658  30.642  1.00  0.00     0.167 HD
ATOM     64  C   UNL A   1      44.965  27.398  32.791  1.00  0.00     0.074 A 
ATOM     65  C   UNL A   1      45.485  28.087  33.955  1.00  0.00     0.031 C 
ATOM     66  C   UNL A   1      45.601  26.377  32.160  1.00  0.00     0.034 A 
BRANCH  53  67
ATOM     67  C   UNL A   1      42.500  24.126  27.264  1.00  0.00     0.023 A 
ATOM     68  C   UNL A   1      41.778  22.928  27.417  1.00  0.00     0.031 A 
ATOM     69  C   UNL A   1      43.198  24.320  26.059  1.00  0.00     0.131 A 
ATOM     70  C   UNL A   1      41.856  21.931  26.434  1.00  0.00     0.055 A 
ATOM     71  C   UNL A   1      43.193  23.362  25.043  1.00  0.00     0.041 A 
ATOM     72  F   UNL A   1      43.921  25.432  25.857  1.00  0.00    -0.206 F 
ATOM     73  C   UNL A   1      42.537  22.149  25.235  1.00  0.00     0.022 A 
BRANCH  70  74
ATOM     74  S   UNL A   1      41.209  20.281  26.826  1.00  0.00     0.124 S 
ATOM     75  O   UNL A   1      40.888  20.421  28.245  1.00  0.00    -0.237 OA
ATOM     76  O   UNL A   1      40.072  20.165  25.922  1.00  0.00    -0.237 OA
ATOM     77  O   UNL A   1      42.334  19.395  26.535  1.00  0.00    -0.744 OA
ENDBRANCH  70  74
ENDBRANCH  53  67
BRANCH  54  78
ATOM     78  C   UNL A   1      42.423  30.903  34.647  1.00  0.00     0.023 A 
ATOM     79  C   UNL A   1      43.175  32.085  34.567  1.00  0.00     0.031 A 
ATOM     80  C   UNL A   1      41.676  30.671  35.815  1.00  0.00     0.131 A 
ATOM     81  C   UNL A   1      43.193  32.976  35.650  1.00  0.00     0.055 A 
ATOM     82  C   UNL A   1      41.662  31.583  36.873  1.00  0.00     0.041 A 
ATOM     83  F   UNL A   1      40.935  29.559  35.938  1.00  0.00    -0.206 F 
ATOM     84  C   UNL A   1      42.432  32.739  36.798  1.00  0.00     0.022 A 
BRANCH  81  85
ATOM     85  S   UNL A   1      44.276  34.429  35.561  1.00  0.00     0.124 S 
ATOM     86  O   UNL A   1      45.417  33.904  34.820  1.00  0.00    -0.237 OA
ATOM     87  O   UNL A   1      43.437  35.390  34.852  1.00  0.00    -0.237 OA
ATOM     88  O   UNL A   1      44.534  34.747  36.964  1.00  0.00    -0.744 OA
ENDBRANCH  81  85
ENDBRANCH  54  78
BRANCH  66  89
ATOM     89  C   UNL A   1      46.953  25.979  32.701  1.00  0.00     0.023 A 
ATOM     90  C   UNL A   1      48.143  26.539  32.206  1.00  0.00     0.031 A 
ATOM     91  C   UNL A   1      47.049  25.009  33.715  1.00  0.00     0.131 A 
ATOM     92  C   UNL A   1      49.382  26.085  32.687  1.00  0.00     0.055 A 
ATOM     93  C   UNL A   1      48.280  24.603  34.230  1.00  0.00     0.041 A 
ATOM     94  F   UNL A   1      45.943  24.439  34.222  1.00  0.00    -0.206 F 
ATOM     95  C   UNL A   1      49.457  25.134  33.707  1.00  0.00     0.022 A 
BRANCH  92  96
ATOM     96  S   UNL A   1      50.899  26.693  31.900  1.00  0.00     0.124 S 
ATOM     97  O   UNL A   1      51.364  27.685  32.863  1.00  0.00    -0.237 OA
ATOM     98  O   UNL A   1      51.703  25.480  31.795  1.00  0.00    -0.237 OA
ATOM     99  O   UNL A   1      50.431  27.237  30.626  1.00  0.00    -0.744 OA
ENDBRANCH  92  96
ENDBRANCH  66  89
ENDBRANCH  40  41
ENDBRANCH  32  35
ENDBRANCH  30  31
ENDBRANCH  29  30
ENDBRANCH   1  29
TORSDOF 19
ENDMDL
MODEL 2
REMARK VINA RESULT:      -9.0      0.412      7.513
REMARK SMILES COc1ccc(-c2noc(CC(=O)NCCCCNC(=O)c3ccc(-c4c5nc(c(-c6cc(S(=O)(=O)[O-])ccc6F)c6ccc([nH]6)c(-c6cc(S(=O)(=O)[O-])ccc6F)c6nc(c(-c7cc(S(=O)(=O)[O-])ccc7F)c7ccc4[nH]7)C=C6)C=C5)cc3)c2-c2ccc(OC)cc2)cc1
REMARK SMILES IDX 16 1 15 2 14 3 12 4 13 5 11 7 10 8 7 9 8 10 85 11 9 12 6 13
REMARK SMILES IDX 3 14 4 15 95 16 5 17 94 18 2 19 1 20 86 21 87 22 93 23 88 24
REMARK SMILES IDX 92 25 89 26 90 27 91 28 17 29 18 30 19 31 20 32 21 34 22 35
REMARK SMILES IDX 23 36 84 37 24 38 83 39 25 40 26 41 27 42 77 43 28 44 82 45
REMARK SMILES IDX 76 46 78 47 29 48 81 49 75 50 74 51 30 53 62 54 42 55 61 56
REMARK SMILES IDX 43 57 46 58 60 59 79 60 44 61 45 62 59 64 80 65 47 66 31 67
REMARK SMILES IDX 32 68 40 69 33 70 39 71 41 72 38 73 34 74 35 75 36 76 37 77
REMARK SMILES IDX 63 78 64 79 72 80 65 81 71 82 73 83 70 84 66 85 67 86 68 87
REMARK SMILES IDX 69 88 48 89 49 90 57 91 50 92 56 93 58 94 55 95 51 96 52 97
REMARK SMILES IDX 53 98 54 99
REMARK H PARENT 14 6 19 33 78 52 46 63
REMARK Flexibility Score: inf
ROOT
ATOM      1  C   UNL A   1      36.496  33.371  29.962  1.00  0.00     0.023 C 
ENDROOT
BRANCH   1   2
ATOM      2  C   UNL A   1      37.480  33.818  28.880  1.00  0.00     0.116 C 
BRANCH   2   3
ATOM      3  N   UNL A   1      38.842  33.463  29.227  1.00  0.00    -0.356 N 
ATOM      4  C   UNL A   1      39.635  33.981  30.211  1.00  0.00     0.227 C 
ATOM      5  O   UNL A   1      40.798  33.581  30.299  1.00  0.00    -0.275 OA
ATOM      6  H   UNL A   1      39.250  32.754  28.680  1.00  0.00     0.163 HD
BRANCH   4   7
ATOM      7  C   UNL A   1      39.060  34.946  31.230  1.00  0.00     0.179 C 
BRANCH   7   8
ATOM      8  C   UNL A   1      39.099  34.406  32.610  1.00  0.00     0.154 A 
ATOM      9  C   UNL A   1      38.895  33.615  34.671  1.00  0.00     0.122 A 
ATOM     10  N   UNL A   1      40.209  33.765  34.453  1.00  0.00    -0.079 NA
ATOM     11  C   UNL A   1      38.145  34.009  33.525  1.00  0.00     0.053 A 
ATOM     12  O   UNL A   1      40.333  34.241  33.162  1.00  0.00    -0.360 OA
BRANCH   9  13
ATOM     13  C   UNL A   1      38.385  33.095  35.932  1.00  0.00     0.005 A 
ATOM     14  C   UNL A   1      37.350  32.069  38.325  1.00  0.00     0.118 A 
ATOM     15  C   UNL A   1      37.540  33.443  38.174  1.00  0.00     0.047 A 
ATOM     16  C   UNL A   1      37.645  31.207  37.269  1.00  0.00     0.047 A 
ATOM     17  C   UNL A   1      38.072  33.957  36.987  1.00  0.00     0.014 A 
ATOM     18  C   UNL A   1      38.164  31.719  36.077  1.00  0.00     0.014 A 
BRANCH  14  19
ATOM     19  O   UNL A   1      36.822  31.662  39.519  1.00  0.00    -0.497 OA
ATOM     20  C   UNL A   1      35.601  32.309  39.865  1.00  0.00     0.278 C 
ENDBRANCH  14  19
ENDBRANCH   9  13
BRANCH  11  21
ATOM     21  C   UNL A   1      36.712  34.098  33.325  1.00  0.00    -0.012 A 
ATOM     22  C   UNL A   1      36.121  35.341  33.068  1.00  0.00     0.013 A 
ATOM     23  C   UNL A   1      35.903  32.960  33.380  1.00  0.00     0.013 A 
ATOM     24  C   UNL A   1      34.746  35.435  32.846  1.00  0.00     0.047 A 
ATOM     25  C   UNL A   1      34.524  33.058  33.164  1.00  0.00     0.047 A 
ATOM     26  C   UNL A   1      33.941  34.296  32.891  1.00  0.00     0.118 A 
BRANCH  26  27
ATOM     27  O   UNL A   1      32.614  34.529  32.658  1.00  0.00    -0.497 OA
ATOM     28  C   UNL A   1      32.220  35.880  32.464  1.00  0.00     0.278 C 
ENDBRANCH  26  27
ENDBRANCH  11  21
ENDBRANCH   7   8
ENDBRANCH   4   7
ENDBRANCH   2   3
ENDBRANCH   1   2
BRANCH   1  29
ATOM     29  C   UNL A   1      35.053  33.211  29.477  1.00  0.00     0.023 C 
BRANCH  29  30
ATOM     30  C   UNL A   1      34.901  32.951  27.982  1.00  0.00     0.116 C 
BRANCH  30  31
ATOM     31  N   UNL A   1      34.099  31.772  27.686  1.00  0.00    -0.352 N 
ATOM     32  C   UNL A   1      34.459  30.449  27.778  1.00  0.00     0.251 C 
ATOM     33  H   UNL A   1      33.180  31.946  27.379  1.00  0.00     0.163 HD
ATOM     34  O   UNL A   1      33.697  29.578  27.367  1.00  0.00    -0.269 OA
BRANCH  32  35
ATOM     35  C   UNL A   1      35.782  30.092  28.334  1.00  0.00     0.039 A 
ATOM     36  C   UNL A   1      35.855  29.581  29.631  1.00  0.00     0.014 A 
ATOM     37  C   UNL A   1      36.940  30.227  27.562  1.00  0.00     0.014 A 
ATOM     38  C   UNL A   1      37.081  29.138  30.130  1.00  0.00     0.010 A 
ATOM     39  C   UNL A   1      38.147  29.720  28.035  1.00  0.00     0.010 A 
ATOM     40  C   UNL A   1      38.230  29.167  29.322  1.00  0.00    -0.014 A 
BRANCH  40  41
ATOM     41  C   UNL A   1      39.526  28.626  29.803  1.00  0.00     0.031 A 
ATOM     42  C   UNL A   1      40.193  29.227  31.010  1.00  0.00     0.074 A 
ATOM     43  C   UNL A   1      40.136  27.642  29.114  1.00  0.00     0.049 A 
ATOM     44  N   UNL A   1      41.356  28.951  31.540  1.00  0.00    -0.248 NA
ATOM     45  C   UNL A   1      39.461  30.306  31.689  1.00  0.00     0.031 C 
ATOM     46  C   UNL A   1      39.610  27.006  27.904  1.00  0.00     0.029 A 
ATOM     47  N   UNL A   1      41.335  27.011  29.325  1.00  0.00    -0.354 N 
ATOM     48  C   UNL A   1      41.503  29.828  32.609  1.00  0.00     0.074 A 
ATOM     49  C   UNL A   1      40.340  30.690  32.602  1.00  0.00     0.031 C 
ATOM     50  C   UNL A   1      40.467  26.055  27.500  1.00  0.00     0.029 A 
ATOM     51  C   UNL A   1      41.623  26.043  28.392  1.00  0.00     0.049 A 
ATOM     52  H   UNL A   1      41.934  27.229  30.076  1.00  0.00     0.167 HD
ATOM     53  C   UNL A   1      42.499  29.889  33.529  1.00  0.00     0.034 A 
ATOM     54  C   UNL A   1      42.699  25.242  28.264  1.00  0.00     0.034 A 
ATOM     55  C   UNL A   1      43.652  29.020  33.520  1.00  0.00     0.049 A 
ATOM     56  C   UNL A   1      43.814  25.354  29.269  1.00  0.00     0.074 A 
ATOM     57  C   UNL A   1      44.698  28.961  34.425  1.00  0.00     0.029 A 
ATOM     58  N   UNL A   1      43.917  28.061  32.549  1.00  0.00    -0.354 N 
ATOM     59  N   UNL A   1      43.920  26.158  30.302  1.00  0.00    -0.248 NA
ATOM     60  C   UNL A   1      44.953  24.445  29.093  1.00  0.00     0.031 C 
ATOM     61  C   UNL A   1      45.623  28.015  33.967  1.00  0.00     0.029 A 
ATOM     62  C   UNL A   1      45.123  27.429  32.816  1.00  0.00     0.049 A 
ATOM     63  H   UNL A   1      43.332  27.859  31.782  1.00  0.00     0.167 HD
ATOM     64  C   UNL A   1      45.125  25.828  30.916  1.00  0.00     0.074 A 
ATOM     65  C   UNL A   1      45.703  24.747  30.143  1.00  0.00     0.031 C 
ATOM     66  C   UNL A   1      45.698  26.366  32.025  1.00  0.00     0.034 A 
BRANCH  53  67
ATOM     67  C   UNL A   1      42.384  30.955  34.594  1.00  0.00     0.023 A 
ATOM     68  C   UNL A   1      43.030  32.197  34.465  1.00  0.00     0.031 A 
ATOM     69  C   UNL A   1      41.674  30.706  35.783  1.00  0.00     0.131 A 
ATOM     70  C   UNL A   1      43.043  33.097  35.541  1.00  0.00     0.055 A 
ATOM     71  C   UNL A   1      41.612  31.647  36.813  1.00  0.00     0.041 A 
ATOM     72  F   UNL A   1      41.051  29.534  35.977  1.00  0.00    -0.206 F 
ATOM     73  C   UNL A   1      42.317  32.843  36.705  1.00  0.00     0.022 A 
BRANCH  70  74
ATOM     74  S   UNL A   1      44.173  34.516  35.464  1.00  0.00     0.124 S 
ATOM     75  O   UNL A   1      45.320  33.941  34.764  1.00  0.00    -0.237 OA
ATOM     76  O   UNL A   1      43.396  35.499  34.719  1.00  0.00    -0.237 OA
ATOM     77  O   UNL A   1      44.411  34.840  36.869  1.00  0.00    -0.744 OA
ENDBRANCH  70  74
ENDBRANCH  53  67
BRANCH  54  78
ATOM     78  C   UNL A   1      42.775  24.260  27.147  1.00  0.00     0.023 A 
ATOM     79  C   UNL A   1      42.112  23.026  27.230  1.00  0.00     0.031 A 
ATOM     80  C   UNL A   1      43.529  24.530  25.992  1.00  0.00     0.131 A 
ATOM     81  C   UNL A   1      42.243  22.091  26.192  1.00  0.00     0.055 A 
ATOM     82  C   UNL A   1      43.621  23.614  24.942  1.00  0.00     0.041 A 
ATOM     83  F   UNL A   1      44.176  25.699  25.861  1.00  0.00    -0.206 F 
ATOM     84  C   UNL A   1      42.984  22.381  25.043  1.00  0.00     0.022 A 
BRANCH  81  85
ATOM     85  S   UNL A   1      41.477  20.459  26.391  1.00  0.00     0.124 S 
ATOM     86  O   UNL A   1      42.227  19.659  25.430  1.00  0.00    -0.237 OA
ATOM     87  O   UNL A   1      41.731  20.174  27.800  1.00  0.00    -0.237 OA
ATOM     88  O   UNL A   1      40.077  20.696  26.049  1.00  0.00    -0.744 OA
ENDBRANCH  81  85
ENDBRANCH  54  78
BRANCH  66  89
ATOM     89  C   UNL A   1      47.000  25.756  32.482  1.00  0.00     0.023 A 
ATOM     90  C   UNL A   1      48.230  26.114  31.902  1.00  0.00     0.031 A 
ATOM     91  C   UNL A   1      47.006  24.787  33.502  1.00  0.00     0.131 A 
ATOM     92  C   UNL A   1      49.409  25.468  32.309  1.00  0.00     0.055 A 
ATOM     93  C   UNL A   1      48.188  24.190  33.942  1.00  0.00     0.041 A 
ATOM     94  F   UNL A   1      45.860  24.406  34.088  1.00  0.00    -0.206 F 
ATOM     95  C   UNL A   1      49.397  24.521  33.336  1.00  0.00     0.022 A 
BRANCH  92  96
ATOM     96  S   UNL A   1      50.948  25.819  31.415  1.00  0.00     0.124 S 
ATOM     97  O   UNL A   1      51.946  25.705  32.474  1.00  0.00    -0.237 OA
ATOM     98  O   UNL A   1      50.968  24.768  30.404  1.00  0.00    -0.237 OA
ATOM     99  O   UNL A   1      50.745  27.171  30.898  1.00  0.00    -0.744 OA
ENDBRANCH  92  96
ENDBRANCH  66  89
ENDBRANCH  40  41
ENDBRANCH  32  35
ENDBRANCH  30  31
ENDBRANCH  29  30
ENDBRANCH   1  29
TORSDOF 19
ENDMDL
MODEL 3
REMARK VINA RESULT:      -8.6      4.806     13.543
REMARK SMILES COc1ccc(-c2noc(CC(=O)NCCCCNC(=O)c3ccc(-c4c5nc(c(-c6cc(S(=O)(=O)[O-])ccc6F)c6ccc([nH]6)c(-c6cc(S(=O)(=O)[O-])ccc6F)c6nc(c(-c7cc(S(=O)(=O)[O-])ccc7F)c7ccc4[nH]7)C=C6)C=C5)cc3)c2-c2ccc(OC)cc2)cc1
REMARK SMILES IDX 16 1 15 2 14 3 12 4 13 5 11 7 10 8 7 9 8 10 85 11 9 12 6 13
REMARK SMILES IDX 3 14 4 15 95 16 5 17 94 18 2 19 1 20 86 21 87 22 93 23 88 24
REMARK SMILES IDX 92 25 89 26 90 27 91 28 17 29 18 30 19 31 20 32 21 34 22 35
REMARK SMILES IDX 23 36 84 37 24 38 83 39 25 40 26 41 27 42 77 43 28 44 82 45
REMARK SMILES IDX 76 46 78 47 29 48 81 49 75 50 74 51 30 53 62 54 42 55 61 56
REMARK SMILES IDX 43 57 46 58 60 59 79 60 44 61 45 62 59 64 80 65 47 66 31 67
REMARK SMILES IDX 32 68 40 69 33 70 39 71 41 72 38 73 34 74 35 75 36 76 37 77
REMARK SMILES IDX 63 78 64 79 72 80 65 81 71 82 73 83 70 84 66 85 67 86 68 87
REMARK SMILES IDX 69 88 48 89 49 90 57 91 50 92 56 93 58 94 55 95 51 96 52 97
REMARK SMILES IDX 53 98 54 99
REMARK H PARENT 14 6 19 33 78 52 46 63
REMARK Flexibility Score: inf
ROOT
ATOM      1  C   UNL A   1      53.094  27.540  26.552  1.00  0.00     0.023 C 
ENDROOT
BRANCH   1   2
ATOM      2  C   UNL A   1      52.854  26.549  25.412  1.00  0.00     0.116 C 
BRANCH   2   3
ATOM      3  N   UNL A   1      52.046  27.138  24.363  1.00  0.00    -0.356 N 
ATOM      4  C   UNL A   1      50.700  27.025  24.155  1.00  0.00     0.227 C 
ATOM      5  O   UNL A   1      50.213  27.558  23.156  1.00  0.00    -0.275 OA
ATOM      6  H   UNL A   1      52.532  27.694  23.712  1.00  0.00     0.163 HD
BRANCH   4   7
ATOM      7  C   UNL A   1      49.821  26.347  25.189  1.00  0.00     0.179 C 
BRANCH   7   8
ATOM      8  C   UNL A   1      48.512  27.023  25.352  1.00  0.00     0.154 A 
ATOM      9  C   UNL A   1      46.446  27.794  25.588  1.00  0.00     0.122 A 
ATOM     10  N   UNL A   1      47.238  28.869  25.457  1.00  0.00    -0.079 NA
ATOM     11  C   UNL A   1      47.212  26.593  25.530  1.00  0.00     0.053 A 
ATOM     12  O   UNL A   1      48.525  28.384  25.327  1.00  0.00    -0.360 OA
BRANCH   9  13
ATOM     13  C   UNL A   1      45.009  27.924  25.781  1.00  0.00     0.005 A 
ATOM     14  C   UNL A   1      42.235  28.170  26.085  1.00  0.00     0.118 A 
ATOM     15  C   UNL A   1      43.081  29.198  26.502  1.00  0.00     0.047 A 
ATOM     16  C   UNL A   1      42.770  27.030  25.486  1.00  0.00     0.047 A 
ATOM     17  C   UNL A   1      44.467  29.072  26.367  1.00  0.00     0.014 A 
ATOM     18  C   UNL A   1      44.154  26.907  25.337  1.00  0.00     0.014 A 
BRANCH  14  19
ATOM     19  O   UNL A   1      40.895  28.386  26.255  1.00  0.00    -0.497 OA
ATOM     20  C   UNL A   1      40.192  27.276  26.804  1.00  0.00     0.278 C 
ENDBRANCH  14  19
ENDBRANCH   9  13
BRANCH  11  21
ATOM     21  C   UNL A   1      46.788  25.207  25.543  1.00  0.00    -0.012 A 
ATOM     22  C   UNL A   1      46.400  24.609  26.748  1.00  0.00     0.013 A 
ATOM     23  C   UNL A   1      46.755  24.452  24.367  1.00  0.00     0.013 A 
ATOM     24  C   UNL A   1      45.964  23.283  26.767  1.00  0.00     0.047 A 
ATOM     25  C   UNL A   1      46.322  23.121  24.391  1.00  0.00     0.047 A 
ATOM     26  C   UNL A   1      45.920  22.533  25.591  1.00  0.00     0.118 A 
BRANCH  26  27
ATOM     27  O   UNL A   1      45.475  21.251  25.751  1.00  0.00    -0.497 OA
ATOM     28  C   UNL A   1      44.911  20.616  24.613  1.00  0.00     0.278 C 
ENDBRANCH  26  27
ENDBRANCH  11  21
ENDBRANCH   7   8
ENDBRANCH   4   7
ENDBRANCH   2   3
ENDBRANCH   1   2
BRANCH   1  29
ATOM     29  C   UNL A   1      52.238  27.291  27.796  1.00  0.00     0.023 C 
BRANCH  29  30
ATOM     30  C   UNL A   1      52.712  28.003  29.058  1.00  0.00     0.116 C 
BRANCH  30  31
ATOM     31  N   UNL A   1      53.393  29.260  28.784  1.00  0.00    -0.352 N 
ATOM     32  C   UNL A   1      52.845  30.507  28.598  1.00  0.00     0.251 C 
ATOM     33  H   UNL A   1      54.374  29.211  28.724  1.00  0.00     0.163 HD
ATOM     34  O   UNL A   1      53.559  31.443  28.250  1.00  0.00    -0.269 OA
BRANCH  32  35
ATOM     35  C   UNL A   1      51.389  30.695  28.780  1.00  0.00     0.039 A 
ATOM     36  C   UNL A   1      50.582  30.847  27.651  1.00  0.00     0.014 A 
ATOM     37  C   UNL A   1      50.822  30.685  30.057  1.00  0.00     0.014 A 
ATOM     38  C   UNL A   1      49.195  30.916  27.799  1.00  0.00     0.010 A 
ATOM     39  C   UNL A   1      49.437  30.684  30.198  1.00  0.00     0.010 A 
ATOM     40  C   UNL A   1      48.610  30.796  29.070  1.00  0.00    -0.014 A 
BRANCH  40  41
ATOM     41  C   UNL A   1      47.134  30.785  29.243  1.00  0.00     0.031 A 
ATOM     42  C   UNL A   1      46.387  32.078  29.420  1.00  0.00     0.074 A 
ATOM     43  C   UNL A   1      46.478  29.610  29.309  1.00  0.00     0.049 A 
ATOM     44  N   UNL A   1      45.117  32.276  29.661  1.00  0.00    -0.248 NA
ATOM     45  C   UNL A   1      47.187  33.308  29.349  1.00  0.00     0.031 C 
ATOM     46  C   UNL A   1      47.098  28.288  29.192  1.00  0.00     0.029 A 
ATOM     47  N   UNL A   1      45.148  29.337  29.500  1.00  0.00    -0.354 N 
ATOM     48  C   UNL A   1      44.965  33.654  29.780  1.00  0.00     0.074 A 
ATOM     49  C   UNL A   1      46.288  34.230  29.657  1.00  0.00     0.031 C 
ATOM     50  C   UNL A   1      46.144  27.347  29.283  1.00  0.00     0.029 A 
ATOM     51  C   UNL A   1      44.855  27.993  29.509  1.00  0.00     0.049 A 
ATOM     52  H   UNL A   1      44.466  30.037  29.619  1.00  0.00     0.167 HD
ATOM     53  C   UNL A   1      43.826  34.373  29.947  1.00  0.00     0.034 A 
ATOM     54  C   UNL A   1      43.683  27.354  29.688  1.00  0.00     0.034 A 
ATOM     55  C   UNL A   1      42.515  33.781  30.067  1.00  0.00     0.049 A 
ATOM     56  C   UNL A   1      42.436  28.168  29.914  1.00  0.00     0.074 A 
ATOM     57  C   UNL A   1      41.289  34.411  30.192  1.00  0.00     0.029 A 
ATOM     58  N   UNL A   1      42.259  32.414  30.087  1.00  0.00    -0.354 N 
ATOM     59  N   UNL A   1      42.299  29.472  29.980  1.00  0.00    -0.248 NA
ATOM     60  C   UNL A   1      41.184  27.420  30.084  1.00  0.00     0.031 C 
ATOM     61  C   UNL A   1      40.304  33.429  30.353  1.00  0.00     0.029 A 
ATOM     62  C   UNL A   1      40.901  32.183  30.254  1.00  0.00     0.049 A 
ATOM     63  H   UNL A   1      42.943  31.711  29.995  1.00  0.00     0.167 HD
ATOM     64  C   UNL A   1      40.939  29.701  30.169  1.00  0.00     0.074 A 
ATOM     65  C   UNL A   1      40.300  28.401  30.196  1.00  0.00     0.031 C 
ATOM     66  C   UNL A   1      40.278  30.880  30.300  1.00  0.00     0.034 A 
BRANCH  53  67
ATOM     67  C   UNL A   1      43.971  35.875  30.035  1.00  0.00     0.023 A 
ATOM     68  C   UNL A   1      44.059  36.533  31.275  1.00  0.00     0.031 A 
ATOM     69  C   UNL A   1      43.956  36.667  28.873  1.00  0.00     0.131 A 
ATOM     70  C   UNL A   1      44.022  37.934  31.330  1.00  0.00     0.055 A 
ATOM     71  C   UNL A   1      44.016  38.061  28.932  1.00  0.00     0.041 A 
ATOM     72  F   UNL A   1      43.855  36.102  27.660  1.00  0.00    -0.206 F 
ATOM     73  C   UNL A   1      44.027  38.704  30.166  1.00  0.00     0.022 A 
BRANCH  70  74
ATOM     74  S   UNL A   1      43.780  38.728  32.945  1.00  0.00     0.124 S 
ATOM     75  O   UNL A   1      45.157  39.008  33.344  1.00  0.00    -0.237 OA
ATOM     76  O   UNL A   1      42.963  39.887  32.607  1.00  0.00    -0.237 OA
ATOM     77  O   UNL A   1      43.108  37.698  33.735  1.00  0.00    -0.744 OA
ENDBRANCH  70  74
ENDBRANCH  53  67
BRANCH  54  78
ATOM     78  C   UNL A   1      43.626  25.866  29.655  1.00  0.00     0.023 A 
ATOM     79  C   UNL A   1      43.055  25.193  28.564  1.00  0.00     0.031 A 
ATOM     80  C   UNL A   1      44.122  25.096  30.722  1.00  0.00     0.131 A 
ATOM     81  C   UNL A   1      42.959  23.794  28.579  1.00  0.00     0.055 A 
ATOM     82  C   UNL A   1      44.065  23.701  30.711  1.00  0.00     0.041 A 
ATOM     83  F   UNL A   1      44.685  25.692  31.785  1.00  0.00    -0.206 F 
ATOM     84  C   UNL A   1      43.471  23.042  29.640  1.00  0.00     0.022 A 
BRANCH  81  85
ATOM     85  S   UNL A   1      42.099  22.968  27.211  1.00  0.00     0.124 S 
ATOM     86  O   UNL A   1      42.552  21.590  27.364  1.00  0.00    -0.237 OA
ATOM     87  O   UNL A   1      40.699  23.222  27.536  1.00  0.00    -0.237 OA
ATOM     88  O   UNL A   1      42.597  23.663  26.027  1.00  0.00    -0.744 OA
ENDBRANCH  81  85
ENDBRANCH  54  78
BRANCH  66  89
ATOM     89  C   UNL A   1      38.778  30.808  30.444  1.00  0.00     0.023 A 
ATOM     90  C   UNL A   1      37.918  31.010  29.350  1.00  0.00     0.031 A 
ATOM     91  C   UNL A   1      38.201  30.551  31.701  1.00  0.00     0.131 A 
ATOM     92  C   UNL A   1      36.527  31.006  29.544  1.00  0.00     0.055 A 
ATOM     93  C   UNL A   1      36.818  30.490  31.877  1.00  0.00     0.041 A 
ATOM     94  F   UNL A   1      38.975  30.353  32.780  1.00  0.00    -0.206 F 
ATOM     95  C   UNL A   1      35.973  30.731  30.797  1.00  0.00     0.022 A 
BRANCH  92  96
ATOM     96  S   UNL A   1      35.451  31.452  28.154  1.00  0.00     0.124 S 
ATOM     97  O   UNL A   1      36.096  32.658  27.646  1.00  0.00    -0.237 OA
ATOM     98  O   UNL A   1      35.541  30.273  27.299  1.00  0.00    -0.237 OA
ATOM     99  O   UNL A   1      34.148  31.663  28.782  1.00  0.00    -0.744 OA
ENDBRANCH  92  96
ENDBRANCH  66  89
ENDBRANCH  40  41
ENDBRANCH  32  35
ENDBRANCH  30  31
ENDBRANCH  29  30
ENDBRANCH   1  29
TORSDOF 19
ENDMDL
