MODEL 1
REMARK VINA RESULT:     -11.6      0.000      0.000
REMARK SMILES CCCNC(=O)N1[C@@H](C(=O)NCCCCNC(=O)c2ccc(-c3c4nc(c(-c5cc(S(=O)(=O)[O-])ccc5F)c5ccc([nH]5)c(-c5cc(S(=O)(=O)[O-])ccc5F)c5nc(c(-c6cc(S(=O)(=O)[O-])ccc6F)c6ccc3[nH]6)C=C5)C=C4)cc2)CC[C@H]2CCCC[C@@H]21
REMARK SMILES IDX 13 1 12 2 11 3 9 4 10 5 8 7 7 8 89 9 82 10 84 11 88 12 83 13
REMARK SMILES IDX 85 14 87 15 86 16 5 17 4 18 6 20 3 21 2 22 1 23 14 24 15 25
REMARK SMILES IDX 16 26 17 27 18 29 19 30 20 31 81 32 21 33 80 34 22 35 23 36
REMARK SMILES IDX 24 37 74 38 25 39 79 40 73 41 75 42 26 43 78 44 72 45 71 46
REMARK SMILES IDX 27 48 59 49 39 50 58 51 40 52 43 53 57 54 76 55 41 56 42 57
REMARK SMILES IDX 56 59 77 60 44 61 28 62 29 63 37 64 30 65 36 66 38 67 35 68
REMARK SMILES IDX 31 69 32 70 33 71 34 72 60 73 61 74 69 75 62 76 68 77 70 78
REMARK SMILES IDX 67 79 63 80 64 81 65 82 66 83 45 84 46 85 54 86 47 87 53 88
REMARK SMILES IDX 55 89 52 90 48 91 49 92 50 93 51 94
REMARK H PARENT 11 6 4 19 16 28 75 47 43 58
REMARK Flexibility Score: inf
ROOT
ATOM      1  C   UNL A   1      34.416  21.348  27.196  1.00  0.00     0.023 C 
ENDROOT
BRANCH   1   2
ATOM      2  C   UNL A   1      33.219  22.181  27.642  1.00  0.00     0.116 C 
BRANCH   2   3
ATOM      3  N   UNL A   1      32.141  22.282  26.679  1.00  0.00    -0.354 N 
ATOM      4  C   UNL A   1      31.849  23.290  25.789  1.00  0.00     0.242 C 
ATOM      5  O   UNL A   1      31.172  22.957  24.814  1.00  0.00    -0.273 OA
ATOM      6  H   UNL A   1      31.525  21.515  26.658  1.00  0.00     0.163 HD
BRANCH   4   7
ATOM      7  C   UNL A   1      32.381  24.751  26.026  1.00  0.00     0.176 C 
ATOM      8  N   UNL A   1      31.434  25.871  25.790  1.00  0.00    -0.310 N 
ATOM      9  C   UNL A   1      31.918  27.243  25.997  1.00  0.00     0.091 C 
ATOM     10  C   UNL A   1      33.607  24.983  25.094  1.00  0.00     0.036 C 
ATOM     11  C   UNL A   1      33.449  27.326  25.926  1.00  0.00     0.012 C 
ATOM     12  C   UNL A   1      31.439  27.936  27.281  1.00  0.00     0.025 C 
ATOM     13  C   UNL A   1      33.919  26.450  24.774  1.00  0.00     0.008 C 
ATOM     14  C   UNL A   1      33.877  28.788  25.802  1.00  0.00     0.006 C 
ATOM     15  C   UNL A   1      31.861  29.412  27.243  1.00  0.00     0.002 C 
ATOM     16  C   UNL A   1      33.362  29.596  26.997  1.00  0.00     0.000 C 
BRANCH   8  17
ATOM     17  C   UNL A   1      30.076  25.665  25.755  1.00  0.00     0.318 C 
ATOM     18  N   UNL A   1      29.495  25.692  24.516  1.00  0.00    -0.338 N 
ATOM     19  H   UNL A   1      28.518  25.578  24.505  1.00  0.00     0.165 HD
ATOM     20  O   UNL A   1      29.399  25.491  26.763  1.00  0.00    -0.249 OA
BRANCH  18  21
ATOM     21  C   UNL A   1      30.118  25.865  23.212  1.00  0.00     0.117 C 
BRANCH  21  22
ATOM     22  C   UNL A   1      30.530  27.294  22.877  1.00  0.00     0.018 C 
ATOM     23  C   UNL A   1      29.440  28.316  23.132  1.00  0.00     0.006 C 
ENDBRANCH  21  22
ENDBRANCH  18  21
ENDBRANCH   8  17
ENDBRANCH   4   7
ENDBRANCH   2   3
ENDBRANCH   1   2
BRANCH   1  24
ATOM     24  C   UNL A   1      35.013  21.669  25.831  1.00  0.00     0.023 C 
BRANCH  24  25
ATOM     25  C   UNL A   1      36.399  22.306  25.837  1.00  0.00     0.116 C 
BRANCH  25  26
ATOM     26  N   UNL A   1      37.480  21.333  25.761  1.00  0.00    -0.352 N 
ATOM     27  C   UNL A   1      38.821  21.488  26.025  1.00  0.00     0.251 C 
ATOM     28  H   UNL A   1      37.211  20.430  25.477  1.00  0.00     0.163 HD
ATOM     29  O   UNL A   1      39.597  20.569  25.767  1.00  0.00    -0.269 OA
BRANCH  27  30
ATOM     30  C   UNL A   1      39.334  22.762  26.578  1.00  0.00     0.039 A 
ATOM     31  C   UNL A   1      40.240  22.725  27.640  1.00  0.00     0.014 A 
ATOM     32  C   UNL A   1      38.939  23.991  26.042  1.00  0.00     0.014 A 
ATOM     33  C   UNL A   1      40.815  23.911  28.105  1.00  0.00     0.010 A 
ATOM     34  C   UNL A   1      39.577  25.161  26.447  1.00  0.00     0.010 A 
ATOM     35  C   UNL A   1      40.527  25.136  27.481  1.00  0.00    -0.014 A 
BRANCH  35  36
ATOM     36  C   UNL A   1      41.210  26.393  27.890  1.00  0.00     0.031 A 
ATOM     37  C   UNL A   1      40.444  27.474  28.606  1.00  0.00     0.074 A 
ATOM     38  C   UNL A   1      42.506  26.586  27.566  1.00  0.00     0.049 A 
ATOM     39  N   UNL A   1      40.845  28.661  28.984  1.00  0.00    -0.248 NA
ATOM     40  C   UNL A   1      39.033  27.192  28.911  1.00  0.00     0.031 C 
ATOM     41  C   UNL A   1      43.345  25.631  26.837  1.00  0.00     0.029 A 
ATOM     42  N   UNL A   1      43.345  27.649  27.799  1.00  0.00    -0.354 N 
ATOM     43  C   UNL A   1      39.736  29.271  29.560  1.00  0.00     0.074 A 
ATOM     44  C   UNL A   1      38.631  28.346  29.422  1.00  0.00     0.031 C 
ATOM     45  C   UNL A   1      44.582  26.139  26.711  1.00  0.00     0.029 A 
ATOM     46  C   UNL A   1      44.616  27.473  27.298  1.00  0.00     0.049 A 
ATOM     47  H   UNL A   1      43.063  28.460  28.280  1.00  0.00     0.167 HD
ATOM     48  C   UNL A   1      39.651  30.480  30.170  1.00  0.00     0.034 A 
ATOM     49  C   UNL A   1      45.682  28.299  27.298  1.00  0.00     0.034 A 
ATOM     50  C   UNL A   1      40.764  31.388  30.306  1.00  0.00     0.049 A 
ATOM     51  C   UNL A   1      45.554  29.654  27.952  1.00  0.00     0.074 A 
ATOM     52  C   UNL A   1      40.803  32.612  30.952  1.00  0.00     0.029 A 
ATOM     53  N   UNL A   1      42.033  31.179  29.781  1.00  0.00    -0.354 N 
ATOM     54  N   UNL A   1      44.511  30.192  28.542  1.00  0.00    -0.248 NA
ATOM     55  C   UNL A   1      46.749  30.508  27.949  1.00  0.00     0.031 C 
ATOM     56  C   UNL A   1      42.065  33.177  30.750  1.00  0.00     0.029 A 
ATOM     57  C   UNL A   1      42.849  32.267  30.057  1.00  0.00     0.049 A 
ATOM     58  H   UNL A   1      42.314  30.376  29.285  1.00  0.00     0.167 HD
ATOM     59  C   UNL A   1      44.937  31.431  29.011  1.00  0.00     0.074 A 
ATOM     60  C   UNL A   1      46.334  31.552  28.648  1.00  0.00     0.031 C 
ATOM     61  C   UNL A   1      44.240  32.382  29.685  1.00  0.00     0.034 A 
BRANCH  48  62
ATOM     62  C   UNL A   1      38.303  30.897  30.711  1.00  0.00     0.023 A 
ATOM     63  C   UNL A   1      37.386  31.623  29.931  1.00  0.00     0.031 A 
ATOM     64  C   UNL A   1      37.934  30.574  32.029  1.00  0.00     0.131 A 
ATOM     65  C   UNL A   1      36.180  32.065  30.497  1.00  0.00     0.055 A 
ATOM     66  C   UNL A   1      36.696  30.943  32.559  1.00  0.00     0.041 A 
ATOM     67  F   UNL A   1      38.775  29.902  32.830  1.00  0.00    -0.206 F 
ATOM     68  C   UNL A   1      35.816  31.706  31.796  1.00  0.00     0.022 A 
BRANCH  65  69
ATOM     69  S   UNL A   1      35.160  33.234  29.557  1.00  0.00     0.124 S 
ATOM     70  O   UNL A   1      36.133  34.274  29.228  1.00  0.00    -0.237 OA
ATOM     71  O   UNL A   1      34.692  32.421  28.441  1.00  0.00    -0.237 OA
ATOM     72  O   UNL A   1      34.130  33.635  30.513  1.00  0.00    -0.744 OA
ENDBRANCH  65  69
ENDBRANCH  48  62
BRANCH  49  73
ATOM     73  C   UNL A   1      46.962  27.887  26.650  1.00  0.00     0.023 A 
ATOM     74  C   UNL A   1      47.145  28.007  25.263  1.00  0.00     0.031 A 
ATOM     75  C   UNL A   1      48.003  27.312  27.401  1.00  0.00     0.131 A 
ATOM     76  C   UNL A   1      48.313  27.511  24.664  1.00  0.00     0.055 A 
ATOM     77  C   UNL A   1      49.190  26.876  26.809  1.00  0.00     0.041 A 
ATOM     78  F   UNL A   1      47.883  27.172  28.731  1.00  0.00    -0.206 F 
ATOM     79  C   UNL A   1      49.343  26.960  25.429  1.00  0.00     0.022 A 
BRANCH  76  80
ATOM     80  S   UNL A   1      48.422  27.497  22.852  1.00  0.00     0.124 S 
ATOM     81  O   UNL A   1      47.234  28.255  22.479  1.00  0.00    -0.237 OA
ATOM     82  O   UNL A   1      49.703  28.157  22.623  1.00  0.00    -0.237 OA
ATOM     83  O   UNL A   1      48.387  26.076  22.520  1.00  0.00    -0.744 OA
ENDBRANCH  76  80
ENDBRANCH  49  73
BRANCH  61  84
ATOM     84  C   UNL A   1      44.997  33.614  30.122  1.00  0.00     0.023 A 
ATOM     85  C   UNL A   1      45.053  34.773  29.328  1.00  0.00     0.031 A 
ATOM     86  C   UNL A   1      45.679  33.622  31.351  1.00  0.00     0.131 A 
ATOM     87  C   UNL A   1      45.824  35.869  29.747  1.00  0.00     0.055 A 
ATOM     88  C   UNL A   1      46.387  34.740  31.793  1.00  0.00     0.041 A 
ATOM     89  F   UNL A   1      45.664  32.541  32.149  1.00  0.00    -0.206 F 
ATOM     90  C   UNL A   1      46.474  35.867  30.982  1.00  0.00     0.022 A 
BRANCH  87  91
ATOM     91  S   UNL A   1      46.048  37.262  28.606  1.00  0.00     0.124 S 
ATOM     92  O   UNL A   1      45.263  38.310  29.249  1.00  0.00    -0.237 OA
ATOM     93  O   UNL A   1      47.496  37.449  28.623  1.00  0.00    -0.237 OA
ATOM     94  O   UNL A   1      45.502  36.763  27.344  1.00  0.00    -0.744 OA
ENDBRANCH  87  91
ENDBRANCH  61  84
ENDBRANCH  35  36
ENDBRANCH  27  30
ENDBRANCH  25  26
ENDBRANCH  24  25
ENDBRANCH   1  24
TORSDOF 17
ENDMDL
MODEL 2
REMARK VINA RESULT:     -11.4      4.953      7.611
REMARK SMILES CCCNC(=O)N1[C@@H](C(=O)NCCCCNC(=O)c2ccc(-c3c4nc(c(-c5cc(S(=O)(=O)[O-])ccc5F)c5ccc([nH]5)c(-c5cc(S(=O)(=O)[O-])ccc5F)c5nc(c(-c6cc(S(=O)(=O)[O-])ccc6F)c6ccc3[nH]6)C=C5)C=C4)cc2)CC[C@H]2CCCC[C@@H]21
REMARK SMILES IDX 13 1 12 2 11 3 9 4 10 5 8 7 7 8 89 9 82 10 84 11 88 12 83 13
REMARK SMILES IDX 85 14 87 15 86 16 5 17 4 18 6 20 3 21 2 22 1 23 14 24 15 25
REMARK SMILES IDX 16 26 17 27 18 29 19 30 20 31 81 32 21 33 80 34 22 35 23 36
REMARK SMILES IDX 24 37 74 38 25 39 79 40 73 41 75 42 26 43 78 44 72 45 71 46
REMARK SMILES IDX 27 48 59 49 39 50 58 51 40 52 43 53 57 54 76 55 41 56 42 57
REMARK SMILES IDX 56 59 77 60 44 61 28 62 29 63 37 64 30 65 36 66 38 67 35 68
REMARK SMILES IDX 31 69 32 70 33 71 34 72 60 73 61 74 69 75 62 76 68 77 70 78
REMARK SMILES IDX 67 79 63 80 64 81 65 82 66 83 45 84 46 85 54 86 47 87 53 88
REMARK SMILES IDX 55 89 52 90 48 91 49 92 50 93 51 94
REMARK H PARENT 11 6 4 19 16 28 75 47 43 58
REMARK Flexibility Score: inf
ROOT
ATOM      1  C   UNL A   1      31.528  27.885  25.327  1.00  0.00     0.023 C 
ENDROOT
BRANCH   1   2
ATOM      2  C   UNL A   1      31.948  26.900  26.411  1.00  0.00     0.116 C 
BRANCH   2   3
ATOM      3  N   UNL A   1      31.118  25.718  26.531  1.00  0.00    -0.354 N 
ATOM      4  C   UNL A   1      31.478  24.412  26.770  1.00  0.00     0.242 C 
ATOM      5  O   UNL A   1      30.595  23.697  27.248  1.00  0.00    -0.273 OA
ATOM      6  H   UNL A   1      30.152  25.873  26.426  1.00  0.00     0.163 HD
BRANCH   4   7
ATOM      7  C   UNL A   1      32.936  23.910  26.457  1.00  0.00     0.176 C 
ATOM      8  N   UNL A   1      33.180  23.299  25.126  1.00  0.00    -0.310 N 
ATOM      9  C   UNL A   1      34.534  22.815  24.823  1.00  0.00     0.091 C 
ATOM     10  C   UNL A   1      33.327  22.848  27.528  1.00  0.00     0.036 C 
ATOM     11  C   UNL A   1      35.345  22.551  26.099  1.00  0.00     0.012 C 
ATOM     12  C   UNL A   1      35.363  23.694  23.876  1.00  0.00     0.025 C 
ATOM     13  C   UNL A   1      34.433  21.872  27.110  1.00  0.00     0.008 C 
ATOM     14  C   UNL A   1      36.592  21.739  25.752  1.00  0.00     0.006 C 
ATOM     15  C   UNL A   1      36.655  22.953  23.504  1.00  0.00     0.002 C 
ATOM     16  C   UNL A   1      37.450  22.492  24.730  1.00  0.00     0.000 C 
BRANCH   8  17
ATOM     17  C   UNL A   1      32.319  23.506  24.075  1.00  0.00     0.318 C 
ATOM     18  N   UNL A   1      31.609  22.413  23.655  1.00  0.00    -0.338 N 
ATOM     19  H   UNL A   1      31.021  22.564  22.881  1.00  0.00     0.165 HD
ATOM     20  O   UNL A   1      32.196  24.590  23.513  1.00  0.00    -0.249 OA
BRANCH  18  21
ATOM     21  C   UNL A   1      31.599  21.061  24.192  1.00  0.00     0.117 C 
BRANCH  21  22
ATOM     22  C   UNL A   1      32.611  20.110  23.566  1.00  0.00     0.018 C 
ATOM     23  C   UNL A   1      33.406  19.313  24.582  1.00  0.00     0.006 C 
ENDBRANCH  21  22
ENDBRANCH  18  21
ENDBRANCH   8  17
ENDBRANCH   4   7
ENDBRANCH   2   3
ENDBRANCH   1   2
BRANCH   1  24
ATOM     24  C   UNL A   1      32.046  29.314  25.451  1.00  0.00     0.023 C 
BRANCH  24  25
ATOM     25  C   UNL A   1      32.159  29.867  26.866  1.00  0.00     0.116 C 
BRANCH  25  26
ATOM     26  N   UNL A   1      32.168  31.323  26.917  1.00  0.00    -0.352 N 
ATOM     27  C   UNL A   1      33.110  32.178  27.442  1.00  0.00     0.251 C 
ATOM     28  H   UNL A   1      31.383  31.760  26.517  1.00  0.00     0.163 HD
ATOM     29  O   UNL A   1      32.864  33.381  27.506  1.00  0.00    -0.269 OA
BRANCH  27  30
ATOM     30  C   UNL A   1      34.393  31.651  27.961  1.00  0.00     0.039 A 
ATOM     31  C   UNL A   1      35.356  32.550  28.428  1.00  0.00     0.014 A 
ATOM     32  C   UNL A   1      34.643  30.277  28.005  1.00  0.00     0.014 A 
ATOM     33  C   UNL A   1      36.527  32.068  29.018  1.00  0.00     0.010 A 
ATOM     34  C   UNL A   1      35.770  29.799  28.672  1.00  0.00     0.010 A 
ATOM     35  C   UNL A   1      36.724  30.687  29.190  1.00  0.00    -0.014 A 
BRANCH  35  36
ATOM     36  C   UNL A   1      37.913  30.159  29.913  1.00  0.00     0.031 A 
ATOM     37  C   UNL A   1      38.195  30.593  31.327  1.00  0.00     0.074 A 
ATOM     38  C   UNL A   1      38.771  29.335  29.276  1.00  0.00     0.049 A 
ATOM     39  N   UNL A   1      39.211  30.296  32.097  1.00  0.00    -0.248 NA
ATOM     40  C   UNL A   1      37.220  31.503  31.946  1.00  0.00     0.031 C 
ATOM     41  C   UNL A   1      38.629  28.874  27.893  1.00  0.00     0.029 A 
ATOM     42  N   UNL A   1      39.934  28.740  29.702  1.00  0.00    -0.354 N 
ATOM     43  C   UNL A   1      39.004  30.991  33.284  1.00  0.00     0.074 A 
ATOM     44  C   UNL A   1      37.799  31.773  33.106  1.00  0.00     0.031 C 
ATOM     45  C   UNL A   1      39.646  28.049  27.597  1.00  0.00     0.029 A 
ATOM     46  C   UNL A   1      40.542  27.961  28.744  1.00  0.00     0.049 A 
ATOM     47  H   UNL A   1      40.298  28.861  30.609  1.00  0.00     0.167 HD
ATOM     48  C   UNL A   1      39.735  30.960  34.427  1.00  0.00     0.034 A 
ATOM     49  C   UNL A   1      41.697  27.266  28.780  1.00  0.00     0.034 A 
ATOM     50  C   UNL A   1      40.931  30.168  34.591  1.00  0.00     0.049 A 
ATOM     51  C   UNL A   1      42.514  27.275  30.050  1.00  0.00     0.074 A 
ATOM     52  C   UNL A   1      41.717  30.021  35.720  1.00  0.00     0.029 A 
ATOM     53  N   UNL A   1      41.520  29.397  33.597  1.00  0.00    -0.354 N 
ATOM     54  N   UNL A   1      42.272  27.894  31.183  1.00  0.00    -0.248 NA
ATOM     55  C   UNL A   1      43.751  26.484  30.049  1.00  0.00     0.031 C 
ATOM     56  C   UNL A   1      42.820  29.230  35.388  1.00  0.00     0.029 A 
ATOM     57  C   UNL A   1      42.678  28.803  34.078  1.00  0.00     0.049 A 
ATOM     58  H   UNL A   1      41.167  29.287  32.684  1.00  0.00     0.167 HD
ATOM     59  C   UNL A   1      43.310  27.536  32.040  1.00  0.00     0.074 A 
ATOM     60  C   UNL A   1      44.168  26.637  31.297  1.00  0.00     0.031 C 
ATOM     61  C   UNL A   1      43.532  27.912  33.326  1.00  0.00     0.034 A 
BRANCH  48  62
ATOM     62  C   UNL A   1      39.276  31.828  35.574  1.00  0.00     0.023 A 
ATOM     63  C   UNL A   1      38.594  31.292  36.680  1.00  0.00     0.031 A 
ATOM     64  C   UNL A   1      39.513  33.214  35.558  1.00  0.00     0.131 A 
ATOM     65  C   UNL A   1      38.109  32.143  37.685  1.00  0.00     0.055 A 
ATOM     66  C   UNL A   1      39.103  34.044  36.603  1.00  0.00     0.041 A 
ATOM     67  F   UNL A   1      40.139  33.789  34.520  1.00  0.00    -0.206 F 
ATOM     68  C   UNL A   1      38.383  33.512  37.669  1.00  0.00     0.022 A 
BRANCH  65  69
ATOM     69  S   UNL A   1      36.993  31.455  38.940  1.00  0.00     0.124 S 
ATOM     70  O   UNL A   1      36.791  30.096  38.439  1.00  0.00    -0.237 OA
ATOM     71  O   UNL A   1      37.780  31.574  40.162  1.00  0.00    -0.237 OA
ATOM     72  O   UNL A   1      35.819  32.320  38.866  1.00  0.00    -0.744 OA
ENDBRANCH  65  69
ENDBRANCH  48  62
BRANCH  49  73
ATOM     73  C   UNL A   1      42.170  26.513  27.580  1.00  0.00     0.023 A 
ATOM     74  C   UNL A   1      41.877  25.149  27.418  1.00  0.00     0.031 A 
ATOM     75  C   UNL A   1      42.971  27.132  26.604  1.00  0.00     0.131 A 
ATOM     76  C   UNL A   1      42.425  24.438  26.339  1.00  0.00     0.055 A 
ATOM     77  C   UNL A   1      43.463  26.435  25.499  1.00  0.00     0.041 A 
ATOM     78  F   UNL A   1      43.283  28.435  26.708  1.00  0.00    -0.206 F 
ATOM     79  C   UNL A   1      43.203  25.075  25.371  1.00  0.00     0.022 A 
BRANCH  76  80
ATOM     80  S   UNL A   1      42.195  22.639  26.278  1.00  0.00     0.124 S 
ATOM     81  O   UNL A   1      42.931  22.206  27.459  1.00  0.00    -0.237 OA
ATOM     82  O   UNL A   1      40.742  22.518  26.346  1.00  0.00    -0.237 OA
ATOM     83  O   UNL A   1      42.789  22.263  24.997  1.00  0.00    -0.744 OA
ENDBRANCH  76  80
ENDBRANCH  49  73
BRANCH  61  84
ATOM     84  C   UNL A   1      44.723  27.304  34.027  1.00  0.00     0.023 A 
ATOM     85  C   UNL A   1      44.651  26.057  34.672  1.00  0.00     0.031 A 
ATOM     86  C   UNL A   1      45.950  27.992  34.054  1.00  0.00     0.131 A 
ATOM     87  C   UNL A   1      45.767  25.564  35.366  1.00  0.00     0.055 A 
ATOM     88  C   UNL A   1      47.075  27.464  34.688  1.00  0.00     0.041 A 
ATOM     89  F   UNL A   1      46.077  29.189  33.458  1.00  0.00    -0.206 F 
ATOM     90  C   UNL A   1      46.984  26.250  35.361  1.00  0.00     0.022 A 
BRANCH  87  91
ATOM     91  S   UNL A   1      45.579  24.060  36.363  1.00  0.00     0.124 S 
ATOM     92  O   UNL A   1      46.012  24.513  37.680  1.00  0.00    -0.237 OA
ATOM     93  O   UNL A   1      44.155  23.770  36.224  1.00  0.00    -0.237 OA
ATOM     94  O   UNL A   1      46.472  23.103  35.712  1.00  0.00    -0.744 OA
ENDBRANCH  87  91
ENDBRANCH  61  84
ENDBRANCH  35  36
ENDBRANCH  27  30
ENDBRANCH  25  26
ENDBRANCH  24  25
ENDBRANCH   1  24
TORSDOF 17
ENDMDL
MODEL 3
REMARK VINA RESULT:     -11.4      5.049      9.937
REMARK SMILES CCCNC(=O)N1[C@@H](C(=O)NCCCCNC(=O)c2ccc(-c3c4nc(c(-c5cc(S(=O)(=O)[O-])ccc5F)c5ccc([nH]5)c(-c5cc(S(=O)(=O)[O-])ccc5F)c5nc(c(-c6cc(S(=O)(=O)[O-])ccc6F)c6ccc3[nH]6)C=C5)C=C4)cc2)CC[C@H]2CCCC[C@@H]21
REMARK SMILES IDX 13 1 12 2 11 3 9 4 10 5 8 7 7 8 89 9 82 10 84 11 88 12 83 13
REMARK SMILES IDX 85 14 87 15 86 16 5 17 4 18 6 20 3 21 2 22 1 23 14 24 15 25
REMARK SMILES IDX 16 26 17 27 18 29 19 30 20 31 81 32 21 33 80 34 22 35 23 36
REMARK SMILES IDX 24 37 74 38 25 39 79 40 73 41 75 42 26 43 78 44 72 45 71 46
REMARK SMILES IDX 27 48 59 49 39 50 58 51 40 52 43 53 57 54 76 55 41 56 42 57
REMARK SMILES IDX 56 59 77 60 44 61 28 62 29 63 37 64 30 65 36 66 38 67 35 68
REMARK SMILES IDX 31 69 32 70 33 71 34 72 60 73 61 74 69 75 62 76 68 77 70 78
REMARK SMILES IDX 67 79 63 80 64 81 65 82 66 83 45 84 46 85 54 86 47 87 53 88
REMARK SMILES IDX 55 89 52 90 48 91 49 92 50 93 51 94
REMARK H PARENT 11 6 4 19 16 28 75 47 43 58
REMARK Flexibility Score: inf
ROOT
ATOM      1  C   UNL A   1      32.260  28.318  23.281  1.00  0.00     0.023 C 
ENDROOT
BRANCH   1   2
ATOM      2  C   UNL A   1      31.131  27.559  23.969  1.00  0.00     0.116 C 
BRANCH   2   3
ATOM      3  N   UNL A   1      30.696  26.350  23.298  1.00  0.00    -0.354 N 
ATOM      4  C   UNL A   1      31.083  25.046  23.499  1.00  0.00     0.242 C 
ATOM      5  O   UNL A   1      30.278  24.190  23.125  1.00  0.00    -0.273 OA
ATOM      6  H   UNL A   1      30.022  26.483  22.592  1.00  0.00     0.163 HD
BRANCH   4   7
ATOM      7  C   UNL A   1      32.460  24.712  24.182  1.00  0.00     0.176 C 
ATOM      8  N   UNL A   1      33.218  23.546  23.662  1.00  0.00    -0.310 N 
ATOM      9  C   UNL A   1      34.500  23.214  24.297  1.00  0.00     0.091 C 
ATOM     10  C   UNL A   1      32.204  24.454  25.697  1.00  0.00     0.036 C 
ATOM     11  C   UNL A   1      34.608  23.801  25.710  1.00  0.00     0.012 C 
ATOM     12  C   UNL A   1      35.759  23.592  23.502  1.00  0.00     0.025 C 
ATOM     13  C   UNL A   1      33.269  23.610  26.407  1.00  0.00     0.008 C 
ATOM     14  C   UNL A   1      35.782  23.155  26.445  1.00  0.00     0.006 C 
ATOM     15  C   UNL A   1      36.991  22.998  24.199  1.00  0.00     0.002 C 
ATOM     16  C   UNL A   1      37.086  23.392  25.676  1.00  0.00     0.000 C 
BRANCH   8  17
ATOM     17  C   UNL A   1      32.958  23.020  22.419  1.00  0.00     0.318 C 
ATOM     18  N   UNL A   1      32.322  21.808  22.400  1.00  0.00    -0.338 N 
ATOM     19  H   UNL A   1      32.172  21.424  21.506  1.00  0.00     0.165 HD
ATOM     20  O   UNL A   1      33.290  23.573  21.376  1.00  0.00    -0.249 OA
BRANCH  18  21
ATOM     21  C   UNL A   1      31.837  21.006  23.512  1.00  0.00     0.117 C 
BRANCH  21  22
ATOM     22  C   UNL A   1      32.721  19.823  23.891  1.00  0.00     0.018 C 
ATOM     23  C   UNL A   1      33.357  19.954  25.261  1.00  0.00     0.006 C 
ENDBRANCH  21  22
ENDBRANCH  18  21
ENDBRANCH   8  17
ENDBRANCH   4   7
ENDBRANCH   2   3
ENDBRANCH   1   2
BRANCH   1  24
ATOM     24  C   UNL A   1      33.248  29.053  24.179  1.00  0.00     0.023 C 
BRANCH  24  25
ATOM     25  C   UNL A   1      32.875  29.147  25.654  1.00  0.00     0.116 C 
BRANCH  25  26
ATOM     26  N   UNL A   1      32.502  30.492  26.069  1.00  0.00    -0.352 N 
ATOM     27  C   UNL A   1      33.107  31.330  26.978  1.00  0.00     0.251 C 
ATOM     28  H   UNL A   1      31.697  30.856  25.637  1.00  0.00     0.163 HD
ATOM     29  O   UNL A   1      32.553  32.383  27.289  1.00  0.00    -0.269 OA
BRANCH  27  30
ATOM     30  C   UNL A   1      34.394  30.952  27.605  1.00  0.00     0.039 A 
ATOM     31  C   UNL A   1      35.353  31.940  27.834  1.00  0.00     0.014 A 
ATOM     32  C   UNL A   1      34.650  29.631  27.985  1.00  0.00     0.014 A 
ATOM     33  C   UNL A   1      36.529  31.622  28.520  1.00  0.00     0.010 A 
ATOM     34  C   UNL A   1      35.780  29.335  28.744  1.00  0.00     0.010 A 
ATOM     35  C   UNL A   1      36.732  30.327  29.026  1.00  0.00    -0.014 A 
BRANCH  35  36
ATOM     36  C   UNL A   1      37.925  29.996  29.851  1.00  0.00     0.031 A 
ATOM     37  C   UNL A   1      38.980  29.063  29.319  1.00  0.00     0.074 A 
ATOM     38  C   UNL A   1      38.030  30.490  31.103  1.00  0.00     0.049 A 
ATOM     39  N   UNL A   1      40.054  28.604  29.909  1.00  0.00    -0.248 NA
ATOM     40  C   UNL A   1      38.785  28.558  27.951  1.00  0.00     0.031 C 
ATOM     41  C   UNL A   1      37.053  31.371  31.748  1.00  0.00     0.029 A 
ATOM     42  N   UNL A   1      39.000  30.319  32.061  1.00  0.00    -0.354 N 
ATOM     43  C   UNL A   1      40.656  27.749  28.993  1.00  0.00     0.074 A 
ATOM     44  C   UNL A   1      39.792  27.704  27.833  1.00  0.00     0.031 C 
ATOM     45  C   UNL A   1      37.489  31.686  32.978  1.00  0.00     0.029 A 
ATOM     46  C   UNL A   1      38.744  30.990  33.236  1.00  0.00     0.049 A 
ATOM     47  H   UNL A   1      39.803  29.768  31.919  1.00  0.00     0.167 HD
ATOM     48  C   UNL A   1      41.833  27.082  29.097  1.00  0.00     0.034 A 
ATOM     49  C   UNL A   1      39.434  31.028  34.394  1.00  0.00     0.034 A 
ATOM     50  C   UNL A   1      42.687  27.143  30.259  1.00  0.00     0.049 A 
ATOM     51  C   UNL A   1      40.723  30.249  34.500  1.00  0.00     0.074 A 
ATOM     52  C   UNL A   1      43.924  26.552  30.450  1.00  0.00     0.029 A 
ATOM     53  N   UNL A   1      42.392  27.827  31.432  1.00  0.00    -0.354 N 
ATOM     54  N   UNL A   1      41.306  29.489  33.601  1.00  0.00    -0.248 NA
ATOM     55  C   UNL A   1      41.451  30.342  35.772  1.00  0.00     0.031 C 
ATOM     56  C   UNL A   1      44.338  26.810  31.759  1.00  0.00     0.029 A 
ATOM     57  C   UNL A   1      43.406  27.641  32.360  1.00  0.00     0.049 A 
ATOM     58  H   UNL A   1      41.582  28.365  31.583  1.00  0.00     0.167 HD
ATOM     59  C   UNL A   1      42.487  29.044  34.188  1.00  0.00     0.074 A 
ATOM     60  C   UNL A   1      42.539  29.633  35.510  1.00  0.00     0.031 C 
ATOM     61  C   UNL A   1      43.445  28.227  33.680  1.00  0.00     0.034 A 
BRANCH  48  62
ATOM     62  C   UNL A   1      42.248  26.210  27.935  1.00  0.00     0.023 A 
ATOM     63  C   UNL A   1      41.754  24.904  27.777  1.00  0.00     0.031 A 
ATOM     64  C   UNL A   1      43.161  26.688  26.977  1.00  0.00     0.131 A 
ATOM     65  C   UNL A   1      42.229  24.096  26.732  1.00  0.00     0.055 A 
ATOM     66  C   UNL A   1      43.564  25.909  25.891  1.00  0.00     0.041 A 
ATOM     67  F   UNL A   1      43.685  27.918  27.086  1.00  0.00    -0.206 F 
ATOM     68  C   UNL A   1      43.109  24.599  25.771  1.00  0.00     0.022 A 
BRANCH  65  69
ATOM     69  S   UNL A   1      41.788  22.336  26.729  1.00  0.00     0.124 S 
ATOM     70  O   UNL A   1      42.649  21.816  27.790  1.00  0.00    -0.237 OA
ATOM     71  O   UNL A   1      40.360  22.367  27.023  1.00  0.00    -0.237 OA
ATOM     72  O   UNL A   1      42.140  21.898  25.381  1.00  0.00    -0.744 OA
ENDBRANCH  65  69
ENDBRANCH  48  62
BRANCH  49  73
ATOM     73  C   UNL A   1      38.925  31.815  35.556  1.00  0.00     0.023 A 
ATOM     74  C   UNL A   1      38.339  31.178  36.662  1.00  0.00     0.031 A 
ATOM     75  C   UNL A   1      38.964  33.220  35.554  1.00  0.00     0.131 A 
ATOM     76  C   UNL A   1      37.768  31.943  37.691  1.00  0.00     0.055 A 
ATOM     77  C   UNL A   1      38.451  33.977  36.609  1.00  0.00     0.041 A 
ATOM     78  F   UNL A   1      39.513  33.883  34.522  1.00  0.00    -0.206 F 
ATOM     79  C   UNL A   1      37.833  33.337  37.679  1.00  0.00     0.022 A 
BRANCH  76  80
ATOM     80  S   UNL A   1      36.841  31.089  38.997  1.00  0.00     0.124 S 
ATOM     81  O   UNL A   1      35.614  31.876  39.051  1.00  0.00    -0.237 OA
ATOM     82  O   UNL A   1      36.716  29.743  38.448  1.00  0.00    -0.237 OA
ATOM     83  O   UNL A   1      37.711  31.206  40.164  1.00  0.00    -0.744 OA
ENDBRANCH  76  80
ENDBRANCH  49  73
BRANCH  61  84
ATOM     84  C   UNL A   1      44.659  27.968  34.541  1.00  0.00     0.023 A 
ATOM     85  C   UNL A   1      44.728  26.874  35.420  1.00  0.00     0.031 A 
ATOM     86  C   UNL A   1      45.763  28.838  34.482  1.00  0.00     0.131 A 
ATOM     87  C   UNL A   1      45.850  26.712  36.248  1.00  0.00     0.055 A 
ATOM     88  C   UNL A   1      46.904  28.632  35.257  1.00  0.00     0.041 A 
ATOM     89  F   UNL A   1      45.752  29.903  33.663  1.00  0.00    -0.206 F 
ATOM     90  C   UNL A   1      46.946  27.572  36.158  1.00  0.00     0.022 A 
BRANCH  87  91
ATOM     91  S   UNL A   1      45.816  25.418  37.519  1.00  0.00     0.124 S 
ATOM     92  O   UNL A   1      46.319  26.129  38.689  1.00  0.00    -0.237 OA
ATOM     93  O   UNL A   1      44.404  25.051  37.553  1.00  0.00    -0.237 OA
ATOM     94  O   UNL A   1      46.711  24.390  36.986  1.00  0.00    -0.744 OA
ENDBRANCH  87  91
ENDBRANCH  61  84
ENDBRANCH  35  36
ENDBRANCH  27  30
ENDBRANCH  25  26
ENDBRANCH  24  25
ENDBRANCH   1  24
TORSDOF 17
ENDMDL
