MODEL 1
REMARK VINA RESULT:     -11.4      0.000      0.000
REMARK SMILES CCC(CC)(CC(=O)Nc1ccc(F)c(F)c1)C(=O)NCCCCNC(=O)c1ccc(-c2c3nc(c(-c4cc(S(=O)(=O)[O-])ccc4F)c4ccc([nH]4)c(-c4cc(S(=O)(=O)[O-])ccc4F)c4nc(c(-c5cc(S(=O)(=O)[O-])ccc5F)c5ccc2[nH]5)C=C4)C=C3)cc1
REMARK SMILES IDX 22 1 21 2 20 3 18 4 19 5 3 7 2 8 1 9 4 10 5 11 6 12 7 13
REMARK SMILES IDX 8 14 9 15 10 17 11 18 17 19 12 20 15 21 13 22 16 23 14 24
REMARK SMILES IDX 23 25 24 26 25 27 26 28 27 30 28 31 29 32 90 33 30 34 89 35
REMARK SMILES IDX 31 36 32 37 33 38 83 39 34 40 88 41 82 42 84 43 35 44 87 45
REMARK SMILES IDX 81 46 80 47 36 49 68 50 48 51 67 52 49 53 52 54 66 55 85 56
REMARK SMILES IDX 50 57 51 58 65 60 86 61 53 62 37 63 38 64 46 65 39 66 45 67
REMARK SMILES IDX 47 68 44 69 40 70 41 71 42 72 43 73 69 74 70 75 78 76 71 77
REMARK SMILES IDX 77 78 79 79 76 80 72 81 73 82 74 83 75 84 54 85 55 86 63 87
REMARK SMILES IDX 56 88 62 89 64 90 61 91 57 92 58 93 59 94 60 95
REMARK H PARENT 20 6 9 16 25 29 84 48 52 59
REMARK Flexibility Score: inf
ROOT
ATOM      1  C   UNL A   1      31.407  30.639  25.858  1.00  0.00     0.023 C 
ENDROOT
BRANCH   1   2
ATOM      2  C   UNL A   1      32.761  29.938  25.910  1.00  0.00     0.116 C 
BRANCH   2   3
ATOM      3  N   UNL A   1      33.303  29.680  24.593  1.00  0.00    -0.356 N 
ATOM      4  C   UNL A   1      33.289  28.598  23.779  1.00  0.00     0.226 C 
ATOM      5  O   UNL A   1      33.901  28.730  22.713  1.00  0.00    -0.274 OA
ATOM      6  H   UNL A   1      33.782  30.451  24.210  1.00  0.00     0.163 HD
BRANCH   4   7
ATOM      7  C   UNL A   1      32.578  27.267  24.136  1.00  0.00     0.057 C 
BRANCH   7   8
ATOM      8  C   UNL A   1      33.097  26.181  23.134  1.00  0.00     0.014 C 
ATOM      9  C   UNL A   1      32.102  25.126  22.652  1.00  0.00     0.005 C 
ENDBRANCH   7   8
BRANCH   7  10
ATOM     10  C   UNL A   1      31.031  27.392  23.982  1.00  0.00     0.014 C 
ATOM     11  C   UNL A   1      30.561  28.429  22.968  1.00  0.00     0.005 C 
ENDBRANCH   7  10
BRANCH   7  12
ATOM     12  C   UNL A   1      32.969  26.809  25.579  1.00  0.00     0.117 C 
BRANCH  12  13
ATOM     13  C   UNL A   1      31.823  26.359  26.483  1.00  0.00     0.225 C 
ATOM     14  O   UNL A   1      31.105  27.185  27.049  1.00  0.00    -0.275 OA
ATOM     15  N   UNL A   1      31.550  25.024  26.659  1.00  0.00    -0.326 N 
ATOM     16  H   UNL A   1      30.743  24.811  27.182  1.00  0.00     0.169 HD
BRANCH  15  17
ATOM     17  C   UNL A   1      32.283  23.935  26.183  1.00  0.00     0.044 A 
ATOM     18  C   UNL A   1      33.646  23.852  26.485  1.00  0.00     0.029 A 
ATOM     19  C   UNL A   1      31.665  22.928  25.443  1.00  0.00     0.068 A 
ATOM     20  C   UNL A   1      34.426  22.843  25.920  1.00  0.00     0.044 A 
ATOM     21  C   UNL A   1      32.441  21.888  24.937  1.00  0.00     0.160 A 
ATOM     22  C   UNL A   1      33.818  21.865  25.143  1.00  0.00     0.158 A 
ATOM     23  F   UNL A   1      31.853  20.907  24.238  1.00  0.00    -0.204 F 
ATOM     24  F   UNL A   1      34.567  20.899  24.596  1.00  0.00    -0.204 F 
ENDBRANCH  15  17
ENDBRANCH  12  13
ENDBRANCH   7  12
ENDBRANCH   4   7
ENDBRANCH   2   3
ENDBRANCH   1   2
BRANCH   1  25
ATOM     25  C   UNL A   1      31.353  32.024  26.502  1.00  0.00     0.023 C 
BRANCH  25  26
ATOM     26  C   UNL A   1      32.646  32.504  27.154  1.00  0.00     0.116 C 
BRANCH  26  27
ATOM     27  N   UNL A   1      32.565  33.872  27.638  1.00  0.00    -0.352 N 
ATOM     28  C   UNL A   1      33.339  34.511  28.583  1.00  0.00     0.251 C 
ATOM     29  H   UNL A   1      31.856  34.421  27.232  1.00  0.00     0.163 HD
ATOM     30  O   UNL A   1      33.044  35.634  28.951  1.00  0.00    -0.269 OA
BRANCH  28  31
ATOM     31  C   UNL A   1      34.500  33.802  29.168  1.00  0.00     0.039 A 
ATOM     32  C   UNL A   1      35.784  34.282  28.900  1.00  0.00     0.014 A 
ATOM     33  C   UNL A   1      34.320  32.692  29.997  1.00  0.00     0.014 A 
ATOM     34  C   UNL A   1      36.884  33.695  29.527  1.00  0.00     0.010 A 
ATOM     35  C   UNL A   1      35.410  32.154  30.675  1.00  0.00     0.010 A 
ATOM     36  C   UNL A   1      36.703  32.652  30.450  1.00  0.00    -0.014 A 
BRANCH  36  37
ATOM     37  C   UNL A   1      37.854  32.071  31.189  1.00  0.00     0.031 A 
ATOM     38  C   UNL A   1      38.659  30.959  30.572  1.00  0.00     0.074 A 
ATOM     39  C   UNL A   1      38.130  32.496  32.438  1.00  0.00     0.049 A 
ATOM     40  N   UNL A   1      39.647  30.269  31.082  1.00  0.00    -0.248 NA
ATOM     41  C   UNL A   1      38.278  30.550  29.212  1.00  0.00     0.031 C 
ATOM     42  C   UNL A   1      37.392  33.536  33.158  1.00  0.00     0.029 A 
ATOM     43  N   UNL A   1      39.098  32.102  33.327  1.00  0.00    -0.354 N 
ATOM     44  C   UNL A   1      39.994  29.333  30.114  1.00  0.00     0.074 A 
ATOM     45  C   UNL A   1      39.070  29.508  29.013  1.00  0.00     0.031 C 
ATOM     46  C   UNL A   1      37.949  33.713  34.367  1.00  0.00     0.029 A 
ATOM     47  C   UNL A   1      39.053  32.774  34.528  1.00  0.00     0.049 A 
ATOM     48  H   UNL A   1      39.762  31.403  33.126  1.00  0.00     0.167 HD
ATOM     49  C   UNL A   1      41.005  28.429  30.132  1.00  0.00     0.034 A 
ATOM     50  C   UNL A   1      39.810  32.639  35.636  1.00  0.00     0.034 A 
ATOM     51  C   UNL A   1      41.926  28.280  31.233  1.00  0.00     0.049 A 
ATOM     52  C   UNL A   1      40.919  31.616  35.639  1.00  0.00     0.074 A 
ATOM     53  C   UNL A   1      43.023  27.442  31.333  1.00  0.00     0.029 A 
ATOM     54  N   UNL A   1      41.854  28.981  32.431  1.00  0.00    -0.354 N 
ATOM     55  N   UNL A   1      41.270  30.775  34.693  1.00  0.00    -0.248 NA
ATOM     56  C   UNL A   1      41.737  31.533  36.855  1.00  0.00     0.031 C 
ATOM     57  C   UNL A   1      43.573  27.587  32.612  1.00  0.00     0.029 A 
ATOM     58  C   UNL A   1      42.867  28.571  33.286  1.00  0.00     0.049 A 
ATOM     59  H   UNL A   1      41.182  29.668  32.642  1.00  0.00     0.167 HD
ATOM     60  C   UNL A   1      42.372  30.085  35.191  1.00  0.00     0.074 A 
ATOM     61  C   UNL A   1      42.632  30.618  36.513  1.00  0.00     0.031 C 
ATOM     62  C   UNL A   1      43.106  29.105  34.607  1.00  0.00     0.034 A 
BRANCH  49  63
ATOM     63  C   UNL A   1      41.140  27.517  28.935  1.00  0.00     0.023 A 
ATOM     64  C   UNL A   1      42.133  27.720  27.960  1.00  0.00     0.031 A 
ATOM     65  C   UNL A   1      40.243  26.452  28.744  1.00  0.00     0.131 A 
ATOM     66  C   UNL A   1      42.152  26.929  26.801  1.00  0.00     0.055 A 
ATOM     67  C   UNL A   1      40.320  25.613  27.631  1.00  0.00     0.041 A 
ATOM     68  F   UNL A   1      39.261  26.217  29.630  1.00  0.00    -0.206 F 
ATOM     69  C   UNL A   1      41.268  25.861  26.641  1.00  0.00     0.022 A 
BRANCH  66  70
ATOM     70  S   UNL A   1      43.246  27.416  25.438  1.00  0.00     0.124 S 
ATOM     71  O   UNL A   1      44.219  28.261  26.129  1.00  0.00    -0.237 OA
ATOM     72  O   UNL A   1      43.741  26.132  24.958  1.00  0.00    -0.237 OA
ATOM     73  O   UNL A   1      42.356  28.126  24.521  1.00  0.00    -0.744 OA
ENDBRANCH  66  70
ENDBRANCH  49  63
BRANCH  50  74
ATOM     74  C   UNL A   1      39.551  33.484  36.835  1.00  0.00     0.023 A 
ATOM     75  C   UNL A   1      38.904  32.958  37.964  1.00  0.00     0.031 A 
ATOM     76  C   UNL A   1      39.913  34.843  36.857  1.00  0.00     0.131 A 
ATOM     77  C   UNL A   1      38.597  33.793  39.049  1.00  0.00     0.055 A 
ATOM     78  C   UNL A   1      39.650  35.659  37.959  1.00  0.00     0.041 A 
ATOM     79  F   UNL A   1      40.540  35.396  35.805  1.00  0.00    -0.206 F 
ATOM     80  C   UNL A   1      38.977  35.137  39.059  1.00  0.00     0.022 A 
BRANCH  77  81
ATOM     81  S   UNL A   1      37.622  33.114  40.420  1.00  0.00     0.124 S 
ATOM     82  O   UNL A   1      38.407  31.944  40.792  1.00  0.00    -0.237 OA
ATOM     83  O   UNL A   1      37.627  34.220  41.371  1.00  0.00    -0.237 OA
ATOM     84  O   UNL A   1      36.326  32.828  39.807  1.00  0.00    -0.744 OA
ENDBRANCH  77  81
ENDBRANCH  50  74
BRANCH  62  85
ATOM     85  C   UNL A   1      44.290  28.581  35.384  1.00  0.00     0.023 A 
ATOM     86  C   UNL A   1      44.165  27.521  36.299  1.00  0.00     0.031 A 
ATOM     87  C   UNL A   1      45.558  29.163  35.211  1.00  0.00     0.131 A 
ATOM     88  C   UNL A   1      45.279  27.113  37.048  1.00  0.00     0.055 A 
ATOM     89  C   UNL A   1      46.675  28.713  35.916  1.00  0.00     0.041 A 
ATOM     90  F   UNL A   1      45.733  30.180  34.351  1.00  0.00    -0.206 F 
ATOM     91  C   UNL A   1      46.536  27.689  36.850  1.00  0.00     0.022 A 
BRANCH  88  92
ATOM     92  S   UNL A   1      45.045  25.872  38.351  1.00  0.00     0.124 S 
ATOM     93  O   UNL A   1      46.402  25.366  38.535  1.00  0.00    -0.237 OA
ATOM     94  O   UNL A   1      44.508  26.670  39.448  1.00  0.00    -0.237 OA
ATOM     95  O   UNL A   1      44.105  24.924  37.757  1.00  0.00    -0.744 OA
ENDBRANCH  88  92
ENDBRANCH  62  85
ENDBRANCH  36  37
ENDBRANCH  28  31
ENDBRANCH  26  27
ENDBRANCH  25  26
ENDBRANCH   1  25
TORSDOF 19
ENDMDL
MODEL 2
REMARK VINA RESULT:     -11.3      5.710     11.476
REMARK SMILES CCC(CC)(CC(=O)Nc1ccc(F)c(F)c1)C(=O)NCCCCNC(=O)c1ccc(-c2c3nc(c(-c4cc(S(=O)(=O)[O-])ccc4F)c4ccc([nH]4)c(-c4cc(S(=O)(=O)[O-])ccc4F)c4nc(c(-c5cc(S(=O)(=O)[O-])ccc5F)c5ccc2[nH]5)C=C4)C=C3)cc1
REMARK SMILES IDX 22 1 21 2 20 3 18 4 19 5 3 7 2 8 1 9 4 10 5 11 6 12 7 13
REMARK SMILES IDX 8 14 9 15 10 17 11 18 17 19 12 20 15 21 13 22 16 23 14 24
REMARK SMILES IDX 23 25 24 26 25 27 26 28 27 30 28 31 29 32 90 33 30 34 89 35
REMARK SMILES IDX 31 36 32 37 33 38 83 39 34 40 88 41 82 42 84 43 35 44 87 45
REMARK SMILES IDX 81 46 80 47 36 49 68 50 48 51 67 52 49 53 52 54 66 55 85 56
REMARK SMILES IDX 50 57 51 58 65 60 86 61 53 62 37 63 38 64 46 65 39 66 45 67
REMARK SMILES IDX 47 68 44 69 40 70 41 71 42 72 43 73 69 74 70 75 78 76 71 77
REMARK SMILES IDX 77 78 79 79 76 80 72 81 73 82 74 83 75 84 54 85 55 86 63 87
REMARK SMILES IDX 56 88 62 89 64 90 61 91 57 92 58 93 59 94 60 95
REMARK H PARENT 20 6 9 16 25 29 84 48 52 59
REMARK Flexibility Score: inf
ROOT
ATOM      1  C   UNL A   1      37.078  21.550  24.266  1.00  0.00     0.023 C 
ENDROOT
BRANCH   1   2
ATOM      2  C   UNL A   1      35.878  22.224  24.922  1.00  0.00     0.116 C 
BRANCH   2   3
ATOM      3  N   UNL A   1      34.634  21.539  24.642  1.00  0.00    -0.356 N 
ATOM      4  C   UNL A   1      33.342  21.943  24.592  1.00  0.00     0.226 C 
ATOM      5  O   UNL A   1      32.519  21.053  24.352  1.00  0.00    -0.274 OA
ATOM      6  H   UNL A   1      34.751  20.580  24.449  1.00  0.00     0.163 HD
BRANCH   4   7
ATOM      7  C   UNL A   1      32.893  23.407  24.833  1.00  0.00     0.057 C 
BRANCH   7   8
ATOM      8  C   UNL A   1      33.233  24.216  23.536  1.00  0.00     0.014 C 
ATOM      9  C   UNL A   1      32.074  24.617  22.624  1.00  0.00     0.005 C 
ENDBRANCH   7   8
BRANCH   7  10
ATOM     10  C   UNL A   1      33.657  24.044  26.034  1.00  0.00     0.014 C 
ATOM     11  C   UNL A   1      34.353  25.368  25.733  1.00  0.00     0.005 C 
ENDBRANCH   7  10
BRANCH   7  12
ATOM     12  C   UNL A   1      31.345  23.476  25.044  1.00  0.00     0.117 C 
BRANCH  12  13
ATOM     13  C   UNL A   1      30.867  24.061  26.372  1.00  0.00     0.225 C 
ATOM     14  O   UNL A   1      30.824  23.365  27.389  1.00  0.00    -0.275 OA
ATOM     15  N   UNL A   1      30.503  25.382  26.468  1.00  0.00    -0.326 N 
ATOM     16  H   UNL A   1      30.292  25.710  27.372  1.00  0.00     0.169 HD
BRANCH  15  17
ATOM     17  C   UNL A   1      30.398  26.313  25.432  1.00  0.00     0.044 A 
ATOM     18  C   UNL A   1      29.285  26.263  24.587  1.00  0.00     0.029 A 
ATOM     19  C   UNL A   1      31.370  27.297  25.257  1.00  0.00     0.068 A 
ATOM     20  C   UNL A   1      29.217  27.099  23.472  1.00  0.00     0.044 A 
ATOM     21  C   UNL A   1      31.259  28.171  24.179  1.00  0.00     0.160 A 
ATOM     22  C   UNL A   1      30.210  28.050  23.271  1.00  0.00     0.158 A 
ATOM     23  F   UNL A   1      32.180  29.131  24.011  1.00  0.00    -0.204 F 
ATOM     24  F   UNL A   1      30.148  28.849  22.198  1.00  0.00    -0.204 F 
ENDBRANCH  15  17
ENDBRANCH  12  13
ENDBRANCH   7  12
ENDBRANCH   4   7
ENDBRANCH   2   3
ENDBRANCH   1   2
BRANCH   1  25
ATOM     25  C   UNL A   1      37.729  20.426  25.071  1.00  0.00     0.023 C 
BRANCH  25  26
ATOM     26  C   UNL A   1      39.048  20.776  25.753  1.00  0.00     0.116 C 
BRANCH  26  27
ATOM     27  N   UNL A   1      39.940  19.636  25.884  1.00  0.00    -0.352 N 
ATOM     28  C   UNL A   1      41.293  19.611  26.146  1.00  0.00     0.251 C 
ATOM     29  H   UNL A   1      39.517  18.754  25.771  1.00  0.00     0.163 HD
ATOM     30  O   UNL A   1      41.902  18.558  26.101  1.00  0.00    -0.269 OA
BRANCH  28  31
ATOM     31  C   UNL A   1      41.996  20.881  26.442  1.00  0.00     0.039 A 
ATOM     32  C   UNL A   1      42.374  21.702  25.376  1.00  0.00     0.014 A 
ATOM     33  C   UNL A   1      42.253  21.271  27.758  1.00  0.00     0.014 A 
ATOM     34  C   UNL A   1      42.941  22.951  25.636  1.00  0.00     0.010 A 
ATOM     35  C   UNL A   1      42.751  22.544  28.016  1.00  0.00     0.010 A 
ATOM     36  C   UNL A   1      43.098  23.399  26.958  1.00  0.00    -0.014 A 
BRANCH  36  37
ATOM     37  C   UNL A   1      43.621  24.759  27.252  1.00  0.00     0.031 A 
ATOM     38  C   UNL A   1      42.694  25.823  27.774  1.00  0.00     0.074 A 
ATOM     39  C   UNL A   1      44.910  25.052  26.987  1.00  0.00     0.049 A 
ATOM     40  N   UNL A   1      42.936  27.085  28.018  1.00  0.00    -0.248 NA
ATOM     41  C   UNL A   1      41.302  25.418  28.021  1.00  0.00     0.031 C 
ATOM     42  C   UNL A   1      45.893  24.115  26.438  1.00  0.00     0.029 A 
ATOM     43  N   UNL A   1      45.613  26.220  27.133  1.00  0.00    -0.354 N 
ATOM     44  C   UNL A   1      41.725  27.629  28.431  1.00  0.00     0.074 A 
ATOM     45  C   UNL A   1      40.740  26.572  28.345  1.00  0.00     0.031 C 
ATOM     46  C   UNL A   1      47.076  24.739  26.317  1.00  0.00     0.029 A 
ATOM     47  C   UNL A   1      46.928  26.128  26.737  1.00  0.00     0.049 A 
ATOM     48  H   UNL A   1      45.215  27.048  27.488  1.00  0.00     0.167 HD
ATOM     49  C   UNL A   1      41.464  28.888  28.865  1.00  0.00     0.034 A 
ATOM     50  C   UNL A   1      47.901  27.062  26.706  1.00  0.00     0.034 A 
ATOM     51  C   UNL A   1      42.462  29.925  28.959  1.00  0.00     0.049 A 
ATOM     52  C   UNL A   1      47.584  28.458  27.178  1.00  0.00     0.074 A 
ATOM     53  C   UNL A   1      42.324  31.215  29.442  1.00  0.00     0.029 A 
ATOM     54  N   UNL A   1      43.785  29.795  28.554  1.00  0.00    -0.354 N 
ATOM     55  N   UNL A   1      46.446  28.944  27.618  1.00  0.00    -0.248 NA
ATOM     56  C   UNL A   1      48.686  29.428  27.158  1.00  0.00     0.031 C 
ATOM     57  C   UNL A   1      43.542  31.883  29.268  1.00  0.00     0.029 A 
ATOM     58  C   UNL A   1      44.464  30.990  28.747  1.00  0.00     0.049 A 
ATOM     59  H   UNL A   1      44.182  28.975  28.183  1.00  0.00     0.167 HD
ATOM     60  C   UNL A   1      46.705  30.269  27.957  1.00  0.00     0.074 A 
ATOM     61  C   UNL A   1      48.109  30.500  27.682  1.00  0.00     0.031 C 
ATOM     62  C   UNL A   1      45.862  31.208  28.457  1.00  0.00     0.034 A 
BRANCH  49  63
ATOM     63  C   UNL A   1      40.036  29.209  29.240  1.00  0.00     0.023 A 
ATOM     64  C   UNL A   1      39.626  29.298  30.582  1.00  0.00     0.031 A 
ATOM     65  C   UNL A   1      39.061  29.393  28.244  1.00  0.00     0.131 A 
ATOM     66  C   UNL A   1      38.269  29.477  30.893  1.00  0.00     0.055 A 
ATOM     67  C   UNL A   1      37.726  29.657  28.558  1.00  0.00     0.041 A 
ATOM     68  F   UNL A   1      39.384  29.302  26.944  1.00  0.00    -0.206 F 
ATOM     69  C   UNL A   1      37.320  29.682  29.890  1.00  0.00     0.022 A 
BRANCH  66  70
ATOM     70  S   UNL A   1      37.743  29.281  32.618  1.00  0.00     0.124 S 
ATOM     71  O   UNL A   1      36.448  29.960  32.609  1.00  0.00    -0.237 OA
ATOM     72  O   UNL A   1      37.704  27.832  32.772  1.00  0.00    -0.237 OA
ATOM     73  O   UNL A   1      38.790  29.963  33.375  1.00  0.00    -0.744 OA
ENDBRANCH  66  70
ENDBRANCH  49  63
BRANCH  50  74
ATOM     74  C   UNL A   1      49.263  26.717  26.209  1.00  0.00     0.023 A 
ATOM     75  C   UNL A   1      49.703  27.149  24.948  1.00  0.00     0.031 A 
ATOM     76  C   UNL A   1      50.133  25.917  26.972  1.00  0.00     0.131 A 
ATOM     77  C   UNL A   1      50.957  26.744  24.467  1.00  0.00     0.055 A 
ATOM     78  C   UNL A   1      51.400  25.558  26.510  1.00  0.00     0.041 A 
ATOM     79  F   UNL A   1      49.764  25.482  28.188  1.00  0.00    -0.206 F 
ATOM     80  C   UNL A   1      51.814  25.961  25.244  1.00  0.00     0.022 A 
BRANCH  77  81
ATOM     81  S   UNL A   1      51.424  27.192  22.772  1.00  0.00     0.124 S 
ATOM     82  O   UNL A   1      51.787  28.595  22.924  1.00  0.00    -0.237 OA
ATOM     83  O   UNL A   1      52.522  26.268  22.507  1.00  0.00    -0.237 OA
ATOM     84  O   UNL A   1      50.204  26.942  22.006  1.00  0.00    -0.744 OA
ENDBRANCH  77  81
ENDBRANCH  50  74
BRANCH  62  85
ATOM     85  C   UNL A   1      46.456  32.557  28.779  1.00  0.00     0.023 A 
ATOM     86  C   UNL A   1      46.491  33.596  27.832  1.00  0.00     0.031 A 
ATOM     87  C   UNL A   1      47.004  32.800  30.051  1.00  0.00     0.131 A 
ATOM     88  C   UNL A   1      47.112  34.812  28.155  1.00  0.00     0.055 A 
ATOM     89  C   UNL A   1      47.567  34.031  30.385  1.00  0.00     0.041 A 
ATOM     90  F   UNL A   1      46.998  31.842  30.992  1.00  0.00    -0.206 F 
ATOM     91  C   UNL A   1      47.635  35.043  29.430  1.00  0.00     0.022 A 
BRANCH  88  92
ATOM     92  S   UNL A   1      47.307  36.063  26.855  1.00  0.00     0.124 S 
ATOM     93  O   UNL A   1      48.701  36.461  27.024  1.00  0.00    -0.237 OA
ATOM     94  O   UNL A   1      47.003  35.306  25.645  1.00  0.00    -0.237 OA
ATOM     95  O   UNL A   1      46.323  37.083  27.211  1.00  0.00    -0.744 OA
ENDBRANCH  88  92
ENDBRANCH  62  85
ENDBRANCH  36  37
ENDBRANCH  28  31
ENDBRANCH  26  27
ENDBRANCH  25  26
ENDBRANCH   1  25
TORSDOF 19
ENDMDL
MODEL 3
REMARK VINA RESULT:     -11.2      2.524      7.916
REMARK SMILES CCC(CC)(CC(=O)Nc1ccc(F)c(F)c1)C(=O)NCCCCNC(=O)c1ccc(-c2c3nc(c(-c4cc(S(=O)(=O)[O-])ccc4F)c4ccc([nH]4)c(-c4cc(S(=O)(=O)[O-])ccc4F)c4nc(c(-c5cc(S(=O)(=O)[O-])ccc5F)c5ccc2[nH]5)C=C4)C=C3)cc1
REMARK SMILES IDX 22 1 21 2 20 3 18 4 19 5 3 7 2 8 1 9 4 10 5 11 6 12 7 13
REMARK SMILES IDX 8 14 9 15 10 17 11 18 17 19 12 20 15 21 13 22 16 23 14 24
REMARK SMILES IDX 23 25 24 26 25 27 26 28 27 30 28 31 29 32 90 33 30 34 89 35
REMARK SMILES IDX 31 36 32 37 33 38 83 39 34 40 88 41 82 42 84 43 35 44 87 45
REMARK SMILES IDX 81 46 80 47 36 49 68 50 48 51 67 52 49 53 52 54 66 55 85 56
REMARK SMILES IDX 50 57 51 58 65 60 86 61 53 62 37 63 38 64 46 65 39 66 45 67
REMARK SMILES IDX 47 68 44 69 40 70 41 71 42 72 43 73 69 74 70 75 78 76 71 77
REMARK SMILES IDX 77 78 79 79 76 80 72 81 73 82 74 83 75 84 54 85 55 86 63 87
REMARK SMILES IDX 56 88 62 89 64 90 61 91 57 92 58 93 59 94 60 95
REMARK H PARENT 20 6 9 16 25 29 84 48 52 59
REMARK Flexibility Score: inf
ROOT
ATOM      1  C   UNL A   1      31.242  27.940  26.158  1.00  0.00     0.023 C 
ENDROOT
BRANCH   1   2
ATOM      2  C   UNL A   1      30.665  26.673  25.535  1.00  0.00     0.116 C 
BRANCH   2   3
ATOM      3  N   UNL A   1      31.056  26.506  24.151  1.00  0.00    -0.356 N 
ATOM      4  C   UNL A   1      31.852  25.616  23.513  1.00  0.00     0.226 C 
ATOM      5  O   UNL A   1      31.988  25.805  22.298  1.00  0.00    -0.274 OA
ATOM      6  H   UNL A   1      30.661  27.179  23.550  1.00  0.00     0.163 HD
BRANCH   4   7
ATOM      7  C   UNL A   1      32.570  24.442  24.227  1.00  0.00     0.057 C 
BRANCH   7   8
ATOM      8  C   UNL A   1      33.470  25.062  25.348  1.00  0.00     0.014 C 
ATOM      9  C   UNL A   1      34.950  24.683  25.361  1.00  0.00     0.005 C 
ENDBRANCH   7   8
BRANCH   7  10
ATOM     10  C   UNL A   1      33.478  23.648  23.238  1.00  0.00     0.014 C 
ATOM     11  C   UNL A   1      32.827  22.427  22.597  1.00  0.00     0.005 C 
ENDBRANCH   7  10
BRANCH   7  12
ATOM     12  C   UNL A   1      31.528  23.503  24.918  1.00  0.00     0.117 C 
BRANCH  12  13
ATOM     13  C   UNL A   1      31.746  23.222  26.403  1.00  0.00     0.225 C 
ATOM     14  O   UNL A   1      31.330  24.003  27.261  1.00  0.00    -0.275 OA
ATOM     15  N   UNL A   1      32.383  22.076  26.815  1.00  0.00    -0.326 N 
ATOM     16  H   UNL A   1      32.407  21.919  27.787  1.00  0.00     0.169 HD
BRANCH  15  17
ATOM     17  C   UNL A   1      32.999  21.111  26.016  1.00  0.00     0.044 A 
ATOM     18  C   UNL A   1      32.211  20.119  25.422  1.00  0.00     0.029 A 
ATOM     19  C   UNL A   1      34.374  21.147  25.788  1.00  0.00     0.068 A 
ATOM     20  C   UNL A   1      32.815  19.074  24.724  1.00  0.00     0.044 A 
ATOM     21  C   UNL A   1      34.960  20.134  25.032  1.00  0.00     0.160 A 
ATOM     22  C   UNL A   1      34.192  19.085  24.535  1.00  0.00     0.158 A 
ATOM     23  F   UNL A   1      36.278  20.169  24.794  1.00  0.00    -0.204 F 
ATOM     24  F   UNL A   1      34.773  18.078  23.869  1.00  0.00    -0.204 F 
ENDBRANCH  15  17
ENDBRANCH  12  13
ENDBRANCH   7  12
ENDBRANCH   4   7
ENDBRANCH   2   3
ENDBRANCH   1   2
BRANCH   1  25
ATOM     25  C   UNL A   1      31.870  28.932  25.179  1.00  0.00     0.023 C 
BRANCH  25  26
ATOM     26  C   UNL A   1      33.098  29.679  25.688  1.00  0.00     0.116 C 
BRANCH  26  27
ATOM     27  N   UNL A   1      32.783  30.992  26.226  1.00  0.00    -0.352 N 
ATOM     28  C   UNL A   1      33.420  31.704  27.220  1.00  0.00     0.251 C 
ATOM     29  H   UNL A   1      32.004  31.437  25.822  1.00  0.00     0.163 HD
ATOM     30  O   UNL A   1      32.937  32.747  27.625  1.00  0.00    -0.269 OA
BRANCH  28  31
ATOM     31  C   UNL A   1      34.667  31.167  27.810  1.00  0.00     0.039 A 
ATOM     32  C   UNL A   1      35.747  32.032  27.997  1.00  0.00     0.014 A 
ATOM     33  C   UNL A   1      34.758  29.829  28.203  1.00  0.00     0.014 A 
ATOM     34  C   UNL A   1      36.893  31.573  28.650  1.00  0.00     0.010 A 
ATOM     35  C   UNL A   1      35.871  29.394  28.915  1.00  0.00     0.010 A 
ATOM     36  C   UNL A   1      36.949  30.261  29.149  1.00  0.00    -0.014 A 
BRANCH  36  37
ATOM     37  C   UNL A   1      38.126  29.781  29.919  1.00  0.00     0.031 A 
ATOM     38  C   UNL A   1      38.384  30.309  31.304  1.00  0.00     0.074 A 
ATOM     39  C   UNL A   1      38.995  28.923  29.347  1.00  0.00     0.049 A 
ATOM     40  N   UNL A   1      39.391  30.076  32.106  1.00  0.00    -0.248 NA
ATOM     41  C   UNL A   1      37.391  31.251  31.842  1.00  0.00     0.031 C 
ATOM     42  C   UNL A   1      38.875  28.376  27.994  1.00  0.00     0.029 A 
ATOM     43  N   UNL A   1      40.155  28.369  29.826  1.00  0.00    -0.354 N 
ATOM     44  C   UNL A   1      39.163  30.855  33.236  1.00  0.00     0.074 A 
ATOM     45  C   UNL A   1      37.953  31.610  32.986  1.00  0.00     0.031 C 
ATOM     46  C   UNL A   1      39.905  27.547  27.762  1.00  0.00     0.029 A 
ATOM     47  C   UNL A   1      40.782  27.535  28.927  1.00  0.00     0.049 A 
ATOM     48  H   UNL A   1      40.507  28.551  30.727  1.00  0.00     0.167 HD
ATOM     49  C   UNL A   1      39.883  30.916  34.384  1.00  0.00     0.034 A 
ATOM     50  C   UNL A   1      41.938  26.848  29.029  1.00  0.00     0.034 A 
ATOM     51  C   UNL A   1      41.078  30.143  34.621  1.00  0.00     0.049 A 
ATOM     52  C   UNL A   1      42.730  26.942  30.309  1.00  0.00     0.074 A 
ATOM     53  C   UNL A   1      41.851  30.078  35.767  1.00  0.00     0.029 A 
ATOM     54  N   UNL A   1      41.681  29.305  33.690  1.00  0.00    -0.354 N 
ATOM     55  N   UNL A   1      42.471  27.641  31.391  1.00  0.00    -0.248 NA
ATOM     56  C   UNL A   1      43.962  26.148  30.384  1.00  0.00     0.031 C 
ATOM     57  C   UNL A   1      42.953  29.256  35.509  1.00  0.00     0.029 A 
ATOM     58  C   UNL A   1      42.831  28.745  34.227  1.00  0.00     0.049 A 
ATOM     59  H   UNL A   1      41.341  29.134  32.783  1.00  0.00     0.167 HD
ATOM     60  C   UNL A   1      43.495  27.344  32.287  1.00  0.00     0.074 A 
ATOM     61  C   UNL A   1      44.365  26.394  31.622  1.00  0.00     0.031 C 
ATOM     62  C   UNL A   1      43.695  27.808  33.546  1.00  0.00     0.034 A 
BRANCH  49  63
ATOM     63  C   UNL A   1      39.405  31.872  35.451  1.00  0.00     0.023 A 
ATOM     64  C   UNL A   1      39.879  33.193  35.526  1.00  0.00     0.031 A 
ATOM     65  C   UNL A   1      38.489  31.448  36.431  1.00  0.00     0.131 A 
ATOM     66  C   UNL A   1      39.506  34.014  36.601  1.00  0.00     0.055 A 
ATOM     67  C   UNL A   1      38.055  32.297  37.450  1.00  0.00     0.041 A 
ATOM     68  F   UNL A   1      38.014  30.192  36.425  1.00  0.00    -0.206 F 
ATOM     69  C   UNL A   1      38.577  33.583  37.551  1.00  0.00     0.022 A 
BRANCH  66  70
ATOM     70  S   UNL A   1      40.371  35.593  36.826  1.00  0.00     0.124 S 
ATOM     71  O   UNL A   1      39.658  36.455  35.886  1.00  0.00    -0.237 OA
ATOM     72  O   UNL A   1      40.155  35.872  38.240  1.00  0.00    -0.237 OA
ATOM     73  O   UNL A   1      41.750  35.284  36.453  1.00  0.00    -0.744 OA
ENDBRANCH  66  70
ENDBRANCH  49  63
BRANCH  50  74
ATOM     74  C   UNL A   1      42.424  26.014  27.894  1.00  0.00     0.023 A 
ATOM     75  C   UNL A   1      41.956  24.703  27.708  1.00  0.00     0.031 A 
ATOM     76  C   UNL A   1      43.391  26.502  26.997  1.00  0.00     0.131 A 
ATOM     77  C   UNL A   1      42.488  23.908  26.682  1.00  0.00     0.055 A 
ATOM     78  C   UNL A   1      43.881  25.724  25.946  1.00  0.00     0.041 A 
ATOM     79  F   UNL A   1      43.868  27.751  27.125  1.00  0.00    -0.206 F 
ATOM     80  C   UNL A   1      43.439  24.414  25.792  1.00  0.00     0.022 A 
BRANCH  77  81
ATOM     81  S   UNL A   1      41.975  22.172  26.573  1.00  0.00     0.124 S 
ATOM     82  O   UNL A   1      42.654  21.737  25.359  1.00  0.00    -0.237 OA
ATOM     83  O   UNL A   1      42.486  21.627  27.826  1.00  0.00    -0.237 OA
ATOM     84  O   UNL A   1      40.518  22.253  26.479  1.00  0.00    -0.744 OA
ENDBRANCH  77  81
ENDBRANCH  50  74
BRANCH  62  85
ATOM     85  C   UNL A   1      44.880  27.253  34.299  1.00  0.00     0.023 A 
ATOM     86  C   UNL A   1      44.782  26.089  35.081  1.00  0.00     0.031 A 
ATOM     87  C   UNL A   1      46.122  27.910  34.240  1.00  0.00     0.131 A 
ATOM     88  C   UNL A   1      45.893  25.648  35.816  1.00  0.00     0.055 A 
ATOM     89  C   UNL A   1      47.238  27.434  34.927  1.00  0.00     0.041 A 
ATOM     90  F   UNL A   1      46.270  29.028  33.510  1.00  0.00    -0.206 F 
ATOM     91  C   UNL A   1      47.125  26.303  35.731  1.00  0.00     0.022 A 
BRANCH  88  92
ATOM     92  S   UNL A   1      45.684  24.254  36.958  1.00  0.00     0.124 S 
ATOM     93  O   UNL A   1      47.067  23.916  37.280  1.00  0.00    -0.237 OA
ATOM     94  O   UNL A   1      44.905  24.850  38.039  1.00  0.00    -0.237 OA
ATOM     95  O   UNL A   1      44.972  23.259  36.159  1.00  0.00    -0.744 OA
ENDBRANCH  88  92
ENDBRANCH  62  85
ENDBRANCH  36  37
ENDBRANCH  28  31
ENDBRANCH  26  27
ENDBRANCH  25  26
ENDBRANCH   1  25
TORSDOF 19
ENDMDL
