MODEL 1
REMARK VINA RESULT:     -13.0      0.000      0.000
REMARK SMILES CS(=O)(=O)c1ccc(-c2cc(Cl)cc3c2O[C@H](C(F)(F)F)C(C(=O)NCCCCNC(=O)c2ccc(-c4c5nc(c(-c6cc(S(=O)(=O)[O-])ccc6F)c6ccc([nH]6)c(-c6cc(S(=O)(=O)[O-])ccc6F)c6nc(c(-c7cc(S(=O)(=O)[O-])ccc7F)c7ccc4[nH]7)C=C6)C=C5)cc2)=C3)cc1
REMARK SMILES IDX 28 1 27 2 26 3 25 4 23 5 24 6 22 8 9 9 10 10 15 11 11 12
REMARK SMILES IDX 14 13 16 14 12 15 13 16 96 17 17 18 8 19 5 20 6 21 98 22
REMARK SMILES IDX 7 23 97 24 2 25 1 26 3 27 4 28 18 29 19 30 20 31 21 32 29 33
REMARK SMILES IDX 30 34 31 35 32 37 33 38 34 39 95 40 35 41 94 42 36 43 37 44
REMARK SMILES IDX 38 45 88 46 39 47 93 48 87 49 89 50 40 51 92 52 86 53 85 54
REMARK SMILES IDX 41 56 73 57 53 58 72 59 54 60 57 61 71 62 90 63 55 64 56 65
REMARK SMILES IDX 70 67 91 68 58 69 42 70 43 71 51 72 44 73 50 74 52 75 49 76
REMARK SMILES IDX 45 77 46 78 47 79 48 80 74 81 75 82 83 83 76 84 82 85 84 86
REMARK SMILES IDX 81 87 77 88 78 89 79 90 80 91 59 92 60 93 68 94 61 95 67 96
REMARK SMILES IDX 69 97 66 98 62 99 63 100 64 101 65 102
REMARK H PARENT 25 7 30 36 89 55 57 66
REMARK Flexibility Score: inf
ROOT
ATOM      1  C   UNL A   1      31.919  30.794  26.927  1.00  0.00     0.023 C 
ENDROOT
BRANCH   1   2
ATOM      2  C   UNL A   1      31.921  30.138  25.540  1.00  0.00     0.023 C 
BRANCH   2   3
ATOM      3  C   UNL A   1      33.158  29.287  25.226  1.00  0.00     0.116 C 
BRANCH   3   4
ATOM      4  N   UNL A   1      33.190  28.133  26.099  1.00  0.00    -0.352 N 
ATOM      5  C   UNL A   1      32.465  26.995  26.025  1.00  0.00     0.251 C 
ATOM      6  O   UNL A   1      32.176  26.403  27.060  1.00  0.00    -0.270 OA
ATOM      7  H   UNL A   1      33.828  28.183  26.847  1.00  0.00     0.163 HD
BRANCH   5   8
ATOM      8  C   UNL A   1      32.109  26.465  24.673  1.00  0.00     0.067 C 
ATOM      9  C   UNL A   1      33.443  22.655  25.182  1.00  0.00     0.026 A 
ATOM     10  C   UNL A   1      34.760  22.696  25.704  1.00  0.00     0.033 A 
ATOM     11  C   UNL A   1      32.932  23.853  24.664  1.00  0.00     0.135 A 
ATOM     12  C   UNL A   1      35.569  23.825  25.596  1.00  0.00     0.042 A 
ATOM     13  C   UNL A   1      33.797  24.957  24.472  1.00  0.00     0.019 A 
ATOM     14  O   UNL A   1      31.590  24.012  24.362  1.00  0.00    -0.475 OA
ATOM     15  Cl  UNL A   1      37.148  23.806  26.272  1.00  0.00    -0.084 Cl
ATOM     16  C   UNL A   1      35.112  24.945  24.926  1.00  0.00     0.032 A 
ATOM     17  C   UNL A   1      33.208  26.205  23.936  1.00  0.00     0.025 C 
ATOM     18  C   UNL A   1      31.062  25.354  24.721  1.00  0.00     0.314 C 
BRANCH   9  19
ATOM     19  C   UNL A   1      32.849  21.303  25.062  1.00  0.00    -0.015 A 
ATOM     20  C   UNL A   1      32.893  18.549  24.499  1.00  0.00     0.067 A 
ATOM     21  C   UNL A   1      33.037  18.987  25.817  1.00  0.00     0.021 A 
ATOM     22  C   UNL A   1      32.578  19.454  23.485  1.00  0.00     0.021 A 
ATOM     23  C   UNL A   1      33.001  20.359  26.096  1.00  0.00     0.010 A 
ATOM     24  C   UNL A   1      32.535  20.825  23.775  1.00  0.00     0.010 A 
BRANCH  20  25
ATOM     25  S   UNL A   1      33.310  16.866  24.099  1.00  0.00     0.175 S 
ATOM     26  C   UNL A   1      34.931  16.589  24.746  1.00  0.00     0.163 C 
ATOM     27  O   UNL A   1      33.410  16.773  22.653  1.00  0.00    -0.224 OA
ATOM     28  O   UNL A   1      32.389  16.023  24.837  1.00  0.00    -0.224 OA
ENDBRANCH  20  25
ENDBRANCH   9  19
BRANCH  18  29
ATOM     29  C   UNL A   1      29.870  25.735  23.820  1.00  0.00     0.429 C 
ATOM     30  F   UNL A   1      30.137  26.796  23.023  1.00  0.00    -0.167 F 
ATOM     31  F   UNL A   1      29.516  24.703  23.016  1.00  0.00    -0.167 F 
ATOM     32  F   UNL A   1      28.760  26.060  24.533  1.00  0.00    -0.167 F 
ENDBRANCH  18  29
ENDBRANCH   5   8
ENDBRANCH   3   4
ENDBRANCH   2   3
ENDBRANCH   1   2
BRANCH   1  33
ATOM     33  C   UNL A   1      33.146  31.644  27.232  1.00  0.00     0.116 C 
BRANCH  33  34
ATOM     34  N   UNL A   1      32.802  33.046  27.404  1.00  0.00    -0.352 N 
ATOM     35  C   UNL A   1      33.298  33.942  28.321  1.00  0.00     0.251 C 
ATOM     36  H   UNL A   1      32.126  33.400  26.781  1.00  0.00     0.163 HD
ATOM     37  O   UNL A   1      32.757  35.034  28.468  1.00  0.00    -0.269 OA
BRANCH  35  38
ATOM     38  C   UNL A   1      34.467  33.563  29.143  1.00  0.00     0.039 A 
ATOM     39  C   UNL A   1      34.289  32.713  30.237  1.00  0.00     0.014 A 
ATOM     40  C   UNL A   1      35.744  34.022  28.807  1.00  0.00     0.014 A 
ATOM     41  C   UNL A   1      35.403  32.262  30.951  1.00  0.00     0.010 A 
ATOM     42  C   UNL A   1      36.855  33.521  29.478  1.00  0.00     0.010 A 
ATOM     43  C   UNL A   1      36.698  32.631  30.554  1.00  0.00    -0.014 A 
BRANCH  43  44
ATOM     44  C   UNL A   1      37.912  32.123  31.248  1.00  0.00     0.031 A 
ATOM     45  C   UNL A   1      38.702  31.002  30.629  1.00  0.00     0.074 A 
ATOM     46  C   UNL A   1      38.255  32.602  32.460  1.00  0.00     0.049 A 
ATOM     47  N   UNL A   1      39.666  30.283  31.141  1.00  0.00    -0.248 NA
ATOM     48  C   UNL A   1      38.327  30.620  29.258  1.00  0.00     0.031 C 
ATOM     49  C   UNL A   1      37.566  33.681  33.171  1.00  0.00     0.029 A 
ATOM     50  N   UNL A   1      39.255  32.226  33.323  1.00  0.00    -0.354 N 
ATOM     51  C   UNL A   1      40.009  29.357  30.162  1.00  0.00     0.074 A 
ATOM     52  C   UNL A   1      39.104  29.567  29.051  1.00  0.00     0.031 C 
ATOM     53  C   UNL A   1      38.165  33.882  34.355  1.00  0.00     0.029 A 
ATOM     54  C   UNL A   1      39.244  32.912  34.517  1.00  0.00     0.049 A 
ATOM     55  H   UNL A   1      39.919  31.532  33.108  1.00  0.00     0.167 HD
ATOM     56  C   UNL A   1      41.001  28.432  30.178  1.00  0.00     0.034 A 
ATOM     57  C   UNL A   1      39.996  32.755  35.627  1.00  0.00     0.034 A 
ATOM     58  C   UNL A   1      41.901  28.239  31.288  1.00  0.00     0.049 A 
ATOM     59  C   UNL A   1      41.060  31.683  35.642  1.00  0.00     0.074 A 
ATOM     60  C   UNL A   1      42.943  27.336  31.408  1.00  0.00     0.029 A 
ATOM     61  N   UNL A   1      41.869  28.967  32.470  1.00  0.00    -0.354 N 
ATOM     62  N   UNL A   1      41.373  30.816  34.705  1.00  0.00    -0.248 NA
ATOM     63  C   UNL A   1      41.877  31.569  36.859  1.00  0.00     0.031 C 
ATOM     64  C   UNL A   1      43.508  27.482  32.679  1.00  0.00     0.029 A 
ATOM     65  C   UNL A   1      42.865  28.526  33.327  1.00  0.00     0.049 A 
ATOM     66  H   UNL A   1      41.234  29.691  32.670  1.00  0.00     0.167 HD
ATOM     67  C   UNL A   1      42.451  30.090  35.205  1.00  0.00     0.074 A 
ATOM     68  C   UNL A   1      42.737  30.621  36.521  1.00  0.00     0.031 C 
ATOM     69  C   UNL A   1      43.148  29.080  34.627  1.00  0.00     0.034 A 
BRANCH  56  70
ATOM     70  C   UNL A   1      41.148  27.555  28.960  1.00  0.00     0.023 A 
ATOM     71  C   UNL A   1      42.144  27.801  27.998  1.00  0.00     0.031 A 
ATOM     72  C   UNL A   1      40.275  26.475  28.742  1.00  0.00     0.131 A 
ATOM     73  C   UNL A   1      42.195  27.027  26.830  1.00  0.00     0.055 A 
ATOM     74  C   UNL A   1      40.385  25.655  27.617  1.00  0.00     0.041 A 
ATOM     75  F   UNL A   1      39.292  26.203  29.615  1.00  0.00    -0.206 F 
ATOM     76  C   UNL A   1      41.340  25.939  26.645  1.00  0.00     0.022 A 
BRANCH  73  77
ATOM     77  S   UNL A   1      43.307  27.549  25.496  1.00  0.00     0.124 S 
ATOM     78  O   UNL A   1      43.864  26.271  25.062  1.00  0.00    -0.237 OA
ATOM     79  O   UNL A   1      42.397  28.200  24.561  1.00  0.00    -0.237 OA
ATOM     80  O   UNL A   1      44.253  28.438  26.167  1.00  0.00    -0.744 OA
ENDBRANCH  73  77
ENDBRANCH  56  70
BRANCH  57  81
ATOM     81  C   UNL A   1      39.767  33.604  36.833  1.00  0.00     0.023 A 
ATOM     82  C   UNL A   1      39.102  33.092  37.958  1.00  0.00     0.031 A 
ATOM     83  C   UNL A   1      40.136  34.960  36.850  1.00  0.00     0.131 A 
ATOM     84  C   UNL A   1      38.764  33.943  39.021  1.00  0.00     0.055 A 
ATOM     85  C   UNL A   1      39.855  35.789  37.938  1.00  0.00     0.041 A 
ATOM     86  F   UNL A   1      40.776  35.504  35.803  1.00  0.00    -0.206 F 
ATOM     87  C   UNL A   1      39.147  35.285  39.025  1.00  0.00     0.022 A 
BRANCH  84  88
ATOM     88  S   UNL A   1      37.702  33.297  40.344  1.00  0.00     0.124 S 
ATOM     89  O   UNL A   1      36.537  32.845  39.594  1.00  0.00    -0.237 OA
ATOM     90  O   UNL A   1      38.542  32.252  40.921  1.00  0.00    -0.237 OA
ATOM     91  O   UNL A   1      37.481  34.461  41.200  1.00  0.00    -0.744 OA
ENDBRANCH  84  88
ENDBRANCH  57  81
BRANCH  69  92
ATOM     92  C   UNL A   1      44.339  28.541  35.379  1.00  0.00     0.023 A 
ATOM     93  C   UNL A   1      44.216  27.523  36.341  1.00  0.00     0.031 A 
ATOM     94  C   UNL A   1      45.622  29.051  35.112  1.00  0.00     0.131 A 
ATOM     95  C   UNL A   1      45.354  27.075  37.029  1.00  0.00     0.055 A 
ATOM     96  C   UNL A   1      46.757  28.564  35.762  1.00  0.00     0.041 A 
ATOM     97  F   UNL A   1      45.794  30.023  34.202  1.00  0.00    -0.206 F 
ATOM     98  C   UNL A   1      46.625  27.577  36.734  1.00  0.00     0.022 A 
BRANCH  95  99
ATOM     99  S   UNL A   1      45.147  25.862  38.363  1.00  0.00     0.124 S 
ATOM    100  O   UNL A   1      46.470  25.857  38.977  1.00  0.00    -0.237 OA
ATOM    101  O   UNL A   1      44.075  26.454  39.159  1.00  0.00    -0.237 OA
ATOM    102  O   UNL A   1      44.786  24.634  37.658  1.00  0.00    -0.744 OA
ENDBRANCH  95  99
ENDBRANCH  69  92
ENDBRANCH  43  44
ENDBRANCH  35  38
ENDBRANCH  33  34
ENDBRANCH   1  33
TORSDOF 17
ENDMDL
MODEL 2
REMARK VINA RESULT:     -12.5      5.727     11.461
REMARK SMILES CS(=O)(=O)c1ccc(-c2cc(Cl)cc3c2O[C@H](C(F)(F)F)C(C(=O)NCCCCNC(=O)c2ccc(-c4c5nc(c(-c6cc(S(=O)(=O)[O-])ccc6F)c6ccc([nH]6)c(-c6cc(S(=O)(=O)[O-])ccc6F)c6nc(c(-c7cc(S(=O)(=O)[O-])ccc7F)c7ccc4[nH]7)C=C6)C=C5)cc2)=C3)cc1
REMARK SMILES IDX 28 1 27 2 26 3 25 4 23 5 24 6 22 8 9 9 10 10 15 11 11 12
REMARK SMILES IDX 14 13 16 14 12 15 13 16 96 17 17 18 8 19 5 20 6 21 98 22
REMARK SMILES IDX 7 23 97 24 2 25 1 26 3 27 4 28 18 29 19 30 20 31 21 32 29 33
REMARK SMILES IDX 30 34 31 35 32 37 33 38 34 39 95 40 35 41 94 42 36 43 37 44
REMARK SMILES IDX 38 45 88 46 39 47 93 48 87 49 89 50 40 51 92 52 86 53 85 54
REMARK SMILES IDX 41 56 73 57 53 58 72 59 54 60 57 61 71 62 90 63 55 64 56 65
REMARK SMILES IDX 70 67 91 68 58 69 42 70 43 71 51 72 44 73 50 74 52 75 49 76
REMARK SMILES IDX 45 77 46 78 47 79 48 80 74 81 75 82 83 83 76 84 82 85 84 86
REMARK SMILES IDX 81 87 77 88 78 89 79 90 80 91 59 92 60 93 68 94 61 95 67 96
REMARK SMILES IDX 69 97 66 98 62 99 63 100 64 101 65 102
REMARK H PARENT 25 7 30 36 89 55 57 66
REMARK Flexibility Score: inf
ROOT
ATOM      1  C   UNL A   1      38.092  19.485  25.237  1.00  0.00     0.023 C 
ENDROOT
BRANCH   1   2
ATOM      2  C   UNL A   1      37.130  20.486  24.583  1.00  0.00     0.023 C 
BRANCH   2   3
ATOM      3  C   UNL A   1      36.282  21.306  25.563  1.00  0.00     0.116 C 
BRANCH   3   4
ATOM      4  N   UNL A   1      36.276  22.696  25.157  1.00  0.00    -0.352 N 
ATOM      5  C   UNL A   1      35.340  23.367  24.449  1.00  0.00     0.251 C 
ATOM      6  O   UNL A   1      35.690  24.292  23.724  1.00  0.00    -0.270 OA
ATOM      7  H   UNL A   1      37.059  23.224  25.436  1.00  0.00     0.163 HD
BRANCH   5   8
ATOM      8  C   UNL A   1      33.904  23.000  24.642  1.00  0.00     0.067 C 
ATOM      9  C   UNL A   1      32.287  26.692  24.088  1.00  0.00     0.026 A 
ATOM     10  C   UNL A   1      32.989  27.625  24.892  1.00  0.00     0.033 A 
ATOM     11  C   UNL A   1      32.500  25.335  24.366  1.00  0.00     0.135 A 
ATOM     12  C   UNL A   1      33.752  27.236  25.991  1.00  0.00     0.042 A 
ATOM     13  C   UNL A   1      33.194  24.962  25.542  1.00  0.00     0.019 A 
ATOM     14  O   UNL A   1      32.083  24.333  23.506  1.00  0.00    -0.475 OA
ATOM     15  Cl  UNL A   1      34.591  28.424  26.906  1.00  0.00    -0.084 Cl
ATOM     16  C   UNL A   1      33.812  25.904  26.359  1.00  0.00     0.032 A 
ATOM     17  C   UNL A   1      33.407  23.517  25.785  1.00  0.00     0.025 C 
ATOM     18  C   UNL A   1      33.056  23.215  23.391  1.00  0.00     0.314 C 
BRANCH   9  19
ATOM     19  C   UNL A   1      31.259  27.271  23.192  1.00  0.00    -0.015 A 
ATOM     20  C   UNL A   1      29.236  29.092  22.489  1.00  0.00     0.067 A 
ATOM     21  C   UNL A   1      30.547  29.319  22.065  1.00  0.00     0.021 A 
ATOM     22  C   UNL A   1      28.897  27.897  23.126  1.00  0.00     0.021 A 
ATOM     23  C   UNL A   1      31.551  28.403  22.405  1.00  0.00     0.010 A 
ATOM     24  C   UNL A   1      29.907  26.982  23.455  1.00  0.00     0.010 A 
BRANCH  20  25
ATOM     25  S   UNL A   1      28.054  30.418  22.385  1.00  0.00     0.175 S 
ATOM     26  C   UNL A   1      28.805  31.814  23.167  1.00  0.00     0.163 C 
ATOM     27  O   UNL A   1      26.908  30.045  23.196  1.00  0.00    -0.224 OA
ATOM     28  O   UNL A   1      27.901  30.729  20.977  1.00  0.00    -0.224 OA
ENDBRANCH  20  25
ENDBRANCH   9  19
BRANCH  18  29
ATOM     29  C   UNL A   1      32.341  21.899  23.023  1.00  0.00     0.429 C 
ATOM     30  F   UNL A   1      32.975  20.808  23.512  1.00  0.00    -0.167 F 
ATOM     31  F   UNL A   1      31.074  21.881  23.503  1.00  0.00    -0.167 F 
ATOM     32  F   UNL A   1      32.241  21.717  21.681  1.00  0.00    -0.167 F 
ENDBRANCH  18  29
ENDBRANCH   5   8
ENDBRANCH   3   4
ENDBRANCH   2   3
ENDBRANCH   1   2
BRANCH   1  33
ATOM     33  C   UNL A   1      39.290  20.115  25.935  1.00  0.00     0.116 C 
BRANCH  33  34
ATOM     34  N   UNL A   1      40.453  19.243  25.904  1.00  0.00    -0.352 N 
ATOM     35  C   UNL A   1      41.781  19.585  26.009  1.00  0.00     0.251 C 
ATOM     36  H   UNL A   1      40.265  18.283  25.795  1.00  0.00     0.163 HD
ATOM     37  O   UNL A   1      42.650  18.755  25.760  1.00  0.00    -0.269 OA
BRANCH  35  38
ATOM     38  C   UNL A   1      42.144  20.966  26.394  1.00  0.00     0.039 A 
ATOM     39  C   UNL A   1      42.353  21.268  27.742  1.00  0.00     0.014 A 
ATOM     40  C   UNL A   1      42.308  21.951  25.416  1.00  0.00     0.014 A 
ATOM     41  C   UNL A   1      42.803  22.541  28.103  1.00  0.00     0.010 A 
ATOM     42  C   UNL A   1      42.818  23.196  25.771  1.00  0.00     0.010 A 
ATOM     43  C   UNL A   1      43.076  23.504  27.118  1.00  0.00    -0.014 A 
BRANCH  43  44
ATOM     44  C   UNL A   1      43.616  24.848  27.455  1.00  0.00     0.031 A 
ATOM     45  C   UNL A   1      42.678  25.921  27.939  1.00  0.00     0.074 A 
ATOM     46  C   UNL A   1      44.917  25.132  27.248  1.00  0.00     0.049 A 
ATOM     47  N   UNL A   1      42.892  27.200  28.104  1.00  0.00    -0.248 NA
ATOM     48  C   UNL A   1      41.303  25.495  28.245  1.00  0.00     0.031 C 
ATOM     49  C   UNL A   1      45.927  24.183  26.774  1.00  0.00     0.029 A 
ATOM     50  N   UNL A   1      45.612  26.309  27.386  1.00  0.00    -0.354 N 
ATOM     51  C   UNL A   1      41.679  27.736  28.524  1.00  0.00     0.074 A 
ATOM     52  C   UNL A   1      40.720  26.652  28.525  1.00  0.00     0.031 C 
ATOM     53  C   UNL A   1      47.107  24.812  26.665  1.00  0.00     0.029 A 
ATOM     54  C   UNL A   1      46.932  26.221  27.006  1.00  0.00     0.049 A 
ATOM     55  H   UNL A   1      45.204  27.138  27.726  1.00  0.00     0.167 HD
ATOM     56  C   UNL A   1      41.397  29.009  28.895  1.00  0.00     0.034 A 
ATOM     57  C   UNL A   1      47.884  27.173  26.912  1.00  0.00     0.034 A 
ATOM     58  C   UNL A   1      42.364  30.078  28.897  1.00  0.00     0.049 A 
ATOM     59  C   UNL A   1      47.532  28.596  27.280  1.00  0.00     0.074 A 
ATOM     60  C   UNL A   1      42.187  31.403  29.259  1.00  0.00     0.029 A 
ATOM     61  N   UNL A   1      43.695  29.944  28.525  1.00  0.00    -0.354 N 
ATOM     62  N   UNL A   1      46.380  29.086  27.678  1.00  0.00    -0.248 NA
ATOM     63  C   UNL A   1      48.608  29.594  27.194  1.00  0.00     0.031 C 
ATOM     64  C   UNL A   1      43.394  32.079  29.057  1.00  0.00     0.029 A 
ATOM     65  C   UNL A   1      44.346  31.162  28.637  1.00  0.00     0.049 A 
ATOM     66  H   UNL A   1      44.116  29.106  28.225  1.00  0.00     0.167 HD
ATOM     67  C   UNL A   1      46.609  30.435  27.932  1.00  0.00     0.074 A 
ATOM     68  C   UNL A   1      48.007  30.682  27.647  1.00  0.00     0.031 C 
ATOM     69  C   UNL A   1      45.744  31.386  28.368  1.00  0.00     0.034 A 
BRANCH  56  70
ATOM     70  C   UNL A   1      39.979  29.309  29.316  1.00  0.00     0.023 A 
ATOM     71  C   UNL A   1      39.619  29.381  30.673  1.00  0.00     0.031 A 
ATOM     72  C   UNL A   1      38.971  29.503  28.356  1.00  0.00     0.131 A 
ATOM     73  C   UNL A   1      38.277  29.566  31.032  1.00  0.00     0.055 A 
ATOM     74  C   UNL A   1      37.650  29.771  28.721  1.00  0.00     0.041 A 
ATOM     75  F   UNL A   1      39.251  29.426  27.045  1.00  0.00    -0.206 F 
ATOM     76  C   UNL A   1      37.294  29.788  30.066  1.00  0.00     0.022 A 
BRANCH  73  77
ATOM     77  S   UNL A   1      37.815  29.375  32.775  1.00  0.00     0.124 S 
ATOM     78  O   UNL A   1      36.652  30.255  32.868  1.00  0.00    -0.237 OA
ATOM     79  O   UNL A   1      37.545  27.946  32.877  1.00  0.00    -0.237 OA
ATOM     80  O   UNL A   1      38.998  29.840  33.496  1.00  0.00    -0.744 OA
ENDBRANCH  73  77
ENDBRANCH  56  70
BRANCH  57  81
ATOM     81  C   UNL A   1      49.255  26.840  26.425  1.00  0.00     0.023 A 
ATOM     82  C   UNL A   1      49.696  27.269  25.164  1.00  0.00     0.031 A 
ATOM     83  C   UNL A   1      50.116  26.021  27.178  1.00  0.00     0.131 A 
ATOM     84  C   UNL A   1      50.928  26.822  24.662  1.00  0.00     0.055 A 
ATOM     85  C   UNL A   1      51.370  25.632  26.701  1.00  0.00     0.041 A 
ATOM     86  F   UNL A   1      49.748  25.583  28.392  1.00  0.00    -0.206 F 
ATOM     87  C   UNL A   1      51.774  26.017  25.427  1.00  0.00     0.022 A 
BRANCH  84  88
ATOM     88  S   UNL A   1      51.352  27.207  22.940  1.00  0.00     0.124 S 
ATOM     89  O   UNL A   1      52.410  26.239  22.673  1.00  0.00    -0.237 OA
ATOM     90  O   UNL A   1      50.083  26.975  22.258  1.00  0.00    -0.237 OA
ATOM     91  O   UNL A   1      51.781  28.602  22.999  1.00  0.00    -0.744 OA
ENDBRANCH  84  88
ENDBRANCH  57  81
BRANCH  69  92
ATOM     92  C   UNL A   1      46.305  32.758  28.644  1.00  0.00     0.023 A 
ATOM     93  C   UNL A   1      46.306  33.774  27.673  1.00  0.00     0.031 A 
ATOM     94  C   UNL A   1      46.834  33.053  29.914  1.00  0.00     0.131 A 
ATOM     95  C   UNL A   1      46.863  35.026  27.975  1.00  0.00     0.055 A 
ATOM     96  C   UNL A   1      47.339  34.316  30.225  1.00  0.00     0.041 A 
ATOM     97  F   UNL A   1      46.856  32.118  30.878  1.00  0.00    -0.206 F 
ATOM     98  C   UNL A   1      47.364  35.308  29.250  1.00  0.00     0.022 A 
BRANCH  95  99
ATOM     99  S   UNL A   1      46.979  36.270  26.660  1.00  0.00     0.124 S 
ATOM    100  O   UNL A   1      47.888  37.249  27.247  1.00  0.00    -0.237 OA
ATOM    101  O   UNL A   1      47.510  35.495  25.543  1.00  0.00    -0.237 OA
ATOM    102  O   UNL A   1      45.600  36.727  26.496  1.00  0.00    -0.744 OA
ENDBRANCH  95  99
ENDBRANCH  69  92
ENDBRANCH  43  44
ENDBRANCH  35  38
ENDBRANCH  33  34
ENDBRANCH   1  33
TORSDOF 17
ENDMDL
MODEL 3
REMARK VINA RESULT:     -12.1      1.873      2.197
REMARK SMILES CS(=O)(=O)c1ccc(-c2cc(Cl)cc3c2O[C@H](C(F)(F)F)C(C(=O)NCCCCNC(=O)c2ccc(-c4c5nc(c(-c6cc(S(=O)(=O)[O-])ccc6F)c6ccc([nH]6)c(-c6cc(S(=O)(=O)[O-])ccc6F)c6nc(c(-c7cc(S(=O)(=O)[O-])ccc7F)c7ccc4[nH]7)C=C6)C=C5)cc2)=C3)cc1
REMARK SMILES IDX 28 1 27 2 26 3 25 4 23 5 24 6 22 8 9 9 10 10 15 11 11 12
REMARK SMILES IDX 14 13 16 14 12 15 13 16 96 17 17 18 8 19 5 20 6 21 98 22
REMARK SMILES IDX 7 23 97 24 2 25 1 26 3 27 4 28 18 29 19 30 20 31 21 32 29 33
REMARK SMILES IDX 30 34 31 35 32 37 33 38 34 39 95 40 35 41 94 42 36 43 37 44
REMARK SMILES IDX 38 45 88 46 39 47 93 48 87 49 89 50 40 51 92 52 86 53 85 54
REMARK SMILES IDX 41 56 73 57 53 58 72 59 54 60 57 61 71 62 90 63 55 64 56 65
REMARK SMILES IDX 70 67 91 68 58 69 42 70 43 71 51 72 44 73 50 74 52 75 49 76
REMARK SMILES IDX 45 77 46 78 47 79 48 80 74 81 75 82 83 83 76 84 82 85 84 86
REMARK SMILES IDX 81 87 77 88 78 89 79 90 80 91 59 92 60 93 68 94 61 95 67 96
REMARK SMILES IDX 69 97 66 98 62 99 63 100 64 101 65 102
REMARK H PARENT 25 7 30 36 89 55 57 66
REMARK Flexibility Score: inf
ROOT
ATOM      1  C   UNL A   1      31.807  30.456  26.825  1.00  0.00     0.023 C 
ENDROOT
BRANCH   1   2
ATOM      2  C   UNL A   1      31.801  30.061  25.342  1.00  0.00     0.023 C 
BRANCH   2   3
ATOM      3  C   UNL A   1      33.024  29.260  24.879  1.00  0.00     0.116 C 
BRANCH   3   4
ATOM      4  N   UNL A   1      33.240  28.142  25.772  1.00  0.00    -0.352 N 
ATOM      5  C   UNL A   1      32.655  26.923  25.761  1.00  0.00     0.251 C 
ATOM      6  O   UNL A   1      32.494  26.328  26.822  1.00  0.00    -0.270 OA
ATOM      7  H   UNL A   1      33.904  28.288  26.484  1.00  0.00     0.163 HD
BRANCH   5   8
ATOM      8  C   UNL A   1      32.299  26.318  24.441  1.00  0.00     0.067 C 
ATOM      9  C   UNL A   1      33.631  22.542  25.162  1.00  0.00     0.026 A 
ATOM     10  C   UNL A   1      34.949  22.612  25.681  1.00  0.00     0.033 A 
ATOM     11  C   UNL A   1      33.120  23.709  24.578  1.00  0.00     0.135 A 
ATOM     12  C   UNL A   1      35.758  23.733  25.509  1.00  0.00     0.042 A 
ATOM     13  C   UNL A   1      33.986  24.800  24.324  1.00  0.00     0.019 A 
ATOM     14  O   UNL A   1      31.779  23.852  24.268  1.00  0.00    -0.475 OA
ATOM     15  Cl  UNL A   1      37.338  23.752  26.184  1.00  0.00    -0.084 Cl
ATOM     16  C   UNL A   1      35.302  24.814  24.777  1.00  0.00     0.032 A 
ATOM     17  C   UNL A   1      33.397  26.017  23.719  1.00  0.00     0.025 C 
ATOM     18  C   UNL A   1      31.252  25.212  24.552  1.00  0.00     0.314 C 
BRANCH   9  19
ATOM     19  C   UNL A   1      33.037  21.186  25.118  1.00  0.00    -0.015 A 
ATOM     20  C   UNL A   1      33.087  18.400  24.744  1.00  0.00     0.067 A 
ATOM     21  C   UNL A   1      33.200  18.926  26.033  1.00  0.00     0.021 A 
ATOM     22  C   UNL A   1      32.800  19.236  23.664  1.00  0.00     0.021 A 
ATOM     23  C   UNL A   1      33.161  20.313  26.218  1.00  0.00     0.010 A 
ATOM     24  C   UNL A   1      32.753  20.623  23.860  1.00  0.00     0.010 A 
BRANCH  20  25
ATOM     25  S   UNL A   1      33.509  16.693  24.468  1.00  0.00     0.175 S 
ATOM     26  C   UNL A   1      32.304  15.737  25.338  1.00  0.00     0.163 C 
ATOM     27  O   UNL A   1      34.788  16.450  25.113  1.00  0.00    -0.224 OA
ATOM     28  O   UNL A   1      33.331  16.445  23.050  1.00  0.00    -0.224 OA
ENDBRANCH  20  25
ENDBRANCH   9  19
BRANCH  18  29
ATOM     29  C   UNL A   1      30.059  25.542  23.632  1.00  0.00     0.429 C 
ATOM     30  F   UNL A   1      28.969  25.954  24.320  1.00  0.00    -0.167 F 
ATOM     31  F   UNL A   1      30.376  26.522  22.752  1.00  0.00    -0.167 F 
ATOM     32  F   UNL A   1      29.663  24.476  22.888  1.00  0.00    -0.167 F 
ENDBRANCH  18  29
ENDBRANCH   5   8
ENDBRANCH   3   4
ENDBRANCH   2   3
ENDBRANCH   1   2
BRANCH   1  33
ATOM     33  C   UNL A   1      33.014  31.278  27.261  1.00  0.00     0.116 C 
BRANCH  33  34
ATOM     34  N   UNL A   1      32.704  32.697  27.327  1.00  0.00    -0.352 N 
ATOM     35  C   UNL A   1      33.261  33.656  28.141  1.00  0.00     0.251 C 
ATOM     36  H   UNL A   1      32.007  33.012  26.708  1.00  0.00     0.163 HD
ATOM     37  O   UNL A   1      32.749  34.769  28.218  1.00  0.00    -0.269 OA
BRANCH  35  38
ATOM     38  C   UNL A   1      34.460  33.320  28.938  1.00  0.00     0.039 A 
ATOM     39  C   UNL A   1      34.309  32.646  30.152  1.00  0.00     0.014 A 
ATOM     40  C   UNL A   1      35.735  33.644  28.465  1.00  0.00     0.014 A 
ATOM     41  C   UNL A   1      35.442  32.228  30.857  1.00  0.00     0.010 A 
ATOM     42  C   UNL A   1      36.859  33.170  29.134  1.00  0.00     0.010 A 
ATOM     43  C   UNL A   1      36.726  32.453  30.334  1.00  0.00    -0.014 A 
BRANCH  43  44
ATOM     44  C   UNL A   1      37.954  31.969  31.021  1.00  0.00     0.031 A 
ATOM     45  C   UNL A   1      38.726  30.821  30.431  1.00  0.00     0.074 A 
ATOM     46  C   UNL A   1      38.325  32.497  32.204  1.00  0.00     0.049 A 
ATOM     47  N   UNL A   1      39.701  30.121  30.951  1.00  0.00    -0.248 NA
ATOM     48  C   UNL A   1      38.321  30.384  29.086  1.00  0.00     0.031 C 
ATOM     49  C   UNL A   1      37.655  33.607  32.886  1.00  0.00     0.029 A 
ATOM     50  N   UNL A   1      39.343  32.153  33.060  1.00  0.00    -0.354 N 
ATOM     51  C   UNL A   1      40.019  29.154  30.003  1.00  0.00     0.074 A 
ATOM     52  C   UNL A   1      39.090  29.321  28.905  1.00  0.00     0.031 C 
ATOM     53  C   UNL A   1      38.281  33.854  34.047  1.00  0.00     0.029 A 
ATOM     54  C   UNL A   1      39.361  32.887  34.225  1.00  0.00     0.049 A 
ATOM     55  H   UNL A   1      40.000  31.448  32.859  1.00  0.00     0.167 HD
ATOM     56  C   UNL A   1      41.009  28.227  30.035  1.00  0.00     0.034 A 
ATOM     57  C   UNL A   1      40.138  32.774  35.323  1.00  0.00     0.034 A 
ATOM     58  C   UNL A   1      41.932  28.077  31.131  1.00  0.00     0.049 A 
ATOM     59  C   UNL A   1      41.199  31.699  35.358  1.00  0.00     0.074 A 
ATOM     60  C   UNL A   1      42.975  27.175  31.265  1.00  0.00     0.029 A 
ATOM     61  N   UNL A   1      41.930  28.853  32.283  1.00  0.00    -0.354 N 
ATOM     62  N   UNL A   1      41.489  30.793  34.451  1.00  0.00    -0.248 NA
ATOM     63  C   UNL A   1      42.042  31.632  36.560  1.00  0.00     0.031 C 
ATOM     64  C   UNL A   1      43.568  27.372  32.517  1.00  0.00     0.029 A 
ATOM     65  C   UNL A   1      42.943  28.443  33.135  1.00  0.00     0.049 A 
ATOM     66  H   UNL A   1      41.300  29.586  32.468  1.00  0.00     0.167 HD
ATOM     67  C   UNL A   1      42.576  30.085  34.956  1.00  0.00     0.074 A 
ATOM     68  C   UNL A   1      42.892  30.668  36.243  1.00  0.00     0.031 C 
ATOM     69  C   UNL A   1      43.257  29.049  34.405  1.00  0.00     0.034 A 
BRANCH  56  70
ATOM     70  C   UNL A   1      41.126  27.300  28.851  1.00  0.00     0.023 A 
ATOM     71  C   UNL A   1      42.130  27.476  27.882  1.00  0.00     0.031 A 
ATOM     72  C   UNL A   1      40.217  26.243  28.673  1.00  0.00     0.131 A 
ATOM     73  C   UNL A   1      42.155  26.657  26.744  1.00  0.00     0.055 A 
ATOM     74  C   UNL A   1      40.299  25.378  27.579  1.00  0.00     0.041 A 
ATOM     75  F   UNL A   1      39.225  26.038  29.555  1.00  0.00    -0.206 F 
ATOM     76  C   UNL A   1      41.263  25.592  26.599  1.00  0.00     0.022 A 
BRANCH  73  77
ATOM     77  S   UNL A   1      43.284  27.091  25.393  1.00  0.00     0.124 S 
ATOM     78  O   UNL A   1      44.322  27.833  26.106  1.00  0.00    -0.237 OA
ATOM     79  O   UNL A   1      43.675  25.785  24.875  1.00  0.00    -0.237 OA
ATOM     80  O   UNL A   1      42.455  27.895  24.498  1.00  0.00    -0.744 OA
ENDBRANCH  73  77
ENDBRANCH  56  70
BRANCH  57  81
ATOM     81  C   UNL A   1      39.938  33.672  36.498  1.00  0.00     0.023 A 
ATOM     82  C   UNL A   1      40.822  34.731  36.755  1.00  0.00     0.031 A 
ATOM     83  C   UNL A   1      38.908  33.437  37.426  1.00  0.00     0.131 A 
ATOM     84  C   UNL A   1      40.706  35.470  37.942  1.00  0.00     0.055 A 
ATOM     85  C   UNL A   1      38.756  34.217  38.575  1.00  0.00     0.041 A 
ATOM     86  F   UNL A   1      38.031  32.439  37.231  1.00  0.00    -0.206 F 
ATOM     87  C   UNL A   1      39.671  35.229  38.847  1.00  0.00     0.022 A 
BRANCH  84  88
ATOM     88  S   UNL A   1      42.006  36.669  38.347  1.00  0.00     0.124 S 
ATOM     89  O   UNL A   1      42.987  35.827  39.019  1.00  0.00    -0.237 OA
ATOM     90  O   UNL A   1      42.381  37.164  37.026  1.00  0.00    -0.237 OA
ATOM     91  O   UNL A   1      41.321  37.637  39.201  1.00  0.00    -0.744 OA
ENDBRANCH  84  88
ENDBRANCH  57  81
BRANCH  69  92
ATOM     92  C   UNL A   1      44.463  28.538  35.152  1.00  0.00     0.023 A 
ATOM     93  C   UNL A   1      45.751  29.055  34.934  1.00  0.00     0.031 A 
ATOM     94  C   UNL A   1      44.309  27.521  36.112  1.00  0.00     0.131 A 
ATOM     95  C   UNL A   1      46.843  28.525  35.639  1.00  0.00     0.055 A 
ATOM     96  C   UNL A   1      45.390  27.035  36.848  1.00  0.00     0.041 A 
ATOM     97  F   UNL A   1      43.099  26.993  36.359  1.00  0.00    -0.206 F 
ATOM     98  C   UNL A   1      46.667  27.530  36.606  1.00  0.00     0.022 A 
BRANCH  95  99
ATOM     99  S   UNL A   1      48.511  29.112  35.236  1.00  0.00     0.124 S 
ATOM    100  O   UNL A   1      49.207  28.947  36.508  1.00  0.00    -0.237 OA
ATOM    101  O   UNL A   1      48.912  28.203  34.167  1.00  0.00    -0.237 OA
ATOM    102  O   UNL A   1      48.298  30.497  34.822  1.00  0.00    -0.744 OA
ENDBRANCH  95  99
ENDBRANCH  69  92
ENDBRANCH  43  44
ENDBRANCH  35  38
ENDBRANCH  33  34
ENDBRANCH   1  33
TORSDOF 17
ENDMDL
