MODEL 1
REMARK VINA RESULT:      -9.0      0.000      0.000
REMARK SMILES CCCCCCCCNC(=O)Oc1cccc(-c2ccc([C@@H](C)C(=O)NCCCCNC(=O)c3ccc(-c4c5nc(c(-c6cc(S(=O)(=O)[O-])ccc6F)c6ccc([nH]6)c(-c6cc(S(=O)(=O)[O-])ccc6F)c6nc(c(-c7cc(S(=O)(=O)[O-])ccc7F)c7ccc4[nH]7)C=C6)C=C5)cc3)cc2F)c1
REMARK SMILES IDX 18 1 19 2 20 3 21 4 97 5 98 6 99 7 17 8 13 9 14 10 100 11
REMARK SMILES IDX 15 12 16 13 12 14 10 15 9 16 11 18 8 19 7 20 6 21 5 22 4 23
REMARK SMILES IDX 3 24 2 25 1 26 22 27 23 28 24 29 25 30 26 31 27 33 28 34
REMARK SMILES IDX 29 35 30 36 31 37 32 38 33 40 34 41 35 42 96 43 36 44 95 45
REMARK SMILES IDX 37 46 38 47 39 48 89 49 40 50 94 51 88 52 90 53 41 54 93 55
REMARK SMILES IDX 87 56 86 57 42 59 74 60 54 61 73 62 55 63 58 64 72 65 91 66
REMARK SMILES IDX 56 67 57 68 71 70 92 71 59 72 43 73 44 74 52 75 45 76 51 77
REMARK SMILES IDX 53 78 50 79 46 80 47 81 48 82 49 83 75 84 76 85 84 86 77 87
REMARK SMILES IDX 83 88 85 89 82 90 78 91 79 92 80 93 81 94 60 95 61 96 69 97
REMARK SMILES IDX 62 98 68 99 70 100 67 101 63 102 64 103 65 104 66 105
REMARK H PARENT 9 17 26 32 31 39 90 58 58 69
REMARK Flexibility Score: inf
ROOT
ATOM      1  C   UNL A   1      40.107  26.743  28.377  1.00  0.00     0.018 A 
ATOM      2  C   UNL A   1      41.450  26.848  28.774  1.00  0.00     0.012 A 
ATOM      3  C   UNL A   1      42.373  25.823  28.533  1.00  0.00     0.005 A 
ATOM      4  C   UNL A   1      41.974  24.613  27.963  1.00  0.00    -0.033 A 
ATOM      5  C   UNL A   1      40.645  24.508  27.529  1.00  0.00     0.044 A 
ATOM      6  C   UNL A   1      39.746  25.561  27.713  1.00  0.00     0.131 A 
ATOM      7  F   UNL A   1      38.504  25.403  27.227  1.00  0.00    -0.206 F 
ENDROOT
BRANCH   1   8
ATOM      8  C   UNL A   1      39.142  27.821  28.686  1.00  0.00    -0.012 A 
ATOM      9  C   UNL A   1      37.640  28.954  30.230  1.00  0.00     0.133 A 
ATOM     10  C   UNL A   1      37.343  29.931  29.289  1.00  0.00     0.047 A 
ATOM     11  C   UNL A   1      38.521  27.909  29.943  1.00  0.00     0.056 A 
ATOM     12  C   UNL A   1      37.949  29.870  28.041  1.00  0.00     0.004 A 
ATOM     13  C   UNL A   1      38.829  28.822  27.742  1.00  0.00     0.009 A 
BRANCH   9  14
ATOM     14  O   UNL A   1      36.908  28.977  31.425  1.00  0.00    -0.410 OA
BRANCH  14  15
ATOM     15  C   UNL A   1      37.599  28.869  32.621  1.00  0.00     0.412 C 
ATOM     16  N   UNL A   1      37.879  30.087  33.174  1.00  0.00    -0.321 N 
ATOM     17  H   UNL A   1      38.408  30.087  34.005  1.00  0.00     0.167 HD
ATOM     18  O   UNL A   1      37.950  27.831  33.163  1.00  0.00    -0.224 OA
BRANCH  16  19
ATOM     19  C   UNL A   1      37.471  31.378  32.658  1.00  0.00     0.119 C 
BRANCH  19  20
ATOM     20  C   UNL A   1      38.653  32.160  32.085  1.00  0.00     0.021 C 
BRANCH  20  21
ATOM     21  C   UNL A   1      38.288  33.528  31.498  1.00  0.00     0.002 C 
BRANCH  21  22
ATOM     22  C   UNL A   1      37.018  33.549  30.642  1.00  0.00     0.000 C 
BRANCH  22  23
ATOM     23  C   UNL A   1      37.257  33.406  29.135  1.00  0.00    -0.000 C 
BRANCH  23  24
ATOM     24  C   UNL A   1      35.992  33.464  28.273  1.00  0.00    -0.000 C 
BRANCH  24  25
ATOM     25  C   UNL A   1      34.749  34.015  28.977  1.00  0.00    -0.003 C 
ATOM     26  C   UNL A   1      34.244  35.319  28.379  1.00  0.00     0.004 C 
ENDBRANCH  24  25
ENDBRANCH  23  24
ENDBRANCH  22  23
ENDBRANCH  21  22
ENDBRANCH  20  21
ENDBRANCH  19  20
ENDBRANCH  16  19
ENDBRANCH  14  15
ENDBRANCH   9  14
ENDBRANCH   1   8
BRANCH   4  27
ATOM     27  C   UNL A   1      42.896  23.410  27.842  1.00  0.00     0.105 C 
ATOM     28  C   UNL A   1      43.076  22.578  29.112  1.00  0.00     0.023 C 
BRANCH  27  29
ATOM     29  C   UNL A   1      42.654  22.574  26.574  1.00  0.00     0.227 C 
ATOM     30  O   UNL A   1      41.950  21.557  26.639  1.00  0.00    -0.274 OA
ATOM     31  N   UNL A   1      43.161  22.887  25.351  1.00  0.00    -0.356 N 
ATOM     32  H   UNL A   1      42.860  22.292  24.626  1.00  0.00     0.163 HD
BRANCH  31  33
ATOM     33  C   UNL A   1      44.061  23.937  24.922  1.00  0.00     0.116 C 
BRANCH  33  34
ATOM     34  C   UNL A   1      45.528  23.554  25.119  1.00  0.00     0.023 C 
BRANCH  34  35
ATOM     35  C   UNL A   1      46.147  24.034  26.430  1.00  0.00     0.023 C 
BRANCH  35  36
ATOM     36  C   UNL A   1      47.425  24.851  26.281  1.00  0.00     0.116 C 
BRANCH  36  37
ATOM     37  N   UNL A   1      47.536  25.551  25.008  1.00  0.00    -0.352 N 
ATOM     38  C   UNL A   1      47.060  26.803  24.688  1.00  0.00     0.251 C 
ATOM     39  H   UNL A   1      48.009  25.072  24.290  1.00  0.00     0.163 HD
ATOM     40  O   UNL A   1      47.154  27.227  23.540  1.00  0.00    -0.269 OA
BRANCH  38  41
ATOM     41  C   UNL A   1      46.393  27.599  25.740  1.00  0.00     0.039 A 
ATOM     42  C   UNL A   1      45.001  27.554  25.845  1.00  0.00     0.014 A 
ATOM     43  C   UNL A   1      47.151  28.311  26.672  1.00  0.00     0.014 A 
ATOM     44  C   UNL A   1      44.376  28.155  26.939  1.00  0.00     0.010 A 
ATOM     45  C   UNL A   1      46.535  28.832  27.804  1.00  0.00     0.010 A 
ATOM     46  C   UNL A   1      45.141  28.757  27.952  1.00  0.00    -0.014 A 
BRANCH  46  47
ATOM     47  C   UNL A   1      44.506  29.317  29.173  1.00  0.00     0.031 A 
ATOM     48  C   UNL A   1      44.049  30.751  29.188  1.00  0.00     0.074 A 
ATOM     49  C   UNL A   1      44.405  28.561  30.285  1.00  0.00     0.049 A 
ATOM     50  N   UNL A   1      43.551  31.452  30.173  1.00  0.00    -0.248 NA
ATOM     51  C   UNL A   1      44.208  31.505  27.935  1.00  0.00     0.031 C 
ATOM     52  C   UNL A   1      44.858  27.172  30.407  1.00  0.00     0.029 A 
ATOM     53  N   UNL A   1      43.899  28.852  31.527  1.00  0.00    -0.354 N 
ATOM     54  C   UNL A   1      43.351  32.731  29.665  1.00  0.00     0.074 A 
ATOM     55  C   UNL A   1      43.850  32.724  28.306  1.00  0.00     0.031 C 
ATOM     56  C   UNL A   1      44.580  26.726  31.643  1.00  0.00     0.029 A 
ATOM     57  C   UNL A   1      43.976  27.805  32.417  1.00  0.00     0.049 A 
ATOM     58  H   UNL A   1      43.516  29.729  31.760  1.00  0.00     0.167 HD
ATOM     59  C   UNL A   1      42.778  33.804  30.265  1.00  0.00     0.034 A 
ATOM     60  C   UNL A   1      43.611  27.728  33.713  1.00  0.00     0.034 A 
ATOM     61  C   UNL A   1      42.273  33.787  31.615  1.00  0.00     0.049 A 
ATOM     62  C   UNL A   1      42.997  28.940  34.367  1.00  0.00     0.074 A 
ATOM     63  C   UNL A   1      41.625  34.797  32.306  1.00  0.00     0.029 A 
ATOM     64  N   UNL A   1      42.364  32.707  32.485  1.00  0.00    -0.354 N 
ATOM     65  N   UNL A   1      42.765  30.128  33.855  1.00  0.00    -0.248 NA
ATOM     66  C   UNL A   1      42.584  28.799  35.769  1.00  0.00     0.031 C 
ATOM     67  C   UNL A   1      41.388  34.353  33.611  1.00  0.00     0.029 A 
ATOM     68  C   UNL A   1      41.813  33.037  33.715  1.00  0.00     0.049 A 
ATOM     69  H   UNL A   1      42.763  31.836  32.262  1.00  0.00     0.167 HD
ATOM     70  C   UNL A   1      42.148  30.862  34.864  1.00  0.00     0.074 A 
ATOM     71  C   UNL A   1      42.032  29.979  36.007  1.00  0.00     0.031 C 
ATOM     72  C   UNL A   1      41.712  32.148  34.849  1.00  0.00     0.034 A 
BRANCH  59  73
ATOM     73  C   UNL A   1      42.692  35.082  29.464  1.00  0.00     0.023 A 
ATOM     74  C   UNL A   1      43.755  36.002  29.426  1.00  0.00     0.031 A 
ATOM     75  C   UNL A   1      41.520  35.404  28.757  1.00  0.00     0.131 A 
ATOM     76  C   UNL A   1      43.596  37.231  28.770  1.00  0.00     0.055 A 
ATOM     77  C   UNL A   1      41.401  36.591  28.030  1.00  0.00     0.041 A 
ATOM     78  F   UNL A   1      40.463  34.578  28.772  1.00  0.00    -0.206 F 
ATOM     79  C   UNL A   1      42.437  37.521  28.048  1.00  0.00     0.022 A 
BRANCH  76  80
ATOM     80  S   UNL A   1      44.864  38.507  29.004  1.00  0.00     0.124 S 
ATOM     81  O   UNL A   1      44.359  39.583  28.154  1.00  0.00    -0.237 OA
ATOM     82  O   UNL A   1      44.808  38.748  30.441  1.00  0.00    -0.237 OA
ATOM     83  O   UNL A   1      46.088  37.867  28.525  1.00  0.00    -0.744 OA
ENDBRANCH  76  80
ENDBRANCH  59  73
BRANCH  60  84
ATOM     84  C   UNL A   1      43.817  26.468  34.486  1.00  0.00     0.023 A 
ATOM     85  C   UNL A   1      45.103  26.059  34.873  1.00  0.00     0.031 A 
ATOM     86  C   UNL A   1      42.735  25.630  34.809  1.00  0.00     0.131 A 
ATOM     87  C   UNL A   1      45.283  24.824  35.515  1.00  0.00     0.055 A 
ATOM     88  C   UNL A   1      42.912  24.428  35.498  1.00  0.00     0.041 A 
ATOM     89  F   UNL A   1      41.484  25.974  34.467  1.00  0.00    -0.206 F 
ATOM     90  C   UNL A   1      44.194  24.012  35.843  1.00  0.00     0.022 A 
BRANCH  87  91
ATOM     91  S   UNL A   1      46.973  24.248  35.836  1.00  0.00     0.124 S 
ATOM     92  O   UNL A   1      46.811  23.549  37.106  1.00  0.00    -0.237 OA
ATOM     93  O   UNL A   1      47.233  23.410  34.670  1.00  0.00    -0.237 OA
ATOM     94  O   UNL A   1      47.748  25.485  35.896  1.00  0.00    -0.744 OA
ENDBRANCH  87  91
ENDBRANCH  60  84
BRANCH  72  95
ATOM     95  C   UNL A   1      41.025  32.656  36.093  1.00  0.00     0.023 A 
ATOM     96  C   UNL A   1      39.813  32.109  36.547  1.00  0.00     0.031 A 
ATOM     97  C   UNL A   1      41.592  33.712  36.830  1.00  0.00     0.131 A 
ATOM     98  C   UNL A   1      39.178  32.656  37.672  1.00  0.00     0.055 A 
ATOM     99  C   UNL A   1      40.988  34.210  37.984  1.00  0.00     0.041 A 
ATOM    100  F   UNL A   1      42.747  34.275  36.440  1.00  0.00    -0.206 F 
ATOM    101  C   UNL A   1      39.767  33.691  38.404  1.00  0.00     0.022 A 
BRANCH  98 102
ATOM    102  S   UNL A   1      37.523  32.060  38.113  1.00  0.00     0.124 S 
ATOM    103  O   UNL A   1      37.628  31.918  39.562  1.00  0.00    -0.237 OA
ATOM    104  O   UNL A   1      36.665  33.141  37.638  1.00  0.00    -0.237 OA
ATOM    105  O   UNL A   1      37.403  30.804  37.374  1.00  0.00    -0.744 OA
ENDBRANCH  98 102
ENDBRANCH  72  95
ENDBRANCH  46  47
ENDBRANCH  38  41
ENDBRANCH  36  37
ENDBRANCH  35  36
ENDBRANCH  34  35
ENDBRANCH  33  34
ENDBRANCH  31  33
ENDBRANCH  27  29
ENDBRANCH   4  27
TORSDOF 25
ENDMDL
MODEL 2
REMARK VINA RESULT:      -8.5      3.235     10.325
REMARK SMILES CCCCCCCCNC(=O)Oc1cccc(-c2ccc([C@@H](C)C(=O)NCCCCNC(=O)c3ccc(-c4c5nc(c(-c6cc(S(=O)(=O)[O-])ccc6F)c6ccc([nH]6)c(-c6cc(S(=O)(=O)[O-])ccc6F)c6nc(c(-c7cc(S(=O)(=O)[O-])ccc7F)c7ccc4[nH]7)C=C6)C=C5)cc3)cc2F)c1
REMARK SMILES IDX 18 1 19 2 20 3 21 4 97 5 98 6 99 7 17 8 13 9 14 10 100 11
REMARK SMILES IDX 15 12 16 13 12 14 10 15 9 16 11 18 8 19 7 20 6 21 5 22 4 23
REMARK SMILES IDX 3 24 2 25 1 26 22 27 23 28 24 29 25 30 26 31 27 33 28 34
REMARK SMILES IDX 29 35 30 36 31 37 32 38 33 40 34 41 35 42 96 43 36 44 95 45
REMARK SMILES IDX 37 46 38 47 39 48 89 49 40 50 94 51 88 52 90 53 41 54 93 55
REMARK SMILES IDX 87 56 86 57 42 59 74 60 54 61 73 62 55 63 58 64 72 65 91 66
REMARK SMILES IDX 56 67 57 68 71 70 92 71 59 72 43 73 44 74 52 75 45 76 51 77
REMARK SMILES IDX 53 78 50 79 46 80 47 81 48 82 49 83 75 84 76 85 84 86 77 87
REMARK SMILES IDX 83 88 85 89 82 90 78 91 79 92 80 93 81 94 60 95 61 96 69 97
REMARK SMILES IDX 62 98 68 99 70 100 67 101 63 102 64 103 65 104 66 105
REMARK H PARENT 9 17 26 32 31 39 90 58 58 69
REMARK Flexibility Score: inf
ROOT
ATOM      1  C   UNL A   1      40.852  34.827  29.827  1.00  0.00     0.018 A 
ATOM      2  C   UNL A   1      39.519  34.497  29.530  1.00  0.00     0.012 A 
ATOM      3  C   UNL A   1      38.613  34.119  30.527  1.00  0.00     0.005 A 
ATOM      4  C   UNL A   1      39.021  33.971  31.854  1.00  0.00    -0.033 A 
ATOM      5  C   UNL A   1      40.338  34.331  32.171  1.00  0.00     0.044 A 
ATOM      6  C   UNL A   1      41.219  34.771  31.179  1.00  0.00     0.131 A 
ATOM      7  F   UNL A   1      42.449  35.143  31.569  1.00  0.00    -0.206 F 
ENDROOT
BRANCH   1   8
ATOM      8  C   UNL A   1      41.802  35.177  28.747  1.00  0.00    -0.012 A 
ATOM      9  C   UNL A   1      43.742  34.662  27.372  1.00  0.00     0.133 A 
ATOM     10  C   UNL A   1      43.577  35.826  26.631  1.00  0.00     0.047 A 
ATOM     11  C   UNL A   1      42.876  34.334  28.417  1.00  0.00     0.056 A 
ATOM     12  C   UNL A   1      42.518  36.672  26.935  1.00  0.00     0.004 A 
ATOM     13  C   UNL A   1      41.649  36.354  27.985  1.00  0.00     0.009 A 
BRANCH   9  14
ATOM     14  O   UNL A   1      44.896  33.907  27.121  1.00  0.00    -0.410 OA
BRANCH  14  15
ATOM     15  C   UNL A   1      45.123  33.463  25.828  1.00  0.00     0.412 C 
ATOM     16  N   UNL A   1      45.098  32.100  25.733  1.00  0.00    -0.321 N 
ATOM     17  H   UNL A   1      45.297  31.712  24.850  1.00  0.00     0.167 HD
ATOM     18  O   UNL A   1      45.335  34.164  24.849  1.00  0.00    -0.224 OA
BRANCH  16  19
ATOM     19  C   UNL A   1      44.807  31.170  26.805  1.00  0.00     0.119 C 
BRANCH  19  20
ATOM     20  C   UNL A   1      45.861  30.068  26.903  1.00  0.00     0.021 C 
BRANCH  20  21
ATOM     21  C   UNL A   1      46.906  30.281  28.004  1.00  0.00     0.002 C 
BRANCH  21  22
ATOM     22  C   UNL A   1      46.336  30.451  29.416  1.00  0.00     0.000 C 
BRANCH  22  23
ATOM     23  C   UNL A   1      46.154  31.905  29.866  1.00  0.00    -0.000 C 
BRANCH  23  24
ATOM     24  C   UNL A   1      47.351  32.505  30.609  1.00  0.00    -0.000 C 
BRANCH  24  25
ATOM     25  C   UNL A   1      47.911  31.643  31.744  1.00  0.00    -0.003 C 
ATOM     26  C   UNL A   1      49.162  30.870  31.353  1.00  0.00     0.004 C 
ENDBRANCH  24  25
ENDBRANCH  23  24
ENDBRANCH  22  23
ENDBRANCH  21  22
ENDBRANCH  20  21
ENDBRANCH  19  20
ENDBRANCH  16  19
ENDBRANCH  14  15
ENDBRANCH   9  14
ENDBRANCH   1   8
BRANCH   4  27
ATOM     27  C   UNL A   1      38.123  33.396  32.938  1.00  0.00     0.105 C 
ATOM     28  C   UNL A   1      38.767  32.359  33.858  1.00  0.00     0.023 C 
BRANCH  27  29
ATOM     29  C   UNL A   1      37.293  34.459  33.677  1.00  0.00     0.227 C 
ATOM     30  O   UNL A   1      37.725  34.947  34.730  1.00  0.00    -0.274 OA
ATOM     31  N   UNL A   1      36.092  34.926  33.237  1.00  0.00    -0.356 N 
ATOM     32  H   UNL A   1      35.718  35.654  33.784  1.00  0.00     0.163 HD
BRANCH  31  33
ATOM     33  C   UNL A   1      35.267  34.546  32.110  1.00  0.00     0.116 C 
BRANCH  33  34
ATOM     34  C   UNL A   1      34.591  33.190  32.323  1.00  0.00     0.023 C 
BRANCH  34  35
ATOM     35  C   UNL A   1      35.082  32.076  31.402  1.00  0.00     0.023 C 
BRANCH  35  36
ATOM     36  C   UNL A   1      35.380  32.504  29.970  1.00  0.00     0.116 C 
BRANCH  36  37
ATOM     37  N   UNL A   1      34.536  31.862  28.971  1.00  0.00    -0.352 N 
ATOM     38  C   UNL A   1      34.820  30.748  28.214  1.00  0.00     0.251 C 
ATOM     39  H   UNL A   1      33.655  32.274  28.820  1.00  0.00     0.163 HD
ATOM     40  O   UNL A   1      34.040  30.373  27.344  1.00  0.00    -0.269 OA
BRANCH  38  41
ATOM     41  C   UNL A   1      36.102  30.047  28.436  1.00  0.00     0.039 A 
ATOM     42  C   UNL A   1      37.148  30.242  27.531  1.00  0.00     0.014 A 
ATOM     43  C   UNL A   1      36.294  29.276  29.586  1.00  0.00     0.014 A 
ATOM     44  C   UNL A   1      38.413  29.730  27.825  1.00  0.00     0.010 A 
ATOM     45  C   UNL A   1      37.573  28.845  29.918  1.00  0.00     0.010 A 
ATOM     46  C   UNL A   1      38.648  29.069  29.043  1.00  0.00    -0.014 A 
BRANCH  46  47
ATOM     47  C   UNL A   1      40.007  28.603  29.423  1.00  0.00     0.031 A 
ATOM     48  C   UNL A   1      40.769  29.321  30.503  1.00  0.00     0.074 A 
ATOM     49  C   UNL A   1      40.579  27.584  28.750  1.00  0.00     0.049 A 
ATOM     50  N   UNL A   1      41.993  29.127  30.923  1.00  0.00    -0.248 NA
ATOM     51  C   UNL A   1      40.073  30.429  31.174  1.00  0.00     0.031 C 
ATOM     52  C   UNL A   1      39.957  26.841  27.651  1.00  0.00     0.029 A 
ATOM     53  N   UNL A   1      41.814  27.000  28.885  1.00  0.00    -0.354 N 
ATOM     54  C   UNL A   1      42.217  30.096  31.895  1.00  0.00     0.074 A 
ATOM     55  C   UNL A   1      41.027  30.919  31.949  1.00  0.00     0.031 C 
ATOM     56  C   UNL A   1      40.801  25.883  27.234  1.00  0.00     0.029 A 
ATOM     57  C   UNL A   1      42.040  25.971  27.999  1.00  0.00     0.049 A 
ATOM     58  H   UNL A   1      42.476  27.289  29.553  1.00  0.00     0.167 HD
ATOM     59  C   UNL A   1      43.302  30.265  32.691  1.00  0.00     0.034 A 
ATOM     60  C   UNL A   1      43.128  25.194  27.817  1.00  0.00     0.034 A 
ATOM     61  C   UNL A   1      44.473  29.425  32.634  1.00  0.00     0.049 A 
ATOM     62  C   UNL A   1      44.332  25.415  28.698  1.00  0.00     0.074 A 
ATOM     63  C   UNL A   1      45.607  29.470  33.426  1.00  0.00     0.029 A 
ATOM     64  N   UNL A   1      44.665  28.390  31.726  1.00  0.00    -0.354 N 
ATOM     65  N   UNL A   1      44.508  26.302  29.652  1.00  0.00    -0.248 NA
ATOM     66  C   UNL A   1      45.479  24.524  28.487  1.00  0.00     0.031 C 
ATOM     67  C   UNL A   1      46.509  28.512  32.955  1.00  0.00     0.029 A 
ATOM     68  C   UNL A   1      45.910  27.811  31.920  1.00  0.00     0.049 A 
ATOM     69  H   UNL A   1      44.013  28.110  31.045  1.00  0.00     0.167 HD
ATOM     70  C   UNL A   1      45.773  26.050  30.175  1.00  0.00     0.074 A 
ATOM     71  C   UNL A   1      46.308  24.921  29.442  1.00  0.00     0.031 C 
ATOM     72  C   UNL A   1      46.433  26.690  31.174  1.00  0.00     0.034 A 
BRANCH  59  73
ATOM     73  C   UNL A   1      43.271  31.415  33.670  1.00  0.00     0.023 A 
ATOM     74  C   UNL A   1      42.779  31.258  34.979  1.00  0.00     0.031 A 
ATOM     75  C   UNL A   1      43.707  32.695  33.284  1.00  0.00     0.131 A 
ATOM     76  C   UNL A   1      42.655  32.372  35.821  1.00  0.00     0.055 A 
ATOM     77  C   UNL A   1      43.665  33.783  34.158  1.00  0.00     0.041 A 
ATOM     78  F   UNL A   1      44.168  32.914  32.042  1.00  0.00    -0.206 F 
ATOM     79  C   UNL A   1      43.121  33.629  35.430  1.00  0.00     0.022 A 
BRANCH  76  80
ATOM     80  S   UNL A   1      41.736  32.186  37.374  1.00  0.00     0.124 S 
ATOM     81  O   UNL A   1      41.798  33.540  37.917  1.00  0.00    -0.237 OA
ATOM     82  O   UNL A   1      40.425  31.742  36.913  1.00  0.00    -0.237 OA
ATOM     83  O   UNL A   1      42.508  31.189  38.112  1.00  0.00    -0.744 OA
ENDBRANCH  76  80
ENDBRANCH  59  73
BRANCH  60  84
ATOM     84  C   UNL A   1      43.140  24.140  26.761  1.00  0.00     0.023 A 
ATOM     85  C   UNL A   1      42.482  22.915  26.954  1.00  0.00     0.031 A 
ATOM     86  C   UNL A   1      43.849  24.324  25.560  1.00  0.00     0.131 A 
ATOM     87  C   UNL A   1      42.588  21.902  25.988  1.00  0.00     0.055 A 
ATOM     88  C   UNL A   1      43.905  23.335  24.577  1.00  0.00     0.041 A 
ATOM     89  F   UNL A   1      44.493  25.477  25.322  1.00  0.00    -0.206 F 
ATOM     90  C   UNL A   1      43.283  22.109  24.794  1.00  0.00     0.022 A 
BRANCH  87  91
ATOM     91  S   UNL A   1      41.878  20.273  26.354  1.00  0.00     0.124 S 
ATOM     92  O   UNL A   1      42.336  19.488  25.214  1.00  0.00    -0.237 OA
ATOM     93  O   UNL A   1      42.491  19.958  27.640  1.00  0.00    -0.237 OA
ATOM     94  O   UNL A   1      40.440  20.531  26.399  1.00  0.00    -0.744 OA
ENDBRANCH  87  91
ENDBRANCH  60  84
BRANCH  72  95
ATOM     95  C   UNL A   1      47.788  26.147  31.561  1.00  0.00     0.023 A 
ATOM     96  C   UNL A   1      47.955  25.280  32.655  1.00  0.00     0.031 A 
ATOM     97  C   UNL A   1      48.929  26.513  30.826  1.00  0.00     0.131 A 
ATOM     98  C   UNL A   1      49.241  24.852  33.016  1.00  0.00     0.055 A 
ATOM     99  C   UNL A   1      50.198  26.033  31.151  1.00  0.00     0.041 A 
ATOM    100  F   UNL A   1      48.829  27.341  29.774  1.00  0.00    -0.206 F 
ATOM    101  C   UNL A   1      50.361  25.208  32.260  1.00  0.00     0.022 A 
BRANCH  98 102
ATOM    102  S   UNL A   1      49.443  23.898  34.545  1.00  0.00     0.124 S 
ATOM    103  O   UNL A   1      50.774  24.307  34.983  1.00  0.00    -0.237 OA
ATOM    104  O   UNL A   1      48.329  24.372  35.359  1.00  0.00    -0.237 OA
ATOM    105  O   UNL A   1      49.337  22.509  34.098  1.00  0.00    -0.744 OA
ENDBRANCH  98 102
ENDBRANCH  72  95
ENDBRANCH  46  47
ENDBRANCH  38  41
ENDBRANCH  36  37
ENDBRANCH  35  36
ENDBRANCH  34  35
ENDBRANCH  33  34
ENDBRANCH  31  33
ENDBRANCH  27  29
ENDBRANCH   4  27
TORSDOF 25
ENDMDL
MODEL 3
REMARK VINA RESULT:      -8.2      3.125     10.351
REMARK SMILES CCCCCCCCNC(=O)Oc1cccc(-c2ccc([C@@H](C)C(=O)NCCCCNC(=O)c3ccc(-c4c5nc(c(-c6cc(S(=O)(=O)[O-])ccc6F)c6ccc([nH]6)c(-c6cc(S(=O)(=O)[O-])ccc6F)c6nc(c(-c7cc(S(=O)(=O)[O-])ccc7F)c7ccc4[nH]7)C=C6)C=C5)cc3)cc2F)c1
REMARK SMILES IDX 18 1 19 2 20 3 21 4 97 5 98 6 99 7 17 8 13 9 14 10 100 11
REMARK SMILES IDX 15 12 16 13 12 14 10 15 9 16 11 18 8 19 7 20 6 21 5 22 4 23
REMARK SMILES IDX 3 24 2 25 1 26 22 27 23 28 24 29 25 30 26 31 27 33 28 34
REMARK SMILES IDX 29 35 30 36 31 37 32 38 33 40 34 41 35 42 96 43 36 44 95 45
REMARK SMILES IDX 37 46 38 47 39 48 89 49 40 50 94 51 88 52 90 53 41 54 93 55
REMARK SMILES IDX 87 56 86 57 42 59 74 60 54 61 73 62 55 63 58 64 72 65 91 66
REMARK SMILES IDX 56 67 57 68 71 70 92 71 59 72 43 73 44 74 52 75 45 76 51 77
REMARK SMILES IDX 53 78 50 79 46 80 47 81 48 82 49 83 75 84 76 85 84 86 77 87
REMARK SMILES IDX 83 88 85 89 82 90 78 91 79 92 80 93 81 94 60 95 61 96 69 97
REMARK SMILES IDX 62 98 68 99 70 100 67 101 63 102 64 103 65 104 66 105
REMARK H PARENT 9 17 26 32 31 39 90 58 58 69
REMARK Flexibility Score: inf
ROOT
ATOM      1  C   UNL A   1      40.771  34.813  29.926  1.00  0.00     0.018 A 
ATOM      2  C   UNL A   1      39.387  34.831  29.689  1.00  0.00     0.012 A 
ATOM      3  C   UNL A   1      38.463  34.489  30.684  1.00  0.00     0.005 A 
ATOM      4  C   UNL A   1      38.886  34.032  31.934  1.00  0.00    -0.033 A 
ATOM      5  C   UNL A   1      40.263  34.044  32.196  1.00  0.00     0.044 A 
ATOM      6  C   UNL A   1      41.176  34.449  31.219  1.00  0.00     0.131 A 
ATOM      7  F   UNL A   1      42.473  34.479  31.562  1.00  0.00    -0.206 F 
ENDROOT
BRANCH   1   8
ATOM      8  C   UNL A   1      41.726  35.133  28.842  1.00  0.00    -0.012 A 
ATOM      9  C   UNL A   1      43.649  34.561  27.464  1.00  0.00     0.133 A 
ATOM     10  C   UNL A   1      43.512  35.725  26.718  1.00  0.00     0.047 A 
ATOM     11  C   UNL A   1      42.778  34.261  28.513  1.00  0.00     0.056 A 
ATOM     12  C   UNL A   1      42.476  36.600  27.020  1.00  0.00     0.004 A 
ATOM     13  C   UNL A   1      41.602  36.311  28.074  1.00  0.00     0.009 A 
BRANCH   9  14
ATOM     14  O   UNL A   1      44.782  33.776  27.214  1.00  0.00    -0.410 OA
BRANCH  14  15
ATOM     15  C   UNL A   1      44.923  33.207  25.959  1.00  0.00     0.412 C 
ATOM     16  N   UNL A   1      44.687  31.861  25.966  1.00  0.00    -0.321 N 
ATOM     17  H   UNL A   1      44.813  31.382  25.115  1.00  0.00     0.167 HD
ATOM     18  O   UNL A   1      45.231  33.791  24.929  1.00  0.00    -0.224 OA
BRANCH  16  19
ATOM     19  C   UNL A   1      44.267  31.069  27.105  1.00  0.00     0.119 C 
BRANCH  19  20
ATOM     20  C   UNL A   1      44.580  29.586  26.913  1.00  0.00     0.021 C 
BRANCH  20  21
ATOM     21  C   UNL A   1      46.035  29.285  26.533  1.00  0.00     0.002 C 
BRANCH  21  22
ATOM     22  C   UNL A   1      46.937  28.871  27.700  1.00  0.00     0.000 C 
BRANCH  22  23
ATOM     23  C   UNL A   1      46.470  27.628  28.465  1.00  0.00    -0.000 C 
BRANCH  23  24
ATOM     24  C   UNL A   1      47.093  26.310  27.997  1.00  0.00    -0.000 C 
BRANCH  24  25
ATOM     25  C   UNL A   1      48.369  25.895  28.735  1.00  0.00    -0.003 C 
ATOM     26  C   UNL A   1      49.644  26.322  28.024  1.00  0.00     0.004 C 
ENDBRANCH  24  25
ENDBRANCH  23  24
ENDBRANCH  22  23
ENDBRANCH  21  22
ENDBRANCH  20  21
ENDBRANCH  19  20
ENDBRANCH  16  19
ENDBRANCH  14  15
ENDBRANCH   9  14
ENDBRANCH   1   8
BRANCH   4  27
ATOM     27  C   UNL A   1      37.931  33.485  32.983  1.00  0.00     0.105 C 
ATOM     28  C   UNL A   1      38.539  32.518  33.999  1.00  0.00     0.023 C 
BRANCH  27  29
ATOM     29  C   UNL A   1      37.020  34.556  33.604  1.00  0.00     0.227 C 
ATOM     30  O   UNL A   1      37.302  35.029  34.712  1.00  0.00    -0.274 OA
ATOM     31  N   UNL A   1      35.903  35.046  33.000  1.00  0.00    -0.356 N 
ATOM     32  H   UNL A   1      35.464  35.776  33.494  1.00  0.00     0.163 HD
BRANCH  31  33
ATOM     33  C   UNL A   1      35.242  34.687  31.762  1.00  0.00     0.116 C 
BRANCH  33  34
ATOM     34  C   UNL A   1      34.601  33.301  31.833  1.00  0.00     0.023 C 
BRANCH  34  35
ATOM     35  C   UNL A   1      35.092  32.310  30.779  1.00  0.00     0.023 C 
BRANCH  35  36
ATOM     36  C   UNL A   1      35.286  32.892  29.384  1.00  0.00     0.116 C 
BRANCH  36  37
ATOM     37  N   UNL A   1      34.468  32.260  28.359  1.00  0.00    -0.352 N 
ATOM     38  C   UNL A   1      34.699  31.069  27.707  1.00  0.00     0.251 C 
ATOM     39  H   UNL A   1      33.648  32.741  28.101  1.00  0.00     0.163 HD
ATOM     40  O   UNL A   1      33.961  30.705  26.798  1.00  0.00    -0.269 OA
BRANCH  38  41
ATOM     41  C   UNL A   1      35.881  30.268  28.092  1.00  0.00     0.039 A 
ATOM     42  C   UNL A   1      37.073  30.434  27.384  1.00  0.00     0.014 A 
ATOM     43  C   UNL A   1      35.830  29.428  29.207  1.00  0.00     0.014 A 
ATOM     44  C   UNL A   1      38.237  29.819  27.848  1.00  0.00     0.010 A 
ATOM     45  C   UNL A   1      37.007  28.890  29.716  1.00  0.00     0.010 A 
ATOM     46  C   UNL A   1      38.224  29.082  29.044  1.00  0.00    -0.014 A 
BRANCH  46  47
ATOM     47  C   UNL A   1      39.469  28.502  29.610  1.00  0.00     0.031 A 
ATOM     48  C   UNL A   1      40.109  29.136  30.816  1.00  0.00     0.074 A 
ATOM     49  C   UNL A   1      40.059  27.453  29.000  1.00  0.00     0.049 A 
ATOM     50  N   UNL A   1      41.235  28.836  31.410  1.00  0.00    -0.248 NA
ATOM     51  C   UNL A   1      39.403  30.281  31.409  1.00  0.00     0.031 C 
ATOM     52  C   UNL A   1      39.560  26.785  27.796  1.00  0.00     0.029 A 
ATOM     53  N   UNL A   1      41.211  26.771  29.302  1.00  0.00    -0.354 N 
ATOM     54  C   UNL A   1      41.380  29.765  32.436  1.00  0.00     0.074 A 
ATOM     55  C   UNL A   1      40.262  30.679  32.334  1.00  0.00     0.031 C 
ATOM     56  C   UNL A   1      40.383  25.771  27.482  1.00  0.00     0.029 A 
ATOM     57  C   UNL A   1      41.492  25.744  28.429  1.00  0.00     0.049 A 
ATOM     58  H   UNL A   1      41.783  26.993  30.072  1.00  0.00     0.167 HD
ATOM     59  C   UNL A   1      42.340  29.831  33.392  1.00  0.00     0.034 A 
ATOM     60  C   UNL A   1      42.533  24.887  28.390  1.00  0.00     0.034 A 
ATOM     61  C   UNL A   1      43.438  28.902  33.486  1.00  0.00     0.049 A 
ATOM     62  C   UNL A   1      43.601  24.994  29.450  1.00  0.00     0.074 A 
ATOM     63  C   UNL A   1      44.437  28.841  34.443  1.00  0.00     0.029 A 
ATOM     64  N   UNL A   1      43.688  27.873  32.586  1.00  0.00    -0.354 N 
ATOM     65  N   UNL A   1      43.694  25.846  30.446  1.00  0.00    -0.248 NA
ATOM     66  C   UNL A   1      44.696  24.019  29.387  1.00  0.00     0.031 C 
ATOM     67  C   UNL A   1      45.326  27.823  34.084  1.00  0.00     0.029 A 
ATOM     68  C   UNL A   1      44.842  27.193  32.948  1.00  0.00     0.049 A 
ATOM     69  H   UNL A   1      43.129  27.659  31.805  1.00  0.00     0.167 HD
ATOM     70  C   UNL A   1      44.842  25.484  31.147  1.00  0.00     0.074 A 
ATOM     71  C   UNL A   1      45.396  24.330  30.468  1.00  0.00     0.031 C 
ATOM     72  C   UNL A   1      45.387  26.049  32.255  1.00  0.00     0.034 A 
BRANCH  59  73
ATOM     73  C   UNL A   1      42.246  30.960  34.391  1.00  0.00     0.023 A 
ATOM     74  C   UNL A   1      42.860  32.205  34.160  1.00  0.00     0.031 A 
ATOM     75  C   UNL A   1      41.562  30.783  35.607  1.00  0.00     0.131 A 
ATOM     76  C   UNL A   1      42.852  33.188  35.159  1.00  0.00     0.055 A 
ATOM     77  C   UNL A   1      41.481  31.800  36.562  1.00  0.00     0.041 A 
ATOM     78  F   UNL A   1      40.973  29.612  35.896  1.00  0.00    -0.206 F 
ATOM     79  C   UNL A   1      42.143  33.005  36.348  1.00  0.00     0.022 A 
BRANCH  76  80
ATOM     80  S   UNL A   1      43.910  34.646  34.947  1.00  0.00     0.124 S 
ATOM     81  O   UNL A   1      44.975  34.115  34.099  1.00  0.00    -0.237 OA
ATOM     82  O   UNL A   1      43.008  35.602  34.316  1.00  0.00    -0.237 OA
ATOM     83  O   UNL A   1      44.316  34.977  36.311  1.00  0.00    -0.744 OA
ENDBRANCH  76  80
ENDBRANCH  59  73
BRANCH  60  84
ATOM     84  C   UNL A   1      42.628  23.857  27.314  1.00  0.00     0.023 A 
ATOM     85  C   UNL A   1      41.839  22.696  27.354  1.00  0.00     0.031 A 
ATOM     86  C   UNL A   1      43.543  23.995  26.255  1.00  0.00     0.131 A 
ATOM     87  C   UNL A   1      42.014  21.696  26.385  1.00  0.00     0.055 A 
ATOM     88  C   UNL A   1      43.673  23.024  25.261  1.00  0.00     0.041 A 
ATOM     89  F   UNL A   1      44.319  25.086  26.167  1.00  0.00    -0.206 F 
ATOM     90  C   UNL A   1      42.916  21.858  25.330  1.00  0.00     0.022 A 
BRANCH  87  91
ATOM     91  S   UNL A   1      41.109  20.135  26.572  1.00  0.00     0.124 S 
ATOM     92  O   UNL A   1      39.827  20.461  25.957  1.00  0.00    -0.237 OA
ATOM     93  O   UNL A   1      41.957  19.203  25.837  1.00  0.00    -0.237 OA
ATOM     94  O   UNL A   1      41.074  19.934  28.019  1.00  0.00    -0.744 OA
ENDBRANCH  87  91
ENDBRANCH  60  84
BRANCH  72  95
ATOM     95  C   UNL A   1      46.621  25.392  32.826  1.00  0.00     0.023 A 
ATOM     96  C   UNL A   1      47.911  25.712  32.368  1.00  0.00     0.031 A 
ATOM     97  C   UNL A   1      46.499  24.424  33.838  1.00  0.00     0.131 A 
ATOM     98  C   UNL A   1      49.023  25.030  32.884  1.00  0.00     0.055 A 
ATOM     99  C   UNL A   1      47.614  23.794  34.391  1.00  0.00     0.041 A 
ATOM    100  F   UNL A   1      45.290  24.077  34.311  1.00  0.00    -0.206 F 
ATOM    101  C   UNL A   1      48.884  24.086  33.905  1.00  0.00     0.022 A 
BRANCH  98 102
ATOM    102  S   UNL A   1      50.648  25.323  32.134  1.00  0.00     0.124 S 
ATOM    103  O   UNL A   1      50.472  26.642  31.535  1.00  0.00    -0.237 OA
ATOM    104  O   UNL A   1      51.540  25.259  33.287  1.00  0.00    -0.237 OA
ATOM    105  O   UNL A   1      50.789  24.223  31.180  1.00  0.00    -0.744 OA
ENDBRANCH  98 102
ENDBRANCH  72  95
ENDBRANCH  46  47
ENDBRANCH  38  41
ENDBRANCH  36  37
ENDBRANCH  35  36
ENDBRANCH  34  35
ENDBRANCH  33  34
ENDBRANCH  31  33
ENDBRANCH  27  29
ENDBRANCH   4  27
TORSDOF 25
ENDMDL
