MODEL 1
REMARK VINA RESULT:     -10.7      0.000      0.000
REMARK SMILES CC[C@](C)(NC(=O)NC[C@@H](C)[NH+](C)C)C(=O)NCCCCNC(=O)c1ccc(-c2c3nc(c(-c4cc(S(=O)(=O)[O-])ccc4F)c4ccc([nH]4)c(-c4cc(S(=O)(=O)[O-])ccc4F)c4nc(c(-c5cc(S(=O)(=O)[O-])ccc5F)c5ccc2[nH]5)C=C4)C=C3)cc1
REMARK SMILES IDX 19 1 18 2 17 3 15 4 16 5 3 7 4 8 2 9 1 10 5 11 6 12 7 14
REMARK SMILES IDX 8 15 9 17 10 18 11 19 12 20 13 21 14 22 20 24 21 25 22 26
REMARK SMILES IDX 23 27 24 29 25 30 26 31 87 32 27 33 86 34 28 35 29 36 30 37
REMARK SMILES IDX 80 38 31 39 85 40 79 41 81 42 32 43 84 44 78 45 77 46 33 48
REMARK SMILES IDX 65 49 45 50 64 51 46 52 49 53 63 54 82 55 47 56 48 57 62 59
REMARK SMILES IDX 83 60 50 61 34 62 35 63 43 64 36 65 42 66 44 67 41 68 37 69
REMARK SMILES IDX 38 70 39 71 40 72 66 73 67 74 75 75 68 76 74 77 76 78 73 79
REMARK SMILES IDX 69 80 70 81 71 82 72 83 51 84 52 85 60 86 53 87 59 88 61 89
REMARK SMILES IDX 58 90 54 91 55 92 56 93 57 94
REMARK H PARENT 17 6 5 13 8 16 12 23 22 28 81 47 49 58
REMARK Flexibility Score: inf
ROOT
ATOM      1  C   UNL A   1      36.245  22.958  23.435  1.00  0.00     0.023 C 
ENDROOT
BRANCH   1   2
ATOM      2  C   UNL A   1      34.968  23.628  23.957  1.00  0.00     0.116 C 
BRANCH   2   3
ATOM      3  N   UNL A   1      33.671  23.263  23.405  1.00  0.00    -0.354 N 
ATOM      4  C   UNL A   1      32.527  22.757  23.968  1.00  0.00     0.245 C 
ATOM      5  O   UNL A   1      31.457  23.089  23.444  1.00  0.00    -0.272 OA
ATOM      6  H   UNL A   1      33.601  23.408  22.433  1.00  0.00     0.163 HD
BRANCH   4   7
ATOM      7  C   UNL A   1      32.525  21.940  25.289  1.00  0.00     0.117 C 
ATOM      8  C   UNL A   1      33.763  22.174  26.180  1.00  0.00     0.045 C 
BRANCH   7   9
ATOM      9  C   UNL A   1      32.521  20.430  24.868  1.00  0.00     0.035 C 
ATOM     10  C   UNL A   1      33.898  19.766  24.788  1.00  0.00     0.007 C 
ENDBRANCH   7   9
BRANCH   7  11
ATOM     11  N   UNL A   1      31.320  22.248  26.076  1.00  0.00    -0.324 N 
ATOM     12  C   UNL A   1      30.909  23.283  26.816  1.00  0.00     0.315 C 
ATOM     13  H   UNL A   1      30.660  21.518  26.053  1.00  0.00     0.166 HD
ATOM     14  O   UNL A   1      29.917  23.087  27.526  1.00  0.00    -0.249 OA
ATOM     15  N   UNL A   1      31.434  24.511  26.836  1.00  0.00    -0.332 N 
ATOM     16  H   UNL A   1      30.917  25.106  27.425  1.00  0.00     0.165 HD
BRANCH  15  17
ATOM     17  C   UNL A   1      32.562  25.222  26.229  1.00  0.00     0.182 C 
BRANCH  17  18
ATOM     18  C   UNL A   1      32.270  26.707  25.856  1.00  0.00     0.200 C 
ATOM     19  C   UNL A   1      30.833  26.888  25.351  1.00  0.00     0.077 C 
BRANCH  18  20
ATOM     20  N   UNL A   1      32.660  27.636  26.937  1.00  0.00    -0.336 N 
ATOM     21  C   UNL A   1      33.711  28.576  26.559  1.00  0.00     0.332 C 
ATOM     22  C   UNL A   1      31.555  28.328  27.588  1.00  0.00     0.332 C 
ATOM     23  H   UNL A   1      33.049  27.004  27.636  1.00  0.00     0.347 HD
ENDBRANCH  18  20
ENDBRANCH  17  18
ENDBRANCH  15  17
ENDBRANCH   7  11
ENDBRANCH   4   7
ENDBRANCH   2   3
ENDBRANCH   1   2
BRANCH   1  24
ATOM     24  C   UNL A   1      36.982  21.934  24.300  1.00  0.00     0.023 C 
BRANCH  24  25
ATOM     25  C   UNL A   1      37.588  22.451  25.597  1.00  0.00     0.116 C 
BRANCH  25  26
ATOM     26  N   UNL A   1      38.601  21.549  26.114  1.00  0.00    -0.352 N 
ATOM     27  C   UNL A   1      39.830  21.831  26.656  1.00  0.00     0.251 C 
ATOM     28  H   UNL A   1      38.373  20.593  26.069  1.00  0.00     0.163 HD
ATOM     29  O   UNL A   1      40.626  20.907  26.830  1.00  0.00    -0.269 OA
BRANCH  27  30
ATOM     30  C   UNL A   1      40.219  23.216  27.016  1.00  0.00     0.039 A 
ATOM     31  C   UNL A   1      40.921  23.426  28.207  1.00  0.00     0.014 A 
ATOM     32  C   UNL A   1      39.842  24.313  26.234  1.00  0.00     0.014 A 
ATOM     33  C   UNL A   1      41.273  24.723  28.599  1.00  0.00     0.010 A 
ATOM     34  C   UNL A   1      40.239  25.603  26.599  1.00  0.00     0.010 A 
ATOM     35  C   UNL A   1      40.950  25.823  27.790  1.00  0.00    -0.014 A 
BRANCH  35  36
ATOM     36  C   UNL A   1      41.326  27.207  28.194  1.00  0.00     0.031 A 
ATOM     37  C   UNL A   1      42.771  27.633  28.184  1.00  0.00     0.074 A 
ATOM     38  C   UNL A   1      40.375  28.067  28.607  1.00  0.00     0.049 A 
ATOM     39  N   UNL A   1      43.302  28.772  28.551  1.00  0.00    -0.248 NA
ATOM     40  C   UNL A   1      43.747  26.637  27.720  1.00  0.00     0.031 C 
ATOM     41  C   UNL A   1      38.944  27.770  28.684  1.00  0.00     0.029 A 
ATOM     42  N   UNL A   1      40.468  29.366  29.046  1.00  0.00    -0.354 N 
ATOM     43  C   UNL A   1      44.675  28.626  28.377  1.00  0.00     0.074 A 
ATOM     44  C   UNL A   1      44.895  27.270  27.920  1.00  0.00     0.031 C 
ATOM     45  C   UNL A   1      38.292  28.858  29.125  1.00  0.00     0.029 A 
ATOM     46  C   UNL A   1      39.259  29.917  29.400  1.00  0.00     0.049 A 
ATOM     47  H   UNL A   1      41.320  29.855  29.101  1.00  0.00     0.167 HD
ATOM     48  C   UNL A   1      45.659  29.543  28.563  1.00  0.00     0.034 A 
ATOM     49  C   UNL A   1      38.962  31.134  29.901  1.00  0.00     0.034 A 
ATOM     50  C   UNL A   1      45.426  30.898  29.005  1.00  0.00     0.049 A 
ATOM     51  C   UNL A   1      40.074  32.126  30.126  1.00  0.00     0.074 A 
ATOM     52  C   UNL A   1      46.343  31.923  29.166  1.00  0.00     0.029 A 
ATOM     53  N   UNL A   1      44.188  31.417  29.363  1.00  0.00    -0.354 N 
ATOM     54  N   UNL A   1      41.362  31.987  29.912  1.00  0.00    -0.248 NA
ATOM     55  C   UNL A   1      39.690  33.444  30.650  1.00  0.00     0.031 C 
ATOM     56  C   UNL A   1      45.673  33.037  29.684  1.00  0.00     0.029 A 
ATOM     57  C   UNL A   1      44.325  32.735  29.777  1.00  0.00     0.049 A 
ATOM     58  H   UNL A   1      43.338  30.923  29.329  1.00  0.00     0.167 HD
ATOM     59  C   UNL A   1      41.936  33.211  30.246  1.00  0.00     0.074 A 
ATOM     60  C   UNL A   1      40.853  34.078  30.664  1.00  0.00     0.031 C 
ATOM     61  C   UNL A   1      43.240  33.587  30.205  1.00  0.00     0.034 A 
BRANCH  48  62
ATOM     62  C   UNL A   1      47.081  29.096  28.319  1.00  0.00     0.023 A 
ATOM     63  C   UNL A   1      47.575  28.870  27.022  1.00  0.00     0.031 A 
ATOM     64  C   UNL A   1      47.950  28.868  29.401  1.00  0.00     0.131 A 
ATOM     65  C   UNL A   1      48.870  28.359  26.844  1.00  0.00     0.055 A 
ATOM     66  C   UNL A   1      49.265  28.437  29.213  1.00  0.00     0.041 A 
ATOM     67  F   UNL A   1      47.532  29.048  30.664  1.00  0.00    -0.206 F 
ATOM     68  C   UNL A   1      49.727  28.165  27.929  1.00  0.00     0.022 A 
BRANCH  65  69
ATOM     69  S   UNL A   1      49.366  27.816  25.186  1.00  0.00     0.124 S 
ATOM     70  O   UNL A   1      48.155  28.084  24.414  1.00  0.00    -0.237 OA
ATOM     71  O   UNL A   1      50.510  28.677  24.901  1.00  0.00    -0.237 OA
ATOM     72  O   UNL A   1      49.681  26.401  25.369  1.00  0.00    -0.744 OA
ENDBRANCH  65  69
ENDBRANCH  48  62
BRANCH  49  73
ATOM     73  C   UNL A   1      37.553  31.487  30.239  1.00  0.00     0.023 A 
ATOM     74  C   UNL A   1      36.677  31.977  29.259  1.00  0.00     0.031 A 
ATOM     75  C   UNL A   1      37.077  31.379  31.558  1.00  0.00     0.131 A 
ATOM     76  C   UNL A   1      35.383  32.384  29.619  1.00  0.00     0.055 A 
ATOM     77  C   UNL A   1      35.772  31.738  31.901  1.00  0.00     0.041 A 
ATOM     78  F   UNL A   1      37.873  30.911  32.532  1.00  0.00    -0.206 F 
ATOM     79  C   UNL A   1      34.921  32.257  30.931  1.00  0.00     0.022 A 
BRANCH  76  80
ATOM     80  S   UNL A   1      34.335  33.160  28.358  1.00  0.00     0.124 S 
ATOM     81  O   UNL A   1      33.630  32.009  27.806  1.00  0.00    -0.237 OA
ATOM     82  O   UNL A   1      33.533  34.080  29.158  1.00  0.00    -0.237 OA
ATOM     83  O   UNL A   1      35.296  33.795  27.459  1.00  0.00    -0.744 OA
ENDBRANCH  76  80
ENDBRANCH  49  73
BRANCH  61  84
ATOM     84  C   UNL A   1      43.554  35.014  30.581  1.00  0.00     0.023 A 
ATOM     85  C   UNL A   1      43.598  35.434  31.923  1.00  0.00     0.031 A 
ATOM     86  C   UNL A   1      43.795  35.971  29.580  1.00  0.00     0.131 A 
ATOM     87  C   UNL A   1      43.824  36.785  32.224  1.00  0.00     0.055 A 
ATOM     88  C   UNL A   1      44.077  37.302  29.887  1.00  0.00     0.041 A 
ATOM     89  F   UNL A   1      43.764  35.625  28.283  1.00  0.00    -0.206 F 
ATOM     90  C   UNL A   1      44.079  37.720  31.216  1.00  0.00     0.022 A 
BRANCH  87  91
ATOM     91  S   UNL A   1      43.696  37.328  33.951  1.00  0.00     0.124 S 
ATOM     92  O   UNL A   1      42.632  36.469  34.460  1.00  0.00    -0.237 OA
ATOM     93  O   UNL A   1      45.034  37.055  34.463  1.00  0.00    -0.237 OA
ATOM     94  O   UNL A   1      43.352  38.744  33.841  1.00  0.00    -0.744 OA
ENDBRANCH  87  91
ENDBRANCH  61  84
ENDBRANCH  35  36
ENDBRANCH  27  30
ENDBRANCH  25  26
ENDBRANCH  24  25
ENDBRANCH   1  24
TORSDOF 19
ENDMDL
MODEL 2
REMARK VINA RESULT:     -10.6      4.492      9.677
REMARK SMILES CC[C@](C)(NC(=O)NC[C@@H](C)[NH+](C)C)C(=O)NCCCCNC(=O)c1ccc(-c2c3nc(c(-c4cc(S(=O)(=O)[O-])ccc4F)c4ccc([nH]4)c(-c4cc(S(=O)(=O)[O-])ccc4F)c4nc(c(-c5cc(S(=O)(=O)[O-])ccc5F)c5ccc2[nH]5)C=C4)C=C3)cc1
REMARK SMILES IDX 19 1 18 2 17 3 15 4 16 5 3 7 4 8 2 9 1 10 5 11 6 12 7 14
REMARK SMILES IDX 8 15 9 17 10 18 11 19 12 20 13 21 14 22 20 24 21 25 22 26
REMARK SMILES IDX 23 27 24 29 25 30 26 31 87 32 27 33 86 34 28 35 29 36 30 37
REMARK SMILES IDX 80 38 31 39 85 40 79 41 81 42 32 43 84 44 78 45 77 46 33 48
REMARK SMILES IDX 65 49 45 50 64 51 46 52 49 53 63 54 82 55 47 56 48 57 62 59
REMARK SMILES IDX 83 60 50 61 34 62 35 63 43 64 36 65 42 66 44 67 41 68 37 69
REMARK SMILES IDX 38 70 39 71 40 72 66 73 67 74 75 75 68 76 74 77 76 78 73 79
REMARK SMILES IDX 69 80 70 81 71 82 72 83 51 84 52 85 60 86 53 87 59 88 61 89
REMARK SMILES IDX 58 90 54 91 55 92 56 93 57 94
REMARK H PARENT 17 6 5 13 8 16 12 23 22 28 81 47 49 58
REMARK Flexibility Score: inf
ROOT
ATOM      1  C   UNL A   1      31.615  27.781  27.303  1.00  0.00     0.023 C 
ENDROOT
BRANCH   1   2
ATOM      2  C   UNL A   1      31.777  26.724  26.204  1.00  0.00     0.116 C 
BRANCH   2   3
ATOM      3  N   UNL A   1      30.897  26.732  25.043  1.00  0.00    -0.354 N 
ATOM      4  C   UNL A   1      31.132  26.643  23.695  1.00  0.00     0.245 C 
ATOM      5  O   UNL A   1      30.255  26.096  23.014  1.00  0.00    -0.272 OA
ATOM      6  H   UNL A   1      29.943  26.821  25.273  1.00  0.00     0.163 HD
BRANCH   4   7
ATOM      7  C   UNL A   1      32.482  27.046  23.043  1.00  0.00     0.117 C 
ATOM      8  C   UNL A   1      33.728  26.541  23.802  1.00  0.00     0.045 C 
BRANCH   7   9
ATOM      9  C   UNL A   1      32.521  28.613  23.055  1.00  0.00     0.035 C 
ATOM     10  C   UNL A   1      33.824  29.234  23.565  1.00  0.00     0.007 C 
ENDBRANCH   7   9
BRANCH   7  11
ATOM     11  N   UNL A   1      32.548  26.550  21.658  1.00  0.00    -0.324 N 
ATOM     12  C   UNL A   1      32.753  25.360  21.086  1.00  0.00     0.315 C 
ATOM     13  H   UNL A   1      32.408  27.266  20.997  1.00  0.00     0.166 HD
ATOM     14  O   UNL A   1      32.968  25.369  19.869  1.00  0.00    -0.249 OA
ATOM     15  N   UNL A   1      32.710  24.166  21.683  1.00  0.00    -0.332 N 
ATOM     16  H   UNL A   1      32.843  23.440  21.033  1.00  0.00     0.165 HD
BRANCH  15  17
ATOM     17  C   UNL A   1      32.520  23.633  23.035  1.00  0.00     0.182 C 
BRANCH  17  18
ATOM     18  C   UNL A   1      33.598  22.600  23.484  1.00  0.00     0.200 C 
ATOM     19  C   UNL A   1      35.017  23.124  23.233  1.00  0.00     0.077 C 
BRANCH  18  20
ATOM     20  N   UNL A   1      33.360  22.114  24.859  1.00  0.00    -0.336 N 
ATOM     21  C   UNL A   1      34.554  22.110  25.699  1.00  0.00     0.332 C 
ATOM     22  C   UNL A   1      32.240  22.737  25.552  1.00  0.00     0.332 C 
ATOM     23  H   UNL A   1      33.091  21.143  24.703  1.00  0.00     0.347 HD
ENDBRANCH  18  20
ENDBRANCH  17  18
ENDBRANCH  15  17
ENDBRANCH   7  11
ENDBRANCH   4   7
ENDBRANCH   2   3
ENDBRANCH   1   2
BRANCH   1  24
ATOM     24  C   UNL A   1      31.895  29.253  26.997  1.00  0.00     0.023 C 
BRANCH  24  25
ATOM     25  C   UNL A   1      33.337  29.717  27.148  1.00  0.00     0.116 C 
BRANCH  25  26
ATOM     26  N   UNL A   1      33.420  31.141  27.410  1.00  0.00    -0.352 N 
ATOM     27  C   UNL A   1      34.343  31.844  28.145  1.00  0.00     0.251 C 
ATOM     28  H   UNL A   1      32.709  31.685  27.002  1.00  0.00     0.163 HD
ATOM     29  O   UNL A   1      34.105  33.020  28.424  1.00  0.00    -0.269 OA
BRANCH  27  30
ATOM     30  C   UNL A   1      35.600  31.214  28.616  1.00  0.00     0.039 A 
ATOM     31  C   UNL A   1      35.516  30.085  29.437  1.00  0.00     0.014 A 
ATOM     32  C   UNL A   1      36.854  31.759  28.318  1.00  0.00     0.014 A 
ATOM     33  C   UNL A   1      36.680  29.484  29.931  1.00  0.00     0.010 A 
ATOM     34  C   UNL A   1      38.017  31.129  28.770  1.00  0.00     0.010 A 
ATOM     35  C   UNL A   1      37.943  29.991  29.589  1.00  0.00    -0.014 A 
BRANCH  35  36
ATOM     36  C   UNL A   1      39.188  29.356  30.104  1.00  0.00     0.031 A 
ATOM     37  C   UNL A   1      39.844  29.877  31.355  1.00  0.00     0.074 A 
ATOM     38  C   UNL A   1      39.750  28.337  29.426  1.00  0.00     0.049 A 
ATOM     39  N   UNL A   1      40.956  29.494  31.930  1.00  0.00    -0.248 NA
ATOM     40  C   UNL A   1      39.169  30.990  32.037  1.00  0.00     0.031 C 
ATOM     41  C   UNL A   1      39.226  27.754  28.190  1.00  0.00     0.029 A 
ATOM     42  N   UNL A   1      40.890  27.612  29.676  1.00  0.00    -0.354 N 
ATOM     43  C   UNL A   1      41.124  30.328  33.032  1.00  0.00     0.074 A 
ATOM     44  C   UNL A   1      40.023  31.269  33.012  1.00  0.00     0.031 C 
ATOM     45  C   UNL A   1      40.032  26.752  27.799  1.00  0.00     0.029 A 
ATOM     46  C   UNL A   1      41.150  26.645  28.732  1.00  0.00     0.049 A 
ATOM     47  H   UNL A   1      41.467  27.769  30.458  1.00  0.00     0.167 HD
ATOM     48  C   UNL A   1      42.094  30.301  33.981  1.00  0.00     0.034 A 
ATOM     49  C   UNL A   1      42.177  25.778  28.622  1.00  0.00     0.034 A 
ATOM     50  C   UNL A   1      43.179  29.348  33.998  1.00  0.00     0.049 A 
ATOM     51  C   UNL A   1      43.257  25.785  29.673  1.00  0.00     0.074 A 
ATOM     52  C   UNL A   1      44.178  29.195  34.945  1.00  0.00     0.029 A 
ATOM     53  N   UNL A   1      43.414  28.390  33.019  1.00  0.00    -0.354 N 
ATOM     54  N   UNL A   1      43.375  26.550  30.733  1.00  0.00    -0.248 NA
ATOM     55  C   UNL A   1      44.339  24.802  29.517  1.00  0.00     0.031 C 
ATOM     56  C   UNL A   1      45.051  28.192  34.506  1.00  0.00     0.029 A 
ATOM     57  C   UNL A   1      44.559  27.668  33.323  1.00  0.00     0.049 A 
ATOM     58  H   UNL A   1      42.850  28.245  32.225  1.00  0.00     0.167 HD
ATOM     59  C   UNL A   1      44.527  26.118  31.386  1.00  0.00     0.074 A 
ATOM     60  C   UNL A   1      45.060  25.019  30.607  1.00  0.00     0.031 C 
ATOM     61  C   UNL A   1      45.089  26.583  32.531  1.00  0.00     0.034 A 
BRANCH  48  62
ATOM     62  C   UNL A   1      42.040  31.356  35.061  1.00  0.00     0.023 A 
ATOM     63  C   UNL A   1      40.974  31.427  35.974  1.00  0.00     0.031 A 
ATOM     64  C   UNL A   1      43.058  32.321  35.163  1.00  0.00     0.131 A 
ATOM     65  C   UNL A   1      40.911  32.482  36.898  1.00  0.00     0.055 A 
ATOM     66  C   UNL A   1      43.032  33.320  36.138  1.00  0.00     0.041 A 
ATOM     67  F   UNL A   1      44.093  32.316  34.308  1.00  0.00    -0.206 F 
ATOM     68  C   UNL A   1      41.946  33.415  37.002  1.00  0.00     0.022 A 
BRANCH  65  69
ATOM     69  S   UNL A   1      39.390  32.700  37.861  1.00  0.00     0.124 S 
ATOM     70  O   UNL A   1      38.625  31.517  37.476  1.00  0.00    -0.237 OA
ATOM     71  O   UNL A   1      39.886  32.723  39.233  1.00  0.00    -0.237 OA
ATOM     72  O   UNL A   1      38.853  33.968  37.371  1.00  0.00    -0.744 OA
ENDBRANCH  65  69
ENDBRANCH  48  62
BRANCH  49  73
ATOM     73  C   UNL A   1      42.247  24.835  27.470  1.00  0.00     0.023 A 
ATOM     74  C   UNL A   1      41.509  23.641  27.468  1.00  0.00     0.031 A 
ATOM     75  C   UNL A   1      43.088  25.094  26.373  1.00  0.00     0.131 A 
ATOM     76  C   UNL A   1      41.658  22.729  26.413  1.00  0.00     0.055 A 
ATOM     77  C   UNL A   1      43.195  24.205  25.302  1.00  0.00     0.041 A 
ATOM     78  F   UNL A   1      43.813  26.223  26.324  1.00  0.00    -0.206 F 
ATOM     79  C   UNL A   1      42.488  23.008  25.324  1.00  0.00     0.022 A 
BRANCH  76  80
ATOM     80  S   UNL A   1      40.811  21.128  26.522  1.00  0.00     0.124 S 
ATOM     81  O   UNL A   1      39.521  21.432  25.913  1.00  0.00    -0.237 OA
ATOM     82  O   UNL A   1      41.699  20.264  25.750  1.00  0.00    -0.237 OA
ATOM     83  O   UNL A   1      40.777  20.858  27.957  1.00  0.00    -0.744 OA
ENDBRANCH  76  80
ENDBRANCH  49  73
BRANCH  61  84
ATOM     84  C   UNL A   1      46.323  25.869  33.027  1.00  0.00     0.023 A 
ATOM     85  C   UNL A   1      46.242  24.742  33.864  1.00  0.00     0.031 A 
ATOM     86  C   UNL A   1      47.600  26.337  32.669  1.00  0.00     0.131 A 
ATOM     87  C   UNL A   1      47.415  24.152  34.357  1.00  0.00     0.055 A 
ATOM     88  C   UNL A   1      48.764  25.712  33.117  1.00  0.00     0.041 A 
ATOM     89  F   UNL A   1      47.736  27.410  31.874  1.00  0.00    -0.206 F 
ATOM     90  C   UNL A   1      48.676  24.620  33.978  1.00  0.00     0.022 A 
BRANCH  87  91
ATOM     91  S   UNL A   1      47.274  22.815  35.576  1.00  0.00     0.124 S 
ATOM     92  O   UNL A   1      48.673  22.542  35.890  1.00  0.00    -0.237 OA
ATOM     93  O   UNL A   1      46.494  23.442  36.637  1.00  0.00    -0.237 OA
ATOM     94  O   UNL A   1      46.584  21.755  34.844  1.00  0.00    -0.744 OA
ENDBRANCH  87  91
ENDBRANCH  61  84
ENDBRANCH  35  36
ENDBRANCH  27  30
ENDBRANCH  25  26
ENDBRANCH  24  25
ENDBRANCH   1  24
TORSDOF 19
ENDMDL
MODEL 3
REMARK VINA RESULT:     -10.6      4.275      9.552
REMARK SMILES CC[C@](C)(NC(=O)NC[C@@H](C)[NH+](C)C)C(=O)NCCCCNC(=O)c1ccc(-c2c3nc(c(-c4cc(S(=O)(=O)[O-])ccc4F)c4ccc([nH]4)c(-c4cc(S(=O)(=O)[O-])ccc4F)c4nc(c(-c5cc(S(=O)(=O)[O-])ccc5F)c5ccc2[nH]5)C=C4)C=C3)cc1
REMARK SMILES IDX 19 1 18 2 17 3 15 4 16 5 3 7 4 8 2 9 1 10 5 11 6 12 7 14
REMARK SMILES IDX 8 15 9 17 10 18 11 19 12 20 13 21 14 22 20 24 21 25 22 26
REMARK SMILES IDX 23 27 24 29 25 30 26 31 87 32 27 33 86 34 28 35 29 36 30 37
REMARK SMILES IDX 80 38 31 39 85 40 79 41 81 42 32 43 84 44 78 45 77 46 33 48
REMARK SMILES IDX 65 49 45 50 64 51 46 52 49 53 63 54 82 55 47 56 48 57 62 59
REMARK SMILES IDX 83 60 50 61 34 62 35 63 43 64 36 65 42 66 44 67 41 68 37 69
REMARK SMILES IDX 38 70 39 71 40 72 66 73 67 74 75 75 68 76 74 77 76 78 73 79
REMARK SMILES IDX 69 80 70 81 71 82 72 83 51 84 52 85 60 86 53 87 59 88 61 89
REMARK SMILES IDX 58 90 54 91 55 92 56 93 57 94
REMARK H PARENT 17 6 5 13 8 16 12 23 22 28 81 47 49 58
REMARK Flexibility Score: inf
ROOT
ATOM      1  C   UNL A   1      32.104  27.748  27.371  1.00  0.00     0.023 C 
ENDROOT
BRANCH   1   2
ATOM      2  C   UNL A   1      31.843  26.608  26.380  1.00  0.00     0.116 C 
BRANCH   2   3
ATOM      3  N   UNL A   1      30.795  26.736  25.376  1.00  0.00    -0.354 N 
ATOM      4  C   UNL A   1      30.711  26.347  24.063  1.00  0.00     0.245 C 
ATOM      5  O   UNL A   1      29.586  26.043  23.646  1.00  0.00    -0.272 OA
ATOM      6  H   UNL A   1      29.987  27.192  25.705  1.00  0.00     0.163 HD
BRANCH   4   7
ATOM      7  C   UNL A   1      31.957  26.134  23.162  1.00  0.00     0.117 C 
ATOM      8  C   UNL A   1      31.636  26.001  21.658  1.00  0.00     0.045 C 
BRANCH   7   9
ATOM      9  C   UNL A   1      32.609  24.788  23.630  1.00  0.00     0.035 C 
ATOM     10  C   UNL A   1      34.027  24.530  23.115  1.00  0.00     0.007 C 
ENDBRANCH   7   9
BRANCH   7  11
ATOM     11  N   UNL A   1      32.909  27.244  23.338  1.00  0.00    -0.324 N 
ATOM     12  C   UNL A   1      32.924  28.541  23.016  1.00  0.00     0.315 C 
ATOM     13  H   UNL A   1      33.729  26.963  23.804  1.00  0.00     0.166 HD
ATOM     14  O   UNL A   1      34.011  29.118  23.126  1.00  0.00    -0.249 OA
ATOM     15  N   UNL A   1      31.883  29.281  22.627  1.00  0.00    -0.332 N 
ATOM     16  H   UNL A   1      32.145  30.220  22.499  1.00  0.00     0.165 HD
BRANCH  15  17
ATOM     17  C   UNL A   1      30.459  29.089  22.337  1.00  0.00     0.182 C 
BRANCH  17  18
ATOM     18  C   UNL A   1      29.492  29.681  23.407  1.00  0.00     0.200 C 
ATOM     19  C   UNL A   1      30.144  30.835  24.178  1.00  0.00     0.077 C 
BRANCH  18  20
ATOM     20  N   UNL A   1      28.166  29.999  22.838  1.00  0.00    -0.336 N 
ATOM     21  C   UNL A   1      27.199  28.911  22.948  1.00  0.00     0.332 C 
ATOM     22  C   UNL A   1      27.584  31.258  23.286  1.00  0.00     0.332 C 
ATOM     23  H   UNL A   1      28.378  30.122  21.848  1.00  0.00     0.347 HD
ENDBRANCH  18  20
ENDBRANCH  17  18
ENDBRANCH  15  17
ENDBRANCH   7  11
ENDBRANCH   4   7
ENDBRANCH   2   3
ENDBRANCH   1   2
BRANCH   1  24
ATOM     24  C   UNL A   1      32.146  29.196  26.881  1.00  0.00     0.023 C 
BRANCH  24  25
ATOM     25  C   UNL A   1      33.526  29.809  26.689  1.00  0.00     0.116 C 
BRANCH  25  26
ATOM     26  N   UNL A   1      33.550  31.209  27.071  1.00  0.00    -0.352 N 
ATOM     27  C   UNL A   1      34.408  31.872  27.914  1.00  0.00     0.251 C 
ATOM     28  H   UNL A   1      32.847  31.766  26.667  1.00  0.00     0.163 HD
ATOM     29  O   UNL A   1      34.119  33.015  28.273  1.00  0.00    -0.269 OA
BRANCH  27  30
ATOM     30  C   UNL A   1      35.654  31.238  28.406  1.00  0.00     0.039 A 
ATOM     31  C   UNL A   1      35.554  30.073  29.175  1.00  0.00     0.014 A 
ATOM     32  C   UNL A   1      36.911  31.810  28.181  1.00  0.00     0.014 A 
ATOM     33  C   UNL A   1      36.706  29.466  29.688  1.00  0.00     0.010 A 
ATOM     34  C   UNL A   1      38.064  31.175  28.650  1.00  0.00     0.010 A 
ATOM     35  C   UNL A   1      37.974  30.003  29.417  1.00  0.00    -0.014 A 
BRANCH  35  36
ATOM     36  C   UNL A   1      39.207  29.360  29.952  1.00  0.00     0.031 A 
ATOM     37  C   UNL A   1      39.868  29.903  31.193  1.00  0.00     0.074 A 
ATOM     38  C   UNL A   1      39.756  28.316  29.302  1.00  0.00     0.049 A 
ATOM     39  N   UNL A   1      40.972  29.517  31.781  1.00  0.00    -0.248 NA
ATOM     40  C   UNL A   1      39.208  31.044  31.844  1.00  0.00     0.031 C 
ATOM     41  C   UNL A   1      39.227  27.711  28.079  1.00  0.00     0.029 A 
ATOM     42  N   UNL A   1      40.884  27.580  29.574  1.00  0.00    -0.354 N 
ATOM     43  C   UNL A   1      41.148  30.375  32.862  1.00  0.00     0.074 A 
ATOM     44  C   UNL A   1      40.063  31.333  32.814  1.00  0.00     0.031 C 
ATOM     45  C   UNL A   1      40.018  26.687  27.717  1.00  0.00     0.029 A 
ATOM     46  C   UNL A   1      41.131  26.586  28.656  1.00  0.00     0.049 A 
ATOM     47  H   UNL A   1      41.460  27.747  30.354  1.00  0.00     0.167 HD
ATOM     48  C   UNL A   1      42.115  30.357  33.815  1.00  0.00     0.034 A 
ATOM     49  C   UNL A   1      42.144  25.700  28.572  1.00  0.00     0.034 A 
ATOM     50  C   UNL A   1      43.185  29.387  33.860  1.00  0.00     0.049 A 
ATOM     51  C   UNL A   1      43.221  25.716  29.627  1.00  0.00     0.074 A 
ATOM     52  C   UNL A   1      44.178  29.242  34.815  1.00  0.00     0.029 A 
ATOM     53  N   UNL A   1      43.408  28.402  32.907  1.00  0.00    -0.354 N 
ATOM     54  N   UNL A   1      43.348  26.505  30.668  1.00  0.00    -0.248 NA
ATOM     55  C   UNL A   1      44.288  24.713  29.500  1.00  0.00     0.031 C 
ATOM     56  C   UNL A   1      45.036  28.216  34.405  1.00  0.00     0.029 A 
ATOM     57  C   UNL A   1      44.540  27.670  33.233  1.00  0.00     0.049 A 
ATOM     58  H   UNL A   1      42.844  28.246  32.115  1.00  0.00     0.167 HD
ATOM     59  C   UNL A   1      44.490  26.072  31.336  1.00  0.00     0.074 A 
ATOM     60  C   UNL A   1      45.008  24.946  30.586  1.00  0.00     0.031 C 
ATOM     61  C   UNL A   1      45.056  26.557  32.471  1.00  0.00     0.034 A 
BRANCH  48  62
ATOM     62  C   UNL A   1      42.074  31.440  34.868  1.00  0.00     0.023 A 
ATOM     63  C   UNL A   1      41.061  31.488  35.842  1.00  0.00     0.031 A 
ATOM     64  C   UNL A   1      43.049  32.453  34.884  1.00  0.00     0.131 A 
ATOM     65  C   UNL A   1      41.003  32.565  36.739  1.00  0.00     0.055 A 
ATOM     66  C   UNL A   1      43.032  33.478  35.832  1.00  0.00     0.041 A 
ATOM     67  F   UNL A   1      44.031  32.472  33.968  1.00  0.00    -0.206 F 
ATOM     68  C   UNL A   1      41.995  33.548  36.757  1.00  0.00     0.022 A 
BRANCH  65  69
ATOM     69  S   UNL A   1      39.532  32.741  37.787  1.00  0.00     0.124 S 
ATOM     70  O   UNL A   1      40.108  32.632  39.125  1.00  0.00    -0.237 OA
ATOM     71  O   UNL A   1      39.033  34.060  37.411  1.00  0.00    -0.237 OA
ATOM     72  O   UNL A   1      38.689  31.617  37.385  1.00  0.00    -0.744 OA
ENDBRANCH  65  69
ENDBRANCH  48  62
BRANCH  49  73
ATOM     73  C   UNL A   1      42.204  24.727  27.444  1.00  0.00     0.023 A 
ATOM     74  C   UNL A   1      41.443  23.547  27.468  1.00  0.00     0.031 A 
ATOM     75  C   UNL A   1      43.056  24.943  26.346  1.00  0.00     0.131 A 
ATOM     76  C   UNL A   1      41.582  22.607  26.436  1.00  0.00     0.055 A 
ATOM     77  C   UNL A   1      43.152  24.027  25.298  1.00  0.00     0.041 A 
ATOM     78  F   UNL A   1      43.801  26.057  26.273  1.00  0.00    -0.206 F 
ATOM     79  C   UNL A   1      42.422  22.843  25.346  1.00  0.00     0.022 A 
BRANCH  76  80
ATOM     80  S   UNL A   1      40.705  21.025  26.580  1.00  0.00     0.124 S 
ATOM     81  O   UNL A   1      40.737  20.797  28.021  1.00  0.00    -0.237 OA
ATOM     82  O   UNL A   1      39.402  21.349  26.010  1.00  0.00    -0.237 OA
ATOM     83  O   UNL A   1      41.521  20.110  25.785  1.00  0.00    -0.744 OA
ENDBRANCH  76  80
ENDBRANCH  49  73
BRANCH  61  84
ATOM     84  C   UNL A   1      46.276  25.837  32.989  1.00  0.00     0.023 A 
ATOM     85  C   UNL A   1      47.561  26.089  32.475  1.00  0.00     0.031 A 
ATOM     86  C   UNL A   1      46.148  24.870  34.003  1.00  0.00     0.131 A 
ATOM     87  C   UNL A   1      48.657  25.345  32.937  1.00  0.00     0.055 A 
ATOM     88  C   UNL A   1      47.250  24.174  34.500  1.00  0.00     0.041 A 
ATOM     89  F   UNL A   1      44.945  24.588  34.529  1.00  0.00    -0.206 F 
ATOM     90  C   UNL A   1      48.513  24.401  33.957  1.00  0.00     0.022 A 
BRANCH  87  91
ATOM     91  S   UNL A   1      50.265  25.567  32.127  1.00  0.00     0.124 S 
ATOM     92  O   UNL A   1      51.135  25.872  33.258  1.00  0.00    -0.237 OA
ATOM     93  O   UNL A   1      50.477  24.269  31.494  1.00  0.00    -0.237 OA
ATOM     94  O   UNL A   1      50.035  26.675  31.204  1.00  0.00    -0.744 OA
ENDBRANCH  87  91
ENDBRANCH  61  84
ENDBRANCH  35  36
ENDBRANCH  27  30
ENDBRANCH  25  26
ENDBRANCH  24  25
ENDBRANCH   1  24
TORSDOF 19
ENDMDL
