MODEL 1
REMARK VINA RESULT:     -11.6      0.000      0.000
REMARK SMILES COc1ccc(CCN2/C(=[NH+]/C(=O)CCC(=O)NCCCCNC(=O)c3ccc(-c4c5nc(c(-c6cc(S(=O)(=O)[O-])ccc6F)c6ccc([nH]6)c(-c6cc(S(=O)(=O)[O-])ccc6F)c6nc(c(-c7cc(S(=O)(=O)[O-])ccc7F)c7ccc4[nH]7)C=C6)C=C5)cc3)S[C@@H]3CS(=O)(=O)C[C@@H]32)cc1
REMARK SMILES IDX 19 1 18 2 16 3 17 4 15 6 14 7 12 8 9 9 10 10 96 11 11 12
REMARK SMILES IDX 89 13 90 14 95 15 91 17 92 18 13 19 93 20 94 21 8 22 7 23
REMARK SMILES IDX 6 24 3 25 4 26 98 27 5 28 97 29 2 30 1 31 20 32 21 33 22 34
REMARK SMILES IDX 23 35 24 36 25 38 26 39 27 40 88 41 28 42 87 43 29 44 30 45
REMARK SMILES IDX 31 46 81 47 32 48 86 49 80 50 82 51 33 52 85 53 79 54 78 55
REMARK SMILES IDX 34 57 66 58 46 59 65 60 47 61 50 62 64 63 83 64 48 65 49 66
REMARK SMILES IDX 63 68 84 69 51 70 35 71 36 72 44 73 37 74 43 75 45 76 42 77
REMARK SMILES IDX 38 78 39 79 40 80 41 81 67 82 68 83 76 84 69 85 75 86 77 87
REMARK SMILES IDX 74 88 70 89 71 90 72 91 73 92 52 93 53 94 61 95 54 96 60 97
REMARK SMILES IDX 62 98 59 99 55 100 56 101 57 102 58 103
REMARK H PARENT 18 5 11 16 23 37 82 56 50 67
REMARK Flexibility Score: inf
ROOT
ATOM      1  C   UNL A   1      37.490  22.027  25.128  1.00  0.00     0.116 C 
ENDROOT
BRANCH   1   2
ATOM      2  N   UNL A   1      36.601  23.086  25.492  1.00  0.00    -0.356 N 
ATOM      3  C   UNL A   1      35.739  23.705  24.627  1.00  0.00     0.220 C 
ATOM      4  O   UNL A   1      35.151  24.706  25.033  1.00  0.00    -0.275 OA
ATOM      5  H   UNL A   1      36.610  23.391  26.428  1.00  0.00     0.163 HD
BRANCH   3   6
ATOM      6  C   UNL A   1      35.471  23.073  23.243  1.00  0.00     0.112 C 
BRANCH   6   7
ATOM      7  C   UNL A   1      34.034  23.014  22.683  1.00  0.00     0.138 C 
BRANCH   7   8
ATOM      8  C   UNL A   1      33.132  24.274  22.588  1.00  0.00     0.308 C 
ATOM      9  N   UNL A   1      30.991  26.019  25.126  1.00  0.00    -0.251 N 
ATOM     10  C   UNL A   1      31.688  25.661  23.928  1.00  0.00     0.314 C 
ATOM     11  C   UNL A   1      30.950  27.497  25.502  1.00  0.00     0.206 C 
ATOM     12  N   UNL A   1      32.179  24.490  23.610  1.00  0.00    -0.205 N 
ATOM     13  S   UNL A   1      32.081  27.069  22.883  1.00  0.00    -0.030 SA
ATOM     14  C   UNL A   1      31.792  28.413  24.021  1.00  0.00     0.120 C 
ATOM     15  C   UNL A   1      31.820  27.894  27.285  1.00  0.00     0.187 C 
ATOM     16  H   UNL A   1      31.865  23.708  24.117  1.00  0.00     0.316 HD
ATOM     17  C   UNL A   1      33.398  29.447  24.519  1.00  0.00     0.156 C 
ATOM     18  S   UNL A   1      33.645  29.461  26.805  1.00  0.00     0.155 S 
ATOM     19  O   UNL A   1      33.321  24.983  21.597  1.00  0.00    -0.247 OA
ATOM     20  O   UNL A   1      34.975  29.007  27.190  1.00  0.00    -0.229 OA
ATOM     21  O   UNL A   1      33.457  30.867  27.140  1.00  0.00    -0.229 OA
BRANCH   9  22
ATOM     22  C   UNL A   1      29.949  25.282  25.893  1.00  0.00     0.242 C 
BRANCH  22  23
ATOM     23  C   UNL A   1      30.051  23.890  26.549  1.00  0.00     0.081 C 
BRANCH  23  24
ATOM     24  C   UNL A   1      31.232  22.977  26.458  1.00  0.00    -0.044 A 
ATOM     25  C   UNL A   1      33.480  21.324  26.187  1.00  0.00     0.118 A 
ATOM     26  C   UNL A   1      32.332  21.108  25.420  1.00  0.00     0.046 A 
ATOM     27  C   UNL A   1      33.471  22.302  27.175  1.00  0.00     0.046 A 
ATOM     28  C   UNL A   1      31.215  21.924  25.551  1.00  0.00     0.007 A 
ATOM     29  C   UNL A   1      32.334  23.110  27.325  1.00  0.00     0.007 A 
BRANCH  25  30
ATOM     30  O   UNL A   1      34.563  20.644  25.714  1.00  0.00    -0.497 OA
ATOM     31  C   UNL A   1      34.403  19.676  24.697  1.00  0.00     0.278 C 
ENDBRANCH  25  30
ENDBRANCH  23  24
ENDBRANCH  22  23
ENDBRANCH   9  22
ENDBRANCH   7   8
ENDBRANCH   6   7
ENDBRANCH   3   6
ENDBRANCH   1   2
BRANCH   1  32
ATOM     32  C   UNL A   1      38.661  22.088  26.083  1.00  0.00     0.023 C 
BRANCH  32  33
ATOM     33  C   UNL A   1      38.987  23.462  26.581  1.00  0.00     0.023 C 
BRANCH  33  34
ATOM     34  C   UNL A   1      40.400  23.396  27.091  1.00  0.00     0.116 C 
BRANCH  34  35
ATOM     35  N   UNL A   1      41.674  23.330  25.880  1.00  0.00    -0.352 N 
ATOM     36  C   UNL A   1      43.175  24.409  25.288  1.00  0.00     0.251 C 
ATOM     37  H   UNL A   1      41.606  22.506  25.346  1.00  0.00     0.163 HD
ATOM     38  O   UNL A   1      44.081  24.063  24.509  1.00  0.00    -0.269 OA
BRANCH  36  39
ATOM     39  C   UNL A   1      43.621  26.045  25.739  1.00  0.00     0.039 A 
ATOM     40  C   UNL A   1      42.815  27.100  25.294  1.00  0.00     0.014 A 
ATOM     41  C   UNL A   1      44.629  26.381  26.702  1.00  0.00     0.014 A 
ATOM     42  C   UNL A   1      42.916  28.368  25.902  1.00  0.00     0.010 A 
ATOM     43  C   UNL A   1      44.597  27.546  27.413  1.00  0.00     0.010 A 
ATOM     44  C   UNL A   1      43.763  28.568  27.007  1.00  0.00    -0.014 A 
BRANCH  44  45
ATOM     45  C   UNL A   1      43.832  29.769  27.858  1.00  0.00     0.031 A 
ATOM     46  C   UNL A   1      42.663  30.097  28.760  1.00  0.00     0.074 A 
ATOM     47  C   UNL A   1      44.780  30.683  27.587  1.00  0.00     0.049 A 
ATOM     48  N   UNL A   1      42.437  31.180  29.455  1.00  0.00    -0.248 NA
ATOM     49  C   UNL A   1      41.555  29.121  28.805  1.00  0.00     0.031 C 
ATOM     50  C   UNL A   1      45.841  30.538  26.583  1.00  0.00     0.029 A 
ATOM     51  N   UNL A   1      44.995  31.926  28.114  1.00  0.00    -0.354 N 
ATOM     52  C   UNL A   1      41.166  31.014  29.998  1.00  0.00     0.074 A 
ATOM     53  C   UNL A   1      40.617  29.805  29.434  1.00  0.00     0.031 C 
ATOM     54  C   UNL A   1      46.637  31.617  26.625  1.00  0.00     0.029 A 
ATOM     55  C   UNL A   1      46.124  32.543  27.627  1.00  0.00     0.049 A 
ATOM     56  H   UNL A   1      44.398  32.342  28.777  1.00  0.00     0.167 HD
ATOM     57  C   UNL A   1      40.542  31.772  30.932  1.00  0.00     0.034 A 
ATOM     58  C   UNL A   1      46.687  33.710  27.986  1.00  0.00     0.034 A 
ATOM     59  C   UNL A   1      41.143  32.954  31.489  1.00  0.00     0.049 A 
ATOM     60  C   UNL A   1      46.017  34.516  29.070  1.00  0.00     0.074 A 
ATOM     61  C   UNL A   1      40.697  33.747  32.528  1.00  0.00     0.029 A 
ATOM     62  N   UNL A   1      42.329  33.520  31.032  1.00  0.00    -0.354 N 
ATOM     63  N   UNL A   1      44.895  34.270  29.709  1.00  0.00    -0.248 NA
ATOM     64  C   UNL A   1      46.700  35.741  29.495  1.00  0.00     0.031 C 
ATOM     65  C   UNL A   1      41.568  34.835  32.645  1.00  0.00     0.029 A 
ATOM     66  C   UNL A   1      42.608  34.674  31.741  1.00  0.00     0.049 A 
ATOM     67  H   UNL A   1      42.887  33.153  30.309  1.00  0.00     0.167 HD
ATOM     68  C   UNL A   1      44.759  35.292  30.643  1.00  0.00     0.074 A 
ATOM     69  C   UNL A   1      45.921  36.146  30.487  1.00  0.00     0.031 C 
ATOM     70  C   UNL A   1      43.772  35.509  31.552  1.00  0.00     0.034 A 
BRANCH  57  71
ATOM     71  C   UNL A   1      39.174  31.326  31.399  1.00  0.00     0.023 A 
ATOM     72  C   UNL A   1      37.995  31.884  30.868  1.00  0.00     0.031 A 
ATOM     73  C   UNL A   1      39.037  30.374  32.422  1.00  0.00     0.131 A 
ATOM     74  C   UNL A   1      36.750  31.572  31.431  1.00  0.00     0.055 A 
ATOM     75  C   UNL A   1      37.785  29.989  32.910  1.00  0.00     0.041 A 
ATOM     76  F   UNL A   1      40.120  29.816  32.988  1.00  0.00    -0.206 F 
ATOM     77  C   UNL A   1      36.633  30.605  32.430  1.00  0.00     0.022 A 
BRANCH  74  78
ATOM     78  S   UNL A   1      35.316  32.585  30.968  1.00  0.00     0.124 S 
ATOM     79  O   UNL A   1      34.401  32.321  32.076  1.00  0.00    -0.237 OA
ATOM     80  O   UNL A   1      35.884  33.927  30.914  1.00  0.00    -0.237 OA
ATOM     81  O   UNL A   1      34.904  32.027  29.682  1.00  0.00    -0.744 OA
ENDBRANCH  74  78
ENDBRANCH  57  71
BRANCH  58  82
ATOM     82  C   UNL A   1      47.986  34.135  27.394  1.00  0.00     0.023 A 
ATOM     83  C   UNL A   1      49.193  33.795  28.026  1.00  0.00     0.031 A 
ATOM     84  C   UNL A   1      48.051  34.886  26.209  1.00  0.00     0.131 A 
ATOM     85  C   UNL A   1      50.412  34.252  27.504  1.00  0.00     0.055 A 
ATOM     86  C   UNL A   1      49.270  35.293  25.662  1.00  0.00     0.041 A 
ATOM     87  F   UNL A   1      46.928  35.218  25.551  1.00  0.00    -0.206 F 
ATOM     88  C   UNL A   1      50.460  34.988  26.319  1.00  0.00     0.022 A 
BRANCH  85  89
ATOM     89  S   UNL A   1      51.928  33.936  28.446  1.00  0.00     0.124 S 
ATOM     90  O   UNL A   1      52.939  33.957  27.396  1.00  0.00    -0.237 OA
ATOM     91  O   UNL A   1      51.944  35.059  29.378  1.00  0.00    -0.237 OA
ATOM     92  O   UNL A   1      51.682  32.629  29.053  1.00  0.00    -0.744 OA
ENDBRANCH  85  89
ENDBRANCH  58  82
BRANCH  70  93
ATOM     93  C   UNL A   1      43.936  36.692  32.469  1.00  0.00     0.023 A 
ATOM     94  C   UNL A   1      43.466  37.968  32.118  1.00  0.00     0.031 A 
ATOM     95  C   UNL A   1      44.566  36.535  33.717  1.00  0.00     0.131 A 
ATOM     96  C   UNL A   1      43.686  39.051  32.980  1.00  0.00     0.055 A 
ATOM     97  C   UNL A   1      44.713  37.602  34.602  1.00  0.00     0.041 A 
ATOM     98  F   UNL A   1      45.037  35.338  34.100  1.00  0.00    -0.206 F 
ATOM     99  C   UNL A   1      44.285  38.872  34.230  1.00  0.00     0.022 A 
BRANCH  96 100
ATOM    100  S   UNL A   1      43.270  40.716  32.398  1.00  0.00     0.124 S 
ATOM    101  O   UNL A   1      44.570  41.379  32.428  1.00  0.00    -0.237 OA
ATOM    102  O   UNL A   1      42.718  40.456  31.073  1.00  0.00    -0.237 OA
ATOM    103  O   UNL A   1      42.306  41.194  33.388  1.00  0.00    -0.744 OA
ENDBRANCH  96 100
ENDBRANCH  70  93
ENDBRANCH  44  45
ENDBRANCH  36  39
ENDBRANCH  34  35
ENDBRANCH  33  34
ENDBRANCH  32  33
ENDBRANCH   1  32
TORSDOF 20
ENDMDL
MODEL 2
REMARK VINA RESULT:     -11.2      3.463      5.866
REMARK SMILES COc1ccc(CCN2/C(=[NH+]/C(=O)CCC(=O)NCCCCNC(=O)c3ccc(-c4c5nc(c(-c6cc(S(=O)(=O)[O-])ccc6F)c6ccc([nH]6)c(-c6cc(S(=O)(=O)[O-])ccc6F)c6nc(c(-c7cc(S(=O)(=O)[O-])ccc7F)c7ccc4[nH]7)C=C6)C=C5)cc3)S[C@@H]3CS(=O)(=O)C[C@@H]32)cc1
REMARK SMILES IDX 19 1 18 2 16 3 17 4 15 6 14 7 12 8 9 9 10 10 96 11 11 12
REMARK SMILES IDX 89 13 90 14 95 15 91 17 92 18 13 19 93 20 94 21 8 22 7 23
REMARK SMILES IDX 6 24 3 25 4 26 98 27 5 28 97 29 2 30 1 31 20 32 21 33 22 34
REMARK SMILES IDX 23 35 24 36 25 38 26 39 27 40 88 41 28 42 87 43 29 44 30 45
REMARK SMILES IDX 31 46 81 47 32 48 86 49 80 50 82 51 33 52 85 53 79 54 78 55
REMARK SMILES IDX 34 57 66 58 46 59 65 60 47 61 50 62 64 63 83 64 48 65 49 66
REMARK SMILES IDX 63 68 84 69 51 70 35 71 36 72 44 73 37 74 43 75 45 76 42 77
REMARK SMILES IDX 38 78 39 79 40 80 41 81 67 82 68 83 76 84 69 85 75 86 77 87
REMARK SMILES IDX 74 88 70 89 71 90 72 91 73 92 52 93 53 94 61 95 54 96 60 97
REMARK SMILES IDX 62 98 59 99 55 100 56 101 57 102 58 103
REMARK H PARENT 18 5 11 16 23 37 82 56 50 67
REMARK Flexibility Score: inf
ROOT
ATOM      1  C   UNL A   1      35.884  22.862  25.431  1.00  0.00     0.116 C 
ENDROOT
BRANCH   1   2
ATOM      2  N   UNL A   1      34.553  22.929  25.947  1.00  0.00    -0.356 N 
ATOM      3  C   UNL A   1      33.423  22.739  25.199  1.00  0.00     0.220 C 
ATOM      4  O   UNL A   1      32.342  22.985  25.732  1.00  0.00    -0.275 OA
ATOM      5  H   UNL A   1      34.442  23.126  26.905  1.00  0.00     0.163 HD
BRANCH   3   6
ATOM      6  C   UNL A   1      33.546  22.136  23.781  1.00  0.00     0.112 C 
BRANCH   6   7
ATOM      7  C   UNL A   1      32.588  22.594  22.660  1.00  0.00     0.138 C 
BRANCH   7   8
ATOM      8  C   UNL A   1      32.499  24.075  22.203  1.00  0.00     0.308 C 
ATOM      9  N   UNL A   1      30.598  27.006  23.570  1.00  0.00    -0.251 N 
ATOM     10  C   UNL A   1      31.464  26.169  22.796  1.00  0.00     0.314 C 
ATOM     11  C   UNL A   1      31.099  28.403  23.921  1.00  0.00     0.206 C 
ATOM     12  N   UNL A   1      31.436  24.863  22.703  1.00  0.00    -0.205 N 
ATOM     13  S   UNL A   1      32.847  27.052  22.065  1.00  0.00    -0.030 SA
ATOM     14  C   UNL A   1      32.784  28.579  22.988  1.00  0.00     0.120 C 
ATOM     15  C   UNL A   1      31.254  28.719  25.914  1.00  0.00     0.187 C 
ATOM     16  H   UNL A   1      30.621  24.399  22.999  1.00  0.00     0.316 HD
ATOM     17  C   UNL A   1      34.331  28.906  24.169  1.00  0.00     0.156 C 
ATOM     18  S   UNL A   1      33.614  29.242  26.327  1.00  0.00     0.155 S 
ATOM     19  O   UNL A   1      33.375  24.437  21.415  1.00  0.00    -0.247 OA
ATOM     20  O   UNL A   1      34.299  28.347  27.252  1.00  0.00    -0.229 OA
ATOM     21  O   UNL A   1      33.983  30.630  26.577  1.00  0.00    -0.229 OA
BRANCH   9  22
ATOM     22  C   UNL A   1      29.125  26.939  23.778  1.00  0.00     0.242 C 
BRANCH  22  23
ATOM     23  C   UNL A   1      28.024  27.773  23.091  1.00  0.00     0.081 C 
BRANCH  23  24
ATOM     24  C   UNL A   1      28.091  29.244  22.831  1.00  0.00    -0.044 A 
ATOM     25  C   UNL A   1      28.290  32.013  22.438  1.00  0.00     0.118 A 
ATOM     26  C   UNL A   1      27.438  31.483  23.411  1.00  0.00     0.046 A 
ATOM     27  C   UNL A   1      28.967  31.154  21.579  1.00  0.00     0.046 A 
ATOM     28  C   UNL A   1      27.335  30.112  23.609  1.00  0.00     0.007 A 
ATOM     29  C   UNL A   1      28.843  29.769  21.763  1.00  0.00     0.007 A 
BRANCH  25  30
ATOM     30  O   UNL A   1      28.497  33.351  22.592  1.00  0.00    -0.497 OA
ATOM     31  C   UNL A   1      29.550  33.815  23.414  1.00  0.00     0.278 C 
ENDBRANCH  25  30
ENDBRANCH  23  24
ENDBRANCH  22  23
ENDBRANCH   9  22
ENDBRANCH   7   8
ENDBRANCH   6   7
ENDBRANCH   3   6
ENDBRANCH   1   2
BRANCH   1  32
ATOM     32  C   UNL A   1      36.378  21.452  25.671  1.00  0.00     0.023 C 
BRANCH  32  33
ATOM     33  C   UNL A   1      37.243  20.901  24.580  1.00  0.00     0.023 C 
BRANCH  33  34
ATOM     34  C   UNL A   1      37.421  19.441  24.887  1.00  0.00     0.116 C 
BRANCH  34  35
ATOM     35  N   UNL A   1      38.935  18.973  25.651  1.00  0.00    -0.352 N 
ATOM     36  C   UNL A   1      40.546  19.820  26.326  1.00  0.00     0.251 C 
ATOM     37  H   UNL A   1      38.978  17.997  25.771  1.00  0.00     0.163 HD
ATOM     38  O   UNL A   1      41.435  19.289  27.016  1.00  0.00    -0.269 OA
BRANCH  36  39
ATOM     39  C   UNL A   1      41.080  21.484  26.175  1.00  0.00     0.039 A 
ATOM     40  C   UNL A   1      40.149  22.504  26.409  1.00  0.00     0.014 A 
ATOM     41  C   UNL A   1      42.446  21.895  26.032  1.00  0.00     0.014 A 
ATOM     42  C   UNL A   1      40.593  23.821  26.645  1.00  0.00     0.010 A 
ATOM     43  C   UNL A   1      42.884  23.120  26.444  1.00  0.00     0.010 A 
ATOM     44  C   UNL A   1      41.966  24.111  26.727  1.00  0.00    -0.014 A 
BRANCH  44  45
ATOM     45  C   UNL A   1      42.574  25.384  27.152  1.00  0.00     0.031 A 
ATOM     46  C   UNL A   1      41.734  26.377  27.926  1.00  0.00     0.074 A 
ATOM     47  C   UNL A   1      43.739  25.749  26.588  1.00  0.00     0.049 A 
ATOM     48  N   UNL A   1      42.006  27.614  28.245  1.00  0.00    -0.248 NA
ATOM     49  C   UNL A   1      40.369  25.953  28.297  1.00  0.00     0.031 C 
ATOM     50  C   UNL A   1      44.531  24.930  25.663  1.00  0.00     0.029 A 
ATOM     51  N   UNL A   1      44.453  26.911  26.690  1.00  0.00    -0.354 N 
ATOM     52  C   UNL A   1      40.846  28.107  28.836  1.00  0.00     0.074 A 
ATOM     53  C   UNL A   1      39.831  27.093  28.694  1.00  0.00     0.031 C 
ATOM     54  C   UNL A   1      45.656  25.588  25.347  1.00  0.00     0.029 A 
ATOM     55  C   UNL A   1      45.649  26.884  26.013  1.00  0.00     0.049 A 
ATOM     56  H   UNL A   1      44.139  27.694  27.199  1.00  0.00     0.167 HD
ATOM     57  C   UNL A   1      40.667  29.279  29.493  1.00  0.00     0.034 A 
ATOM     58  C   UNL A   1      46.634  27.798  25.973  1.00  0.00     0.034 A 
ATOM     59  C   UNL A   1      41.719  30.249  29.635  1.00  0.00     0.049 A 
ATOM     60  C   UNL A   1      46.450  29.072  26.758  1.00  0.00     0.074 A 
ATOM     61  C   UNL A   1      41.732  31.413  30.378  1.00  0.00     0.029 A 
ATOM     62  N   UNL A   1      42.954  30.164  29.001  1.00  0.00    -0.354 N 
ATOM     63  N   UNL A   1      45.413  29.467  27.462  1.00  0.00    -0.248 NA
ATOM     64  C   UNL A   1      47.575  30.011  26.760  1.00  0.00     0.031 C 
ATOM     65  C   UNL A   1      42.940  32.072  30.128  1.00  0.00     0.029 A 
ATOM     66  C   UNL A   1      43.720  31.275  29.302  1.00  0.00     0.049 A 
ATOM     67  H   UNL A   1      43.241  29.421  28.422  1.00  0.00     0.167 HD
ATOM     68  C   UNL A   1      45.779  30.685  28.026  1.00  0.00     0.074 A 
ATOM     69  C   UNL A   1      47.136  30.948  27.586  1.00  0.00     0.031 C 
ATOM     70  C   UNL A   1      45.068  31.511  28.837  1.00  0.00     0.034 A 
BRANCH  57  71
ATOM     71  C   UNL A   1      39.307  29.542  30.102  1.00  0.00     0.023 A 
ATOM     72  C   UNL A   1      38.459  30.550  29.605  1.00  0.00     0.031 A 
ATOM     73  C   UNL A   1      38.868  28.820  31.223  1.00  0.00     0.131 A 
ATOM     74  C   UNL A   1      37.279  30.881  30.287  1.00  0.00     0.055 A 
ATOM     75  C   UNL A   1      37.641  29.085  31.839  1.00  0.00     0.041 A 
ATOM     76  F   UNL A   1      39.636  27.858  31.762  1.00  0.00    -0.206 F 
ATOM     77  C   UNL A   1      36.849  30.135  31.385  1.00  0.00     0.022 A 
BRANCH  74  78
ATOM     78  S   UNL A   1      36.420  32.412  29.830  1.00  0.00     0.124 S 
ATOM     79  O   UNL A   1      35.584  32.642  31.007  1.00  0.00    -0.237 OA
ATOM     80  O   UNL A   1      37.522  33.346  29.638  1.00  0.00    -0.237 OA
ATOM     81  O   UNL A   1      35.690  32.047  28.618  1.00  0.00    -0.744 OA
ENDBRANCH  74  78
ENDBRANCH  57  71
BRANCH  58  82
ATOM     82  C   UNL A   1      47.905  27.507  25.253  1.00  0.00     0.023 A 
ATOM     83  C   UNL A   1      48.015  27.783  23.880  1.00  0.00     0.031 A 
ATOM     84  C   UNL A   1      49.017  26.949  25.904  1.00  0.00     0.131 A 
ATOM     85  C   UNL A   1      49.189  27.448  23.188  1.00  0.00     0.055 A 
ATOM     86  C   UNL A   1      50.203  26.667  25.223  1.00  0.00     0.041 A 
ATOM     87  F   UNL A   1      48.973  26.688  27.220  1.00  0.00    -0.206 F 
ATOM     88  C   UNL A   1      50.289  26.903  23.853  1.00  0.00     0.022 A 
BRANCH  85  89
ATOM     89  S   UNL A   1      49.221  27.661  21.388  1.00  0.00     0.124 S 
ATOM     90  O   UNL A   1      47.904  27.165  21.008  1.00  0.00    -0.237 OA
ATOM     91  O   UNL A   1      49.429  29.100  21.259  1.00  0.00    -0.237 OA
ATOM     92  O   UNL A   1      50.348  26.830  20.970  1.00  0.00    -0.744 OA
ENDBRANCH  85  89
ENDBRANCH  58  82
BRANCH  70  93
ATOM     93  C   UNL A   1      45.766  32.752  29.329  1.00  0.00     0.023 A 
ATOM     94  C   UNL A   1      45.758  33.945  28.589  1.00  0.00     0.031 A 
ATOM     95  C   UNL A   1      46.442  32.738  30.563  1.00  0.00     0.131 A 
ATOM     96  C   UNL A   1      46.464  35.060  29.061  1.00  0.00     0.055 A 
ATOM     97  C   UNL A   1      47.079  33.874  31.061  1.00  0.00     0.041 A 
ATOM     98  F   UNL A   1      46.484  31.622  31.308  1.00  0.00    -0.206 F 
ATOM     99  C   UNL A   1      47.104  35.040  30.303  1.00  0.00     0.022 A 
BRANCH  96 100
ATOM    100  S   UNL A   1      46.621  36.504  27.977  1.00  0.00     0.124 S 
ATOM    101  O   UNL A   1      48.069  36.624  27.842  1.00  0.00    -0.237 OA
ATOM    102  O   UNL A   1      45.902  36.079  26.781  1.00  0.00    -0.237 OA
ATOM    103  O   UNL A   1      45.978  37.574  28.738  1.00  0.00    -0.744 OA
ENDBRANCH  96 100
ENDBRANCH  70  93
ENDBRANCH  44  45
ENDBRANCH  36  39
ENDBRANCH  34  35
ENDBRANCH  33  34
ENDBRANCH  32  33
ENDBRANCH   1  32
TORSDOF 20
ENDMDL
MODEL 3
REMARK VINA RESULT:     -11.1      3.850      9.681
REMARK SMILES COc1ccc(CCN2/C(=[NH+]/C(=O)CCC(=O)NCCCCNC(=O)c3ccc(-c4c5nc(c(-c6cc(S(=O)(=O)[O-])ccc6F)c6ccc([nH]6)c(-c6cc(S(=O)(=O)[O-])ccc6F)c6nc(c(-c7cc(S(=O)(=O)[O-])ccc7F)c7ccc4[nH]7)C=C6)C=C5)cc3)S[C@@H]3CS(=O)(=O)C[C@@H]32)cc1
REMARK SMILES IDX 19 1 18 2 16 3 17 4 15 6 14 7 12 8 9 9 10 10 96 11 11 12
REMARK SMILES IDX 89 13 90 14 95 15 91 17 92 18 13 19 93 20 94 21 8 22 7 23
REMARK SMILES IDX 6 24 3 25 4 26 98 27 5 28 97 29 2 30 1 31 20 32 21 33 22 34
REMARK SMILES IDX 23 35 24 36 25 38 26 39 27 40 88 41 28 42 87 43 29 44 30 45
REMARK SMILES IDX 31 46 81 47 32 48 86 49 80 50 82 51 33 52 85 53 79 54 78 55
REMARK SMILES IDX 34 57 66 58 46 59 65 60 47 61 50 62 64 63 83 64 48 65 49 66
REMARK SMILES IDX 63 68 84 69 51 70 35 71 36 72 44 73 37 74 43 75 45 76 42 77
REMARK SMILES IDX 38 78 39 79 40 80 41 81 67 82 68 83 76 84 69 85 75 86 77 87
REMARK SMILES IDX 74 88 70 89 71 90 72 91 73 92 52 93 53 94 61 95 54 96 60 97
REMARK SMILES IDX 62 98 59 99 55 100 56 101 57 102 58 103
REMARK H PARENT 18 5 11 16 23 37 82 56 50 67
REMARK Flexibility Score: inf
ROOT
ATOM      1  C   UNL A   1      34.033  32.195  28.155  1.00  0.00     0.116 C 
ENDROOT
BRANCH   1   2
ATOM      2  N   UNL A   1      32.717  32.342  27.618  1.00  0.00    -0.356 N 
ATOM      3  C   UNL A   1      32.172  31.519  26.670  1.00  0.00     0.220 C 
ATOM      4  O   UNL A   1      31.096  31.854  26.179  1.00  0.00    -0.275 OA
ATOM      5  H   UNL A   1      32.165  33.085  27.952  1.00  0.00     0.163 HD
BRANCH   3   6
ATOM      6  C   UNL A   1      32.870  30.180  26.338  1.00  0.00     0.112 C 
BRANCH   6   7
ATOM      7  C   UNL A   1      32.641  28.944  27.235  1.00  0.00     0.138 C 
BRANCH   7   8
ATOM      8  C   UNL A   1      31.778  27.738  26.777  1.00  0.00     0.308 C 
ATOM      9  N   UNL A   1      32.081  25.411  23.851  1.00  0.00    -0.251 N 
ATOM     10  C   UNL A   1      31.658  26.055  25.057  1.00  0.00     0.314 C 
ATOM     11  C   UNL A   1      32.066  23.885  23.825  1.00  0.00     0.206 C 
ATOM     12  N   UNL A   1      31.935  27.272  25.451  1.00  0.00    -0.205 N 
ATOM     13  S   UNL A   1      30.835  24.947  26.208  1.00  0.00    -0.030 SA
ATOM     14  C   UNL A   1      31.278  23.364  25.512  1.00  0.00     0.120 C 
ATOM     15  C   UNL A   1      33.894  23.074  23.514  1.00  0.00     0.187 C 
ATOM     16  H   UNL A   1      32.277  27.905  24.780  1.00  0.00     0.316 HD
ATOM     17  C   UNL A   1      32.453  22.253  26.644  1.00  0.00     0.156 C 
ATOM     18  S   UNL A   1      34.354  21.686  25.482  1.00  0.00     0.155 S 
ATOM     19  O   UNL A   1      31.002  27.293  27.625  1.00  0.00    -0.247 OA
ATOM     20  O   UNL A   1      35.552  22.043  26.231  1.00  0.00    -0.229 OA
ATOM     21  O   UNL A   1      34.233  20.239  25.354  1.00  0.00    -0.229 OA
BRANCH   9  22
ATOM     22  C   UNL A   1      32.166  25.931  22.458  1.00  0.00     0.242 C 
BRANCH  22  23
ATOM     23  C   UNL A   1      31.169  26.845  21.717  1.00  0.00     0.081 C 
BRANCH  23  24
ATOM     24  C   UNL A   1      30.410  27.975  22.337  1.00  0.00    -0.044 A 
ATOM     25  C   UNL A   1      28.976  30.142  23.390  1.00  0.00     0.118 A 
ATOM     26  C   UNL A   1      30.338  30.254  23.096  1.00  0.00     0.046 A 
ATOM     27  C   UNL A   1      28.347  28.909  23.262  1.00  0.00     0.046 A 
ATOM     28  C   UNL A   1      31.053  29.184  22.574  1.00  0.00     0.007 A 
ATOM     29  C   UNL A   1      29.075  27.820  22.759  1.00  0.00     0.007 A 
BRANCH  25  30
ATOM     30  O   UNL A   1      28.380  31.352  23.590  1.00  0.00    -0.497 OA
ATOM     31  C   UNL A   1      28.713  32.450  22.766  1.00  0.00     0.278 C 
ENDBRANCH  25  30
ENDBRANCH  23  24
ENDBRANCH  22  23
ENDBRANCH   9  22
ENDBRANCH   7   8
ENDBRANCH   6   7
ENDBRANCH   3   6
ENDBRANCH   1   2
BRANCH   1  32
ATOM     32  C   UNL A   1      34.786  33.465  27.827  1.00  0.00     0.023 C 
BRANCH  32  33
ATOM     33  C   UNL A   1      35.307  34.206  29.020  1.00  0.00     0.023 C 
BRANCH  33  34
ATOM     34  C   UNL A   1      34.202  34.183  30.039  1.00  0.00     0.116 C 
BRANCH  34  35
ATOM     35  N   UNL A   1      34.544  33.362  31.557  1.00  0.00    -0.352 N 
ATOM     36  C   UNL A   1      35.749  31.998  32.233  1.00  0.00     0.251 C 
ATOM     37  H   UNL A   1      33.952  33.689  32.271  1.00  0.00     0.163 HD
ATOM     38  O   UNL A   1      35.943  31.699  33.424  1.00  0.00    -0.269 OA
BRANCH  36  39
ATOM     39  C   UNL A   1      36.848  30.946  31.359  1.00  0.00     0.039 A 
ATOM     40  C   UNL A   1      36.760  30.908  29.962  1.00  0.00     0.014 A 
ATOM     41  C   UNL A   1      37.972  30.273  31.941  1.00  0.00     0.014 A 
ATOM     42  C   UNL A   1      37.820  30.369  29.205  1.00  0.00     0.010 A 
ATOM     43  C   UNL A   1      39.071  29.926  31.210  1.00  0.00     0.010 A 
ATOM     44  C   UNL A   1      39.003  29.940  29.832  1.00  0.00    -0.014 A 
BRANCH  44  45
ATOM     45  C   UNL A   1      40.257  29.538  29.169  1.00  0.00     0.031 A 
ATOM     46  C   UNL A   1      40.363  28.148  28.580  1.00  0.00     0.074 A 
ATOM     47  C   UNL A   1      41.351  30.293  29.371  1.00  0.00     0.049 A 
ATOM     48  N   UNL A   1      41.413  27.530  28.112  1.00  0.00    -0.248 NA
ATOM     49  C   UNL A   1      39.148  27.308  28.621  1.00  0.00     0.031 C 
ATOM     50  C   UNL A   1      41.385  31.563  30.107  1.00  0.00     0.029 A 
ATOM     51  N   UNL A   1      42.651  30.095  28.998  1.00  0.00    -0.354 N 
ATOM     52  C   UNL A   1      40.984  26.238  27.820  1.00  0.00     0.074 A 
ATOM     53  C   UNL A   1      39.630  26.120  28.302  1.00  0.00     0.031 C 
ATOM     54  C   UNL A   1      42.628  32.064  30.061  1.00  0.00     0.029 A 
ATOM     55  C   UNL A   1      43.484  31.138  29.329  1.00  0.00     0.049 A 
ATOM     56  H   UNL A   1      42.963  29.282  28.538  1.00  0.00     0.167 HD
ATOM     57  C   UNL A   1      41.644  25.260  27.152  1.00  0.00     0.034 A 
ATOM     58  C   UNL A   1      44.783  31.326  29.037  1.00  0.00     0.034 A 
ATOM     59  C   UNL A   1      42.986  25.434  26.664  1.00  0.00     0.049 A 
ATOM     60  C   UNL A   1      45.491  30.259  28.241  1.00  0.00     0.074 A 
ATOM     61  C   UNL A   1      43.733  24.593  25.863  1.00  0.00     0.029 A 
ATOM     62  N   UNL A   1      43.786  26.536  26.947  1.00  0.00    -0.354 N 
ATOM     63  N   UNL A   1      45.032  29.104  27.816  1.00  0.00    -0.248 NA
ATOM     64  C   UNL A   1      46.882  30.532  27.869  1.00  0.00     0.031 C 
ATOM     65  C   UNL A   1      45.011  25.146  25.731  1.00  0.00     0.029 A 
ATOM     66  C   UNL A   1      45.034  26.376  26.372  1.00  0.00     0.049 A 
ATOM     67  H   UNL A   1      43.506  27.314  27.480  1.00  0.00     0.167 HD
ATOM     68  C   UNL A   1      46.068  28.528  27.087  1.00  0.00     0.074 A 
ATOM     69  C   UNL A   1      47.169  29.473  27.126  1.00  0.00     0.031 C 
ATOM     70  C   UNL A   1      46.113  27.335  26.440  1.00  0.00     0.034 A 
BRANCH  57  71
ATOM     71  C   UNL A   1      40.914  23.957  26.914  1.00  0.00     0.023 A 
ATOM     72  C   UNL A   1      41.546  22.712  27.101  1.00  0.00     0.031 A 
ATOM     73  C   UNL A   1      39.591  23.948  26.444  1.00  0.00     0.131 A 
ATOM     74  C   UNL A   1      40.901  21.528  26.719  1.00  0.00     0.055 A 
ATOM     75  C   UNL A   1      38.915  22.757  26.161  1.00  0.00     0.041 A 
ATOM     76  F   UNL A   1      38.935  25.099  26.223  1.00  0.00    -0.206 F 
ATOM     77  C   UNL A   1      39.578  21.539  26.276  1.00  0.00     0.022 A 
BRANCH  74  78
ATOM     78  S   UNL A   1      41.881  20.003  26.629  1.00  0.00     0.124 S 
ATOM     79  O   UNL A   1      43.122  20.486  26.029  1.00  0.00    -0.237 OA
ATOM     80  O   UNL A   1      41.963  19.599  28.028  1.00  0.00    -0.237 OA
ATOM     81  O   UNL A   1      41.081  19.131  25.772  1.00  0.00    -0.744 OA
ENDBRANCH  74  78
ENDBRANCH  57  71
BRANCH  58  82
ATOM     82  C   UNL A   1      45.464  32.597  29.409  1.00  0.00     0.023 A 
ATOM     83  C   UNL A   1      45.332  33.732  28.591  1.00  0.00     0.031 A 
ATOM     84  C   UNL A   1      46.257  32.705  30.562  1.00  0.00     0.131 A 
ATOM     85  C   UNL A   1      46.027  34.909  28.906  1.00  0.00     0.055 A 
ATOM     86  C   UNL A   1      46.905  33.896  30.901  1.00  0.00     0.041 A 
ATOM     87  F   UNL A   1      46.399  31.658  31.391  1.00  0.00    -0.206 F 
ATOM     88  C   UNL A   1      46.802  35.003  30.063  1.00  0.00     0.022 A 
BRANCH  85  89
ATOM     89  S   UNL A   1      45.963  36.289  27.732  1.00  0.00     0.124 S 
ATOM     90  O   UNL A   1      46.796  37.283  28.399  1.00  0.00    -0.237 OA
ATOM     91  O   UNL A   1      46.522  35.686  26.527  1.00  0.00    -0.237 OA
ATOM     92  O   UNL A   1      44.539  36.609  27.665  1.00  0.00    -0.744 OA
ENDBRANCH  85  89
ENDBRANCH  58  82
BRANCH  70  93
ATOM     93  C   UNL A   1      47.379  27.011  25.690  1.00  0.00     0.023 A 
ATOM     94  C   UNL A   1      48.470  26.391  26.320  1.00  0.00     0.031 A 
ATOM     95  C   UNL A   1      47.488  27.322  24.323  1.00  0.00     0.131 A 
ATOM     96  C   UNL A   1      49.647  26.155  25.596  1.00  0.00     0.055 A 
ATOM     97  C   UNL A   1      48.634  27.015  23.591  1.00  0.00     0.041 A 
ATOM     98  F   UNL A   1      46.476  27.919  23.674  1.00  0.00    -0.206 F 
ATOM     99  C   UNL A   1      49.728  26.441  24.231  1.00  0.00     0.022 A 
BRANCH  96 100
ATOM    100  S   UNL A   1      51.108  25.564  26.493  1.00  0.00     0.124 S 
ATOM    101  O   UNL A   1      51.990  25.165  25.402  1.00  0.00    -0.237 OA
ATOM    102  O   UNL A   1      51.516  26.748  27.242  1.00  0.00    -0.237 OA
ATOM    103  O   UNL A   1      50.589  24.465  27.305  1.00  0.00    -0.744 OA
ENDBRANCH  96 100
ENDBRANCH  70  93
ENDBRANCH  44  45
ENDBRANCH  36  39
ENDBRANCH  34  35
ENDBRANCH  33  34
ENDBRANCH  32  33
ENDBRANCH   1  32
TORSDOF 20
ENDMDL
