MODEL 1
REMARK VINA RESULT:     -11.7      0.000      0.000
REMARK SMILES CC[C@H](NC(=O)c1nn(C)cc1C(=O)NCCCCNC(=O)c1ccc(-c2c3nc(c(-c4cc(S(=O)(=O)[O-])ccc4F)c4ccc([nH]4)c(-c4cc(S(=O)(=O)[O-])ccc4F)c4nc(c(-c5cc(S(=O)(=O)[O-])ccc5F)c5ccc2[nH]5)C=C4)C=C3)cc1)c1ccccc1
REMARK SMILES IDX 17 1 16 2 15 3 13 4 14 5 12 7 7 8 8 9 9 10 11 11 10 12 5 13
REMARK SMILES IDX 4 14 6 16 3 17 2 18 1 19 86 20 87 21 91 22 88 23 90 24 89 25
REMARK SMILES IDX 18 26 19 27 20 28 21 29 22 31 23 32 24 33 85 34 25 35 84 36
REMARK SMILES IDX 26 37 27 38 28 39 78 40 29 41 83 42 77 43 79 44 30 45 82 46
REMARK SMILES IDX 76 47 75 48 31 50 63 51 43 52 62 53 44 54 47 55 61 56 80 57
REMARK SMILES IDX 45 58 46 59 60 61 81 62 48 63 32 64 33 65 41 66 34 67 40 68
REMARK SMILES IDX 42 69 39 70 35 71 36 72 37 73 38 74 64 75 65 76 73 77 66 78
REMARK SMILES IDX 72 79 74 80 71 81 67 82 68 83 69 84 70 85 49 86 50 87 58 88
REMARK SMILES IDX 51 89 57 90 59 91 56 92 52 93 53 94 54 95 55 96
REMARK H PARENT 15 6 4 15 20 30 79 49 47 60
REMARK Flexibility Score: inf
ROOT
ATOM      1  C   UNL A   1      31.583  27.915  26.864  1.00  0.00     0.023 C 
ENDROOT
BRANCH   1   2
ATOM      2  C   UNL A   1      32.217  26.604  26.405  1.00  0.00     0.116 C 
BRANCH   2   3
ATOM      3  N   UNL A   1      31.526  25.413  26.867  1.00  0.00    -0.352 N 
ATOM      4  C   UNL A   1      31.833  24.069  26.825  1.00  0.00     0.255 C 
ATOM      5  O   UNL A   1      31.005  23.296  27.297  1.00  0.00    -0.269 OA
ATOM      6  H   UNL A   1      30.662  25.604  27.299  1.00  0.00     0.163 HD
BRANCH   4   7
ATOM      7  C   UNL A   1      33.044  23.575  26.192  1.00  0.00     0.090 A 
ATOM      8  C   UNL A   1      33.181  23.142  24.829  1.00  0.00     0.162 A 
ATOM      9  N   UNL A   1      34.449  22.766  24.557  1.00  0.00    -0.167 NA
ATOM     10  N   UNL A   1      35.100  22.964  25.703  1.00  0.00    -0.274 N 
ATOM     11  C   UNL A   1      34.289  23.320  26.735  1.00  0.00     0.123 A 
ATOM     12  C   UNL A   1      36.528  22.773  25.754  1.00  0.00     0.173 C 
BRANCH   8  13
ATOM     13  C   UNL A   1      32.157  22.979  23.792  1.00  0.00     0.273 C 
ATOM     14  N   UNL A   1      31.909  23.967  22.875  1.00  0.00    -0.344 N 
ATOM     15  H   UNL A   1      31.491  23.635  22.048  1.00  0.00     0.164 HD
ATOM     16  O   UNL A   1      31.580  21.901  23.623  1.00  0.00    -0.267 OA
BRANCH  14  17
ATOM     17  C   UNL A   1      32.134  25.411  22.865  1.00  0.00     0.112 C 
BRANCH  17  18
ATOM     18  C   UNL A   1      33.137  25.821  21.756  1.00  0.00     0.026 C 
ATOM     19  C   UNL A   1      32.666  25.492  20.338  1.00  0.00     0.006 C 
ENDBRANCH  17  18
BRANCH  17  20
ATOM     20  C   UNL A   1      30.856  26.225  22.992  1.00  0.00    -0.026 A 
ATOM     21  C   UNL A   1      30.813  27.533  22.479  1.00  0.00     0.006 A 
ATOM     22  C   UNL A   1      29.724  25.762  23.673  1.00  0.00     0.006 A 
ATOM     23  C   UNL A   1      29.709  28.362  22.702  1.00  0.00     0.000 A 
ATOM     24  C   UNL A   1      28.630  26.599  23.916  1.00  0.00     0.000 A 
ATOM     25  C   UNL A   1      28.626  27.903  23.441  1.00  0.00     0.000 A 
ENDBRANCH  17  20
ENDBRANCH  14  17
ENDBRANCH   8  13
ENDBRANCH   4   7
ENDBRANCH   2   3
ENDBRANCH   1   2
BRANCH   1  26
ATOM     26  C   UNL A   1      31.554  29.050  25.855  1.00  0.00     0.023 C 
BRANCH  26  27
ATOM     27  C   UNL A   1      32.764  29.964  25.882  1.00  0.00     0.116 C 
BRANCH  27  28
ATOM     28  N   UNL A   1      32.485  31.292  26.414  1.00  0.00    -0.352 N 
ATOM     29  C   UNL A   1      33.237  32.046  27.285  1.00  0.00     0.251 C 
ATOM     30  H   UNL A   1      31.646  31.705  26.108  1.00  0.00     0.163 HD
ATOM     31  O   UNL A   1      32.805  33.119  27.695  1.00  0.00    -0.269 OA
BRANCH  29  32
ATOM     32  C   UNL A   1      34.535  31.519  27.755  1.00  0.00     0.039 A 
ATOM     33  C   UNL A   1      35.601  32.403  27.935  1.00  0.00     0.014 A 
ATOM     34  C   UNL A   1      34.667  30.173  28.099  1.00  0.00     0.014 A 
ATOM     35  C   UNL A   1      36.772  31.949  28.545  1.00  0.00     0.010 A 
ATOM     36  C   UNL A   1      35.785  29.753  28.806  1.00  0.00     0.010 A 
ATOM     37  C   UNL A   1      36.853  30.633  29.031  1.00  0.00    -0.014 A 
BRANCH  37  38
ATOM     38  C   UNL A   1      38.054  30.138  29.751  1.00  0.00     0.031 A 
ATOM     39  C   UNL A   1      38.312  30.606  31.158  1.00  0.00     0.074 A 
ATOM     40  C   UNL A   1      38.944  29.350  29.117  1.00  0.00     0.049 A 
ATOM     41  N   UNL A   1      39.354  30.401  31.922  1.00  0.00    -0.248 NA
ATOM     42  C   UNL A   1      37.279  31.457  31.769  1.00  0.00     0.031 C 
ATOM     43  C   UNL A   1      38.827  28.880  27.733  1.00  0.00     0.029 A 
ATOM     44  N   UNL A   1      40.129  28.810  29.547  1.00  0.00    -0.354 N 
ATOM     45  C   UNL A   1      39.112  31.121  33.088  1.00  0.00     0.074 A 
ATOM     46  C   UNL A   1      37.863  31.824  32.899  1.00  0.00     0.031 C 
ATOM     47  C   UNL A   1      39.882  28.101  27.441  1.00  0.00     0.029 A 
ATOM     48  C   UNL A   1      40.772  28.050  28.596  1.00  0.00     0.049 A 
ATOM     49  H   UNL A   1      40.488  28.954  30.452  1.00  0.00     0.167 HD
ATOM     50  C   UNL A   1      39.851  31.167  34.225  1.00  0.00     0.034 A 
ATOM     51  C   UNL A   1      41.949  27.395  28.650  1.00  0.00     0.034 A 
ATOM     52  C   UNL A   1      41.074  30.427  34.406  1.00  0.00     0.049 A 
ATOM     53  C   UNL A   1      42.744  27.447  29.930  1.00  0.00     0.074 A 
ATOM     54  C   UNL A   1      41.871  30.342  35.534  1.00  0.00     0.029 A 
ATOM     55  N   UNL A   1      41.675  29.639  33.433  1.00  0.00    -0.354 N 
ATOM     56  N   UNL A   1      42.477  28.091  31.044  1.00  0.00    -0.248 NA
ATOM     57  C   UNL A   1      43.993  26.674  29.966  1.00  0.00     0.031 C 
ATOM     58  C   UNL A   1      42.981  29.549  35.225  1.00  0.00     0.029 A 
ATOM     59  C   UNL A   1      42.844  29.082  33.927  1.00  0.00     0.049 A 
ATOM     60  H   UNL A   1      41.323  29.498  32.524  1.00  0.00     0.167 HD
ATOM     61  C   UNL A   1      43.508  27.772  31.922  1.00  0.00     0.074 A 
ATOM     62  C   UNL A   1      44.392  26.869  31.214  1.00  0.00     0.031 C 
ATOM     63  C   UNL A   1      43.709  28.185  33.200  1.00  0.00     0.034 A 
BRANCH  50  64
ATOM     64  C   UNL A   1      39.354  32.056  35.339  1.00  0.00     0.023 A 
ATOM     65  C   UNL A   1      39.791  33.386  35.471  1.00  0.00     0.031 A 
ATOM     66  C   UNL A   1      38.463  31.559  36.305  1.00  0.00     0.131 A 
ATOM     67  C   UNL A   1      39.403  34.145  36.586  1.00  0.00     0.055 A 
ATOM     68  C   UNL A   1      38.012  32.347  37.366  1.00  0.00     0.041 A 
ATOM     69  F   UNL A   1      38.027  30.291  36.245  1.00  0.00    -0.206 F 
ATOM     70  C   UNL A   1      38.495  33.643  37.520  1.00  0.00     0.022 A 
BRANCH  67  71
ATOM     71  S   UNL A   1      40.217  35.740  36.872  1.00  0.00     0.124 S 
ATOM     72  O   UNL A   1      39.775  36.056  38.228  1.00  0.00    -0.237 OA
ATOM     73  O   UNL A   1      41.629  35.405  36.722  1.00  0.00    -0.237 OA
ATOM     74  O   UNL A   1      39.664  36.599  35.827  1.00  0.00    -0.744 OA
ENDBRANCH  67  71
ENDBRANCH  50  64
BRANCH  51  75
ATOM     75  C   UNL A   1      42.453  26.635  27.469  1.00  0.00     0.023 A 
ATOM     76  C   UNL A   1      42.125  25.282  27.289  1.00  0.00     0.031 A 
ATOM     77  C   UNL A   1      43.309  27.235  26.529  1.00  0.00     0.131 A 
ATOM     78  C   UNL A   1      42.690  24.559  26.226  1.00  0.00     0.055 A 
ATOM     79  C   UNL A   1      43.827  26.526  25.443  1.00  0.00     0.041 A 
ATOM     80  F   UNL A   1      43.649  28.530  26.649  1.00  0.00    -0.206 F 
ATOM     81  C   UNL A   1      43.530  25.175  25.296  1.00  0.00     0.022 A 
BRANCH  78  82
ATOM     82  S   UNL A   1      42.383  22.774  26.131  1.00  0.00     0.124 S 
ATOM     83  O   UNL A   1      40.935  22.712  26.297  1.00  0.00    -0.237 OA
ATOM     84  O   UNL A   1      42.891  22.451  24.803  1.00  0.00    -0.237 OA
ATOM     85  O   UNL A   1      43.163  22.235  27.243  1.00  0.00    -0.744 OA
ENDBRANCH  78  82
ENDBRANCH  51  75
BRANCH  63  86
ATOM     86  C   UNL A   1      44.906  27.618  33.921  1.00  0.00     0.023 A 
ATOM     87  C   UNL A   1      44.794  26.512  34.781  1.00  0.00     0.031 A 
ATOM     88  C   UNL A   1      46.174  28.200  33.748  1.00  0.00     0.131 A 
ATOM     89  C   UNL A   1      45.922  26.056  35.478  1.00  0.00     0.055 A 
ATOM     90  C   UNL A   1      47.303  27.704  34.399  1.00  0.00     0.041 A 
ATOM     91  F   UNL A   1      46.335  29.259  32.939  1.00  0.00    -0.206 F 
ATOM     92  C   UNL A   1      47.178  26.633  35.280  1.00  0.00     0.022 A 
BRANCH  89  93
ATOM     93  S   UNL A   1      45.707  24.748  36.716  1.00  0.00     0.124 S 
ATOM     94  O   UNL A   1      46.482  23.653  36.138  1.00  0.00    -0.237 OA
ATOM     95  O   UNL A   1      46.267  25.360  37.917  1.00  0.00    -0.237 OA
ATOM     96  O   UNL A   1      44.261  24.537  36.745  1.00  0.00    -0.744 OA
ENDBRANCH  89  93
ENDBRANCH  63  86
ENDBRANCH  37  38
ENDBRANCH  29  32
ENDBRANCH  27  28
ENDBRANCH  26  27
ENDBRANCH   1  26
TORSDOF 18
ENDMDL
MODEL 2
REMARK VINA RESULT:     -11.6      1.518      7.568
REMARK SMILES CC[C@H](NC(=O)c1nn(C)cc1C(=O)NCCCCNC(=O)c1ccc(-c2c3nc(c(-c4cc(S(=O)(=O)[O-])ccc4F)c4ccc([nH]4)c(-c4cc(S(=O)(=O)[O-])ccc4F)c4nc(c(-c5cc(S(=O)(=O)[O-])ccc5F)c5ccc2[nH]5)C=C4)C=C3)cc1)c1ccccc1
REMARK SMILES IDX 17 1 16 2 15 3 13 4 14 5 12 7 7 8 8 9 9 10 11 11 10 12 5 13
REMARK SMILES IDX 4 14 6 16 3 17 2 18 1 19 86 20 87 21 91 22 88 23 90 24 89 25
REMARK SMILES IDX 18 26 19 27 20 28 21 29 22 31 23 32 24 33 85 34 25 35 84 36
REMARK SMILES IDX 26 37 27 38 28 39 78 40 29 41 83 42 77 43 79 44 30 45 82 46
REMARK SMILES IDX 76 47 75 48 31 50 63 51 43 52 62 53 44 54 47 55 61 56 80 57
REMARK SMILES IDX 45 58 46 59 60 61 81 62 48 63 32 64 33 65 41 66 34 67 40 68
REMARK SMILES IDX 42 69 39 70 35 71 36 72 37 73 38 74 64 75 65 76 73 77 66 78
REMARK SMILES IDX 72 79 74 80 71 81 67 82 68 83 69 84 70 85 49 86 50 87 58 88
REMARK SMILES IDX 51 89 57 90 59 91 56 92 52 93 53 94 54 95 55 96
REMARK H PARENT 15 6 4 15 20 30 79 49 47 60
REMARK Flexibility Score: inf
ROOT
ATOM      1  C   UNL A   1      31.993  27.875  27.063  1.00  0.00     0.023 C 
ENDROOT
BRANCH   1   2
ATOM      2  C   UNL A   1      32.425  26.543  26.454  1.00  0.00     0.116 C 
BRANCH   2   3
ATOM      3  N   UNL A   1      31.623  25.407  26.874  1.00  0.00    -0.352 N 
ATOM      4  C   UNL A   1      31.787  24.043  26.757  1.00  0.00     0.255 C 
ATOM      5  O   UNL A   1      30.892  23.336  27.211  1.00  0.00    -0.269 OA
ATOM      6  H   UNL A   1      30.792  25.663  27.336  1.00  0.00     0.163 HD
BRANCH   4   7
ATOM      7  C   UNL A   1      32.927  23.460  26.071  1.00  0.00     0.090 A 
ATOM      8  C   UNL A   1      32.991  23.085  24.686  1.00  0.00     0.162 A 
ATOM      9  N   UNL A   1      34.208  22.595  24.364  1.00  0.00    -0.167 NA
ATOM     10  N   UNL A   1      34.898  22.667  25.502  1.00  0.00    -0.274 N 
ATOM     11  C   UNL A   1      34.150  23.051  26.570  1.00  0.00     0.123 A 
ATOM     12  C   UNL A   1      36.300  22.328  25.507  1.00  0.00     0.173 C 
BRANCH   8  13
ATOM     13  C   UNL A   1      31.935  23.080  23.669  1.00  0.00     0.273 C 
ATOM     14  N   UNL A   1      31.730  24.161  22.849  1.00  0.00    -0.344 N 
ATOM     15  H   UNL A   1      31.273  23.931  22.009  1.00  0.00     0.164 HD
ATOM     16  O   UNL A   1      31.285  22.060  23.421  1.00  0.00    -0.267 OA
BRANCH  14  17
ATOM     17  C   UNL A   1      32.049  25.582  22.961  1.00  0.00     0.112 C 
BRANCH  17  18
ATOM     18  C   UNL A   1      33.073  26.020  21.883  1.00  0.00     0.026 C 
ATOM     19  C   UNL A   1      32.728  25.553  20.468  1.00  0.00     0.006 C 
ENDBRANCH  17  18
BRANCH  17  20
ATOM     20  C   UNL A   1      30.826  26.463  23.167  1.00  0.00    -0.026 A 
ATOM     21  C   UNL A   1      29.703  25.945  23.835  1.00  0.00     0.006 A 
ATOM     22  C   UNL A   1      30.727  27.759  22.650  1.00  0.00     0.006 A 
ATOM     23  C   UNL A   1      28.510  26.671  23.918  1.00  0.00     0.000 A 
ATOM     24  C   UNL A   1      29.527  28.476  22.712  1.00  0.00     0.000 A 
ATOM     25  C   UNL A   1      28.415  27.928  23.335  1.00  0.00     0.000 A 
ENDBRANCH  17  20
ENDBRANCH  14  17
ENDBRANCH   8  13
ENDBRANCH   4   7
ENDBRANCH   2   3
ENDBRANCH   1   2
BRANCH   1  26
ATOM     26  C   UNL A   1      31.602  28.975  26.092  1.00  0.00     0.023 C 
BRANCH  26  27
ATOM     27  C   UNL A   1      32.657  30.044  25.874  1.00  0.00     0.116 C 
BRANCH  27  28
ATOM     28  N   UNL A   1      32.269  31.360  26.365  1.00  0.00    -0.352 N 
ATOM     29  C   UNL A   1      32.934  32.184  27.244  1.00  0.00     0.251 C 
ATOM     30  H   UNL A   1      31.414  31.707  26.019  1.00  0.00     0.163 HD
ATOM     31  O   UNL A   1      32.415  33.232  27.612  1.00  0.00    -0.269 OA
BRANCH  29  32
ATOM     32  C   UNL A   1      34.247  31.758  27.772  1.00  0.00     0.039 A 
ATOM     33  C   UNL A   1      35.257  32.710  27.927  1.00  0.00     0.014 A 
ATOM     34  C   UNL A   1      34.445  30.442  28.192  1.00  0.00     0.014 A 
ATOM     35  C   UNL A   1      36.435  32.357  28.588  1.00  0.00     0.010 A 
ATOM     36  C   UNL A   1      35.566  30.125  28.947  1.00  0.00     0.010 A 
ATOM     37  C   UNL A   1      36.577  31.076  29.147  1.00  0.00    -0.014 A 
BRANCH  37  38
ATOM     38  C   UNL A   1      37.785  30.690  29.921  1.00  0.00     0.031 A 
ATOM     39  C   UNL A   1      38.787  29.754  29.301  1.00  0.00     0.074 A 
ATOM     40  C   UNL A   1      37.931  31.107  31.194  1.00  0.00     0.049 A 
ATOM     41  N   UNL A   1      39.839  29.192  29.838  1.00  0.00    -0.248 NA
ATOM     42  C   UNL A   1      38.545  29.360  27.904  1.00  0.00     0.031 C 
ATOM     43  C   UNL A   1      36.994  31.971  31.919  1.00  0.00     0.029 A 
ATOM     44  N   UNL A   1      38.919  30.854  32.111  1.00  0.00    -0.354 N 
ATOM     45  C   UNL A   1      40.364  28.360  28.855  1.00  0.00     0.074 A 
ATOM     46  C   UNL A   1      39.473  28.435  27.718  1.00  0.00     0.031 C 
ATOM     47  C   UNL A   1      37.468  32.196  33.154  1.00  0.00     0.029 A 
ATOM     48  C   UNL A   1      38.716  31.462  33.330  1.00  0.00     0.049 A 
ATOM     49  H   UNL A   1      39.702  30.289  31.917  1.00  0.00     0.167 HD
ATOM     50  C   UNL A   1      41.502  27.623  28.885  1.00  0.00     0.034 A 
ATOM     51  C   UNL A   1      39.451  31.422  34.459  1.00  0.00     0.034 A 
ATOM     52  C   UNL A   1      42.397  27.593  30.015  1.00  0.00     0.049 A 
ATOM     53  C   UNL A   1      40.721  30.610  34.464  1.00  0.00     0.074 A 
ATOM     54  C   UNL A   1      43.610  26.939  30.137  1.00  0.00     0.029 A 
ATOM     55  N   UNL A   1      42.176  28.250  31.218  1.00  0.00    -0.354 N 
ATOM     56  N   UNL A   1      41.233  29.869  33.507  1.00  0.00    -0.248 NA
ATOM     57  C   UNL A   1      41.521  30.638  35.696  1.00  0.00     0.031 C 
ATOM     58  C   UNL A   1      44.094  27.155  31.431  1.00  0.00     0.029 A 
ATOM     59  C   UNL A   1      43.219  28.000  32.096  1.00  0.00     0.049 A 
ATOM     60  H   UNL A   1      41.392  28.811  31.419  1.00  0.00     0.167 HD
ATOM     61  C   UNL A   1      42.430  29.371  34.012  1.00  0.00     0.074 A 
ATOM     62  C   UNL A   1      42.570  29.908  35.351  1.00  0.00     0.031 C 
ATOM     63  C   UNL A   1      43.335  28.546  33.427  1.00  0.00     0.034 A 
BRANCH  50  64
ATOM     64  C   UNL A   1      41.823  26.789  27.669  1.00  0.00     0.023 A 
ATOM     65  C   UNL A   1      41.659  25.393  27.668  1.00  0.00     0.031 A 
ATOM     66  C   UNL A   1      42.334  27.391  26.506  1.00  0.00     0.131 A 
ATOM     67  C   UNL A   1      42.079  24.637  26.563  1.00  0.00     0.055 A 
ATOM     68  C   UNL A   1      42.671  26.641  25.377  1.00  0.00     0.041 A 
ATOM     69  F   UNL A   1      42.534  28.717  26.454  1.00  0.00    -0.206 F 
ATOM     70  C   UNL A   1      42.560  25.255  25.407  1.00  0.00     0.022 A 
BRANCH  67  71
ATOM     71  S   UNL A   1      42.126  22.831  26.718  1.00  0.00     0.124 S 
ATOM     72  O   UNL A   1      41.924  22.412  25.333  1.00  0.00    -0.237 OA
ATOM     73  O   UNL A   1      43.455  22.595  27.270  1.00  0.00    -0.237 OA
ATOM     74  O   UNL A   1      41.014  22.536  27.619  1.00  0.00    -0.744 OA
ENDBRANCH  67  71
ENDBRANCH  50  64
BRANCH  51  75
ATOM     75  C   UNL A   1      39.016  32.166  35.677  1.00  0.00     0.023 A 
ATOM     76  C   UNL A   1      38.377  31.502  36.738  1.00  0.00     0.031 A 
ATOM     77  C   UNL A   1      39.190  33.557  35.781  1.00  0.00     0.131 A 
ATOM     78  C   UNL A   1      37.887  32.236  37.830  1.00  0.00     0.055 A 
ATOM     79  C   UNL A   1      38.748  34.275  36.894  1.00  0.00     0.041 A 
ATOM     80  F   UNL A   1      39.803  34.240  34.800  1.00  0.00    -0.206 F 
ATOM     81  C   UNL A   1      38.079  33.616  37.920  1.00  0.00     0.022 A 
BRANCH  78  82
ATOM     82  S   UNL A   1      36.914  31.369  39.091  1.00  0.00     0.124 S 
ATOM     83  O   UNL A   1      35.733  32.219  39.193  1.00  0.00    -0.237 OA
ATOM     84  O   UNL A   1      36.714  30.063  38.472  1.00  0.00    -0.237 OA
ATOM     85  O   UNL A   1      37.790  31.374  40.260  1.00  0.00    -0.744 OA
ENDBRANCH  78  82
ENDBRANCH  51  75
BRANCH  63  86
ATOM     86  C   UNL A   1      44.577  28.222  34.218  1.00  0.00     0.023 A 
ATOM     87  C   UNL A   1      44.605  27.171  35.150  1.00  0.00     0.031 A 
ATOM     88  C   UNL A   1      45.745  28.984  34.038  1.00  0.00     0.131 A 
ATOM     89  C   UNL A   1      45.763  26.944  35.907  1.00  0.00     0.055 A 
ATOM     90  C   UNL A   1      46.913  28.715  34.752  1.00  0.00     0.041 A 
ATOM     91  F   UNL A   1      45.770  29.999  33.160  1.00  0.00    -0.206 F 
ATOM     92  C   UNL A   1      46.922  27.698  35.703  1.00  0.00     0.022 A 
BRANCH  89  93
ATOM     93  S   UNL A   1      45.708  25.704  37.229  1.00  0.00     0.124 S 
ATOM     94  O   UNL A   1      46.918  26.012  37.986  1.00  0.00    -0.237 OA
ATOM     95  O   UNL A   1      44.445  26.012  37.894  1.00  0.00    -0.237 OA
ATOM     96  O   UNL A   1      45.734  24.433  36.508  1.00  0.00    -0.744 OA
ENDBRANCH  89  93
ENDBRANCH  63  86
ENDBRANCH  37  38
ENDBRANCH  29  32
ENDBRANCH  27  28
ENDBRANCH  26  27
ENDBRANCH   1  26
TORSDOF 18
ENDMDL
MODEL 3
REMARK VINA RESULT:     -11.5      2.599      8.335
REMARK SMILES CC[C@H](NC(=O)c1nn(C)cc1C(=O)NCCCCNC(=O)c1ccc(-c2c3nc(c(-c4cc(S(=O)(=O)[O-])ccc4F)c4ccc([nH]4)c(-c4cc(S(=O)(=O)[O-])ccc4F)c4nc(c(-c5cc(S(=O)(=O)[O-])ccc5F)c5ccc2[nH]5)C=C4)C=C3)cc1)c1ccccc1
REMARK SMILES IDX 17 1 16 2 15 3 13 4 14 5 12 7 7 8 8 9 9 10 11 11 10 12 5 13
REMARK SMILES IDX 4 14 6 16 3 17 2 18 1 19 86 20 87 21 91 22 88 23 90 24 89 25
REMARK SMILES IDX 18 26 19 27 20 28 21 29 22 31 23 32 24 33 85 34 25 35 84 36
REMARK SMILES IDX 26 37 27 38 28 39 78 40 29 41 83 42 77 43 79 44 30 45 82 46
REMARK SMILES IDX 76 47 75 48 31 50 63 51 43 52 62 53 44 54 47 55 61 56 80 57
REMARK SMILES IDX 45 58 46 59 60 61 81 62 48 63 32 64 33 65 41 66 34 67 40 68
REMARK SMILES IDX 42 69 39 70 35 71 36 72 37 73 38 74 64 75 65 76 73 77 66 78
REMARK SMILES IDX 72 79 74 80 71 81 67 82 68 83 69 84 70 85 49 86 50 87 58 88
REMARK SMILES IDX 51 89 57 90 59 91 56 92 52 93 53 94 54 95 55 96
REMARK H PARENT 15 6 4 15 20 30 79 49 47 60
REMARK Flexibility Score: inf
ROOT
ATOM      1  C   UNL A   1      32.083  29.885  27.024  1.00  0.00     0.023 C 
ENDROOT
BRANCH   1   2
ATOM      2  C   UNL A   1      33.096  28.922  26.409  1.00  0.00     0.116 C 
BRANCH   2   3
ATOM      3  N   UNL A   1      33.493  29.260  25.053  1.00  0.00    -0.352 N 
ATOM      4  C   UNL A   1      33.048  28.853  23.813  1.00  0.00     0.255 C 
ATOM      5  O   UNL A   1      33.623  29.323  22.836  1.00  0.00    -0.269 OA
ATOM      6  H   UNL A   1      34.230  29.911  25.011  1.00  0.00     0.163 HD
BRANCH   4   7
ATOM      7  C   UNL A   1      31.995  27.863  23.658  1.00  0.00     0.090 A 
ATOM      8  C   UNL A   1      32.128  26.559  23.070  1.00  0.00     0.162 A 
ATOM      9  N   UNL A   1      30.960  25.882  23.106  1.00  0.00    -0.167 NA
ATOM     10  N   UNL A   1      30.115  26.722  23.706  1.00  0.00    -0.274 N 
ATOM     11  C   UNL A   1      30.645  27.953  23.937  1.00  0.00     0.123 A 
ATOM     12  C   UNL A   1      28.779  26.284  24.022  1.00  0.00     0.173 C 
BRANCH   8  13
ATOM     13  C   UNL A   1      33.278  25.950  22.395  1.00  0.00     0.273 C 
ATOM     14  N   UNL A   1      33.888  24.829  22.898  1.00  0.00    -0.344 N 
ATOM     15  H   UNL A   1      34.381  24.317  22.218  1.00  0.00     0.164 HD
ATOM     16  O   UNL A   1      33.651  26.339  21.284  1.00  0.00    -0.267 OA
BRANCH  14  17
ATOM     17  C   UNL A   1      33.959  24.236  24.231  1.00  0.00     0.112 C 
BRANCH  17  18
ATOM     18  C   UNL A   1      32.712  23.364  24.530  1.00  0.00     0.026 C 
ATOM     19  C   UNL A   1      31.896  23.836  25.734  1.00  0.00     0.006 C 
ENDBRANCH  17  18
BRANCH  17  20
ATOM     20  C   UNL A   1      35.323  23.648  24.560  1.00  0.00    -0.026 A 
ATOM     21  C   UNL A   1      35.754  22.484  23.899  1.00  0.00     0.006 A 
ATOM     22  C   UNL A   1      36.154  24.167  25.559  1.00  0.00     0.006 A 
ATOM     23  C   UNL A   1      36.933  21.833  24.274  1.00  0.00     0.000 A 
ATOM     24  C   UNL A   1      37.322  23.503  25.950  1.00  0.00     0.000 A 
ATOM     25  C   UNL A   1      37.706  22.330  25.316  1.00  0.00     0.000 A 
ENDBRANCH  17  20
ENDBRANCH  14  17
ENDBRANCH   8  13
ENDBRANCH   4   7
ENDBRANCH   2   3
ENDBRANCH   1   2
BRANCH   1  26
ATOM     26  C   UNL A   1      32.182  31.341  26.602  1.00  0.00     0.023 C 
BRANCH  26  27
ATOM     27  C   UNL A   1      33.200  32.164  27.369  1.00  0.00     0.116 C 
BRANCH  27  28
ATOM     28  N   UNL A   1      32.780  33.538  27.613  1.00  0.00    -0.352 N 
ATOM     29  C   UNL A   1      33.261  34.435  28.540  1.00  0.00     0.251 C 
ATOM     30  H   UNL A   1      32.055  33.870  27.036  1.00  0.00     0.163 HD
ATOM     31  O   UNL A   1      32.729  35.533  28.661  1.00  0.00    -0.269 OA
BRANCH  29  32
ATOM     32  C   UNL A   1      34.383  34.032  29.413  1.00  0.00     0.039 A 
ATOM     33  C   UNL A   1      34.127  33.204  30.508  1.00  0.00     0.014 A 
ATOM     34  C   UNL A   1      35.691  34.402  29.096  1.00  0.00     0.014 A 
ATOM     35  C   UNL A   1      35.197  32.675  31.231  1.00  0.00     0.010 A 
ATOM     36  C   UNL A   1      36.752  33.785  29.744  1.00  0.00     0.010 A 
ATOM     37  C   UNL A   1      36.519  32.921  30.824  1.00  0.00    -0.014 A 
BRANCH  37  38
ATOM     38  C   UNL A   1      37.679  32.314  31.524  1.00  0.00     0.031 A 
ATOM     39  C   UNL A   1      38.436  31.195  30.861  1.00  0.00     0.074 A 
ATOM     40  C   UNL A   1      37.991  32.705  32.776  1.00  0.00     0.049 A 
ATOM     41  N   UNL A   1      39.394  30.444  31.338  1.00  0.00    -0.248 NA
ATOM     42  C   UNL A   1      38.027  30.845  29.491  1.00  0.00     0.031 C 
ATOM     43  C   UNL A   1      37.291  33.741  33.542  1.00  0.00     0.029 A 
ATOM     44  N   UNL A   1      38.972  32.272  33.631  1.00  0.00    -0.354 N 
ATOM     45  C   UNL A   1      39.678  29.517  30.341  1.00  0.00     0.074 A 
ATOM     46  C   UNL A   1      38.743  29.756  29.264  1.00  0.00     0.031 C 
ATOM     47  C   UNL A   1      37.884  33.880  34.739  1.00  0.00     0.029 A 
ATOM     48  C   UNL A   1      38.975  32.918  34.847  1.00  0.00     0.049 A 
ATOM     49  H   UNL A   1      39.615  31.564  33.398  1.00  0.00     0.167 HD
ATOM     50  C   UNL A   1      40.652  28.574  30.312  1.00  0.00     0.034 A 
ATOM     51  C   UNL A   1      39.764  32.745  35.926  1.00  0.00     0.034 A 
ATOM     52  C   UNL A   1      41.599  28.379  31.381  1.00  0.00     0.049 A 
ATOM     53  C   UNL A   1      40.850  31.701  35.865  1.00  0.00     0.074 A 
ATOM     54  C   UNL A   1      42.668  27.503  31.437  1.00  0.00     0.029 A 
ATOM     55  N   UNL A   1      41.593  29.077  32.581  1.00  0.00    -0.354 N 
ATOM     56  N   UNL A   1      41.141  30.867  34.893  1.00  0.00    -0.248 NA
ATOM     57  C   UNL A   1      41.723  31.584  37.040  1.00  0.00     0.031 C 
ATOM     58  C   UNL A   1      43.273  27.631  32.691  1.00  0.00     0.029 A 
ATOM     59  C   UNL A   1      42.626  28.636  33.394  1.00  0.00     0.049 A 
ATOM     60  H   UNL A   1      40.949  29.782  32.822  1.00  0.00     0.167 HD
ATOM     61  C   UNL A   1      42.251  30.150  35.328  1.00  0.00     0.074 A 
ATOM     62  C   UNL A   1      42.585  30.660  36.643  1.00  0.00     0.031 C 
ATOM     63  C   UNL A   1      42.937  29.160  34.702  1.00  0.00     0.034 A 
BRANCH  50  64
ATOM     64  C   UNL A   1      40.721  27.683  29.095  1.00  0.00     0.023 A 
ATOM     65  C   UNL A   1      41.669  27.897  28.079  1.00  0.00     0.031 A 
ATOM     66  C   UNL A   1      39.805  26.630  28.929  1.00  0.00     0.131 A 
ATOM     67  C   UNL A   1      41.626  27.126  26.907  1.00  0.00     0.055 A 
ATOM     68  C   UNL A   1      39.823  25.810  27.798  1.00  0.00     0.041 A 
ATOM     69  F   UNL A   1      38.863  26.391  29.855  1.00  0.00    -0.206 F 
ATOM     70  C   UNL A   1      40.727  26.066  26.772  1.00  0.00     0.022 A 
BRANCH  67  71
ATOM     71  S   UNL A   1      42.666  27.624  25.507  1.00  0.00     0.124 S 
ATOM     72  O   UNL A   1      41.943  28.791  25.006  1.00  0.00    -0.237 OA
ATOM     73  O   UNL A   1      43.949  27.892  26.145  1.00  0.00    -0.237 OA
ATOM     74  O   UNL A   1      42.637  26.458  24.627  1.00  0.00    -0.744 OA
ENDBRANCH  67  71
ENDBRANCH  50  64
BRANCH  51  75
ATOM     75  C   UNL A   1      39.567  33.570  37.154  1.00  0.00     0.023 A 
ATOM     76  C   UNL A   1      38.972  33.022  38.303  1.00  0.00     0.031 A 
ATOM     77  C   UNL A   1      39.925  34.929  37.184  1.00  0.00     0.131 A 
ATOM     78  C   UNL A   1      38.705  33.840  39.412  1.00  0.00     0.055 A 
ATOM     79  C   UNL A   1      39.706  35.726  38.309  1.00  0.00     0.041 A 
ATOM     80  F   UNL A   1      40.505  35.502  36.116  1.00  0.00    -0.206 F 
ATOM     81  C   UNL A   1      39.078  35.186  39.426  1.00  0.00     0.022 A 
BRANCH  78  82
ATOM     82  S   UNL A   1      37.778  33.138  40.804  1.00  0.00     0.124 S 
ATOM     83  O   UNL A   1      38.026  34.121  41.853  1.00  0.00    -0.237 OA
ATOM     84  O   UNL A   1      36.421  33.096  40.272  1.00  0.00    -0.237 OA
ATOM     85  O   UNL A   1      38.407  31.835  41.009  1.00  0.00    -0.744 OA
ENDBRANCH  78  82
ENDBRANCH  51  75
BRANCH  63  86
ATOM     86  C   UNL A   1      44.144  28.607  35.416  1.00  0.00     0.023 A 
ATOM     87  C   UNL A   1      44.035  27.566  36.354  1.00  0.00     0.031 A 
ATOM     88  C   UNL A   1      45.421  29.137  35.156  1.00  0.00     0.131 A 
ATOM     89  C   UNL A   1      45.176  27.125  37.039  1.00  0.00     0.055 A 
ATOM     90  C   UNL A   1      46.560  28.652  35.798  1.00  0.00     0.041 A 
ATOM     91  F   UNL A   1      45.579  30.132  34.269  1.00  0.00    -0.206 F 
ATOM     92  C   UNL A   1      46.439  27.649  36.756  1.00  0.00     0.022 A 
BRANCH  89  93
ATOM     93  S   UNL A   1      44.973  25.912  38.373  1.00  0.00     0.124 S 
ATOM     94  O   UNL A   1      43.752  26.379  39.024  1.00  0.00    -0.237 OA
ATOM     95  O   UNL A   1      44.862  24.656  37.638  1.00  0.00    -0.237 OA
ATOM     96  O   UNL A   1      46.194  26.063  39.162  1.00  0.00    -0.744 OA
ENDBRANCH  89  93
ENDBRANCH  63  86
ENDBRANCH  37  38
ENDBRANCH  29  32
ENDBRANCH  27  28
ENDBRANCH  26  27
ENDBRANCH   1  26
TORSDOF 18
ENDMDL
