MODEL 1
REMARK VINA RESULT:     -12.3      0.000      0.000
REMARK SMILES Cc1nc(C)c(C(=O)N2CCC([C@H](C)C(=O)NCCCCNC(=O)c3ccc(-c4c5nc(c(-c6cc(S(=O)(=O)[O-])ccc6F)c6ccc([nH]6)c(-c6cc(S(=O)(=O)[O-])ccc6F)c6nc(c(-c7cc(S(=O)(=O)[O-])ccc7F)c7ccc4[nH]7)C=C6)C=C5)cc3)CC2)s1
REMARK SMILES IDX 20 1 19 2 18 3 17 4 15 5 16 6 13 8 14 9 12 10 7 11 8 12 9 13
REMARK SMILES IDX 10 14 89 15 11 16 88 17 6 18 1 19 2 20 3 21 90 22 4 23 5 24
REMARK SMILES IDX 21 25 22 26 23 27 24 29 25 30 26 31 87 32 27 33 86 34 28 35
REMARK SMILES IDX 29 36 30 37 80 38 31 39 85 40 79 41 81 42 32 43 84 44 78 45
REMARK SMILES IDX 77 46 33 48 65 49 45 50 64 51 46 52 49 53 63 54 82 55 47 56
REMARK SMILES IDX 48 57 62 59 83 60 50 61 34 62 35 63 43 64 36 65 42 66 44 67
REMARK SMILES IDX 41 68 37 69 38 70 39 71 40 72 66 73 67 74 75 75 68 76 74 77
REMARK SMILES IDX 76 78 73 79 69 80 70 81 71 82 72 83 51 84 52 85 60 86 53 87
REMARK SMILES IDX 59 88 61 89 58 90 54 91 55 92 56 93 57 94
REMARK H PARENT 17 7 22 28 81 47 49 58
REMARK Flexibility Score: inf
ROOT
ATOM      1  C   UNL A   1      31.852  31.488  26.823  1.00  0.00     0.023 C 
ENDROOT
BRANCH   1   2
ATOM      2  C   UNL A   1      32.094  29.986  26.745  1.00  0.00     0.023 C 
BRANCH   2   3
ATOM      3  C   UNL A   1      33.363  29.574  26.017  1.00  0.00     0.116 C 
BRANCH   3   4
ATOM      4  N   UNL A   1      33.244  29.614  24.577  1.00  0.00    -0.356 N 
ATOM      5  C   UNL A   1      32.608  28.756  23.738  1.00  0.00     0.223 C 
ATOM      6  O   UNL A   1      32.525  29.076  22.549  1.00  0.00    -0.275 OA
ATOM      7  H   UNL A   1      33.690  30.376  24.141  1.00  0.00     0.163 HD
BRANCH   5   8
ATOM      8  C   UNL A   1      32.010  27.426  24.213  1.00  0.00     0.078 C 
ATOM      9  C   UNL A   1      30.590  27.234  23.669  1.00  0.00     0.018 C 
BRANCH   8  10
ATOM     10  C   UNL A   1      32.942  26.170  24.187  1.00  0.00     0.005 C 
ATOM     11  C   UNL A   1      33.935  22.550  26.009  1.00  0.00     0.265 C 
ATOM     12  O   UNL A   1      34.012  22.818  27.210  1.00  0.00    -0.268 OA
ATOM     13  N   UNL A   1      33.927  23.588  25.074  1.00  0.00    -0.338 N 
ATOM     14  C   UNL A   1      34.736  24.764  25.324  1.00  0.00     0.120 C 
ATOM     15  C   UNL A   1      33.101  23.621  23.873  1.00  0.00     0.120 C 
ATOM     16  C   UNL A   1      33.890  26.022  25.395  1.00  0.00     0.026 C 
ATOM     17  C   UNL A   1      32.191  24.853  23.881  1.00  0.00     0.026 C 
BRANCH  11  18
ATOM     18  C   UNL A   1      33.975  21.178  25.522  1.00  0.00     0.115 A 
ATOM     19  C   UNL A   1      32.733  17.835  23.967  1.00  0.00     0.079 C 
ATOM     20  C   UNL A   1      33.425  19.026  24.526  1.00  0.00     0.091 A 
ATOM     21  N   UNL A   1      34.727  19.192  24.530  1.00  0.00    -0.246 NA
ATOM     22  S   UNL A   1      32.522  20.319  25.176  1.00  0.00    -0.113 S 
ATOM     23  C   UNL A   1      35.059  20.431  25.075  1.00  0.00     0.061 A 
ATOM     24  C   UNL A   1      36.500  20.805  25.068  1.00  0.00     0.068 C 
ENDBRANCH  11  18
ENDBRANCH   8  10
ENDBRANCH   5   8
ENDBRANCH   3   4
ENDBRANCH   2   3
ENDBRANCH   1   2
BRANCH   1  25
ATOM     25  C   UNL A   1      33.026  32.315  27.337  1.00  0.00     0.116 C 
BRANCH  25  26
ATOM     26  N   UNL A   1      32.688  33.709  27.581  1.00  0.00    -0.352 N 
ATOM     27  C   UNL A   1      33.201  34.572  28.522  1.00  0.00     0.251 C 
ATOM     28  H   UNL A   1      31.995  34.087  26.991  1.00  0.00     0.163 HD
ATOM     29  O   UNL A   1      32.697  35.681  28.680  1.00  0.00    -0.269 OA
BRANCH  27  30
ATOM     30  C   UNL A   1      34.334  34.136  29.364  1.00  0.00     0.039 A 
ATOM     31  C   UNL A   1      34.077  33.363  30.498  1.00  0.00     0.014 A 
ATOM     32  C   UNL A   1      35.647  34.451  29.006  1.00  0.00     0.014 A 
ATOM     33  C   UNL A   1      35.145  32.835  31.226  1.00  0.00     0.010 A 
ATOM     34  C   UNL A   1      36.707  33.857  29.684  1.00  0.00     0.010 A 
ATOM     35  C   UNL A   1      36.467  33.039  30.799  1.00  0.00    -0.014 A 
BRANCH  35  36
ATOM     36  C   UNL A   1      37.612  32.407  31.506  1.00  0.00     0.031 A 
ATOM     37  C   UNL A   1      38.346  31.257  30.871  1.00  0.00     0.074 A 
ATOM     38  C   UNL A   1      37.947  32.825  32.744  1.00  0.00     0.049 A 
ATOM     39  N   UNL A   1      39.314  30.523  31.357  1.00  0.00    -0.248 NA
ATOM     40  C   UNL A   1      37.908  30.863  29.524  1.00  0.00     0.031 C 
ATOM     41  C   UNL A   1      37.277  33.897  33.485  1.00  0.00     0.029 A 
ATOM     42  N   UNL A   1      38.927  32.394  33.603  1.00  0.00    -0.354 N 
ATOM     43  C   UNL A   1      39.596  29.575  30.379  1.00  0.00     0.074 A 
ATOM     44  C   UNL A   1      38.645  29.785  29.307  1.00  0.00     0.031 C 
ATOM     45  C   UNL A   1      37.879  34.053  34.675  1.00  0.00     0.029 A 
ATOM     46  C   UNL A   1      38.948  33.068  34.803  1.00  0.00     0.049 A 
ATOM     47  H   UNL A   1      39.556  31.671  33.381  1.00  0.00     0.167 HD
ATOM     48  C   UNL A   1      40.575  28.637  30.362  1.00  0.00     0.034 A 
ATOM     49  C   UNL A   1      39.732  32.903  35.886  1.00  0.00     0.034 A 
ATOM     50  C   UNL A   1      41.519  28.445  31.435  1.00  0.00     0.049 A 
ATOM     51  C   UNL A   1      40.805  31.844  35.853  1.00  0.00     0.074 A 
ATOM     52  C   UNL A   1      42.574  27.552  31.509  1.00  0.00     0.029 A 
ATOM     53  N   UNL A   1      41.522  29.159  32.628  1.00  0.00    -0.354 N 
ATOM     54  N   UNL A   1      41.089  30.986  34.899  1.00  0.00    -0.248 NA
ATOM     55  C   UNL A   1      41.672  31.740  37.033  1.00  0.00     0.031 C 
ATOM     56  C   UNL A   1      43.175  27.684  32.766  1.00  0.00     0.029 A 
ATOM     57  C   UNL A   1      42.544  28.711  33.451  1.00  0.00     0.049 A 
ATOM     58  H   UNL A   1      40.889  29.879  32.855  1.00  0.00     0.167 HD
ATOM     59  C   UNL A   1      42.188  30.263  35.355  1.00  0.00     0.074 A 
ATOM     60  C   UNL A   1      42.524  30.798  36.659  1.00  0.00     0.031 C 
ATOM     61  C   UNL A   1      42.861  29.249  34.753  1.00  0.00     0.034 A 
BRANCH  48  62
ATOM     62  C   UNL A   1      40.653  27.742  29.147  1.00  0.00     0.023 A 
ATOM     63  C   UNL A   1      41.603  27.961  28.134  1.00  0.00     0.031 A 
ATOM     64  C   UNL A   1      39.748  26.679  28.979  1.00  0.00     0.131 A 
ATOM     65  C   UNL A   1      41.575  27.187  26.965  1.00  0.00     0.055 A 
ATOM     66  C   UNL A   1      39.780  25.857  27.851  1.00  0.00     0.041 A 
ATOM     67  F   UNL A   1      38.805  26.431  29.902  1.00  0.00    -0.206 F 
ATOM     68  C   UNL A   1      40.687  26.119  26.828  1.00  0.00     0.022 A 
BRANCH  65  69
ATOM     69  S   UNL A   1      42.614  27.692  25.568  1.00  0.00     0.124 S 
ATOM     70  O   UNL A   1      41.876  28.844  25.053  1.00  0.00    -0.237 OA
ATOM     71  O   UNL A   1      43.889  27.986  26.212  1.00  0.00    -0.237 OA
ATOM     72  O   UNL A   1      42.611  26.519  24.696  1.00  0.00    -0.744 OA
ENDBRANCH  65  69
ENDBRANCH  48  62
BRANCH  49  73
ATOM     73  C   UNL A   1      39.535  33.747  37.100  1.00  0.00     0.023 A 
ATOM     74  C   UNL A   1      38.915  33.233  38.250  1.00  0.00     0.031 A 
ATOM     75  C   UNL A   1      39.925  35.098  37.112  1.00  0.00     0.131 A 
ATOM     76  C   UNL A   1      38.652  34.076  39.341  1.00  0.00     0.055 A 
ATOM     77  C   UNL A   1      39.710  35.919  38.220  1.00  0.00     0.041 A 
ATOM     78  F   UNL A   1      40.530  35.640  36.042  1.00  0.00    -0.206 F 
ATOM     79  C   UNL A   1      39.057  35.413  39.339  1.00  0.00     0.022 A 
BRANCH  76  80
ATOM     80  S   UNL A   1      37.686  33.422  40.730  1.00  0.00     0.124 S 
ATOM     81  O   UNL A   1      37.694  34.549  41.655  1.00  0.00    -0.237 OA
ATOM     82  O   UNL A   1      36.407  33.122  40.095  1.00  0.00    -0.237 OA
ATOM     83  O   UNL A   1      38.454  32.256  41.159  1.00  0.00    -0.744 OA
ENDBRANCH  76  80
ENDBRANCH  49  73
BRANCH  61  84
ATOM     84  C   UNL A   1      44.056  28.691  35.485  1.00  0.00     0.023 A 
ATOM     85  C   UNL A   1      43.938  27.616  36.385  1.00  0.00     0.031 A 
ATOM     86  C   UNL A   1      45.329  29.257  35.293  1.00  0.00     0.131 A 
ATOM     87  C   UNL A   1      45.062  27.180  37.102  1.00  0.00     0.055 A 
ATOM     88  C   UNL A   1      46.455  28.778  35.963  1.00  0.00     0.041 A 
ATOM     89  F   UNL A   1      45.499  30.286  34.447  1.00  0.00    -0.206 F 
ATOM     90  C   UNL A   1      46.323  27.743  36.886  1.00  0.00     0.022 A 
BRANCH  87  91
ATOM     91  S   UNL A   1      44.837  25.927  38.394  1.00  0.00     0.124 S 
ATOM     92  O   UNL A   1      44.141  24.867  37.671  1.00  0.00    -0.237 OA
ATOM     93  O   UNL A   1      46.211  25.634  38.788  1.00  0.00    -0.237 OA
ATOM     94  O   UNL A   1      44.036  26.616  39.405  1.00  0.00    -0.744 OA
ENDBRANCH  87  91
ENDBRANCH  61  84
ENDBRANCH  35  36
ENDBRANCH  27  30
ENDBRANCH  25  26
ENDBRANCH   1  25
TORSDOF 16
ENDMDL
MODEL 2
REMARK VINA RESULT:     -12.1      4.547     10.959
REMARK SMILES Cc1nc(C)c(C(=O)N2CCC([C@H](C)C(=O)NCCCCNC(=O)c3ccc(-c4c5nc(c(-c6cc(S(=O)(=O)[O-])ccc6F)c6ccc([nH]6)c(-c6cc(S(=O)(=O)[O-])ccc6F)c6nc(c(-c7cc(S(=O)(=O)[O-])ccc7F)c7ccc4[nH]7)C=C6)C=C5)cc3)CC2)s1
REMARK SMILES IDX 20 1 19 2 18 3 17 4 15 5 16 6 13 8 14 9 12 10 7 11 8 12 9 13
REMARK SMILES IDX 10 14 89 15 11 16 88 17 6 18 1 19 2 20 3 21 90 22 4 23 5 24
REMARK SMILES IDX 21 25 22 26 23 27 24 29 25 30 26 31 87 32 27 33 86 34 28 35
REMARK SMILES IDX 29 36 30 37 80 38 31 39 85 40 79 41 81 42 32 43 84 44 78 45
REMARK SMILES IDX 77 46 33 48 65 49 45 50 64 51 46 52 49 53 63 54 82 55 47 56
REMARK SMILES IDX 48 57 62 59 83 60 50 61 34 62 35 63 43 64 36 65 42 66 44 67
REMARK SMILES IDX 41 68 37 69 38 70 39 71 40 72 66 73 67 74 75 75 68 76 74 77
REMARK SMILES IDX 76 78 73 79 69 80 70 81 71 82 72 83 51 84 52 85 60 86 53 87
REMARK SMILES IDX 59 88 61 89 58 90 54 91 55 92 56 93 57 94
REMARK H PARENT 17 7 22 28 81 47 49 58
REMARK Flexibility Score: inf
ROOT
ATOM      1  C   UNL A   1      34.901  34.592  28.787  1.00  0.00     0.023 C 
ENDROOT
BRANCH   1   2
ATOM      2  C   UNL A   1      33.940  35.594  28.159  1.00  0.00     0.023 C 
BRANCH   2   3
ATOM      3  C   UNL A   1      33.368  36.627  29.117  1.00  0.00     0.116 C 
BRANCH   3   4
ATOM      4  N   UNL A   1      32.520  36.061  30.141  1.00  0.00    -0.356 N 
ATOM      5  C   UNL A   1      32.738  35.944  31.477  1.00  0.00     0.223 C 
ATOM      6  O   UNL A   1      31.801  35.548  32.177  1.00  0.00    -0.275 OA
ATOM      7  H   UNL A   1      31.657  35.708  29.824  1.00  0.00     0.163 HD
BRANCH   5   8
ATOM      8  C   UNL A   1      34.088  36.275  32.126  1.00  0.00     0.078 C 
ATOM      9  C   UNL A   1      34.011  37.584  32.920  1.00  0.00     0.018 C 
BRANCH   8  10
ATOM     10  C   UNL A   1      34.869  35.098  32.797  1.00  0.00     0.005 C 
ATOM     11  C   UNL A   1      38.249  33.974  34.971  1.00  0.00     0.265 C 
ATOM     12  O   UNL A   1      39.188  34.518  34.387  1.00  0.00    -0.268 OA
ATOM     13  N   UNL A   1      37.007  33.881  34.336  1.00  0.00    -0.338 N 
ATOM     14  C   UNL A   1      36.967  33.658  32.905  1.00  0.00     0.120 C 
ATOM     15  C   UNL A   1      35.718  34.063  34.993  1.00  0.00     0.120 C 
ATOM     16  C   UNL A   1      36.248  34.783  32.182  1.00  0.00     0.026 C 
ATOM     17  C   UNL A   1      34.938  35.205  34.339  1.00  0.00     0.026 C 
BRANCH  11  18
ATOM     18  C   UNL A   1      38.419  33.315  36.258  1.00  0.00     0.115 A 
ATOM     19  C   UNL A   1      38.509  32.847  40.120  1.00  0.00     0.079 C 
ATOM     20  C   UNL A   1      38.480  32.790  38.635  1.00  0.00     0.091 A 
ATOM     21  N   UNL A   1      38.409  31.680  37.937  1.00  0.00    -0.246 NA
ATOM     22  S   UNL A   1      38.492  34.228  37.718  1.00  0.00    -0.113 S 
ATOM     23  C   UNL A   1      38.348  31.964  36.575  1.00  0.00     0.061 A 
ATOM     24  C   UNL A   1      38.174  30.806  35.654  1.00  0.00     0.068 C 
ENDBRANCH  11  18
ENDBRANCH   8  10
ENDBRANCH   5   8
ENDBRANCH   3   4
ENDBRANCH   2   3
ENDBRANCH   1   2
BRANCH   1  25
ATOM     25  C   UNL A   1      34.256  33.326  29.340  1.00  0.00     0.116 C 
BRANCH  25  26
ATOM     26  N   UNL A   1      33.840  32.390  28.306  1.00  0.00    -0.352 N 
ATOM     27  C   UNL A   1      34.489  31.269  27.841  1.00  0.00     0.251 C 
ATOM     28  H   UNL A   1      32.974  32.587  27.879  1.00  0.00     0.163 HD
ATOM     29  O   UNL A   1      34.057  30.670  26.860  1.00  0.00    -0.269 OA
BRANCH  27  30
ATOM     30  C   UNL A   1      35.728  30.821  28.508  1.00  0.00     0.039 A 
ATOM     31  C   UNL A   1      35.657  29.793  29.451  1.00  0.00     0.014 A 
ATOM     32  C   UNL A   1      36.962  31.381  28.166  1.00  0.00     0.014 A 
ATOM     33  C   UNL A   1      36.834  29.271  29.989  1.00  0.00     0.010 A 
ATOM     34  C   UNL A   1      38.135  30.805  28.642  1.00  0.00     0.010 A 
ATOM     35  C   UNL A   1      38.085  29.740  29.555  1.00  0.00    -0.014 A 
BRANCH  35  36
ATOM     36  C   UNL A   1      39.349  29.133  30.046  1.00  0.00     0.031 A 
ATOM     37  C   UNL A   1      40.043  29.712  31.249  1.00  0.00     0.074 A 
ATOM     38  C   UNL A   1      39.905  28.106  29.373  1.00  0.00     0.049 A 
ATOM     39  N   UNL A   1      41.190  29.379  31.784  1.00  0.00    -0.248 NA
ATOM     40  C   UNL A   1      39.372  30.836  31.917  1.00  0.00     0.031 C 
ATOM     41  C   UNL A   1      39.353  27.491  28.162  1.00  0.00     0.029 A 
ATOM     42  N   UNL A   1      41.060  27.402  29.601  1.00  0.00    -0.354 N 
ATOM     43  C   UNL A   1      41.380  30.256  32.846  1.00  0.00     0.074 A 
ATOM     44  C   UNL A   1      40.266  31.181  32.830  1.00  0.00     0.031 C 
ATOM     45  C   UNL A   1      40.158  26.491  27.769  1.00  0.00     0.029 A 
ATOM     46  C   UNL A   1      41.303  26.417  28.670  1.00  0.00     0.049 A 
ATOM     47  H   UNL A   1      41.660  27.584  30.360  1.00  0.00     0.167 HD
ATOM     48  C   UNL A   1      42.376  30.273  33.768  1.00  0.00     0.034 A 
ATOM     49  C   UNL A   1      42.337  25.561  28.549  1.00  0.00     0.034 A 
ATOM     50  C   UNL A   1      43.476  29.339  33.775  1.00  0.00     0.049 A 
ATOM     51  C   UNL A   1      43.441  25.606  29.576  1.00  0.00     0.074 A 
ATOM     52  C   UNL A   1      44.518  29.240  34.680  1.00  0.00     0.029 A 
ATOM     53  N   UNL A   1      43.679  28.344  32.827  1.00  0.00    -0.354 N 
ATOM     54  N   UNL A   1      43.581  26.412  30.603  1.00  0.00    -0.248 NA
ATOM     55  C   UNL A   1      44.516  24.615  29.437  1.00  0.00     0.031 C 
ATOM     56  C   UNL A   1      45.380  28.225  34.248  1.00  0.00     0.029 A 
ATOM     57  C   UNL A   1      44.840  27.641  33.113  1.00  0.00     0.049 A 
ATOM     58  H   UNL A   1      43.084  28.163  32.062  1.00  0.00     0.167 HD
ATOM     59  C   UNL A   1      44.746  26.005  31.248  1.00  0.00     0.074 A 
ATOM     60  C   UNL A   1      45.256  24.871  30.505  1.00  0.00     0.031 C 
ATOM     61  C   UNL A   1      45.340  26.518  32.356  1.00  0.00     0.034 A 
BRANCH  48  62
ATOM     62  C   UNL A   1      42.317  31.346  34.829  1.00  0.00     0.023 A 
ATOM     63  C   UNL A   1      42.650  32.682  34.541  1.00  0.00     0.031 A 
ATOM     64  C   UNL A   1      41.958  31.030  36.150  1.00  0.00     0.131 A 
ATOM     65  C   UNL A   1      42.699  33.632  35.572  1.00  0.00     0.055 A 
ATOM     66  C   UNL A   1      41.925  31.999  37.156  1.00  0.00     0.041 A 
ATOM     67  F   UNL A   1      41.648  29.770  36.492  1.00  0.00    -0.206 F 
ATOM     68  C   UNL A   1      42.313  33.305  36.873  1.00  0.00     0.022 A 
BRANCH  65  69
ATOM     69  S   UNL A   1      43.417  35.258  35.216  1.00  0.00     0.124 S 
ATOM     70  O   UNL A   1      42.222  36.096  35.134  1.00  0.00    -0.237 OA
ATOM     71  O   UNL A   1      44.278  35.483  36.370  1.00  0.00    -0.237 OA
ATOM     72  O   UNL A   1      44.114  35.055  33.947  1.00  0.00    -0.744 OA
ENDBRANCH  65  69
ENDBRANCH  48  62
BRANCH  49  73
ATOM     73  C   UNL A   1      42.393  24.594  27.415  1.00  0.00     0.023 A 
ATOM     74  C   UNL A   1      41.612  23.428  27.417  1.00  0.00     0.031 A 
ATOM     75  C   UNL A   1      43.265  24.800  26.332  1.00  0.00     0.131 A 
ATOM     76  C   UNL A   1      41.757  22.485  26.386  1.00  0.00     0.055 A 
ATOM     77  C   UNL A   1      43.367  23.886  25.281  1.00  0.00     0.041 A 
ATOM     78  F   UNL A   1      44.030  25.903  26.275  1.00  0.00    -0.206 F 
ATOM     79  C   UNL A   1      42.620  22.713  25.312  1.00  0.00     0.022 A 
BRANCH  76  80
ATOM     80  S   UNL A   1      40.868  20.910  26.518  1.00  0.00     0.124 S 
ATOM     81  O   UNL A   1      41.705  20.027  25.715  1.00  0.00    -0.237 OA
ATOM     82  O   UNL A   1      40.882  20.675  27.958  1.00  0.00    -0.237 OA
ATOM     83  O   UNL A   1      39.555  21.212  25.952  1.00  0.00    -0.744 OA
ENDBRANCH  76  80
ENDBRANCH  49  73
BRANCH  61  84
ATOM     84  C   UNL A   1      46.584  25.820  32.850  1.00  0.00     0.023 A 
ATOM     85  C   UNL A   1      46.523  24.763  33.775  1.00  0.00     0.031 A 
ATOM     86  C   UNL A   1      47.850  26.234  32.399  1.00  0.00     0.131 A 
ATOM     87  C   UNL A   1      47.708  24.196  34.266  1.00  0.00     0.055 A 
ATOM     88  C   UNL A   1      49.023  25.623  32.844  1.00  0.00     0.041 A 
ATOM     89  F   UNL A   1      47.968  27.238  31.516  1.00  0.00    -0.206 F 
ATOM     90  C   UNL A   1      48.957  24.608  33.794  1.00  0.00     0.022 A 
BRANCH  87  91
ATOM     91  S   UNL A   1      47.600  22.973  35.602  1.00  0.00     0.124 S 
ATOM     92  O   UNL A   1      47.425  21.728  34.860  1.00  0.00    -0.237 OA
ATOM     93  O   UNL A   1      48.881  23.136  36.279  1.00  0.00    -0.237 OA
ATOM     94  O   UNL A   1      46.433  23.406  36.370  1.00  0.00    -0.744 OA
ENDBRANCH  87  91
ENDBRANCH  61  84
ENDBRANCH  35  36
ENDBRANCH  27  30
ENDBRANCH  25  26
ENDBRANCH   1  25
TORSDOF 16
ENDMDL
MODEL 3
REMARK VINA RESULT:     -12.0      5.661     11.866
REMARK SMILES Cc1nc(C)c(C(=O)N2CCC([C@H](C)C(=O)NCCCCNC(=O)c3ccc(-c4c5nc(c(-c6cc(S(=O)(=O)[O-])ccc6F)c6ccc([nH]6)c(-c6cc(S(=O)(=O)[O-])ccc6F)c6nc(c(-c7cc(S(=O)(=O)[O-])ccc7F)c7ccc4[nH]7)C=C6)C=C5)cc3)CC2)s1
REMARK SMILES IDX 20 1 19 2 18 3 17 4 15 5 16 6 13 8 14 9 12 10 7 11 8 12 9 13
REMARK SMILES IDX 10 14 89 15 11 16 88 17 6 18 1 19 2 20 3 21 90 22 4 23 5 24
REMARK SMILES IDX 21 25 22 26 23 27 24 29 25 30 26 31 87 32 27 33 86 34 28 35
REMARK SMILES IDX 29 36 30 37 80 38 31 39 85 40 79 41 81 42 32 43 84 44 78 45
REMARK SMILES IDX 77 46 33 48 65 49 45 50 64 51 46 52 49 53 63 54 82 55 47 56
REMARK SMILES IDX 48 57 62 59 83 60 50 61 34 62 35 63 43 64 36 65 42 66 44 67
REMARK SMILES IDX 41 68 37 69 38 70 39 71 40 72 66 73 67 74 75 75 68 76 74 77
REMARK SMILES IDX 76 78 73 79 69 80 70 81 71 82 72 83 51 84 52 85 60 86 53 87
REMARK SMILES IDX 59 88 61 89 58 90 54 91 55 92 56 93 57 94
REMARK H PARENT 17 7 22 28 81 47 49 58
REMARK Flexibility Score: inf
ROOT
ATOM      1  C   UNL A   1      38.399  19.455  24.894  1.00  0.00     0.023 C 
ENDROOT
BRANCH   1   2
ATOM      2  C   UNL A   1      37.039  20.140  24.916  1.00  0.00     0.023 C 
BRANCH   2   3
ATOM      3  C   UNL A   1      37.052  21.588  25.377  1.00  0.00     0.116 C 
BRANCH   3   4
ATOM      4  N   UNL A   1      36.123  21.865  26.449  1.00  0.00    -0.356 N 
ATOM      5  C   UNL A   1      34.776  21.694  26.491  1.00  0.00     0.223 C 
ATOM      6  O   UNL A   1      34.211  21.872  27.574  1.00  0.00    -0.275 OA
ATOM      7  H   UNL A   1      36.526  22.229  27.270  1.00  0.00     0.163 HD
BRANCH   5   8
ATOM      8  C   UNL A   1      33.954  21.305  25.256  1.00  0.00     0.078 C 
ATOM      9  C   UNL A   1      33.399  19.882  25.390  1.00  0.00     0.018 C 
BRANCH   8  10
ATOM     10  C   UNL A   1      32.979  22.381  24.674  1.00  0.00     0.005 C 
ATOM     11  C   UNL A   1      30.810  25.864  25.430  1.00  0.00     0.265 C 
ATOM     12  O   UNL A   1      30.236  25.646  26.499  1.00  0.00    -0.268 OA
ATOM     13  N   UNL A   1      31.374  24.798  24.725  1.00  0.00    -0.338 N 
ATOM     14  C   UNL A   1      30.700  23.515  24.734  1.00  0.00     0.120 C 
ATOM     15  C   UNL A   1      32.649  24.847  24.020  1.00  0.00     0.120 C 
ATOM     16  C   UNL A   1      31.579  22.424  25.319  1.00  0.00     0.026 C 
ATOM     17  C   UNL A   1      33.609  23.790  24.573  1.00  0.00     0.026 C 
BRANCH  11  18
ATOM     18  C   UNL A   1      30.815  27.183  24.814  1.00  0.00     0.115 A 
ATOM     19  C   UNL A   1      29.709  30.135  22.533  1.00  0.00     0.079 C 
ATOM     20  C   UNL A   1      30.265  29.168  23.516  1.00  0.00     0.091 A 
ATOM     21  N   UNL A   1      31.054  29.495  24.512  1.00  0.00    -0.246 NA
ATOM     22  S   UNL A   1      29.849  27.516  23.426  1.00  0.00    -0.113 S 
ATOM     23  C   UNL A   1      31.359  28.374  25.281  1.00  0.00     0.061 A 
ATOM     24  C   UNL A   1      32.178  28.600  26.504  1.00  0.00     0.068 C 
ENDBRANCH  11  18
ENDBRANCH   8  10
ENDBRANCH   5   8
ENDBRANCH   3   4
ENDBRANCH   2   3
ENDBRANCH   1   2
BRANCH   1  25
ATOM     25  C   UNL A   1      39.400  19.953  25.932  1.00  0.00     0.116 C 
BRANCH  25  26
ATOM     26  N   UNL A   1      40.607  19.144  26.004  1.00  0.00    -0.352 N 
ATOM     27  C   UNL A   1      41.910  19.548  26.190  1.00  0.00     0.251 C 
ATOM     28  H   UNL A   1      40.474  18.173  25.907  1.00  0.00     0.163 HD
ATOM     29  O   UNL A   1      42.826  18.738  26.084  1.00  0.00    -0.269 OA
BRANCH  27  30
ATOM     30  C   UNL A   1      42.194  20.969  26.475  1.00  0.00     0.039 A 
ATOM     31  C   UNL A   1      42.390  21.368  27.799  1.00  0.00     0.014 A 
ATOM     32  C   UNL A   1      42.315  21.893  25.434  1.00  0.00     0.014 A 
ATOM     33  C   UNL A   1      42.789  22.678  28.070  1.00  0.00     0.010 A 
ATOM     34  C   UNL A   1      42.792  23.172  25.700  1.00  0.00     0.010 A 
ATOM     35  C   UNL A   1      43.038  23.578  27.021  1.00  0.00    -0.014 A 
BRANCH  35  36
ATOM     36  C   UNL A   1      43.554  24.947  27.285  1.00  0.00     0.031 A 
ATOM     37  C   UNL A   1      42.630  26.008  27.818  1.00  0.00     0.074 A 
ATOM     38  C   UNL A   1      44.833  25.250  26.983  1.00  0.00     0.049 A 
ATOM     39  N   UNL A   1      42.865  27.277  28.037  1.00  0.00    -0.248 NA
ATOM     40  C   UNL A   1      41.251  25.592  28.110  1.00  0.00     0.031 C 
ATOM     41  C   UNL A   1      45.811  24.320  26.413  1.00  0.00     0.029 A 
ATOM     42  N   UNL A   1      45.529  26.426  27.103  1.00  0.00    -0.354 N 
ATOM     43  C   UNL A   1      41.662  27.811  28.487  1.00  0.00     0.074 A 
ATOM     44  C   UNL A   1      40.685  26.743  28.435  1.00  0.00     0.031 C 
ATOM     45  C   UNL A   1      46.983  24.955  26.254  1.00  0.00     0.029 A 
ATOM     46  C   UNL A   1      46.833  26.346  26.669  1.00  0.00     0.049 A 
ATOM     47  H   UNL A   1      45.134  27.251  27.466  1.00  0.00     0.167 HD
ATOM     48  C   UNL A   1      41.403  29.067  28.929  1.00  0.00     0.034 A 
ATOM     49  C   UNL A   1      47.794  27.288  26.602  1.00  0.00     0.034 A 
ATOM     50  C   UNL A   1      42.389  30.117  28.982  1.00  0.00     0.049 A 
ATOM     51  C   UNL A   1      47.480  28.682  27.086  1.00  0.00     0.074 A 
ATOM     52  C   UNL A   1      42.247  31.414  29.445  1.00  0.00     0.029 A 
ATOM     53  N   UNL A   1      43.705  29.994  28.551  1.00  0.00    -0.354 N 
ATOM     54  N   UNL A   1      46.349  29.158  27.553  1.00  0.00    -0.248 NA
ATOM     55  C   UNL A   1      48.575  29.659  27.048  1.00  0.00     0.031 C 
ATOM     56  C   UNL A   1      43.456  32.089  29.241  1.00  0.00     0.029 A 
ATOM     57  C   UNL A   1      44.377  31.195  28.717  1.00  0.00     0.049 A 
ATOM     58  H   UNL A   1      44.102  29.172  28.181  1.00  0.00     0.167 HD
ATOM     59  C   UNL A   1      46.608  30.484  27.892  1.00  0.00     0.074 A 
ATOM     60  C   UNL A   1      48.005  30.723  27.594  1.00  0.00     0.031 C 
ATOM     61  C   UNL A   1      45.769  31.420  28.406  1.00  0.00     0.034 A 
BRANCH  48  62
ATOM     62  C   UNL A   1      39.990  29.363  29.374  1.00  0.00     0.023 A 
ATOM     63  C   UNL A   1      39.632  29.360  30.734  1.00  0.00     0.031 A 
ATOM     64  C   UNL A   1      38.979  29.619  28.431  1.00  0.00     0.131 A 
ATOM     65  C   UNL A   1      38.290  29.523  31.108  1.00  0.00     0.055 A 
ATOM     66  C   UNL A   1      37.659  29.867  28.815  1.00  0.00     0.041 A 
ATOM     67  F   UNL A   1      39.254  29.617  27.117  1.00  0.00    -0.206 F 
ATOM     68  C   UNL A   1      37.305  29.803  30.159  1.00  0.00     0.022 A 
BRANCH  65  69
ATOM     69  S   UNL A   1      37.831  29.216  32.835  1.00  0.00     0.124 S 
ATOM     70  O   UNL A   1      36.594  29.987  32.952  1.00  0.00    -0.237 OA
ATOM     71  O   UNL A   1      37.685  27.765  32.870  1.00  0.00    -0.237 OA
ATOM     72  O   UNL A   1      38.963  29.749  33.591  1.00  0.00    -0.744 OA
ENDBRANCH  65  69
ENDBRANCH  48  62
BRANCH  49  73
ATOM     73  C   UNL A   1      49.141  26.960  26.051  1.00  0.00     0.023 A 
ATOM     74  C   UNL A   1      49.528  27.393  24.773  1.00  0.00     0.031 A 
ATOM     75  C   UNL A   1      50.046  26.167  26.779  1.00  0.00     0.131 A 
ATOM     76  C   UNL A   1      50.761  26.986  24.239  1.00  0.00     0.055 A 
ATOM     77  C   UNL A   1      51.294  25.810  26.265  1.00  0.00     0.041 A 
ATOM     78  F   UNL A   1      49.731  25.732  28.010  1.00  0.00    -0.206 F 
ATOM     79  C   UNL A   1      51.652  26.208  24.981  1.00  0.00     0.022 A 
BRANCH  76  80
ATOM     80  S   UNL A   1      51.144  27.413  22.518  1.00  0.00     0.124 S 
ATOM     81  O   UNL A   1      50.114  26.679  21.793  1.00  0.00    -0.237 OA
ATOM     82  O   UNL A   1      51.010  28.866  22.529  1.00  0.00    -0.237 OA
ATOM     83  O   UNL A   1      52.507  26.916  22.340  1.00  0.00    -0.744 OA
ENDBRANCH  76  80
ENDBRANCH  49  73
BRANCH  61  84
ATOM     84  C   UNL A   1      46.362  32.771  28.718  1.00  0.00     0.023 A 
ATOM     85  C   UNL A   1      46.453  33.783  27.745  1.00  0.00     0.031 A 
ATOM     86  C   UNL A   1      46.860  33.044  30.005  1.00  0.00     0.131 A 
ATOM     87  C   UNL A   1      47.082  34.997  28.058  1.00  0.00     0.055 A 
ATOM     88  C   UNL A   1      47.428  34.276  30.327  1.00  0.00     0.041 A 
ATOM     89  F   UNL A   1      46.800  32.114  30.972  1.00  0.00    -0.206 F 
ATOM     90  C   UNL A   1      47.555  35.257  29.347  1.00  0.00     0.022 A 
BRANCH  87  91
ATOM     91  S   UNL A   1      47.358  36.202  26.730  1.00  0.00     0.124 S 
ATOM     92  O   UNL A   1      47.465  35.341  25.556  1.00  0.00    -0.237 OA
ATOM     93  O   UNL A   1      46.160  37.031  26.806  1.00  0.00    -0.237 OA
ATOM     94  O   UNL A   1      48.599  36.869  27.124  1.00  0.00    -0.744 OA
ENDBRANCH  87  91
ENDBRANCH  61  84
ENDBRANCH  35  36
ENDBRANCH  27  30
ENDBRANCH  25  26
ENDBRANCH   1  25
TORSDOF 16
ENDMDL
