MODEL 1
REMARK VINA RESULT:     -11.2      0.000      0.000
REMARK SMILES CC(C)C[C@@H](NC(=O)Cn1nc(O)ccc1=O)C(=O)NCCCCNC(=O)c1ccc(-c2c3nc(c(-c4cc(S(=O)(=O)[O-])ccc4F)c4ccc([nH]4)c(-c4cc(S(=O)(=O)[O-])ccc4F)c4nc(c(-c5cc(S(=O)(=O)[O-])ccc5F)c5ccc2[nH]5)C=C4)C=C3)cc1
REMARK SMILES IDX 22 1 21 2 20 3 18 4 19 5 5 7 4 8 2 9 1 10 3 11 6 12 7 13
REMARK SMILES IDX 8 15 9 16 10 17 11 18 16 19 12 20 15 21 17 22 14 23 13 24
REMARK SMILES IDX 23 26 24 27 25 28 26 29 27 31 28 32 29 33 90 34 30 35 89 36
REMARK SMILES IDX 31 37 32 38 33 39 83 40 34 41 88 42 82 43 84 44 35 45 87 46
REMARK SMILES IDX 81 47 80 48 36 50 68 51 48 52 67 53 49 54 52 55 66 56 85 57
REMARK SMILES IDX 50 58 51 59 65 61 86 62 53 63 37 64 38 65 46 66 39 67 45 68
REMARK SMILES IDX 47 69 44 70 40 71 41 72 42 73 43 74 69 75 70 76 78 77 71 78
REMARK SMILES IDX 77 79 79 80 76 81 72 82 73 83 74 84 75 85 54 86 55 87 63 88
REMARK SMILES IDX 56 89 62 90 64 91 61 92 57 93 58 94 59 95 60 96
REMARK H PARENT 20 6 6 14 13 25 25 30 84 49 52 60
REMARK Flexibility Score: inf
ROOT
ATOM      1  C   UNL A   1      32.017  29.998  26.919  1.00  0.00     0.023 C 
ENDROOT
BRANCH   1   2
ATOM      2  C   UNL A   1      33.320  29.463  26.320  1.00  0.00     0.116 C 
BRANCH   2   3
ATOM      3  N   UNL A   1      33.315  29.520  24.867  1.00  0.00    -0.354 N 
ATOM      4  C   UNL A   1      32.834  28.653  23.930  1.00  0.00     0.242 C 
ATOM      5  O   UNL A   1      33.057  28.934  22.748  1.00  0.00    -0.273 OA
ATOM      6  H   UNL A   1      33.733  30.329  24.494  1.00  0.00     0.163 HD
BRANCH   4   7
ATOM      7  C   UNL A   1      32.255  27.267  24.298  1.00  0.00     0.171 C 
BRANCH   7   8
ATOM      8  C   UNL A   1      30.752  27.554  24.519  1.00  0.00     0.038 C 
BRANCH   8   9
ATOM      9  C   UNL A   1      29.747  27.302  23.386  1.00  0.00    -0.015 C 
ATOM     10  C   UNL A   1      28.477  26.602  23.863  1.00  0.00     0.007 C 
ATOM     11  C   UNL A   1      29.382  28.667  22.779  1.00  0.00     0.007 C 
ENDBRANCH   8   9
ENDBRANCH   7   8
BRANCH   7  12
ATOM     12  N   UNL A   1      32.518  26.228  23.305  1.00  0.00    -0.343 N 
ATOM     13  C   UNL A   1      33.381  25.167  23.383  1.00  0.00     0.242 C 
ATOM     14  H   UNL A   1      32.007  26.302  22.467  1.00  0.00     0.164 HD
ATOM     15  O   UNL A   1      33.289  24.307  22.498  1.00  0.00    -0.273 OA
BRANCH  13  16
ATOM     16  C   UNL A   1      34.383  25.020  24.535  1.00  0.00     0.248 C 
BRANCH  16  17
ATOM     17  N   UNL A   1      33.889  24.212  25.642  1.00  0.00    -0.217 N 
ATOM     18  N   UNL A   1      32.556  24.359  25.977  1.00  0.00    -0.131 NA
ATOM     19  C   UNL A   1      34.777  23.427  26.379  1.00  0.00     0.267 A 
ATOM     20  C   UNL A   1      32.131  23.585  26.906  1.00  0.00     0.229 A 
ATOM     21  C   UNL A   1      34.156  22.493  27.356  1.00  0.00     0.079 A 
ATOM     22  O   UNL A   1      35.995  23.436  26.235  1.00  0.00    -0.268 OA
ATOM     23  C   UNL A   1      32.847  22.541  27.616  1.00  0.00     0.075 A 
BRANCH  20  24
ATOM     24  O   UNL A   1      30.859  23.686  27.294  1.00  0.00    -0.492 OA
ATOM     25  H   UNL A   1      30.462  24.530  27.383  1.00  0.00     0.295 HD
ENDBRANCH  20  24
ENDBRANCH  16  17
ENDBRANCH  13  16
ENDBRANCH   7  12
ENDBRANCH   4   7
ENDBRANCH   2   3
ENDBRANCH   1   2
BRANCH   1  26
ATOM     26  C   UNL A   1      31.757  31.500  26.750  1.00  0.00     0.023 C 
BRANCH  26  27
ATOM     27  C   UNL A   1      32.923  32.437  27.056  1.00  0.00     0.116 C 
BRANCH  27  28
ATOM     28  N   UNL A   1      32.532  33.772  27.476  1.00  0.00    -0.352 N 
ATOM     29  C   UNL A   1      33.118  34.531  28.467  1.00  0.00     0.251 C 
ATOM     30  H   UNL A   1      31.770  34.178  27.002  1.00  0.00     0.163 HD
ATOM     31  O   UNL A   1      32.673  35.635  28.758  1.00  0.00    -0.269 OA
BRANCH  29  32
ATOM     32  C   UNL A   1      34.272  33.964  29.198  1.00  0.00     0.039 A 
ATOM     33  C   UNL A   1      35.572  34.295  28.814  1.00  0.00     0.014 A 
ATOM     34  C   UNL A   1      34.053  33.047  30.226  1.00  0.00     0.014 A 
ATOM     35  C   UNL A   1      36.655  33.616  29.372  1.00  0.00     0.010 A 
ATOM     36  C   UNL A   1      35.143  32.405  30.822  1.00  0.00     0.010 A 
ATOM     37  C   UNL A   1      36.452  32.649  30.371  1.00  0.00    -0.014 A 
BRANCH  37  38
ATOM     38  C   UNL A   1      37.606  31.897  30.937  1.00  0.00     0.031 A 
ATOM     39  C   UNL A   1      38.072  32.146  32.348  1.00  0.00     0.074 A 
ATOM     40  C   UNL A   1      38.239  30.976  30.184  1.00  0.00     0.049 A 
ATOM     41  N   UNL A   1      39.073  31.604  32.994  1.00  0.00    -0.248 NA
ATOM     42  C   UNL A   1      37.319  33.136  33.134  1.00  0.00     0.031 C 
ATOM     43  C   UNL A   1      37.878  30.631  28.812  1.00  0.00     0.029 A 
ATOM     44  N   UNL A   1      39.310  30.161  30.464  1.00  0.00    -0.354 N 
ATOM     45  C   UNL A   1      39.089  32.204  34.249  1.00  0.00     0.074 A 
ATOM     46  C   UNL A   1      38.010  33.167  34.264  1.00  0.00     0.031 C 
ATOM     47  C   UNL A   1      38.687  29.655  28.379  1.00  0.00     0.029 A 
ATOM     48  C   UNL A   1      39.672  29.347  29.416  1.00  0.00     0.049 A 
ATOM     49  H   UNL A   1      39.774  30.160  31.333  1.00  0.00     0.167 HD
ATOM     50  C   UNL A   1      39.922  31.965  35.291  1.00  0.00     0.034 A 
ATOM     51  C   UNL A   1      40.686  28.466  29.288  1.00  0.00     0.034 A 
ATOM     52  C   UNL A   1      40.977  30.983  35.275  1.00  0.00     0.049 A 
ATOM     53  C   UNL A   1      41.621  28.241  30.448  1.00  0.00     0.074 A 
ATOM     54  C   UNL A   1      41.828  30.629  36.308  1.00  0.00     0.029 A 
ATOM     55  N   UNL A   1      41.335  30.204  34.184  1.00  0.00    -0.354 N 
ATOM     56  N   UNL A   1      41.589  28.775  31.646  1.00  0.00    -0.248 NA
ATOM     57  C   UNL A   1      42.730  27.299  30.244  1.00  0.00     0.031 C 
ATOM     58  C   UNL A   1      42.743  29.695  35.825  1.00  0.00     0.029 A 
ATOM     59  C   UNL A   1      42.419  29.401  34.510  1.00  0.00     0.049 A 
ATOM     60  H   UNL A   1      40.887  30.219  33.307  1.00  0.00     0.167 HD
ATOM     61  C   UNL A   1      42.661  28.224  32.343  1.00  0.00     0.074 A 
ATOM     62  C   UNL A   1      43.308  27.296  31.440  1.00  0.00     0.031 C 
ATOM     63  C   UNL A   1      43.067  28.471  33.614  1.00  0.00     0.034 A 
BRANCH  50  64
ATOM     64  C   UNL A   1      39.748  32.770  36.558  1.00  0.00     0.023 A 
ATOM     65  C   UNL A   1      38.833  32.339  37.539  1.00  0.00     0.031 A 
ATOM     66  C   UNL A   1      40.376  34.014  36.738  1.00  0.00     0.131 A 
ATOM     67  C   UNL A   1      38.553  33.158  38.640  1.00  0.00     0.055 A 
ATOM     68  C   UNL A   1      40.123  34.809  37.857  1.00  0.00     0.041 A 
ATOM     69  F   UNL A   1      41.254  34.472  35.830  1.00  0.00    -0.206 F 
ATOM     70  C   UNL A   1      39.198  34.388  38.807  1.00  0.00     0.022 A 
BRANCH  67  71
ATOM     71  S   UNL A   1      37.292  32.696  39.859  1.00  0.00     0.124 S 
ATOM     72  O   UNL A   1      37.369  33.810  40.802  1.00  0.00    -0.237 OA
ATOM     73  O   UNL A   1      36.081  32.650  39.045  1.00  0.00    -0.237 OA
ATOM     74  O   UNL A   1      37.755  31.412  40.374  1.00  0.00    -0.744 OA
ENDBRANCH  67  71
ENDBRANCH  50  64
BRANCH  51  75
ATOM     75  C   UNL A   1      40.816  27.707  28.011  1.00  0.00     0.023 A 
ATOM     76  C   UNL A   1      40.479  26.343  27.944  1.00  0.00     0.031 A 
ATOM     77  C   UNL A   1      41.416  28.296  26.886  1.00  0.00     0.131 A 
ATOM     78  C   UNL A   1      40.832  25.593  26.816  1.00  0.00     0.055 A 
ATOM     79  C   UNL A   1      41.694  27.561  25.732  1.00  0.00     0.041 A 
ATOM     80  F   UNL A   1      41.761  29.592  26.905  1.00  0.00    -0.206 F 
ATOM     81  C   UNL A   1      41.423  26.197  25.702  1.00  0.00     0.022 A 
BRANCH  78  82
ATOM     82  S   UNL A   1      40.679  23.785  26.819  1.00  0.00     0.124 S 
ATOM     83  O   UNL A   1      40.834  23.466  28.235  1.00  0.00    -0.237 OA
ATOM     84  O   UNL A   1      39.335  23.602  26.274  1.00  0.00    -0.237 OA
ATOM     85  O   UNL A   1      41.765  23.345  25.951  1.00  0.00    -0.744 OA
ENDBRANCH  78  82
ENDBRANCH  51  75
BRANCH  63  86
ATOM     86  C   UNL A   1      44.279  27.741  34.147  1.00  0.00     0.023 A 
ATOM     87  C   UNL A   1      44.120  26.550  34.881  1.00  0.00     0.031 A 
ATOM     88  C   UNL A   1      45.565  28.304  34.069  1.00  0.00     0.131 A 
ATOM     89  C   UNL A   1      45.217  25.987  35.547  1.00  0.00     0.055 A 
ATOM     90  C   UNL A   1      46.665  27.713  34.694  1.00  0.00     0.041 A 
ATOM     91  F   UNL A   1      45.770  29.444  33.389  1.00  0.00    -0.206 F 
ATOM     92  C   UNL A   1      46.490  26.557  35.451  1.00  0.00     0.022 A 
BRANCH  89  93
ATOM     93  S   UNL A   1      45.014  24.551  36.638  1.00  0.00     0.124 S 
ATOM     94  O   UNL A   1      43.851  24.937  37.433  1.00  0.00    -0.237 OA
ATOM     95  O   UNL A   1      44.785  23.469  35.684  1.00  0.00    -0.237 OA
ATOM     96  O   UNL A   1      46.274  24.484  37.371  1.00  0.00    -0.744 OA
ENDBRANCH  89  93
ENDBRANCH  63  86
ENDBRANCH  37  38
ENDBRANCH  29  32
ENDBRANCH  27  28
ENDBRANCH  26  27
ENDBRANCH   1  26
TORSDOF 20
ENDMDL
MODEL 2
REMARK VINA RESULT:     -11.1      1.484      7.648
REMARK SMILES CC(C)C[C@@H](NC(=O)Cn1nc(O)ccc1=O)C(=O)NCCCCNC(=O)c1ccc(-c2c3nc(c(-c4cc(S(=O)(=O)[O-])ccc4F)c4ccc([nH]4)c(-c4cc(S(=O)(=O)[O-])ccc4F)c4nc(c(-c5cc(S(=O)(=O)[O-])ccc5F)c5ccc2[nH]5)C=C4)C=C3)cc1
REMARK SMILES IDX 22 1 21 2 20 3 18 4 19 5 5 7 4 8 2 9 1 10 3 11 6 12 7 13
REMARK SMILES IDX 8 15 9 16 10 17 11 18 16 19 12 20 15 21 17 22 14 23 13 24
REMARK SMILES IDX 23 26 24 27 25 28 26 29 27 31 28 32 29 33 90 34 30 35 89 36
REMARK SMILES IDX 31 37 32 38 33 39 83 40 34 41 88 42 82 43 84 44 35 45 87 46
REMARK SMILES IDX 81 47 80 48 36 50 68 51 48 52 67 53 49 54 52 55 66 56 85 57
REMARK SMILES IDX 50 58 51 59 65 61 86 62 53 63 37 64 38 65 46 66 39 67 45 68
REMARK SMILES IDX 47 69 44 70 40 71 41 72 42 73 43 74 69 75 70 76 78 77 71 78
REMARK SMILES IDX 77 79 79 80 76 81 72 82 73 83 74 84 75 85 54 86 55 87 63 88
REMARK SMILES IDX 56 89 62 90 64 91 61 92 57 93 58 94 59 95 60 96
REMARK H PARENT 20 6 6 14 13 25 25 30 84 49 52 60
REMARK Flexibility Score: inf
ROOT
ATOM      1  C   UNL A   1      32.445  29.810  27.224  1.00  0.00     0.023 C 
ENDROOT
BRANCH   1   2
ATOM      2  C   UNL A   1      33.674  29.134  26.612  1.00  0.00     0.116 C 
BRANCH   2   3
ATOM      3  N   UNL A   1      33.724  29.302  25.169  1.00  0.00    -0.354 N 
ATOM      4  C   UNL A   1      33.147  28.593  24.155  1.00  0.00     0.242 C 
ATOM      5  O   UNL A   1      33.449  28.927  23.005  1.00  0.00    -0.273 OA
ATOM      6  H   UNL A   1      34.272  30.063  24.870  1.00  0.00     0.163 HD
BRANCH   4   7
ATOM      7  C   UNL A   1      32.352  27.290  24.398  1.00  0.00     0.171 C 
BRANCH   7   8
ATOM      8  C   UNL A   1      30.884  27.771  24.456  1.00  0.00     0.038 C 
BRANCH   8   9
ATOM      9  C   UNL A   1      29.903  27.379  23.343  1.00  0.00    -0.015 C 
ATOM     10  C   UNL A   1      28.706  26.583  23.858  1.00  0.00     0.007 C 
ATOM     11  C   UNL A   1      29.408  28.677  22.684  1.00  0.00     0.007 C 
ENDBRANCH   8   9
ENDBRANCH   7   8
BRANCH   7  12
ATOM     12  N   UNL A   1      32.593  26.249  23.402  1.00  0.00    -0.343 N 
ATOM     13  C   UNL A   1      33.433  25.169  23.476  1.00  0.00     0.242 C 
ATOM     14  H   UNL A   1      32.084  26.337  22.564  1.00  0.00     0.164 HD
ATOM     15  O   UNL A   1      33.324  24.315  22.588  1.00  0.00    -0.273 OA
BRANCH  13  16
ATOM     16  C   UNL A   1      34.431  24.997  24.628  1.00  0.00     0.248 C 
BRANCH  16  17
ATOM     17  N   UNL A   1      33.937  24.155  25.709  1.00  0.00    -0.217 N 
ATOM     18  N   UNL A   1      32.609  24.304  26.061  1.00  0.00    -0.131 NA
ATOM     19  C   UNL A   1      34.823  23.336  26.411  1.00  0.00     0.267 A 
ATOM     20  C   UNL A   1      32.183  23.502  26.966  1.00  0.00     0.229 A 
ATOM     21  C   UNL A   1      34.201  22.374  27.360  1.00  0.00     0.079 A 
ATOM     22  O   UNL A   1      36.040  23.338  26.258  1.00  0.00    -0.268 OA
ATOM     23  C   UNL A   1      32.894  22.426  27.632  1.00  0.00     0.075 A 
BRANCH  20  24
ATOM     24  O   UNL A   1      30.916  23.602  27.368  1.00  0.00    -0.492 OA
ATOM     25  H   UNL A   1      30.350  22.857  27.320  1.00  0.00     0.295 HD
ENDBRANCH  20  24
ENDBRANCH  16  17
ENDBRANCH  13  16
ENDBRANCH   7  12
ENDBRANCH   4   7
ENDBRANCH   2   3
ENDBRANCH   1   2
BRANCH   1  26
ATOM     26  C   UNL A   1      32.242  31.291  26.881  1.00  0.00     0.023 C 
BRANCH  26  27
ATOM     27  C   UNL A   1      33.296  32.266  27.401  1.00  0.00     0.116 C 
BRANCH  27  28
ATOM     28  N   UNL A   1      32.790  33.590  27.720  1.00  0.00    -0.352 N 
ATOM     29  C   UNL A   1      33.262  34.442  28.697  1.00  0.00     0.251 C 
ATOM     30  H   UNL A   1      32.032  33.914  27.183  1.00  0.00     0.163 HD
ATOM     31  O   UNL A   1      32.726  35.526  28.899  1.00  0.00    -0.269 OA
BRANCH  29  32
ATOM     32  C   UNL A   1      34.407  34.001  29.522  1.00  0.00     0.039 A 
ATOM     33  C   UNL A   1      35.703  34.397  29.188  1.00  0.00     0.014 A 
ATOM     34  C   UNL A   1      34.190  33.133  30.593  1.00  0.00     0.014 A 
ATOM     35  C   UNL A   1      36.794  33.828  29.844  1.00  0.00     0.010 A 
ATOM     36  C   UNL A   1      35.285  32.604  31.285  1.00  0.00     0.010 A 
ATOM     37  C   UNL A   1      36.598  32.911  30.890  1.00  0.00    -0.014 A 
BRANCH  37  38
ATOM     38  C   UNL A   1      37.765  32.274  31.562  1.00  0.00     0.031 A 
ATOM     39  C   UNL A   1      38.537  31.171  30.887  1.00  0.00     0.074 A 
ATOM     40  C   UNL A   1      38.143  32.693  32.786  1.00  0.00     0.049 A 
ATOM     41  N   UNL A   1      39.560  30.487  31.332  1.00  0.00    -0.248 NA
ATOM     42  C   UNL A   1      38.101  30.782  29.537  1.00  0.00     0.031 C 
ATOM     43  C   UNL A   1      37.490  33.760  33.540  1.00  0.00     0.029 A 
ATOM     44  N   UNL A   1      39.165  32.279  33.606  1.00  0.00    -0.354 N 
ATOM     45  C   UNL A   1      39.872  29.570  30.334  1.00  0.00     0.074 A 
ATOM     46  C   UNL A   1      38.915  29.772  29.268  1.00  0.00     0.031 C 
ATOM     47  C   UNL A   1      38.144  33.941  34.695  1.00  0.00     0.029 A 
ATOM     48  C   UNL A   1      39.224  32.960  34.800  1.00  0.00     0.049 A 
ATOM     49  H   UNL A   1      39.796  31.563  33.362  1.00  0.00     0.167 HD
ATOM     50  C   UNL A   1      40.870  28.652  30.309  1.00  0.00     0.034 A 
ATOM     51  C   UNL A   1      40.034  32.808  35.868  1.00  0.00     0.034 A 
ATOM     52  C   UNL A   1      41.835  28.478  31.365  1.00  0.00     0.049 A 
ATOM     53  C   UNL A   1      41.115  31.758  35.832  1.00  0.00     0.074 A 
ATOM     54  C   UNL A   1      42.919  27.617  31.395  1.00  0.00     0.029 A 
ATOM     55  N   UNL A   1      41.839  29.162  32.573  1.00  0.00    -0.354 N 
ATOM     56  N   UNL A   1      41.433  30.937  34.859  1.00  0.00    -0.248 NA
ATOM     57  C   UNL A   1      41.947  31.609  37.034  1.00  0.00     0.031 C 
ATOM     58  C   UNL A   1      43.532  27.725  32.643  1.00  0.00     0.029 A 
ATOM     59  C   UNL A   1      42.883  28.711  33.369  1.00  0.00     0.049 A 
ATOM     60  H   UNL A   1      41.196  29.862  32.828  1.00  0.00     0.167 HD
ATOM     61  C   UNL A   1      42.509  30.186  35.324  1.00  0.00     0.074 A 
ATOM     62  C   UNL A   1      42.804  30.667  36.657  1.00  0.00     0.031 C 
ATOM     63  C   UNL A   1      43.184  29.188  34.698  1.00  0.00     0.034 A 
BRANCH  50  64
ATOM     64  C   UNL A   1      40.992  27.748  29.105  1.00  0.00     0.023 A 
ATOM     65  C   UNL A   1      41.963  28.022  28.121  1.00  0.00     0.031 A 
ATOM     66  C   UNL A   1      40.079  26.707  28.865  1.00  0.00     0.131 A 
ATOM     67  C   UNL A   1      41.979  27.283  26.932  1.00  0.00     0.055 A 
ATOM     68  C   UNL A   1      40.124  25.946  27.695  1.00  0.00     0.041 A 
ATOM     69  F   UNL A   1      39.133  26.407  29.770  1.00  0.00    -0.206 F 
ATOM     70  C   UNL A   1      41.069  26.242  26.716  1.00  0.00     0.022 A 
BRANCH  67  71
ATOM     71  S   UNL A   1      43.130  27.685  25.590  1.00  0.00     0.124 S 
ATOM     72  O   UNL A   1      44.052  28.603  26.256  1.00  0.00    -0.237 OA
ATOM     73  O   UNL A   1      43.684  26.376  25.257  1.00  0.00    -0.237 OA
ATOM     74  O   UNL A   1      42.282  28.289  24.568  1.00  0.00    -0.744 OA
ENDBRANCH  67  71
ENDBRANCH  50  64
BRANCH  51  75
ATOM     75  C   UNL A   1      39.861  33.723  37.033  1.00  0.00     0.023 A 
ATOM     76  C   UNL A   1      39.259  33.273  38.222  1.00  0.00     0.031 A 
ATOM     77  C   UNL A   1      40.161  35.091  36.919  1.00  0.00     0.131 A 
ATOM     78  C   UNL A   1      38.888  34.196  39.207  1.00  0.00     0.055 A 
ATOM     79  C   UNL A   1      39.860  35.996  37.938  1.00  0.00     0.041 A 
ATOM     80  F   UNL A   1      40.729  35.567  35.801  1.00  0.00    -0.206 F 
ATOM     81  C   UNL A   1      39.199  35.554  39.079  1.00  0.00     0.022 A 
BRANCH  78  82
ATOM     82  S   UNL A   1      37.853  33.691  40.609  1.00  0.00     0.124 S 
ATOM     83  O   UNL A   1      37.540  34.971  41.236  1.00  0.00    -0.237 OA
ATOM     84  O   UNL A   1      36.741  33.030  39.931  1.00  0.00    -0.237 OA
ATOM     85  O   UNL A   1      38.723  32.809  41.379  1.00  0.00    -0.744 OA
ENDBRANCH  78  82
ENDBRANCH  51  75
BRANCH  63  86
ATOM     86  C   UNL A   1      44.326  28.515  35.424  1.00  0.00     0.023 A 
ATOM     87  C   UNL A   1      44.064  27.499  36.365  1.00  0.00     0.031 A 
ATOM     88  C   UNL A   1      45.646  28.985  35.307  1.00  0.00     0.131 A 
ATOM     89  C   UNL A   1      45.096  27.021  37.184  1.00  0.00     0.055 A 
ATOM     90  C   UNL A   1      46.681  28.470  36.091  1.00  0.00     0.041 A 
ATOM     91  F   UNL A   1      45.947  29.958  34.432  1.00  0.00    -0.206 F 
ATOM     92  C   UNL A   1      46.404  27.495  37.046  1.00  0.00     0.022 A 
BRANCH  89  93
ATOM     93  S   UNL A   1      44.762  25.838  38.518  1.00  0.00     0.124 S 
ATOM     94  O   UNL A   1      44.290  24.671  37.776  1.00  0.00    -0.237 OA
ATOM     95  O   UNL A   1      46.076  25.692  39.137  1.00  0.00    -0.237 OA
ATOM     96  O   UNL A   1      43.753  26.504  39.336  1.00  0.00    -0.744 OA
ENDBRANCH  89  93
ENDBRANCH  63  86
ENDBRANCH  37  38
ENDBRANCH  29  32
ENDBRANCH  27  28
ENDBRANCH  26  27
ENDBRANCH   1  26
TORSDOF 20
ENDMDL
MODEL 3
REMARK VINA RESULT:     -10.8      0.915      7.506
REMARK SMILES CC(C)C[C@@H](NC(=O)Cn1nc(O)ccc1=O)C(=O)NCCCCNC(=O)c1ccc(-c2c3nc(c(-c4cc(S(=O)(=O)[O-])ccc4F)c4ccc([nH]4)c(-c4cc(S(=O)(=O)[O-])ccc4F)c4nc(c(-c5cc(S(=O)(=O)[O-])ccc5F)c5ccc2[nH]5)C=C4)C=C3)cc1
REMARK SMILES IDX 22 1 21 2 20 3 18 4 19 5 5 7 4 8 2 9 1 10 3 11 6 12 7 13
REMARK SMILES IDX 8 15 9 16 10 17 11 18 16 19 12 20 15 21 17 22 14 23 13 24
REMARK SMILES IDX 23 26 24 27 25 28 26 29 27 31 28 32 29 33 90 34 30 35 89 36
REMARK SMILES IDX 31 37 32 38 33 39 83 40 34 41 88 42 82 43 84 44 35 45 87 46
REMARK SMILES IDX 81 47 80 48 36 50 68 51 48 52 67 53 49 54 52 55 66 56 85 57
REMARK SMILES IDX 50 58 51 59 65 61 86 62 53 63 37 64 38 65 46 66 39 67 45 68
REMARK SMILES IDX 47 69 44 70 40 71 41 72 42 73 43 74 69 75 70 76 78 77 71 78
REMARK SMILES IDX 77 79 79 80 76 81 72 82 73 83 74 84 75 85 54 86 55 87 63 88
REMARK SMILES IDX 56 89 62 90 64 91 61 92 57 93 58 94 59 95 60 96
REMARK H PARENT 20 6 6 14 13 25 25 30 84 49 52 60
REMARK Flexibility Score: inf
ROOT
ATOM      1  C   UNL A   1      32.010  28.927  26.430  1.00  0.00     0.023 C 
ENDROOT
BRANCH   1   2
ATOM      2  C   UNL A   1      33.386  28.310  26.167  1.00  0.00     0.116 C 
BRANCH   2   3
ATOM      3  N   UNL A   1      33.959  28.774  24.913  1.00  0.00    -0.354 N 
ATOM      4  C   UNL A   1      33.674  28.455  23.617  1.00  0.00     0.242 C 
ATOM      5  O   UNL A   1      34.402  28.953  22.752  1.00  0.00    -0.273 OA
ATOM      6  H   UNL A   1      34.680  29.435  25.018  1.00  0.00     0.163 HD
BRANCH   4   7
ATOM      7  C   UNL A   1      32.665  27.348  23.233  1.00  0.00     0.171 C 
BRANCH   7   8
ATOM      8  C   UNL A   1      31.611  28.101  22.390  1.00  0.00     0.038 C 
BRANCH   8   9
ATOM      9  C   UNL A   1      30.143  28.125  22.839  1.00  0.00    -0.015 C 
ATOM     10  C   UNL A   1      29.834  27.091  23.919  1.00  0.00     0.007 C 
ATOM     11  C   UNL A   1      29.847  29.533  23.380  1.00  0.00     0.007 C 
ENDBRANCH   8   9
ENDBRANCH   7   8
BRANCH   7  12
ATOM     12  N   UNL A   1      33.264  26.207  22.547  1.00  0.00    -0.343 N 
ATOM     13  C   UNL A   1      33.741  25.038  23.081  1.00  0.00     0.242 C 
ATOM     14  H   UNL A   1      33.337  26.289  21.568  1.00  0.00     0.164 HD
ATOM     15  O   UNL A   1      34.022  24.134  22.285  1.00  0.00    -0.273 OA
BRANCH  13  16
ATOM     16  C   UNL A   1      33.876  24.836  24.595  1.00  0.00     0.248 C 
BRANCH  16  17
ATOM     17  N   UNL A   1      32.801  24.045  25.179  1.00  0.00    -0.217 N 
ATOM     18  N   UNL A   1      31.707  24.737  25.661  1.00  0.00    -0.131 NA
ATOM     19  C   UNL A   1      32.958  22.666  25.332  1.00  0.00     0.267 A 
ATOM     20  C   UNL A   1      30.745  24.013  26.103  1.00  0.00     0.229 A 
ATOM     21  C   UNL A   1      31.742  21.919  25.752  1.00  0.00     0.079 A 
ATOM     22  O   UNL A   1      33.997  22.056  25.103  1.00  0.00    -0.268 OA
ATOM     23  C   UNL A   1      30.631  22.566  26.117  1.00  0.00     0.075 A 
BRANCH  20  24
ATOM     24  O   UNL A   1      29.665  24.615  26.602  1.00  0.00    -0.492 OA
ATOM     25  H   UNL A   1      28.856  24.591  26.129  1.00  0.00     0.295 HD
ENDBRANCH  20  24
ENDBRANCH  16  17
ENDBRANCH  13  16
ENDBRANCH   7  12
ENDBRANCH   4   7
ENDBRANCH   2   3
ENDBRANCH   1   2
BRANCH   1  26
ATOM     26  C   UNL A   1      31.921  30.456  26.338  1.00  0.00     0.023 C 
BRANCH  26  27
ATOM     27  C   UNL A   1      32.885  31.252  27.215  1.00  0.00     0.116 C 
BRANCH  27  28
ATOM     28  N   UNL A   1      32.593  32.673  27.299  1.00  0.00    -0.352 N 
ATOM     29  C   UNL A   1      33.304  33.623  28.003  1.00  0.00     0.251 C 
ATOM     30  H   UNL A   1      31.805  32.992  26.801  1.00  0.00     0.163 HD
ATOM     31  O   UNL A   1      32.935  34.792  28.029  1.00  0.00    -0.269 OA
BRANCH  29  32
ATOM     32  C   UNL A   1      34.500  33.190  28.757  1.00  0.00     0.039 A 
ATOM     33  C   UNL A   1      35.773  33.389  28.222  1.00  0.00     0.014 A 
ATOM     34  C   UNL A   1      34.343  32.524  29.973  1.00  0.00     0.014 A 
ATOM     35  C   UNL A   1      36.883  32.811  28.837  1.00  0.00     0.010 A 
ATOM     36  C   UNL A   1      35.465  31.990  30.616  1.00  0.00     0.010 A 
ATOM     37  C   UNL A   1      36.740  32.090  30.034  1.00  0.00    -0.014 A 
BRANCH  37  38
ATOM     38  C   UNL A   1      37.921  31.441  30.668  1.00  0.00     0.031 A 
ATOM     39  C   UNL A   1      38.722  30.404  29.925  1.00  0.00     0.074 A 
ATOM     40  C   UNL A   1      38.286  31.788  31.918  1.00  0.00     0.049 A 
ATOM     41  N   UNL A   1      39.761  29.717  30.329  1.00  0.00    -0.248 NA
ATOM     42  C   UNL A   1      38.299  30.093  28.551  1.00  0.00     0.031 C 
ATOM     43  C   UNL A   1      37.604  32.786  32.737  1.00  0.00     0.029 A 
ATOM     44  N   UNL A   1      39.316  31.347  32.714  1.00  0.00    -0.354 N 
ATOM     45  C   UNL A   1      40.098  28.876  29.275  1.00  0.00     0.074 A 
ATOM     46  C   UNL A   1      39.139  29.123  28.220  1.00  0.00     0.031 C 
ATOM     47  C   UNL A   1      38.250  32.909  33.904  1.00  0.00     0.029 A 
ATOM     48  C   UNL A   1      39.354  31.950  33.949  1.00  0.00     0.049 A 
ATOM     49  H   UNL A   1      39.965  30.665  32.426  1.00  0.00     0.167 HD
ATOM     50  C   UNL A   1      41.119  27.987  29.194  1.00  0.00     0.034 A 
ATOM     51  C   UNL A   1      40.166  31.749  35.008  1.00  0.00     0.034 A 
ATOM     52  C   UNL A   1      42.086  27.768  30.240  1.00  0.00     0.049 A 
ATOM     53  C   UNL A   1      41.273  30.731  34.908  1.00  0.00     0.074 A 
ATOM     54  C   UNL A   1      43.191  26.935  30.219  1.00  0.00     0.029 A 
ATOM     55  N   UNL A   1      42.070  28.372  31.490  1.00  0.00    -0.354 N 
ATOM     56  N   UNL A   1      41.614  29.984  33.885  1.00  0.00    -0.248 NA
ATOM     57  C   UNL A   1      42.106  30.525  36.101  1.00  0.00     0.031 C 
ATOM     58  C   UNL A   1      43.798  26.976  31.473  1.00  0.00     0.029 A 
ATOM     59  C   UNL A   1      43.123  27.897  32.259  1.00  0.00     0.049 A 
ATOM     60  H   UNL A   1      41.409  29.037  31.788  1.00  0.00     0.167 HD
ATOM     61  C   UNL A   1      42.708  29.231  34.305  1.00  0.00     0.074 A 
ATOM     62  C   UNL A   1      42.987  29.631  35.667  1.00  0.00     0.031 C 
ATOM     63  C   UNL A   1      43.409  28.293  33.618  1.00  0.00     0.034 A 
BRANCH  50  64
ATOM     64  C   UNL A   1      41.267  27.166  27.934  1.00  0.00     0.023 A 
ATOM     65  C   UNL A   1      40.951  25.793  27.953  1.00  0.00     0.031 A 
ATOM     66  C   UNL A   1      41.837  27.700  26.765  1.00  0.00     0.131 A 
ATOM     67  C   UNL A   1      41.233  24.997  26.836  1.00  0.00     0.055 A 
ATOM     68  C   UNL A   1      42.079  26.910  25.640  1.00  0.00     0.041 A 
ATOM     69  F   UNL A   1      42.159  29.002  26.696  1.00  0.00    -0.206 F 
ATOM     70  C   UNL A   1      41.789  25.549  25.678  1.00  0.00     0.022 A 
BRANCH  67  71
ATOM     71  S   UNL A   1      40.957  23.205  26.866  1.00  0.00     0.124 S 
ATOM     72  O   UNL A   1      39.532  23.119  26.554  1.00  0.00    -0.237 OA
ATOM     73  O   UNL A   1      41.856  22.738  25.814  1.00  0.00    -0.237 OA
ATOM     74  O   UNL A   1      41.320  22.815  28.224  1.00  0.00    -0.744 OA
ENDBRANCH  67  71
ENDBRANCH  50  64
BRANCH  51  75
ATOM     75  C   UNL A   1      39.967  32.581  36.230  1.00  0.00     0.023 A 
ATOM     76  C   UNL A   1      39.085  32.174  37.246  1.00  0.00     0.031 A 
ATOM     77  C   UNL A   1      40.543  33.859  36.326  1.00  0.00     0.131 A 
ATOM     78  C   UNL A   1      38.729  33.071  38.260  1.00  0.00     0.055 A 
ATOM     79  C   UNL A   1      40.246  34.721  37.383  1.00  0.00     0.041 A 
ATOM     80  F   UNL A   1      41.386  34.294  35.377  1.00  0.00    -0.206 F 
ATOM     81  C   UNL A   1      39.317  34.337  38.344  1.00  0.00     0.022 A 
BRANCH  78  82
ATOM     82  S   UNL A   1      37.380  32.684  39.409  1.00  0.00     0.124 S 
ATOM     83  O   UNL A   1      36.213  32.707  38.532  1.00  0.00    -0.237 OA
ATOM     84  O   UNL A   1      37.777  31.366  39.898  1.00  0.00    -0.237 OA
ATOM     85  O   UNL A   1      37.447  33.757  40.395  1.00  0.00    -0.744 OA
ENDBRANCH  78  82
ENDBRANCH  51  75
BRANCH  63  86
ATOM     86  C   UNL A   1      44.566  27.603  34.303  1.00  0.00     0.023 A 
ATOM     87  C   UNL A   1      44.341  26.445  35.074  1.00  0.00     0.031 A 
ATOM     88  C   UNL A   1      45.849  28.176  34.327  1.00  0.00     0.131 A 
ATOM     89  C   UNL A   1      45.370  25.926  35.872  1.00  0.00     0.055 A 
ATOM     90  C   UNL A   1      46.885  27.626  35.087  1.00  0.00     0.041 A 
ATOM     91  F   UNL A   1      46.114  29.286  33.618  1.00  0.00    -0.206 F 
ATOM     92  C   UNL A   1      46.642  26.505  35.876  1.00  0.00     0.022 A 
BRANCH  89  93
ATOM     93  S   UNL A   1      45.068  24.540  37.003  1.00  0.00     0.124 S 
ATOM     94  O   UNL A   1      45.660  25.029  38.246  1.00  0.00    -0.237 OA
ATOM     95  O   UNL A   1      43.610  24.451  37.001  1.00  0.00    -0.237 OA
ATOM     96  O   UNL A   1      45.765  23.418  36.382  1.00  0.00    -0.744 OA
ENDBRANCH  89  93
ENDBRANCH  63  86
ENDBRANCH  37  38
ENDBRANCH  29  32
ENDBRANCH  27  28
ENDBRANCH  26  27
ENDBRANCH   1  26
TORSDOF 20
ENDMDL
