MODEL 1
REMARK VINA RESULT:     -13.3      0.000      0.000
REMARK SMILES Cc1nn(CC(=O)NCCCCNC(=O)c2ccc(-c3c4nc(c(-c5cc(S(=O)(=O)[O-])ccc5F)c5ccc([nH]5)c(-c5cc(S(=O)(=O)[O-])ccc5F)c5nc(c(-c6cc(S(=O)(=O)[O-])ccc6F)c6ccc3[nH]6)C=C5)C=C4)cc2)c(C)c1NS(=O)(=O)c1cccc2cccnc12
REMARK SMILES IDX 10 1 9 2 8 3 6 4 7 5 5 7 4 8 1 9 2 10 3 11 81 12 79 13 80 14
REMARK SMILES IDX 82 15 83 17 84 18 85 19 86 20 87 21 95 22 88 23 90 24 94 25
REMARK SMILES IDX 89 26 91 27 93 28 92 29 11 30 12 31 13 32 14 33 15 35 16 36
REMARK SMILES IDX 17 37 78 38 18 39 77 40 19 41 20 42 21 43 71 44 22 45 76 46
REMARK SMILES IDX 70 47 72 48 23 49 75 50 69 51 68 52 24 54 56 55 36 56 55 57
REMARK SMILES IDX 37 58 40 59 54 60 73 61 38 62 39 63 53 65 74 66 41 67 25 68
REMARK SMILES IDX 26 69 34 70 27 71 33 72 35 73 32 74 28 75 29 76 30 77 31 78
REMARK SMILES IDX 57 79 58 80 66 81 59 82 65 83 67 84 64 85 60 86 61 87 62 88
REMARK SMILES IDX 63 89 42 90 43 91 51 92 44 93 50 94 52 95 49 96 45 97 46 98
REMARK SMILES IDX 47 99 48 100
REMARK H PARENT 8 6 82 16 13 34 72 53 40 64
REMARK Flexibility Score: inf
ROOT
ATOM      1  C   UNL A   1      32.923  29.876  27.074  1.00  0.00     0.023 C 
ENDROOT
BRANCH   1   2
ATOM      2  C   UNL A   1      32.138  29.852  25.755  1.00  0.00     0.116 C 
BRANCH   2   3
ATOM      3  N   UNL A   1      32.991  29.717  24.591  1.00  0.00    -0.354 N 
ATOM      4  C   UNL A   1      32.943  28.831  23.552  1.00  0.00     0.241 C 
ATOM      5  O   UNL A   1      33.799  28.968  22.669  1.00  0.00    -0.273 OA
ATOM      6  H   UNL A   1      33.725  30.371  24.542  1.00  0.00     0.163 HD
BRANCH   4   7
ATOM      7  C   UNL A   1      31.817  27.835  23.359  1.00  0.00     0.244 C 
BRANCH   7   8
ATOM      8  N   UNL A   1      32.109  26.459  23.725  1.00  0.00    -0.258 N 
ATOM      9  C   UNL A   1      33.555  23.358  22.891  1.00  0.00     0.071 C 
ATOM     10  C   UNL A   1      32.984  24.551  23.567  1.00  0.00     0.084 A 
ATOM     11  N   UNL A   1      32.613  25.600  22.823  1.00  0.00    -0.175 NA
ATOM     12  C   UNL A   1      32.735  24.772  24.957  1.00  0.00     0.093 A 
ATOM     13  C   UNL A   1      31.898  25.869  24.953  1.00  0.00     0.060 A 
ATOM     14  C   UNL A   1      30.963  26.449  25.946  1.00  0.00     0.069 C 
BRANCH  12  15
ATOM     15  N   UNL A   1      33.230  23.975  25.988  1.00  0.00    -0.276 N 
ATOM     16  H   UNL A   1      34.060  24.301  26.405  1.00  0.00     0.180 HD
BRANCH  15  17
ATOM     17  S   UNL A   1      32.625  22.539  26.634  1.00  0.00     0.264 S 
ATOM     18  O   UNL A   1      32.924  22.590  28.054  1.00  0.00    -0.201 OA
ATOM     19  O   UNL A   1      31.253  22.506  26.177  1.00  0.00    -0.201 OA
BRANCH  17  20
ATOM     20  C   UNL A   1      33.443  21.194  25.811  1.00  0.00     0.114 A 
ATOM     21  C   UNL A   1      32.652  20.106  25.401  1.00  0.00     0.024 A 
ATOM     22  C   UNL A   1      34.832  21.210  25.614  1.00  0.00     0.091 A 
ATOM     23  C   UNL A   1      33.238  19.023  24.755  1.00  0.00     0.002 A 
ATOM     24  C   UNL A   1      35.408  20.068  25.003  1.00  0.00     0.002 A 
ATOM     25  N   UNL A   1      35.624  22.257  25.940  1.00  0.00    -0.255 NA
ATOM     26  C   UNL A   1      34.612  19.000  24.565  1.00  0.00     0.010 A 
ATOM     27  C   UNL A   1      36.795  20.015  24.818  1.00  0.00     0.012 A 
ATOM     28  C   UNL A   1      36.952  22.198  25.696  1.00  0.00     0.112 A 
ATOM     29  C   UNL A   1      37.584  21.099  25.162  1.00  0.00     0.021 A 
ENDBRANCH  17  20
ENDBRANCH  15  17
ENDBRANCH  12  15
ENDBRANCH   7   8
ENDBRANCH   4   7
ENDBRANCH   2   3
ENDBRANCH   1   2
BRANCH   1  30
ATOM     30  C   UNL A   1      34.427  30.172  26.958  1.00  0.00     0.023 C 
BRANCH  30  31
ATOM     31  C   UNL A   1      35.323  29.287  27.815  1.00  0.00     0.116 C 
BRANCH  31  32
ATOM     32  N   UNL A   1      35.505  29.779  29.181  1.00  0.00    -0.352 N 
ATOM     33  C   UNL A   1      36.518  29.431  30.062  1.00  0.00     0.251 C 
ATOM     34  H   UNL A   1      34.836  30.424  29.509  1.00  0.00     0.163 HD
ATOM     35  O   UNL A   1      36.357  29.548  31.271  1.00  0.00    -0.269 OA
BRANCH  33  36
ATOM     36  C   UNL A   1      37.791  28.926  29.510  1.00  0.00     0.039 A 
ATOM     37  C   UNL A   1      38.380  29.480  28.371  1.00  0.00     0.014 A 
ATOM     38  C   UNL A   1      38.417  27.887  30.195  1.00  0.00     0.014 A 
ATOM     39  C   UNL A   1      39.647  29.035  27.986  1.00  0.00     0.010 A 
ATOM     40  C   UNL A   1      39.717  27.557  29.907  1.00  0.00     0.010 A 
ATOM     41  C   UNL A   1      40.321  28.087  28.776  1.00  0.00    -0.014 A 
BRANCH  41  42
ATOM     42  C   UNL A   1      41.718  27.737  28.521  1.00  0.00     0.031 A 
ATOM     43  C   UNL A   1      41.892  26.463  27.776  1.00  0.00     0.074 A 
ATOM     44  C   UNL A   1      42.754  28.583  28.718  1.00  0.00     0.049 A 
ATOM     45  N   UNL A   1      42.294  25.329  28.247  1.00  0.00    -0.248 NA
ATOM     46  C   UNL A   1      41.394  26.381  26.393  1.00  0.00     0.031 C 
ATOM     47  C   UNL A   1      42.709  29.985  29.152  1.00  0.00     0.029 A 
ATOM     48  N   UNL A   1      44.081  28.396  28.471  1.00  0.00    -0.354 N 
ATOM     49  C   UNL A   1      42.367  24.469  27.157  1.00  0.00     0.074 A 
ATOM     50  C   UNL A   1      41.582  25.087  26.123  1.00  0.00     0.031 C 
ATOM     51  C   UNL A   1      43.905  30.574  28.923  1.00  0.00     0.029 A 
ATOM     52  C   UNL A   1      44.851  29.559  28.495  1.00  0.00     0.049 A 
ATOM     53  H   UNL A   1      44.466  27.508  28.291  1.00  0.00     0.167 HD
ATOM     54  C   UNL A   1      43.294  23.470  27.119  1.00  0.00     0.034 A 
ATOM     55  C   UNL A   1      46.171  29.688  28.187  1.00  0.00     0.034 A 
ATOM     56  C   UNL A   1      43.879  23.269  28.429  1.00  0.00     0.049 A 
ATOM     57  C   UNL A   1      46.771  28.341  28.358  1.00  0.00     0.074 A 
ATOM     58  C   UNL A   1      43.386  22.946  29.679  1.00  0.00     0.029 A 
ATOM     59  N   UNL A   1      45.131  23.799  28.654  1.00  0.00    -0.354 N 
ATOM     60  N   UNL A   1      46.837  27.732  29.509  1.00  0.00    -0.248 NA
ATOM     61  C   UNL A   1      46.846  27.474  27.194  1.00  0.00     0.031 C 
ATOM     62  C   UNL A   1      44.135  23.754  30.587  1.00  0.00     0.029 A 
ATOM     63  C   UNL A   1      45.104  24.451  29.862  1.00  0.00     0.049 A 
ATOM     64  H   UNL A   1      45.908  23.726  28.053  1.00  0.00     0.167 HD
ATOM     65  C   UNL A   1      46.508  26.414  29.235  1.00  0.00     0.074 A 
ATOM     66  C   UNL A   1      46.627  26.294  27.782  1.00  0.00     0.031 C 
ATOM     67  C   UNL A   1      45.898  25.627  30.173  1.00  0.00     0.034 A 
BRANCH  54  68
ATOM     68  C   UNL A   1      43.976  22.951  25.866  1.00  0.00     0.023 A 
ATOM     69  C   UNL A   1      43.978  21.554  25.678  1.00  0.00     0.031 A 
ATOM     70  C   UNL A   1      44.853  23.679  25.031  1.00  0.00     0.131 A 
ATOM     71  C   UNL A   1      44.897  20.941  24.811  1.00  0.00     0.055 A 
ATOM     72  C   UNL A   1      45.717  23.067  24.117  1.00  0.00     0.041 A 
ATOM     73  F   UNL A   1      44.997  25.006  25.105  1.00  0.00    -0.206 F 
ATOM     74  C   UNL A   1      45.770  21.688  24.029  1.00  0.00     0.022 A 
BRANCH  71  75
ATOM     75  S   UNL A   1      45.056  19.138  24.872  1.00  0.00     0.124 S 
ATOM     76  O   UNL A   1      44.849  18.781  23.473  1.00  0.00    -0.237 OA
ATOM     77  O   UNL A   1      46.412  18.973  25.386  1.00  0.00    -0.237 OA
ATOM     78  O   UNL A   1      43.990  18.735  25.785  1.00  0.00    -0.744 OA
ENDBRANCH  71  75
ENDBRANCH  54  68
BRANCH  55  79
ATOM     79  C   UNL A   1      46.834  30.791  27.430  1.00  0.00     0.023 A 
ATOM     80  C   UNL A   1      46.149  31.945  26.984  1.00  0.00     0.031 A 
ATOM     81  C   UNL A   1      48.244  30.834  27.369  1.00  0.00     0.131 A 
ATOM     82  C   UNL A   1      46.873  33.071  26.515  1.00  0.00     0.055 A 
ATOM     83  C   UNL A   1      48.952  31.949  26.913  1.00  0.00     0.041 A 
ATOM     84  F   UNL A   1      48.990  29.819  27.835  1.00  0.00    -0.206 F 
ATOM     85  C   UNL A   1      48.269  33.078  26.494  1.00  0.00     0.022 A 
BRANCH  82  86
ATOM     86  S   UNL A   1      46.007  34.593  25.998  1.00  0.00     0.124 S 
ATOM     87  O   UNL A   1      47.075  35.586  26.038  1.00  0.00    -0.237 OA
ATOM     88  O   UNL A   1      45.501  34.235  24.679  1.00  0.00    -0.237 OA
ATOM     89  O   UNL A   1      44.975  34.765  27.022  1.00  0.00    -0.744 OA
ENDBRANCH  82  86
ENDBRANCH  55  79
BRANCH  67  90
ATOM     90  C   UNL A   1      45.894  26.097  31.616  1.00  0.00     0.023 A 
ATOM     91  C   UNL A   1      44.791  26.667  32.295  1.00  0.00     0.031 A 
ATOM     92  C   UNL A   1      47.059  25.846  32.364  1.00  0.00     0.131 A 
ATOM     93  C   UNL A   1      44.891  26.970  33.670  1.00  0.00     0.055 A 
ATOM     94  C   UNL A   1      47.144  26.125  33.726  1.00  0.00     0.041 A 
ATOM     95  F   UNL A   1      48.133  25.288  31.783  1.00  0.00    -0.206 F 
ATOM     96  C   UNL A   1      46.061  26.693  34.384  1.00  0.00     0.022 A 
BRANCH  93  97
ATOM     97  S   UNL A   1      43.504  27.755  34.559  1.00  0.00     0.124 S 
ATOM     98  O   UNL A   1      42.332  27.039  34.067  1.00  0.00    -0.237 OA
ATOM     99  O   UNL A   1      43.851  27.523  35.959  1.00  0.00    -0.237 OA
ATOM    100  O   UNL A   1      43.581  29.156  34.140  1.00  0.00    -0.744 OA
ENDBRANCH  93  97
ENDBRANCH  67  90
ENDBRANCH  41  42
ENDBRANCH  33  36
ENDBRANCH  31  32
ENDBRANCH  30  31
ENDBRANCH   1  30
TORSDOF 18
ENDMDL
MODEL 2
REMARK VINA RESULT:     -13.1      3.053      8.744
REMARK SMILES Cc1nn(CC(=O)NCCCCNC(=O)c2ccc(-c3c4nc(c(-c5cc(S(=O)(=O)[O-])ccc5F)c5ccc([nH]5)c(-c5cc(S(=O)(=O)[O-])ccc5F)c5nc(c(-c6cc(S(=O)(=O)[O-])ccc6F)c6ccc3[nH]6)C=C5)C=C4)cc2)c(C)c1NS(=O)(=O)c1cccc2cccnc12
REMARK SMILES IDX 10 1 9 2 8 3 6 4 7 5 5 7 4 8 1 9 2 10 3 11 81 12 79 13 80 14
REMARK SMILES IDX 82 15 83 17 84 18 85 19 86 20 87 21 95 22 88 23 90 24 94 25
REMARK SMILES IDX 89 26 91 27 93 28 92 29 11 30 12 31 13 32 14 33 15 35 16 36
REMARK SMILES IDX 17 37 78 38 18 39 77 40 19 41 20 42 21 43 71 44 22 45 76 46
REMARK SMILES IDX 70 47 72 48 23 49 75 50 69 51 68 52 24 54 56 55 36 56 55 57
REMARK SMILES IDX 37 58 40 59 54 60 73 61 38 62 39 63 53 65 74 66 41 67 25 68
REMARK SMILES IDX 26 69 34 70 27 71 33 72 35 73 32 74 28 75 29 76 30 77 31 78
REMARK SMILES IDX 57 79 58 80 66 81 59 82 65 83 67 84 64 85 60 86 61 87 62 88
REMARK SMILES IDX 63 89 42 90 43 91 51 92 44 93 50 94 52 95 49 96 45 97 46 98
REMARK SMILES IDX 47 99 48 100
REMARK H PARENT 8 6 82 16 13 34 72 53 40 64
REMARK Flexibility Score: inf
ROOT
ATOM      1  C   UNL A   1      36.719  21.115  24.510  1.00  0.00     0.023 C 
ENDROOT
BRANCH   1   2
ATOM      2  C   UNL A   1      35.283  20.986  25.037  1.00  0.00     0.116 C 
BRANCH   2   3
ATOM      3  N   UNL A   1      34.865  19.609  25.209  1.00  0.00    -0.354 N 
ATOM      4  C   UNL A   1      33.749  18.957  24.766  1.00  0.00     0.241 C 
ATOM      5  O   UNL A   1      33.664  17.755  25.046  1.00  0.00    -0.273 OA
ATOM      6  H   UNL A   1      35.488  19.053  25.731  1.00  0.00     0.163 HD
BRANCH   4   7
ATOM      7  C   UNL A   1      32.734  19.586  23.832  1.00  0.00     0.244 C 
BRANCH   7   8
ATOM      8  N   UNL A   1      32.200  20.874  24.239  1.00  0.00    -0.258 N 
ATOM      9  C   UNL A   1      30.869  22.922  26.777  1.00  0.00     0.071 C 
ATOM     10  C   UNL A   1      31.511  22.362  25.560  1.00  0.00     0.084 A 
ATOM     11  N   UNL A   1      31.637  21.034  25.449  1.00  0.00    -0.175 NA
ATOM     12  C   UNL A   1      32.031  23.041  24.416  1.00  0.00     0.093 A 
ATOM     13  C   UNL A   1      32.167  22.029  23.488  1.00  0.00     0.060 A 
ATOM     14  C   UNL A   1      32.302  22.002  22.012  1.00  0.00     0.069 C 
BRANCH  12  15
ATOM     15  N   UNL A   1      32.260  24.414  24.344  1.00  0.00    -0.276 N 
ATOM     16  H   UNL A   1      31.471  24.957  24.116  1.00  0.00     0.180 HD
BRANCH  15  17
ATOM     17  S   UNL A   1      33.680  25.291  24.590  1.00  0.00     0.264 S 
ATOM     18  O   UNL A   1      34.399  24.588  25.637  1.00  0.00    -0.201 OA
ATOM     19  O   UNL A   1      34.248  25.405  23.264  1.00  0.00    -0.201 OA
BRANCH  17  20
ATOM     20  C   UNL A   1      33.219  26.939  25.064  1.00  0.00     0.114 A 
ATOM     21  C   UNL A   1      33.938  27.538  26.114  1.00  0.00     0.024 A 
ATOM     22  C   UNL A   1      32.152  27.596  24.433  1.00  0.00     0.091 A 
ATOM     23  C   UNL A   1      33.618  28.826  26.530  1.00  0.00     0.002 A 
ATOM     24  C   UNL A   1      31.815  28.886  24.916  1.00  0.00     0.002 A 
ATOM     25  N   UNL A   1      31.470  27.083  23.384  1.00  0.00    -0.255 NA
ATOM     26  C   UNL A   1      32.555  29.493  25.940  1.00  0.00     0.010 A 
ATOM     27  C   UNL A   1      30.733  29.570  24.348  1.00  0.00     0.012 A 
ATOM     28  C   UNL A   1      30.468  27.794  22.819  1.00  0.00     0.112 A 
ATOM     29  C   UNL A   1      30.049  29.022  23.276  1.00  0.00     0.021 A 
ENDBRANCH  17  20
ENDBRANCH  15  17
ENDBRANCH  12  15
ENDBRANCH   7   8
ENDBRANCH   4   7
ENDBRANCH   2   3
ENDBRANCH   1   2
BRANCH   1  30
ATOM     30  C   UNL A   1      37.672  19.961  24.861  1.00  0.00     0.023 C 
BRANCH  30  31
ATOM     31  C   UNL A   1      38.894  20.363  25.675  1.00  0.00     0.116 C 
BRANCH  31  32
ATOM     32  N   UNL A   1      39.918  19.321  25.757  1.00  0.00    -0.352 N 
ATOM     33  C   UNL A   1      41.284  19.508  25.910  1.00  0.00     0.251 C 
ATOM     34  H   UNL A   1      39.605  18.390  25.694  1.00  0.00     0.163 HD
ATOM     35  O   UNL A   1      42.074  18.643  25.549  1.00  0.00    -0.269 OA
BRANCH  33  36
ATOM     36  C   UNL A   1      41.760  20.763  26.524  1.00  0.00     0.039 A 
ATOM     37  C   UNL A   1      42.260  21.822  25.761  1.00  0.00     0.014 A 
ATOM     38  C   UNL A   1      41.659  20.877  27.909  1.00  0.00     0.014 A 
ATOM     39  C   UNL A   1      42.570  23.024  26.402  1.00  0.00     0.010 A 
ATOM     40  C   UNL A   1      41.820  22.098  28.514  1.00  0.00     0.010 A 
ATOM     41  C   UNL A   1      42.323  23.162  27.779  1.00  0.00    -0.014 A 
BRANCH  41  42
ATOM     42  C   UNL A   1      42.449  24.455  28.451  1.00  0.00     0.031 A 
ATOM     43  C   UNL A   1      41.333  25.393  28.163  1.00  0.00     0.074 A 
ATOM     44  C   UNL A   1      43.349  24.711  29.427  1.00  0.00     0.049 A 
ATOM     45  N   UNL A   1      41.363  26.435  27.401  1.00  0.00    -0.248 NA
ATOM     46  C   UNL A   1      39.980  25.041  28.625  1.00  0.00     0.031 C 
ATOM     47  C   UNL A   1      44.310  23.786  30.040  1.00  0.00     0.029 A 
ATOM     48  N   UNL A   1      43.528  25.846  30.160  1.00  0.00    -0.354 N 
ATOM     49  C   UNL A   1      40.108  27.025  27.514  1.00  0.00     0.074 A 
ATOM     50  C   UNL A   1      39.251  26.011  28.064  1.00  0.00     0.031 C 
ATOM     51  C   UNL A   1      44.800  24.323  31.180  1.00  0.00     0.029 A 
ATOM     52  C   UNL A   1      44.331  25.692  31.290  1.00  0.00     0.049 A 
ATOM     53  H   UNL A   1      43.123  26.708  29.910  1.00  0.00     0.167 HD
ATOM     54  C   UNL A   1      39.962  28.376  27.404  1.00  0.00     0.034 A 
ATOM     55  C   UNL A   1      44.597  26.619  32.252  1.00  0.00     0.034 A 
ATOM     56  C   UNL A   1      41.161  28.975  26.853  1.00  0.00     0.049 A 
ATOM     57  C   UNL A   1      44.355  27.945  31.631  1.00  0.00     0.074 A 
ATOM     58  C   UNL A   1      41.878  28.822  25.681  1.00  0.00     0.029 A 
ATOM     59  N   UNL A   1      42.020  29.599  27.730  1.00  0.00    -0.354 N 
ATOM     60  N   UNL A   1      45.061  28.404  30.634  1.00  0.00    -0.248 NA
ATOM     61  C   UNL A   1      43.038  28.540  31.782  1.00  0.00     0.031 C 
ATOM     62  C   UNL A   1      43.247  28.894  26.078  1.00  0.00     0.029 A 
ATOM     63  C   UNL A   1      43.296  29.180  27.444  1.00  0.00     0.049 A 
ATOM     64  H   UNL A   1      41.765  30.233  28.439  1.00  0.00     0.167 HD
ATOM     65  C   UNL A   1      44.137  28.991  29.784  1.00  0.00     0.074 A 
ATOM     66  C   UNL A   1      42.926  29.137  30.591  1.00  0.00     0.031 C 
ATOM     67  C   UNL A   1      44.351  29.041  28.434  1.00  0.00     0.034 A 
BRANCH  54  68
ATOM     68  C   UNL A   1      38.938  29.213  28.149  1.00  0.00     0.023 A 
ATOM     69  C   UNL A   1      39.019  29.207  29.556  1.00  0.00     0.031 A 
ATOM     70  C   UNL A   1      37.748  29.751  27.609  1.00  0.00     0.131 A 
ATOM     71  C   UNL A   1      37.921  29.589  30.347  1.00  0.00     0.055 A 
ATOM     72  C   UNL A   1      36.686  30.197  28.403  1.00  0.00     0.041 A 
ATOM     73  F   UNL A   1      37.499  29.799  26.297  1.00  0.00    -0.206 F 
ATOM     74  C   UNL A   1      36.752  30.082  29.779  1.00  0.00     0.022 A 
BRANCH  71  75
ATOM     75  S   UNL A   1      37.988  29.243  32.123  1.00  0.00     0.124 S 
ATOM     76  O   UNL A   1      39.047  30.149  32.554  1.00  0.00    -0.237 OA
ATOM     77  O   UNL A   1      36.634  29.586  32.547  1.00  0.00    -0.237 OA
ATOM     78  O   UNL A   1      38.319  27.822  32.180  1.00  0.00    -0.744 OA
ENDBRANCH  71  75
ENDBRANCH  54  68
BRANCH  55  79
ATOM     79  C   UNL A   1      44.691  26.409  33.728  1.00  0.00     0.023 A 
ATOM     80  C   UNL A   1      43.586  26.533  34.601  1.00  0.00     0.031 A 
ATOM     81  C   UNL A   1      45.854  25.813  34.265  1.00  0.00     0.131 A 
ATOM     82  C   UNL A   1      43.671  26.063  35.936  1.00  0.00     0.055 A 
ATOM     83  C   UNL A   1      45.929  25.345  35.580  1.00  0.00     0.041 A 
ATOM     84  F   UNL A   1      46.933  25.584  33.500  1.00  0.00    -0.206 F 
ATOM     85  C   UNL A   1      44.833  25.458  36.419  1.00  0.00     0.022 A 
BRANCH  82  86
ATOM     86  S   UNL A   1      42.232  26.154  37.056  1.00  0.00     0.124 S 
ATOM     87  O   UNL A   1      42.850  26.512  38.327  1.00  0.00    -0.237 OA
ATOM     88  O   UNL A   1      41.405  27.175  36.424  1.00  0.00    -0.237 OA
ATOM     89  O   UNL A   1      41.675  24.801  37.007  1.00  0.00    -0.744 OA
ENDBRANCH  82  86
ENDBRANCH  55  79
BRANCH  67  90
ATOM     90  C   UNL A   1      45.749  28.761  27.914  1.00  0.00     0.023 A 
ATOM     91  C   UNL A   1      46.234  27.500  27.492  1.00  0.00     0.031 A 
ATOM     92  C   UNL A   1      46.594  29.872  27.743  1.00  0.00     0.131 A 
ATOM     93  C   UNL A   1      47.525  27.393  26.934  1.00  0.00     0.055 A 
ATOM     94  C   UNL A   1      47.859  29.765  27.170  1.00  0.00     0.041 A 
ATOM     95  F   UNL A   1      46.184  31.099  28.106  1.00  0.00    -0.206 F 
ATOM     96  C   UNL A   1      48.332  28.524  26.768  1.00  0.00     0.022 A 
BRANCH  93  97
ATOM     97  S   UNL A   1      48.198  25.773  26.431  1.00  0.00     0.124 S 
ATOM     98  O   UNL A   1      48.235  25.015  27.677  1.00  0.00    -0.237 OA
ATOM     99  O   UNL A   1      47.228  25.320  25.437  1.00  0.00    -0.237 OA
ATOM    100  O   UNL A   1      49.515  26.107  25.884  1.00  0.00    -0.744 OA
ENDBRANCH  93  97
ENDBRANCH  67  90
ENDBRANCH  41  42
ENDBRANCH  33  36
ENDBRANCH  31  32
ENDBRANCH  30  31
ENDBRANCH   1  30
TORSDOF 18
ENDMDL
MODEL 3
REMARK VINA RESULT:     -12.7      2.548      6.748
REMARK SMILES Cc1nn(CC(=O)NCCCCNC(=O)c2ccc(-c3c4nc(c(-c5cc(S(=O)(=O)[O-])ccc5F)c5ccc([nH]5)c(-c5cc(S(=O)(=O)[O-])ccc5F)c5nc(c(-c6cc(S(=O)(=O)[O-])ccc6F)c6ccc3[nH]6)C=C5)C=C4)cc2)c(C)c1NS(=O)(=O)c1cccc2cccnc12
REMARK SMILES IDX 10 1 9 2 8 3 6 4 7 5 5 7 4 8 1 9 2 10 3 11 81 12 79 13 80 14
REMARK SMILES IDX 82 15 83 17 84 18 85 19 86 20 87 21 95 22 88 23 90 24 94 25
REMARK SMILES IDX 89 26 91 27 93 28 92 29 11 30 12 31 13 32 14 33 15 35 16 36
REMARK SMILES IDX 17 37 78 38 18 39 77 40 19 41 20 42 21 43 71 44 22 45 76 46
REMARK SMILES IDX 70 47 72 48 23 49 75 50 69 51 68 52 24 54 56 55 36 56 55 57
REMARK SMILES IDX 37 58 40 59 54 60 73 61 38 62 39 63 53 65 74 66 41 67 25 68
REMARK SMILES IDX 26 69 34 70 27 71 33 72 35 73 32 74 28 75 29 76 30 77 31 78
REMARK SMILES IDX 57 79 58 80 66 81 59 82 65 83 67 84 64 85 60 86 61 87 62 88
REMARK SMILES IDX 63 89 42 90 43 91 51 92 44 93 50 94 52 95 49 96 45 97 46 98
REMARK SMILES IDX 47 99 48 100
REMARK H PARENT 8 6 82 16 13 34 72 53 40 64
REMARK Flexibility Score: inf
ROOT
ATOM      1  C   UNL A   1      32.272  30.681  25.801  1.00  0.00     0.023 C 
ENDROOT
BRANCH   1   2
ATOM      2  C   UNL A   1      32.075  29.375  25.019  1.00  0.00     0.116 C 
BRANCH   2   3
ATOM      3  N   UNL A   1      32.958  29.262  23.875  1.00  0.00    -0.354 N 
ATOM      4  C   UNL A   1      32.982  28.349  22.858  1.00  0.00     0.241 C 
ATOM      5  O   UNL A   1      33.846  28.514  21.989  1.00  0.00    -0.273 OA
ATOM      6  H   UNL A   1      33.654  29.956  23.823  1.00  0.00     0.163 HD
BRANCH   4   7
ATOM      7  C   UNL A   1      31.919  27.284  22.670  1.00  0.00     0.244 C 
BRANCH   7   8
ATOM      8  N   UNL A   1      32.244  25.960  23.171  1.00  0.00    -0.258 N 
ATOM      9  C   UNL A   1      33.949  22.908  22.747  1.00  0.00     0.071 C 
ATOM     10  C   UNL A   1      33.237  24.106  23.261  1.00  0.00     0.084 A 
ATOM     11  N   UNL A   1      32.896  25.074  22.401  1.00  0.00    -0.175 NA
ATOM     12  C   UNL A   1      32.817  24.408  24.593  1.00  0.00     0.093 A 
ATOM     13  C   UNL A   1      31.925  25.445  24.410  1.00  0.00     0.060 A 
ATOM     14  C   UNL A   1      30.850  26.032  25.245  1.00  0.00     0.069 C 
BRANCH  12  15
ATOM     15  N   UNL A   1      33.232  23.720  25.731  1.00  0.00    -0.276 N 
ATOM     16  H   UNL A   1      33.947  24.159  26.246  1.00  0.00     0.180 HD
BRANCH  15  17
ATOM     17  S   UNL A   1      32.698  22.250  26.365  1.00  0.00     0.264 S 
ATOM     18  O   UNL A   1      32.869  22.358  27.803  1.00  0.00    -0.201 OA
ATOM     19  O   UNL A   1      31.378  22.089  25.797  1.00  0.00    -0.201 OA
BRANCH  17  20
ATOM     20  C   UNL A   1      33.694  20.964  25.652  1.00  0.00     0.114 A 
ATOM     21  C   UNL A   1      33.045  19.778  25.267  1.00  0.00     0.024 A 
ATOM     22  C   UNL A   1      35.081  21.122  25.515  1.00  0.00     0.091 A 
ATOM     23  C   UNL A   1      33.774  18.735  24.706  1.00  0.00     0.002 A 
ATOM     24  C   UNL A   1      35.805  20.021  24.991  1.00  0.00     0.002 A 
ATOM     25  N   UNL A   1      35.740  22.264  25.818  1.00  0.00    -0.255 NA
ATOM     26  C   UNL A   1      35.150  18.853  24.577  1.00  0.00     0.010 A 
ATOM     27  C   UNL A   1      37.197  20.111  24.869  1.00  0.00     0.012 A 
ATOM     28  C   UNL A   1      37.077  22.339  25.635  1.00  0.00     0.112 A 
ATOM     29  C   UNL A   1      37.849  21.291  25.189  1.00  0.00     0.021 A 
ENDBRANCH  17  20
ENDBRANCH  15  17
ENDBRANCH  12  15
ENDBRANCH   7   8
ENDBRANCH   4   7
ENDBRANCH   2   3
ENDBRANCH   1   2
BRANCH   1  30
ATOM     30  C   UNL A   1      32.632  30.529  27.288  1.00  0.00     0.023 C 
BRANCH  30  31
ATOM     31  C   UNL A   1      34.062  30.912  27.644  1.00  0.00     0.116 C 
BRANCH  31  32
ATOM     32  N   UNL A   1      34.160  31.870  28.746  1.00  0.00    -0.352 N 
ATOM     33  C   UNL A   1      35.059  31.835  29.801  1.00  0.00     0.251 C 
ATOM     34  H   UNL A   1      33.517  32.617  28.738  1.00  0.00     0.163 HD
ATOM     35  O   UNL A   1      34.801  32.401  30.857  1.00  0.00    -0.269 OA
BRANCH  33  36
ATOM     36  C   UNL A   1      36.333  31.111  29.619  1.00  0.00     0.039 A 
ATOM     37  C   UNL A   1      37.529  31.770  29.326  1.00  0.00     0.014 A 
ATOM     38  C   UNL A   1      36.312  29.728  29.789  1.00  0.00     0.014 A 
ATOM     39  C   UNL A   1      38.714  31.031  29.296  1.00  0.00     0.010 A 
ATOM     40  C   UNL A   1      37.487  29.031  29.908  1.00  0.00     0.010 A 
ATOM     41  C   UNL A   1      38.688  29.661  29.613  1.00  0.00    -0.014 A 
BRANCH  41  42
ATOM     42  C   UNL A   1      39.921  28.894  29.784  1.00  0.00     0.031 A 
ATOM     43  C   UNL A   1      40.259  28.606  31.202  1.00  0.00     0.074 A 
ATOM     44  C   UNL A   1      40.577  28.288  28.768  1.00  0.00     0.049 A 
ATOM     45  N   UNL A   1      41.184  29.158  31.914  1.00  0.00    -0.248 NA
ATOM     46  C   UNL A   1      39.357  27.740  31.980  1.00  0.00     0.031 C 
ATOM     47  C   UNL A   1      40.190  28.219  27.353  1.00  0.00     0.029 A 
ATOM     48  N   UNL A   1      41.694  27.508  28.804  1.00  0.00    -0.354 N 
ATOM     49  C   UNL A   1      41.160  28.505  33.142  1.00  0.00     0.074 A 
ATOM     50  C   UNL A   1      39.887  27.840  33.201  1.00  0.00     0.031 C 
ATOM     51  C   UNL A   1      40.921  27.270  26.724  1.00  0.00     0.029 A 
ATOM     52  C   UNL A   1      41.943  26.788  27.636  1.00  0.00     0.049 A 
ATOM     53  H   UNL A   1      42.279  27.458  29.594  1.00  0.00     0.167 HD
ATOM     54  C   UNL A   1      42.303  28.346  33.868  1.00  0.00     0.034 A 
ATOM     55  C   UNL A   1      42.918  25.862  27.424  1.00  0.00     0.034 A 
ATOM     56  C   UNL A   1      43.355  29.200  33.355  1.00  0.00     0.049 A 
ATOM     57  C   UNL A   1      43.982  26.141  28.421  1.00  0.00     0.074 A 
ATOM     58  C   UNL A   1      43.503  30.561  33.169  1.00  0.00     0.029 A 
ATOM     59  N   UNL A   1      44.320  28.614  32.565  1.00  0.00    -0.354 N 
ATOM     60  N   UNL A   1      44.677  27.245  28.430  1.00  0.00    -0.248 NA
ATOM     61  C   UNL A   1      43.935  25.429  29.687  1.00  0.00     0.031 C 
ATOM     62  C   UNL A   1      44.185  30.688  31.921  1.00  0.00     0.029 A 
ATOM     63  C   UNL A   1      44.502  29.408  31.460  1.00  0.00     0.049 A 
ATOM     64  H   UNL A   1      44.795  27.773  32.758  1.00  0.00     0.167 HD
ATOM     65  C   UNL A   1      44.771  27.597  29.767  1.00  0.00     0.074 A 
ATOM     66  C   UNL A   1      44.387  26.390  30.499  1.00  0.00     0.031 C 
ATOM     67  C   UNL A   1      44.873  28.907  30.147  1.00  0.00     0.034 A 
BRANCH  54  68
ATOM     68  C   UNL A   1      42.619  27.159  34.760  1.00  0.00     0.023 A 
ATOM     69  C   UNL A   1      43.453  26.161  34.215  1.00  0.00     0.031 A 
ATOM     70  C   UNL A   1      41.943  26.805  35.949  1.00  0.00     0.131 A 
ATOM     71  C   UNL A   1      43.483  24.866  34.758  1.00  0.00     0.055 A 
ATOM     72  C   UNL A   1      42.034  25.534  36.526  1.00  0.00     0.041 A 
ATOM     73  F   UNL A   1      41.090  27.623  36.574  1.00  0.00    -0.206 F 
ATOM     74  C   UNL A   1      42.777  24.544  35.911  1.00  0.00     0.022 A 
BRANCH  71  75
ATOM     75  S   UNL A   1      44.315  23.564  33.814  1.00  0.00     0.124 S 
ATOM     76  O   UNL A   1      45.645  24.137  33.640  1.00  0.00    -0.237 OA
ATOM     77  O   UNL A   1      44.217  22.425  34.722  1.00  0.00    -0.237 OA
ATOM     78  O   UNL A   1      43.513  23.463  32.598  1.00  0.00    -0.744 OA
ENDBRANCH  71  75
ENDBRANCH  54  68
BRANCH  55  79
ATOM     79  C   UNL A   1      42.814  24.574  26.675  1.00  0.00     0.023 A 
ATOM     80  C   UNL A   1      43.855  24.059  25.869  1.00  0.00     0.031 A 
ATOM     81  C   UNL A   1      41.751  23.691  26.970  1.00  0.00     0.131 A 
ATOM     82  C   UNL A   1      43.807  22.720  25.405  1.00  0.00     0.055 A 
ATOM     83  C   UNL A   1      41.713  22.370  26.516  1.00  0.00     0.041 A 
ATOM     84  F   UNL A   1      40.750  24.058  27.785  1.00  0.00    -0.206 F 
ATOM     85  C   UNL A   1      42.748  21.874  25.740  1.00  0.00     0.022 A 
BRANCH  82  86
ATOM     86  S   UNL A   1      45.175  22.020  24.419  1.00  0.00     0.124 S 
ATOM     87  O   UNL A   1      44.516  20.937  23.699  1.00  0.00    -0.237 OA
ATOM     88  O   UNL A   1      45.608  23.162  23.624  1.00  0.00    -0.237 OA
ATOM     89  O   UNL A   1      46.138  21.582  25.432  1.00  0.00    -0.744 OA
ENDBRANCH  82  86
ENDBRANCH  55  79
BRANCH  67  90
ATOM     90  C   UNL A   1      45.226  29.939  29.092  1.00  0.00     0.023 A 
ATOM     91  C   UNL A   1      46.536  30.285  28.683  1.00  0.00     0.031 A 
ATOM     92  C   UNL A   1      44.152  30.523  28.396  1.00  0.00     0.131 A 
ATOM     93  C   UNL A   1      46.724  31.193  27.619  1.00  0.00     0.055 A 
ATOM     94  C   UNL A   1      44.343  31.400  27.331  1.00  0.00     0.041 A 
ATOM     95  F   UNL A   1      42.885  30.221  28.724  1.00  0.00    -0.206 F 
ATOM     96  C   UNL A   1      45.631  31.743  26.941  1.00  0.00     0.022 A 
BRANCH  93  97
ATOM     97  S   UNL A   1      48.400  31.699  27.104  1.00  0.00     0.124 S 
ATOM     98  O   UNL A   1      48.975  30.475  26.557  1.00  0.00    -0.237 OA
ATOM     99  O   UNL A   1      48.130  32.762  26.140  1.00  0.00    -0.237 OA
ATOM    100  O   UNL A   1      49.016  32.155  28.352  1.00  0.00    -0.744 OA
ENDBRANCH  93  97
ENDBRANCH  67  90
ENDBRANCH  41  42
ENDBRANCH  33  36
ENDBRANCH  31  32
ENDBRANCH  30  31
ENDBRANCH   1  30
TORSDOF 18
ENDMDL
