MODEL 1
REMARK VINA RESULT:     -12.4      0.000      0.000
REMARK SMILES Cc1cc(C(=O)NC[C@H]2CC[C@@H](C(=O)NCCCCNC(=O)c3ccc(-c4c5nc(c(-c6cc(S(=O)(=O)[O-])ccc6F)c6ccc([nH]6)c(-c6cc(S(=O)(=O)[O-])ccc6F)c6nc(c(-c7cc(S(=O)(=O)[O-])ccc7F)c7ccc4[nH]7)C=C6)C=C5)cc3)O2)c(C)s1
REMARK SMILES IDX 17 1 16 2 15 3 13 4 14 5 12 7 9 8 10 9 86 10 11 11 8 12 7 13
REMARK SMILES IDX 5 14 6 15 4 17 1 18 2 19 3 20 89 21 87 22 88 23 18 24 19 25
REMARK SMILES IDX 20 26 21 27 22 29 23 30 24 31 85 32 25 33 84 34 26 35 27 36
REMARK SMILES IDX 28 37 78 38 29 39 83 40 77 41 79 42 30 43 82 44 76 45 75 46
REMARK SMILES IDX 31 48 63 49 43 50 62 51 44 52 47 53 61 54 80 55 45 56 46 57
REMARK SMILES IDX 60 59 81 60 48 61 32 62 33 63 41 64 34 65 40 66 42 67 39 68
REMARK SMILES IDX 35 69 36 70 37 71 38 72 64 73 65 74 73 75 66 76 72 77 74 78
REMARK SMILES IDX 71 79 67 80 68 81 69 82 70 83 49 84 50 85 58 86 51 87 57 88
REMARK SMILES IDX 59 89 56 90 52 91 53 92 54 93 55 94
REMARK H PARENT 15 6 7 16 20 28 79 47 47 58
REMARK Flexibility Score: inf
ROOT
ATOM      1  C   UNL A   1      33.319  28.780  24.489  1.00  0.00     0.023 C 
ENDROOT
BRANCH   1   2
ATOM      2  C   UNL A   1      33.312  28.687  22.969  1.00  0.00     0.116 C 
BRANCH   2   3
ATOM      3  N   UNL A   1      32.192  29.378  22.365  1.00  0.00    -0.354 N 
ATOM      4  C   UNL A   1      30.915  28.953  22.143  1.00  0.00     0.249 C 
ATOM      5  O   UNL A   1      30.116  29.770  21.672  1.00  0.00    -0.272 OA
ATOM      6  H   UNL A   1      32.381  30.299  22.071  1.00  0.00     0.163 HD
BRANCH   4   7
ATOM      7  C   UNL A   1      30.440  27.525  22.486  1.00  0.00     0.207 C 
ATOM      8  C   UNL A   1      30.982  25.440  23.378  1.00  0.00     0.138 C 
ATOM      9  C   UNL A   1      29.661  25.902  23.996  1.00  0.00     0.037 C 
ATOM     10  O   UNL A   1      31.448  26.513  22.534  1.00  0.00    -0.363 OA
ATOM     11  C   UNL A   1      29.670  27.401  23.788  1.00  0.00     0.045 C 
BRANCH   8  12
ATOM     12  C   UNL A   1      32.031  25.172  24.457  1.00  0.00     0.148 C 
BRANCH  12  13
ATOM     13  N   UNL A   1      31.494  24.697  25.723  1.00  0.00    -0.349 N 
ATOM     14  C   UNL A   1      32.001  23.745  26.579  1.00  0.00     0.252 C 
ATOM     15  O   UNL A   1      31.356  23.472  27.592  1.00  0.00    -0.269 OA
ATOM     16  H   UNL A   1      30.651  25.117  26.009  1.00  0.00     0.163 HD
BRANCH  14  17
ATOM     17  C   UNL A   1      33.249  23.059  26.225  1.00  0.00     0.053 A 
ATOM     18  C   UNL A   1      36.814  23.488  25.212  1.00  0.00     0.056 C 
ATOM     19  C   UNL A   1      35.502  22.940  25.659  1.00  0.00     0.003 A 
ATOM     20  C   UNL A   1      34.587  23.509  26.514  1.00  0.00     0.029 A 
ATOM     21  S   UNL A   1      34.913  21.431  25.135  1.00  0.00    -0.145 S 
ATOM     22  C   UNL A   1      33.297  21.870  25.505  1.00  0.00     0.014 A 
ATOM     23  C   UNL A   1      32.192  21.028  24.946  1.00  0.00     0.057 C 
ENDBRANCH  14  17
ENDBRANCH  12  13
ENDBRANCH   8  12
ENDBRANCH   4   7
ENDBRANCH   2   3
ENDBRANCH   1   2
BRANCH   1  24
ATOM     24  C   UNL A   1      32.287  29.708  25.129  1.00  0.00     0.023 C 
BRANCH  24  25
ATOM     25  C   UNL A   1      32.385  29.951  26.636  1.00  0.00     0.116 C 
BRANCH  25  26
ATOM     26  N   UNL A   1      32.186  31.325  27.073  1.00  0.00    -0.352 N 
ATOM     27  C   UNL A   1      33.110  32.273  27.461  1.00  0.00     0.251 C 
ATOM     28  H   UNL A   1      31.249  31.624  27.094  1.00  0.00     0.163 HD
ATOM     29  O   UNL A   1      32.807  33.456  27.584  1.00  0.00    -0.269 OA
BRANCH  27  30
ATOM     30  C   UNL A   1      34.459  31.847  27.841  1.00  0.00     0.039 A 
ATOM     31  C   UNL A   1      35.457  32.826  27.930  1.00  0.00     0.014 A 
ATOM     32  C   UNL A   1      34.698  30.530  28.213  1.00  0.00     0.014 A 
ATOM     33  C   UNL A   1      36.675  32.502  28.514  1.00  0.00     0.010 A 
ATOM     34  C   UNL A   1      35.872  30.237  28.883  1.00  0.00     0.010 A 
ATOM     35  C   UNL A   1      36.859  31.223  29.053  1.00  0.00    -0.014 A 
BRANCH  35  36
ATOM     36  C   UNL A   1      38.081  30.859  29.799  1.00  0.00     0.031 A 
ATOM     37  C   UNL A   1      39.028  29.883  29.172  1.00  0.00     0.074 A 
ATOM     38  C   UNL A   1      38.233  31.286  31.066  1.00  0.00     0.049 A 
ATOM     39  N   UNL A   1      40.010  29.215  29.710  1.00  0.00    -0.248 NA
ATOM     40  C   UNL A   1      38.780  29.565  27.756  1.00  0.00     0.031 C 
ATOM     41  C   UNL A   1      37.325  32.197  31.771  1.00  0.00     0.029 A 
ATOM     42  N   UNL A   1      39.191  30.988  32.000  1.00  0.00    -0.354 N 
ATOM     43  C   UNL A   1      40.467  28.362  28.712  1.00  0.00     0.074 A 
ATOM     44  C   UNL A   1      39.603  28.548  27.567  1.00  0.00     0.031 C 
ATOM     45  C   UNL A   1      37.774  32.387  33.022  1.00  0.00     0.029 A 
ATOM     46  C   UNL A   1      38.968  31.575  33.225  1.00  0.00     0.049 A 
ATOM     47  H   UNL A   1      39.964  30.409  31.813  1.00  0.00     0.167 HD
ATOM     48  C   UNL A   1      41.528  27.518  28.750  1.00  0.00     0.034 A 
ATOM     49  C   UNL A   1      39.644  31.447  34.382  1.00  0.00     0.034 A 
ATOM     50  C   UNL A   1      42.375  27.392  29.910  1.00  0.00     0.049 A 
ATOM     51  C   UNL A   1      40.847  30.539  34.393  1.00  0.00     0.074 A 
ATOM     52  C   UNL A   1      43.513  26.624  30.075  1.00  0.00     0.029 A 
ATOM     53  N   UNL A   1      42.172  28.067  31.111  1.00  0.00    -0.354 N 
ATOM     54  N   UNL A   1      41.303  29.764  33.433  1.00  0.00    -0.248 NA
ATOM     55  C   UNL A   1      41.635  30.500  35.629  1.00  0.00     0.031 C 
ATOM     56  C   UNL A   1      43.967  26.796  31.388  1.00  0.00     0.029 A 
ATOM     57  C   UNL A   1      43.154  27.724  32.025  1.00  0.00     0.049 A 
ATOM     58  H   UNL A   1      41.436  28.696  31.285  1.00  0.00     0.167 HD
ATOM     59  C   UNL A   1      42.448  29.161  33.943  1.00  0.00     0.074 A 
ATOM     60  C   UNL A   1      42.618  29.680  35.287  1.00  0.00     0.031 C 
ATOM     61  C   UNL A   1      43.283  28.260  33.361  1.00  0.00     0.034 A 
BRANCH  48  62
ATOM     62  C   UNL A   1      41.781  26.675  27.521  1.00  0.00     0.023 A 
ATOM     63  C   UNL A   1      41.347  25.338  27.443  1.00  0.00     0.031 A 
ATOM     64  C   UNL A   1      42.547  27.175  26.454  1.00  0.00     0.131 A 
ATOM     65  C   UNL A   1      41.785  24.516  26.393  1.00  0.00     0.055 A 
ATOM     66  C   UNL A   1      42.892  26.379  25.357  1.00  0.00     0.041 A 
ATOM     67  F   UNL A   1      43.010  28.435  26.475  1.00  0.00    -0.206 F 
ATOM     68  C   UNL A   1      42.533  25.035  25.334  1.00  0.00     0.022 A 
BRANCH  65  69
ATOM     69  S   UNL A   1      41.533  22.725  26.538  1.00  0.00     0.124 S 
ATOM     70  O   UNL A   1      40.075  22.634  26.552  1.00  0.00    -0.237 OA
ATOM     71  O   UNL A   1      42.193  22.214  25.343  1.00  0.00    -0.237 OA
ATOM     72  O   UNL A   1      42.183  22.389  27.803  1.00  0.00    -0.744 OA
ENDBRANCH  65  69
ENDBRANCH  48  62
BRANCH  49  73
ATOM     73  C   UNL A   1      39.205  32.182  35.602  1.00  0.00     0.023 A 
ATOM     74  C   UNL A   1      38.464  31.540  36.607  1.00  0.00     0.031 A 
ATOM     75  C   UNL A   1      39.523  33.540  35.786  1.00  0.00     0.131 A 
ATOM     76  C   UNL A   1      38.033  32.262  37.731  1.00  0.00     0.055 A 
ATOM     77  C   UNL A   1      39.130  34.243  36.928  1.00  0.00     0.041 A 
ATOM     78  F   UNL A   1      40.242  34.200  34.866  1.00  0.00    -0.206 F 
ATOM     79  C   UNL A   1      38.370  33.606  37.904  1.00  0.00     0.022 A 
BRANCH  76  80
ATOM     80  S   UNL A   1      36.966  31.432  38.942  1.00  0.00     0.124 S 
ATOM     81  O   UNL A   1      36.791  30.117  38.335  1.00  0.00    -0.237 OA
ATOM     82  O   UNL A   1      37.786  31.477  40.148  1.00  0.00    -0.237 OA
ATOM     83  O   UNL A   1      35.769  32.269  38.973  1.00  0.00    -0.744 OA
ENDBRANCH  76  80
ENDBRANCH  49  73
BRANCH  61  84
ATOM     84  C   UNL A   1      44.472  27.824  34.176  1.00  0.00     0.023 A 
ATOM     85  C   UNL A   1      44.374  26.794  35.126  1.00  0.00     0.031 A 
ATOM     86  C   UNL A   1      45.716  28.455  34.001  1.00  0.00     0.131 A 
ATOM     87  C   UNL A   1      45.489  26.460  35.906  1.00  0.00     0.055 A 
ATOM     88  C   UNL A   1      46.837  28.077  34.737  1.00  0.00     0.041 A 
ATOM     89  F   UNL A   1      45.860  29.447  33.108  1.00  0.00    -0.206 F 
ATOM     90  C   UNL A   1      46.725  27.082  35.705  1.00  0.00     0.022 A 
BRANCH  87  91
ATOM     91  S   UNL A   1      45.280  25.263  37.251  1.00  0.00     0.124 S 
ATOM     92  O   UNL A   1      45.366  23.992  36.541  1.00  0.00    -0.237 OA
ATOM     93  O   UNL A   1      46.403  25.581  38.129  1.00  0.00    -0.237 OA
ATOM     94  O   UNL A   1      43.961  25.583  37.793  1.00  0.00    -0.744 OA
ENDBRANCH  87  91
ENDBRANCH  61  84
ENDBRANCH  35  36
ENDBRANCH  27  30
ENDBRANCH  25  26
ENDBRANCH  24  25
ENDBRANCH   1  24
TORSDOF 17
ENDMDL
MODEL 2
REMARK VINA RESULT:     -12.3      1.448      1.890
REMARK SMILES Cc1cc(C(=O)NC[C@H]2CC[C@@H](C(=O)NCCCCNC(=O)c3ccc(-c4c5nc(c(-c6cc(S(=O)(=O)[O-])ccc6F)c6ccc([nH]6)c(-c6cc(S(=O)(=O)[O-])ccc6F)c6nc(c(-c7cc(S(=O)(=O)[O-])ccc7F)c7ccc4[nH]7)C=C6)C=C5)cc3)O2)c(C)s1
REMARK SMILES IDX 17 1 16 2 15 3 13 4 14 5 12 7 9 8 10 9 86 10 11 11 8 12 7 13
REMARK SMILES IDX 5 14 6 15 4 17 1 18 2 19 3 20 89 21 87 22 88 23 18 24 19 25
REMARK SMILES IDX 20 26 21 27 22 29 23 30 24 31 85 32 25 33 84 34 26 35 27 36
REMARK SMILES IDX 28 37 78 38 29 39 83 40 77 41 79 42 30 43 82 44 76 45 75 46
REMARK SMILES IDX 31 48 63 49 43 50 62 51 44 52 47 53 61 54 80 55 45 56 46 57
REMARK SMILES IDX 60 59 81 60 48 61 32 62 33 63 41 64 34 65 40 66 42 67 39 68
REMARK SMILES IDX 35 69 36 70 37 71 38 72 64 73 65 74 73 75 66 76 72 77 74 78
REMARK SMILES IDX 71 79 67 80 68 81 69 82 70 83 49 84 50 85 58 86 51 87 57 88
REMARK SMILES IDX 59 89 56 90 52 91 53 92 54 93 55 94
REMARK H PARENT 15 6 7 16 20 28 79 47 47 58
REMARK Flexibility Score: inf
ROOT
ATOM      1  C   UNL A   1      33.335  28.835  24.592  1.00  0.00     0.023 C 
ENDROOT
BRANCH   1   2
ATOM      2  C   UNL A   1      33.267  28.587  23.091  1.00  0.00     0.116 C 
BRANCH   2   3
ATOM      3  N   UNL A   1      32.193  29.313  22.446  1.00  0.00    -0.354 N 
ATOM      4  C   UNL A   1      30.910  28.932  22.182  1.00  0.00     0.249 C 
ATOM      5  O   UNL A   1      30.157  29.774  21.679  1.00  0.00    -0.272 OA
ATOM      6  H   UNL A   1      32.425  30.224  22.153  1.00  0.00     0.163 HD
BRANCH   4   7
ATOM      7  C   UNL A   1      30.372  27.525  22.517  1.00  0.00     0.207 C 
ATOM      8  C   UNL A   1      30.859  25.360  23.233  1.00  0.00     0.138 C 
ATOM      9  C   UNL A   1      29.666  25.879  24.037  1.00  0.00     0.037 C 
ATOM     10  O   UNL A   1      31.297  26.442  22.386  1.00  0.00    -0.363 OA
ATOM     11  C   UNL A   1      29.764  27.382  23.900  1.00  0.00     0.045 C 
BRANCH   8  12
ATOM     12  C   UNL A   1      32.010  24.958  24.153  1.00  0.00     0.148 C 
BRANCH  12  13
ATOM     13  N   UNL A   1      31.630  24.720  25.537  1.00  0.00    -0.349 N 
ATOM     14  C   UNL A   1      31.892  23.629  26.336  1.00  0.00     0.252 C 
ATOM     15  O   UNL A   1      31.439  23.626  27.480  1.00  0.00    -0.269 OA
ATOM     16  H   UNL A   1      31.114  25.442  25.963  1.00  0.00     0.163 HD
BRANCH  14  17
ATOM     17  C   UNL A   1      32.645  22.501  25.777  1.00  0.00     0.053 A 
ATOM     18  C   UNL A   1      32.728  18.805  25.273  1.00  0.00     0.056 C 
ATOM     19  C   UNL A   1      32.999  20.270  25.222  1.00  0.00     0.003 A 
ATOM     20  C   UNL A   1      32.093  21.304  25.195  1.00  0.00     0.029 A 
ATOM     21  S   UNL A   1      34.577  20.909  25.191  1.00  0.00    -0.145 S 
ATOM     22  C   UNL A   1      34.035  22.426  25.779  1.00  0.00     0.014 A 
ATOM     23  C   UNL A   1      35.058  23.388  26.296  1.00  0.00     0.057 C 
ENDBRANCH  14  17
ENDBRANCH  12  13
ENDBRANCH   8  12
ENDBRANCH   4   7
ENDBRANCH   2   3
ENDBRANCH   1   2
BRANCH   1  24
ATOM     24  C   UNL A   1      32.328  29.827  25.174  1.00  0.00     0.023 C 
BRANCH  24  25
ATOM     25  C   UNL A   1      32.357  30.067  26.684  1.00  0.00     0.116 C 
BRANCH  25  26
ATOM     26  N   UNL A   1      32.175  31.447  27.112  1.00  0.00    -0.352 N 
ATOM     27  C   UNL A   1      33.113  32.390  27.483  1.00  0.00     0.251 C 
ATOM     28  H   UNL A   1      31.241  31.755  27.141  1.00  0.00     0.163 HD
ATOM     29  O   UNL A   1      32.821  33.576  27.599  1.00  0.00    -0.269 OA
BRANCH  27  30
ATOM     30  C   UNL A   1      34.461  31.954  27.852  1.00  0.00     0.039 A 
ATOM     31  C   UNL A   1      35.472  32.922  27.907  1.00  0.00     0.014 A 
ATOM     32  C   UNL A   1      34.690  30.642  28.247  1.00  0.00     0.014 A 
ATOM     33  C   UNL A   1      36.694  32.595  28.481  1.00  0.00     0.010 A 
ATOM     34  C   UNL A   1      35.869  30.348  28.906  1.00  0.00     0.010 A 
ATOM     35  C   UNL A   1      36.870  31.324  29.042  1.00  0.00    -0.014 A 
BRANCH  35  36
ATOM     36  C   UNL A   1      38.098  30.959  29.778  1.00  0.00     0.031 A 
ATOM     37  C   UNL A   1      39.019  29.951  29.162  1.00  0.00     0.074 A 
ATOM     38  C   UNL A   1      38.278  31.418  31.031  1.00  0.00     0.049 A 
ATOM     39  N   UNL A   1      39.999  29.282  29.702  1.00  0.00    -0.248 NA
ATOM     40  C   UNL A   1      38.742  29.601  27.759  1.00  0.00     0.031 C 
ATOM     41  C   UNL A   1      37.397  32.361  31.725  1.00  0.00     0.029 A 
ATOM     42  N   UNL A   1      39.246  31.128  31.957  1.00  0.00    -0.354 N 
ATOM     43  C   UNL A   1      40.426  28.396  28.719  1.00  0.00     0.074 A 
ATOM     44  C   UNL A   1      39.546  28.566  27.584  1.00  0.00     0.031 C 
ATOM     45  C   UNL A   1      37.869  32.577  32.964  1.00  0.00     0.029 A 
ATOM     46  C   UNL A   1      39.053  31.750  33.169  1.00  0.00     0.049 A 
ATOM     47  H   UNL A   1      40.006  30.532  31.773  1.00  0.00     0.167 HD
ATOM     48  C   UNL A   1      41.473  27.535  28.763  1.00  0.00     0.034 A 
ATOM     49  C   UNL A   1      39.746  31.641  34.318  1.00  0.00     0.034 A 
ATOM     50  C   UNL A   1      42.337  27.426  29.912  1.00  0.00     0.049 A 
ATOM     51  C   UNL A   1      40.933  30.715  34.333  1.00  0.00     0.074 A 
ATOM     52  C   UNL A   1      43.465  26.644  30.079  1.00  0.00     0.029 A 
ATOM     53  N   UNL A   1      42.165  28.135  31.098  1.00  0.00    -0.354 N 
ATOM     54  N   UNL A   1      41.361  29.908  33.388  1.00  0.00    -0.248 NA
ATOM     55  C   UNL A   1      41.741  30.695  35.557  1.00  0.00     0.031 C 
ATOM     56  C   UNL A   1      43.943  26.843  31.380  1.00  0.00     0.029 A 
ATOM     57  C   UNL A   1      43.156  27.800  32.005  1.00  0.00     0.049 A 
ATOM     58  H   UNL A   1      41.441  28.781  31.267  1.00  0.00     0.167 HD
ATOM     59  C   UNL A   1      42.504  29.298  33.895  1.00  0.00     0.074 A 
ATOM     60  C   UNL A   1      42.706  29.850  35.222  1.00  0.00     0.031 C 
ATOM     61  C   UNL A   1      43.315  28.369  33.324  1.00  0.00     0.034 A 
BRANCH  48  62
ATOM     62  C   UNL A   1      41.692  26.656  27.553  1.00  0.00     0.023 A 
ATOM     63  C   UNL A   1      41.233  25.325  27.516  1.00  0.00     0.031 A 
ATOM     64  C   UNL A   1      42.451  27.114  26.462  1.00  0.00     0.131 A 
ATOM     65  C   UNL A   1      41.640  24.469  26.481  1.00  0.00     0.055 A 
ATOM     66  C   UNL A   1      42.765  26.284  25.382  1.00  0.00     0.041 A 
ATOM     67  F   UNL A   1      42.938  28.365  26.443  1.00  0.00    -0.206 F 
ATOM     68  C   UNL A   1      42.381  24.946  25.399  1.00  0.00     0.022 A 
BRANCH  65  69
ATOM     69  S   UNL A   1      41.357  22.687  26.677  1.00  0.00     0.124 S 
ATOM     70  O   UNL A   1      42.008  22.426  27.959  1.00  0.00    -0.237 OA
ATOM     71  O   UNL A   1      39.903  22.595  26.669  1.00  0.00    -0.237 OA
ATOM     72  O   UNL A   1      42.028  22.105  25.517  1.00  0.00    -0.744 OA
ENDBRANCH  65  69
ENDBRANCH  48  62
BRANCH  49  73
ATOM     73  C   UNL A   1      39.339  32.416  35.525  1.00  0.00     0.023 A 
ATOM     74  C   UNL A   1      39.764  33.741  35.712  1.00  0.00     0.031 A 
ATOM     75  C   UNL A   1      38.517  31.844  36.513  1.00  0.00     0.131 A 
ATOM     76  C   UNL A   1      39.396  34.439  36.873  1.00  0.00     0.055 A 
ATOM     77  C   UNL A   1      38.116  32.558  37.646  1.00  0.00     0.041 A 
ATOM     78  F   UNL A   1      38.070  30.586  36.380  1.00  0.00    -0.206 F 
ATOM     79  C   UNL A   1      38.566  33.861  37.836  1.00  0.00     0.022 A 
BRANCH  76  80
ATOM     80  S   UNL A   1      40.072  36.102  37.139  1.00  0.00     0.124 S 
ATOM     81  O   UNL A   1      39.239  36.592  38.233  1.00  0.00    -0.237 OA
ATOM     82  O   UNL A   1      41.463  35.813  37.472  1.00  0.00    -0.237 OA
ATOM     83  O   UNL A   1      39.866  36.764  35.854  1.00  0.00    -0.744 OA
ENDBRANCH  76  80
ENDBRANCH  49  73
BRANCH  61  84
ATOM     84  C   UNL A   1      44.510  27.935  34.132  1.00  0.00     0.023 A 
ATOM     85  C   UNL A   1      44.440  26.853  35.024  1.00  0.00     0.031 A 
ATOM     86  C   UNL A   1      45.731  28.620  34.007  1.00  0.00     0.131 A 
ATOM     87  C   UNL A   1      45.558  26.520  35.801  1.00  0.00     0.055 A 
ATOM     88  C   UNL A   1      46.858  28.246  34.737  1.00  0.00     0.041 A 
ATOM     89  F   UNL A   1      45.848  29.662  33.168  1.00  0.00    -0.206 F 
ATOM     90  C   UNL A   1      46.771  27.197  35.650  1.00  0.00     0.022 A 
BRANCH  87  91
ATOM     91  S   UNL A   1      45.379  25.247  37.079  1.00  0.00     0.124 S 
ATOM     92  O   UNL A   1      46.330  24.235  36.632  1.00  0.00    -0.237 OA
ATOM     93  O   UNL A   1      45.740  25.970  38.294  1.00  0.00    -0.237 OA
ATOM     94  O   UNL A   1      43.972  24.861  36.983  1.00  0.00    -0.744 OA
ENDBRANCH  87  91
ENDBRANCH  61  84
ENDBRANCH  35  36
ENDBRANCH  27  30
ENDBRANCH  25  26
ENDBRANCH  24  25
ENDBRANCH   1  24
TORSDOF 17
ENDMDL
MODEL 3
REMARK VINA RESULT:     -12.1      5.195     10.222
REMARK SMILES Cc1cc(C(=O)NC[C@H]2CC[C@@H](C(=O)NCCCCNC(=O)c3ccc(-c4c5nc(c(-c6cc(S(=O)(=O)[O-])ccc6F)c6ccc([nH]6)c(-c6cc(S(=O)(=O)[O-])ccc6F)c6nc(c(-c7cc(S(=O)(=O)[O-])ccc7F)c7ccc4[nH]7)C=C6)C=C5)cc3)O2)c(C)s1
REMARK SMILES IDX 17 1 16 2 15 3 13 4 14 5 12 7 9 8 10 9 86 10 11 11 8 12 7 13
REMARK SMILES IDX 5 14 6 15 4 17 1 18 2 19 3 20 89 21 87 22 88 23 18 24 19 25
REMARK SMILES IDX 20 26 21 27 22 29 23 30 24 31 85 32 25 33 84 34 26 35 27 36
REMARK SMILES IDX 28 37 78 38 29 39 83 40 77 41 79 42 30 43 82 44 76 45 75 46
REMARK SMILES IDX 31 48 63 49 43 50 62 51 44 52 47 53 61 54 80 55 45 56 46 57
REMARK SMILES IDX 60 59 81 60 48 61 32 62 33 63 41 64 34 65 40 66 42 67 39 68
REMARK SMILES IDX 35 69 36 70 37 71 38 72 64 73 65 74 73 75 66 76 72 77 74 78
REMARK SMILES IDX 71 79 67 80 68 81 69 82 70 83 49 84 50 85 58 86 51 87 57 88
REMARK SMILES IDX 59 89 56 90 52 91 53 92 54 93 55 94
REMARK H PARENT 15 6 7 16 20 28 79 47 47 58
REMARK Flexibility Score: inf
ROOT
ATOM      1  C   UNL A   1      34.980  22.364  26.382  1.00  0.00     0.023 C 
ENDROOT
BRANCH   1   2
ATOM      2  C   UNL A   1      33.809  21.828  27.195  1.00  0.00     0.116 C 
BRANCH   2   3
ATOM      3  N   UNL A   1      33.448  20.471  26.839  1.00  0.00    -0.354 N 
ATOM      4  C   UNL A   1      32.696  20.007  25.801  1.00  0.00     0.249 C 
ATOM      5  O   UNL A   1      32.593  18.781  25.674  1.00  0.00    -0.272 OA
ATOM      6  H   UNL A   1      33.801  19.776  27.441  1.00  0.00     0.163 HD
BRANCH   4   7
ATOM      7  C   UNL A   1      32.012  20.943  24.782  1.00  0.00     0.207 C 
ATOM      8  C   UNL A   1      31.660  23.133  24.061  1.00  0.00     0.138 C 
ATOM      9  C   UNL A   1      32.032  22.278  22.848  1.00  0.00     0.037 C 
ATOM     10  O   UNL A   1      31.751  22.279  25.220  1.00  0.00    -0.363 OA
ATOM     11  C   UNL A   1      32.730  21.079  23.452  1.00  0.00     0.045 C 
BRANCH   8  12
ATOM     12  C   UNL A   1      32.632  24.299  24.231  1.00  0.00     0.148 C 
BRANCH  12  13
ATOM     13  N   UNL A   1      33.156  24.842  22.987  1.00  0.00    -0.349 N 
ATOM     14  C   UNL A   1      33.347  26.157  22.623  1.00  0.00     0.252 C 
ATOM     15  O   UNL A   1      33.776  26.391  21.494  1.00  0.00    -0.269 OA
ATOM     16  H   UNL A   1      33.413  24.175  22.309  1.00  0.00     0.163 HD
BRANCH  14  17
ATOM     17  C   UNL A   1      32.980  27.218  23.568  1.00  0.00     0.053 A 
ATOM     18  C   UNL A   1      33.570  28.656  26.960  1.00  0.00     0.056 C 
ATOM     19  C   UNL A   1      33.135  28.419  25.554  1.00  0.00     0.003 A 
ATOM     20  C   UNL A   1      33.850  27.854  24.524  1.00  0.00     0.029 A 
ATOM     21  S   UNL A   1      31.585  28.841  24.992  1.00  0.00    -0.145 S 
ATOM     22  C   UNL A   1      31.691  27.728  23.691  1.00  0.00     0.014 A 
ATOM     23  C   UNL A   1      30.434  27.378  22.958  1.00  0.00     0.057 C 
ENDBRANCH  14  17
ENDBRANCH  12  13
ENDBRANCH   8  12
ENDBRANCH   4   7
ENDBRANCH   2   3
ENDBRANCH   1   2
BRANCH   1  24
ATOM     24  C   UNL A   1      35.801  21.341  25.597  1.00  0.00     0.023 C 
BRANCH  24  25
ATOM     25  C   UNL A   1      37.164  21.783  25.061  1.00  0.00     0.116 C 
BRANCH  25  26
ATOM     26  N   UNL A   1      38.235  20.802  25.162  1.00  0.00    -0.352 N 
ATOM     27  C   UNL A   1      39.340  20.780  25.989  1.00  0.00     0.251 C 
ATOM     28  H   UNL A   1      38.160  20.038  24.547  1.00  0.00     0.163 HD
ATOM     29  O   UNL A   1      40.030  19.772  26.114  1.00  0.00    -0.269 OA
BRANCH  27  30
ATOM     30  C   UNL A   1      39.765  22.014  26.652  1.00  0.00     0.039 A 
ATOM     31  C   UNL A   1      40.697  21.914  27.693  1.00  0.00     0.014 A 
ATOM     32  C   UNL A   1      39.341  23.247  26.174  1.00  0.00     0.014 A 
ATOM     33  C   UNL A   1      41.299  23.067  28.178  1.00  0.00     0.010 A 
ATOM     34  C   UNL A   1      40.013  24.382  26.588  1.00  0.00     0.010 A 
ATOM     35  C   UNL A   1      41.006  24.298  27.578  1.00  0.00    -0.014 A 
BRANCH  35  36
ATOM     36  C   UNL A   1      41.708  25.540  27.962  1.00  0.00     0.031 A 
ATOM     37  C   UNL A   1      40.922  26.614  28.650  1.00  0.00     0.074 A 
ATOM     38  C   UNL A   1      42.977  25.735  27.555  1.00  0.00     0.049 A 
ATOM     39  N   UNL A   1      41.225  27.866  28.851  1.00  0.00    -0.248 NA
ATOM     40  C   UNL A   1      39.575  26.232  29.106  1.00  0.00     0.031 C 
ATOM     41  C   UNL A   1      43.796  24.758  26.832  1.00  0.00     0.029 A 
ATOM     42  N   UNL A   1      43.790  26.832  27.663  1.00  0.00    -0.354 N 
ATOM     43  C   UNL A   1      40.088  28.435  29.414  1.00  0.00     0.074 A 
ATOM     44  C   UNL A   1      39.072  27.406  29.448  1.00  0.00     0.031 C 
ATOM     45  C   UNL A   1      44.997  25.299  26.567  1.00  0.00     0.029 A 
ATOM     46  C   UNL A   1      45.014  26.673  27.055  1.00  0.00     0.049 A 
ATOM     47  H   UNL A   1      43.524  27.656  28.131  1.00  0.00     0.167 HD
ATOM     48  C   UNL A   1      39.924  29.699  29.878  1.00  0.00     0.034 A 
ATOM     49  C   UNL A   1      46.022  27.551  26.895  1.00  0.00     0.034 A 
ATOM     50  C   UNL A   1      40.981  30.678  29.845  1.00  0.00     0.049 A 
ATOM     51  C   UNL A   1      45.839  28.937  27.457  1.00  0.00     0.074 A 
ATOM     52  C   UNL A   1      40.980  31.974  30.328  1.00  0.00     0.029 A 
ATOM     53  N   UNL A   1      42.242  30.458  29.298  1.00  0.00    -0.354 N 
ATOM     54  N   UNL A   1      44.776  29.461  28.028  1.00  0.00    -0.248 NA
ATOM     55  C   UNL A   1      46.988  29.843  27.371  1.00  0.00     0.031 C 
ATOM     56  C   UNL A   1      42.219  32.551  30.027  1.00  0.00     0.029 A 
ATOM     57  C   UNL A   1      43.022  31.596  29.418  1.00  0.00     0.049 A 
ATOM     58  H   UNL A   1      42.537  29.615  28.884  1.00  0.00     0.167 HD
ATOM     59  C   UNL A   1      45.137  30.754  28.391  1.00  0.00     0.074 A 
ATOM     60  C   UNL A   1      46.522  30.918  27.991  1.00  0.00     0.031 C 
ATOM     61  C   UNL A   1      44.399  31.720  28.997  1.00  0.00     0.034 A 
BRANCH  48  62
ATOM     62  C   UNL A   1      38.558  30.062  30.414  1.00  0.00     0.023 A 
ATOM     63  C   UNL A   1      37.634  30.794  29.644  1.00  0.00     0.031 A 
ATOM     64  C   UNL A   1      38.207  29.763  31.742  1.00  0.00     0.131 A 
ATOM     65  C   UNL A   1      36.472  31.307  30.240  1.00  0.00     0.055 A 
ATOM     66  C   UNL A   1      36.997  30.188  32.299  1.00  0.00     0.041 A 
ATOM     67  F   UNL A   1      39.050  29.086  32.538  1.00  0.00    -0.206 F 
ATOM     68  C   UNL A   1      36.132  30.986  31.555  1.00  0.00     0.022 A 
BRANCH  65  69
ATOM     69  S   UNL A   1      35.520  32.558  29.333  1.00  0.00     0.124 S 
ATOM     70  O   UNL A   1      36.332  33.755  29.545  1.00  0.00    -0.237 OA
ATOM     71  O   UNL A   1      35.509  32.026  27.976  1.00  0.00    -0.237 OA
ATOM     72  O   UNL A   1      34.227  32.564  30.013  1.00  0.00    -0.744 OA
ENDBRANCH  65  69
ENDBRANCH  48  62
BRANCH  49  73
ATOM     73  C   UNL A   1      47.269  27.153  26.182  1.00  0.00     0.023 A 
ATOM     74  C   UNL A   1      48.288  26.449  26.844  1.00  0.00     0.031 A 
ATOM     75  C   UNL A   1      47.463  27.466  24.824  1.00  0.00     0.131 A 
ATOM     76  C   UNL A   1      49.469  26.114  26.162  1.00  0.00     0.055 A 
ATOM     77  C   UNL A   1      48.620  27.091  24.137  1.00  0.00     0.041 A 
ATOM     78  F   UNL A   1      46.517  28.124  24.138  1.00  0.00    -0.206 F 
ATOM     79  C   UNL A   1      49.637  26.420  24.810  1.00  0.00     0.022 A 
BRANCH  76  80
ATOM     80  S   UNL A   1      50.814  25.323  27.087  1.00  0.00     0.124 S 
ATOM     81  O   UNL A   1      50.105  24.270  27.804  1.00  0.00    -0.237 OA
ATOM     82  O   UNL A   1      51.700  24.883  26.014  1.00  0.00    -0.237 OA
ATOM     83  O   UNL A   1      51.336  26.403  27.920  1.00  0.00    -0.744 OA
ENDBRANCH  76  80
ENDBRANCH  49  73
BRANCH  61  84
ATOM     84  C   UNL A   1      45.105  33.017  29.292  1.00  0.00     0.023 A 
ATOM     85  C   UNL A   1      45.065  34.097  28.395  1.00  0.00     0.031 A 
ATOM     86  C   UNL A   1      45.831  33.169  30.486  1.00  0.00     0.131 A 
ATOM     87  C   UNL A   1      45.785  35.265  28.679  1.00  0.00     0.055 A 
ATOM     88  C   UNL A   1      46.495  34.355  30.793  1.00  0.00     0.041 A 
ATOM     89  F   UNL A   1      45.901  32.166  31.376  1.00  0.00    -0.206 F 
ATOM     90  C   UNL A   1      46.485  35.408  29.881  1.00  0.00     0.022 A 
BRANCH  87  91
ATOM     91  S   UNL A   1      45.870  36.562  27.416  1.00  0.00     0.124 S 
ATOM     92  O   UNL A   1      44.501  37.066  27.409  1.00  0.00    -0.237 OA
ATOM     93  O   UNL A   1      46.880  37.464  27.962  1.00  0.00    -0.237 OA
ATOM     94  O   UNL A   1      46.272  35.840  26.210  1.00  0.00    -0.744 OA
ENDBRANCH  87  91
ENDBRANCH  61  84
ENDBRANCH  35  36
ENDBRANCH  27  30
ENDBRANCH  25  26
ENDBRANCH  24  25
ENDBRANCH   1  24
TORSDOF 17
ENDMDL
