MODEL 1
REMARK VINA RESULT:     -11.7      0.000      0.000
REMARK SMILES O=C(NCCCCNC(=O)[C@H](CCc1ccccn1)c1ccccc1Br)c1ccc(-c2c3nc(c(-c4cc(S(=O)(=O)[O-])ccc4F)c4ccc([nH]4)c(-c4cc(S(=O)(=O)[O-])ccc4F)c4nc(c(-c5cc(S(=O)(=O)[O-])ccc5F)c5ccc2[nH]5)C=C4)C=C3)cc1
REMARK SMILES IDX 5 1 4 2 3 3 1 4 2 5 27 7 28 8 89 9 29 10 88 11 30 12 31 13
REMARK SMILES IDX 32 14 82 15 33 16 87 17 81 18 83 19 34 20 86 21 80 22 79 23
REMARK SMILES IDX 35 25 67 26 47 27 66 28 48 29 51 30 65 31 84 32 49 33 50 34
REMARK SMILES IDX 64 36 85 37 52 38 36 39 37 40 45 41 38 42 44 43 46 44 43 45
REMARK SMILES IDX 39 46 40 47 41 48 42 49 68 50 69 51 77 52 70 53 76 54 78 55
REMARK SMILES IDX 75 56 71 57 72 58 73 59 74 60 53 61 54 62 62 63 55 64 61 65
REMARK SMILES IDX 63 66 60 67 56 68 57 69 58 70 59 71 6 72 7 73 8 74 9 75
REMARK SMILES IDX 10 77 11 78 20 79 21 80 25 81 22 82 24 83 26 84 23 85 12 86
REMARK SMILES IDX 13 87 14 88 15 89 19 90 16 91 18 92 17 93
REMARK H PARENT 3 6 83 24 51 35 8 76
REMARK Flexibility Score: inf
ROOT
ATOM      1  C   UNL A   1      35.277  23.425  24.776  1.00  0.00     0.023 C 
ENDROOT
BRANCH   1   2
ATOM      2  C   UNL A   1      36.171  23.572  26.000  1.00  0.00     0.116 C 
BRANCH   2   3
ATOM      3  N   UNL A   1      37.216  22.562  26.047  1.00  0.00    -0.352 N 
ATOM      4  O   UNL A   1      39.320  21.762  26.103  1.00  0.00    -0.269 OA
ATOM      5  C   UNL A   1      38.558  22.710  26.291  1.00  0.00     0.251 C 
ATOM      6  H   UNL A   1      36.917  21.638  25.879  1.00  0.00     0.163 HD
BRANCH   5   7
ATOM      7  C   UNL A   1      39.086  24.007  26.761  1.00  0.00     0.039 A 
ATOM      8  C   UNL A   1      38.944  24.400  28.096  1.00  0.00     0.014 A 
ATOM      9  C   UNL A   1      39.755  24.833  25.854  1.00  0.00     0.014 A 
ATOM     10  C   UNL A   1      39.362  25.667  28.495  1.00  0.00     0.010 A 
ATOM     11  C   UNL A   1      40.241  26.073  26.276  1.00  0.00     0.010 A 
ATOM     12  C   UNL A   1      40.028  26.509  27.594  1.00  0.00    -0.014 A 
BRANCH  12  13
ATOM     13  C   UNL A   1      40.547  27.829  28.039  1.00  0.00     0.031 A 
ATOM     14  C   UNL A   1      42.024  28.095  28.078  1.00  0.00     0.074 A 
ATOM     15  C   UNL A   1      39.678  28.771  28.452  1.00  0.00     0.049 A 
ATOM     16  N   UNL A   1      42.668  29.131  28.553  1.00  0.00    -0.248 NA
ATOM     17  C   UNL A   1      42.891  27.047  27.523  1.00  0.00     0.031 C 
ATOM     18  C   UNL A   1      38.221  28.628  28.451  1.00  0.00     0.029 A 
ATOM     19  N   UNL A   1      39.890  30.024  28.969  1.00  0.00    -0.354 N 
ATOM     20  C   UNL A   1      44.019  28.854  28.376  1.00  0.00     0.074 A 
ATOM     21  C   UNL A   1      44.096  27.532  27.785  1.00  0.00     0.031 C 
ATOM     22  C   UNL A   1      37.670  29.745  28.946  1.00  0.00     0.029 A 
ATOM     23  C   UNL A   1      38.732  30.652  29.366  1.00  0.00     0.049 A 
ATOM     24  H   UNL A   1      40.781  30.433  29.049  1.00  0.00     0.167 HD
ATOM     25  C   UNL A   1      45.089  29.632  28.678  1.00  0.00     0.034 A 
ATOM     26  C   UNL A   1      38.543  31.802  30.041  1.00  0.00     0.034 A 
ATOM     27  C   UNL A   1      44.981  30.940  29.282  1.00  0.00     0.049 A 
ATOM     28  C   UNL A   1      39.742  32.620  30.436  1.00  0.00     0.074 A 
ATOM     29  C   UNL A   1      45.991  31.832  29.597  1.00  0.00     0.029 A 
ATOM     30  N   UNL A   1      43.790  31.536  29.685  1.00  0.00    -0.354 N 
ATOM     31  N   UNL A   1      41.015  32.358  30.248  1.00  0.00    -0.248 NA
ATOM     32  C   UNL A   1      39.482  33.889  31.127  1.00  0.00     0.031 C 
ATOM     33  C   UNL A   1      45.424  32.922  30.265  1.00  0.00     0.029 A 
ATOM     34  C   UNL A   1      44.048  32.762  30.284  1.00  0.00     0.049 A 
ATOM     35  H   UNL A   1      42.895  31.145  29.564  1.00  0.00     0.167 HD
ATOM     36  C   UNL A   1      41.708  33.446  30.770  1.00  0.00     0.074 A 
ATOM     37  C   UNL A   1      40.712  34.364  31.284  1.00  0.00     0.031 C 
ATOM     38  C   UNL A   1      43.047  33.668  30.803  1.00  0.00     0.034 A 
BRANCH  25  39
ATOM     39  C   UNL A   1      46.463  29.054  28.415  1.00  0.00     0.023 A 
ATOM     40  C   UNL A   1      46.970  28.904  27.113  1.00  0.00     0.031 A 
ATOM     41  C   UNL A   1      47.256  28.590  29.482  1.00  0.00     0.131 A 
ATOM     42  C   UNL A   1      48.174  28.213  26.902  1.00  0.00     0.055 A 
ATOM     43  C   UNL A   1      48.501  27.992  29.271  1.00  0.00     0.041 A 
ATOM     44  F   UNL A   1      46.822  28.685  30.749  1.00  0.00    -0.206 F 
ATOM     45  C   UNL A   1      48.956  27.780  27.975  1.00  0.00     0.022 A 
BRANCH  42  46
ATOM     46  S   UNL A   1      48.597  27.715  25.209  1.00  0.00     0.124 S 
ATOM     47  O   UNL A   1      49.902  28.347  25.031  1.00  0.00    -0.237 OA
ATOM     48  O   UNL A   1      48.600  26.259  25.299  1.00  0.00    -0.237 OA
ATOM     49  O   UNL A   1      47.523  28.290  24.403  1.00  0.00    -0.744 OA
ENDBRANCH  42  46
ENDBRANCH  25  39
BRANCH  26  50
ATOM     50  C   UNL A   1      37.162  32.203  30.426  1.00  0.00     0.023 A 
ATOM     51  C   UNL A   1      36.293  32.806  29.506  1.00  0.00     0.031 A 
ATOM     52  C   UNL A   1      36.683  31.955  31.726  1.00  0.00     0.131 A 
ATOM     53  C   UNL A   1      34.993  33.157  29.904  1.00  0.00     0.055 A 
ATOM     54  C   UNL A   1      35.375  32.260  32.102  1.00  0.00     0.041 A 
ATOM     55  F   UNL A   1      37.474  31.372  32.641  1.00  0.00    -0.206 F 
ATOM     56  C   UNL A   1      34.523  32.871  31.188  1.00  0.00     0.022 A 
BRANCH  53  57
ATOM     57  S   UNL A   1      33.931  34.035  28.725  1.00  0.00     0.124 S 
ATOM     58  O   UNL A   1      34.850  35.028  28.181  1.00  0.00    -0.237 OA
ATOM     59  O   UNL A   1      33.531  32.964  27.818  1.00  0.00    -0.237 OA
ATOM     60  O   UNL A   1      32.860  34.569  29.565  1.00  0.00    -0.744 OA
ENDBRANCH  53  57
ENDBRANCH  26  50
BRANCH  38  61
ATOM     61  C   UNL A   1      43.518  34.990  31.358  1.00  0.00     0.023 A 
ATOM     62  C   UNL A   1      43.692  36.125  30.547  1.00  0.00     0.031 A 
ATOM     63  C   UNL A   1      43.760  35.119  32.738  1.00  0.00     0.131 A 
ATOM     64  C   UNL A   1      44.123  37.332  31.122  1.00  0.00     0.055 A 
ATOM     65  C   UNL A   1      44.135  36.333  33.311  1.00  0.00     0.041 A 
ATOM     66  F   UNL A   1      43.614  34.064  33.557  1.00  0.00    -0.206 F 
ATOM     67  C   UNL A   1      44.325  37.448  32.500  1.00  0.00     0.022 A 
BRANCH  64  68
ATOM     68  S   UNL A   1      44.470  38.745  30.038  1.00  0.00     0.124 S 
ATOM     69  O   UNL A   1      45.390  38.163  29.066  1.00  0.00    -0.237 OA
ATOM     70  O   UNL A   1      43.145  39.090  29.536  1.00  0.00    -0.237 OA
ATOM     71  O   UNL A   1      45.065  39.731  30.940  1.00  0.00    -0.744 OA
ENDBRANCH  64  68
ENDBRANCH  38  61
ENDBRANCH  12  13
ENDBRANCH   5   7
ENDBRANCH   2   3
ENDBRANCH   1   2
BRANCH   1  72
ATOM     72  C   UNL A   1      34.324  24.593  24.514  1.00  0.00     0.023 C 
BRANCH  72  73
ATOM     73  C   UNL A   1      33.468  24.479  23.258  1.00  0.00     0.116 C 
BRANCH  73  74
ATOM     74  N   UNL A   1      33.645  25.587  22.341  1.00  0.00    -0.356 N 
ATOM     75  C   UNL A   1      33.154  26.858  22.452  1.00  0.00     0.227 C 
ATOM     76  H   UNL A   1      34.187  25.402  21.539  1.00  0.00     0.163 HD
ATOM     77  O   UNL A   1      33.849  27.742  21.961  1.00  0.00    -0.274 OA
BRANCH  75  78
ATOM     78  C   UNL A   1      31.830  27.100  23.192  1.00  0.00     0.110 C 
BRANCH  78  79
ATOM     79  C   UNL A   1      32.065  27.673  24.592  1.00  0.00    -0.021 A 
ATOM     80  C   UNL A   1      32.713  28.930  24.665  1.00  0.00     0.006 A 
ATOM     81  C   UNL A   1      31.611  27.112  25.798  1.00  0.00     0.021 A 
ATOM     82  C   UNL A   1      32.837  29.627  25.866  1.00  0.00     0.000 A 
ATOM     83  C   UNL A   1      31.736  27.822  27.003  1.00  0.00     0.016 A 
ATOM     84  Br  UNL A   1      30.817  25.399  25.956  1.00  0.00    -0.051 Br
ATOM     85  C   UNL A   1      32.332  29.079  27.035  1.00  0.00     0.001 A 
ENDBRANCH  78  79
BRANCH  78  86
ATOM     86  C   UNL A   1      30.605  27.662  22.419  1.00  0.00     0.025 C 
BRANCH  86  87
ATOM     87  C   UNL A   1      29.437  28.382  23.107  1.00  0.00     0.057 C 
BRANCH  87  88
ATOM     88  C   UNL A   1      29.133  29.797  22.692  1.00  0.00     0.040 A 
ATOM     89  C   UNL A   1      29.006  30.834  23.614  1.00  0.00     0.024 A 
ATOM     90  N   UNL A   1      28.919  29.979  21.366  1.00  0.00    -0.261 NA
ATOM     91  C   UNL A   1      28.507  32.060  23.181  1.00  0.00     0.003 A 
ATOM     92  C   UNL A   1      28.420  31.173  20.977  1.00  0.00     0.111 A 
ATOM     93  C   UNL A   1      28.183  32.227  21.841  1.00  0.00     0.020 A 
ENDBRANCH  87  88
ENDBRANCH  86  87
ENDBRANCH  78  86
ENDBRANCH  75  78
ENDBRANCH  73  74
ENDBRANCH  72  73
ENDBRANCH   1  72
TORSDOF 18
ENDMDL
MODEL 2
REMARK VINA RESULT:     -11.6      4.777      9.930
REMARK SMILES O=C(NCCCCNC(=O)[C@H](CCc1ccccn1)c1ccccc1Br)c1ccc(-c2c3nc(c(-c4cc(S(=O)(=O)[O-])ccc4F)c4ccc([nH]4)c(-c4cc(S(=O)(=O)[O-])ccc4F)c4nc(c(-c5cc(S(=O)(=O)[O-])ccc5F)c5ccc2[nH]5)C=C4)C=C3)cc1
REMARK SMILES IDX 5 1 4 2 3 3 1 4 2 5 27 7 28 8 89 9 29 10 88 11 30 12 31 13
REMARK SMILES IDX 32 14 82 15 33 16 87 17 81 18 83 19 34 20 86 21 80 22 79 23
REMARK SMILES IDX 35 25 67 26 47 27 66 28 48 29 51 30 65 31 84 32 49 33 50 34
REMARK SMILES IDX 64 36 85 37 52 38 36 39 37 40 45 41 38 42 44 43 46 44 43 45
REMARK SMILES IDX 39 46 40 47 41 48 42 49 68 50 69 51 77 52 70 53 76 54 78 55
REMARK SMILES IDX 75 56 71 57 72 58 73 59 74 60 53 61 54 62 62 63 55 64 61 65
REMARK SMILES IDX 63 66 60 67 56 68 57 69 58 70 59 71 6 72 7 73 8 74 9 75
REMARK SMILES IDX 10 77 11 78 20 79 21 80 25 81 22 82 24 83 26 84 23 85 12 86
REMARK SMILES IDX 13 87 14 88 15 89 19 90 16 91 18 92 17 93
REMARK H PARENT 3 6 83 24 51 35 8 76
REMARK Flexibility Score: inf
ROOT
ATOM      1  C   UNL A   1      33.115  27.735  26.946  1.00  0.00     0.023 C 
ENDROOT
BRANCH   1   2
ATOM      2  C   UNL A   1      33.925  28.688  26.076  1.00  0.00     0.116 C 
BRANCH   2   3
ATOM      3  N   UNL A   1      33.731  30.079  26.451  1.00  0.00    -0.352 N 
ATOM      4  O   UNL A   1      33.997  31.948  27.678  1.00  0.00    -0.269 OA
ATOM      5  C   UNL A   1      34.426  30.840  27.356  1.00  0.00     0.251 C 
ATOM      6  H   UNL A   1      32.995  30.542  25.988  1.00  0.00     0.163 HD
BRANCH   5   7
ATOM      7  C   UNL A   1      35.674  30.324  27.954  1.00  0.00     0.039 A 
ATOM      8  C   UNL A   1      36.898  30.455  27.288  1.00  0.00     0.014 A 
ATOM      9  C   UNL A   1      35.621  29.719  29.213  1.00  0.00     0.014 A 
ATOM     10  C   UNL A   1      38.045  29.876  27.824  1.00  0.00     0.010 A 
ATOM     11  C   UNL A   1      36.789  29.205  29.782  1.00  0.00     0.010 A 
ATOM     12  C   UNL A   1      38.006  29.259  29.082  1.00  0.00    -0.014 A 
BRANCH  12  13
ATOM     13  C   UNL A   1      39.246  28.711  29.693  1.00  0.00     0.031 A 
ATOM     14  C   UNL A   1      39.861  29.370  30.893  1.00  0.00     0.074 A 
ATOM     15  C   UNL A   1      39.838  27.642  29.128  1.00  0.00     0.049 A 
ATOM     16  N   UNL A   1      41.000  29.117  31.485  1.00  0.00    -0.248 NA
ATOM     17  C   UNL A   1      39.099  30.470  31.497  1.00  0.00     0.031 C 
ATOM     18  C   UNL A   1      39.327  26.916  27.964  1.00  0.00     0.029 A 
ATOM     19  N   UNL A   1      41.006  26.993  29.441  1.00  0.00    -0.354 N 
ATOM     20  C   UNL A   1      41.107  30.040  32.519  1.00  0.00     0.074 A 
ATOM     21  C   UNL A   1      39.928  30.883  32.444  1.00  0.00     0.031 C 
ATOM     22  C   UNL A   1      40.176  25.924  27.659  1.00  0.00     0.029 A 
ATOM     23  C   UNL A   1      41.324  25.990  28.556  1.00  0.00     0.049 A 
ATOM     24  H   UNL A   1      41.560  27.222  30.220  1.00  0.00     0.167 HD
ATOM     25  C   UNL A   1      42.093  30.168  33.442  1.00  0.00     0.034 A 
ATOM     26  C   UNL A   1      42.437  25.239  28.441  1.00  0.00     0.034 A 
ATOM     27  C   UNL A   1      43.264  29.322  33.482  1.00  0.00     0.049 A 
ATOM     28  C   UNL A   1      43.556  25.441  29.425  1.00  0.00     0.074 A 
ATOM     29  C   UNL A   1      44.308  29.333  34.391  1.00  0.00     0.029 A 
ATOM     30  N   UNL A   1      43.560  28.326  32.557  1.00  0.00    -0.354 N 
ATOM     31  N   UNL A   1      43.639  26.305  30.411  1.00  0.00    -0.248 NA
ATOM     32  C   UNL A   1      44.728  24.567  29.288  1.00  0.00     0.031 C 
ATOM     33  C   UNL A   1      45.270  28.411  33.970  1.00  0.00     0.029 A 
ATOM     34  C   UNL A   1      44.788  27.749  32.851  1.00  0.00     0.049 A 
ATOM     35  H   UNL A   1      42.983  28.067  31.803  1.00  0.00     0.167 HD
ATOM     36  C   UNL A   1      44.859  26.056  31.032  1.00  0.00     0.074 A 
ATOM     37  C   UNL A   1      45.479  24.966  30.307  1.00  0.00     0.031 C 
ATOM     38  C   UNL A   1      45.404  26.667  32.115  1.00  0.00     0.034 A 
BRANCH  25  39
ATOM     39  C   UNL A   1      41.970  31.301  34.437  1.00  0.00     0.023 A 
ATOM     40  C   UNL A   1      41.022  31.281  35.474  1.00  0.00     0.031 A 
ATOM     41  C   UNL A   1      42.775  32.449  34.310  1.00  0.00     0.131 A 
ATOM     42  C   UNL A   1      40.827  32.420  36.271  1.00  0.00     0.055 A 
ATOM     43  C   UNL A   1      42.643  33.542  35.171  1.00  0.00     0.041 A 
ATOM     44  F   UNL A   1      43.686  32.542  33.329  1.00  0.00    -0.206 F 
ATOM     45  C   UNL A   1      41.650  33.541  36.144  1.00  0.00     0.022 A 
BRANCH  42  46
ATOM     46  S   UNL A   1      39.357  32.488  37.333  1.00  0.00     0.124 S 
ATOM     47  O   UNL A   1      39.955  32.557  38.665  1.00  0.00    -0.237 OA
ATOM     48  O   UNL A   1      38.688  33.698  36.870  1.00  0.00    -0.237 OA
ATOM     49  O   UNL A   1      38.661  31.237  37.038  1.00  0.00    -0.744 OA
ENDBRANCH  42  46
ENDBRANCH  25  39
BRANCH  26  50
ATOM     50  C   UNL A   1      42.553  24.274  27.313  1.00  0.00     0.023 A 
ATOM     51  C   UNL A   1      41.996  22.990  27.390  1.00  0.00     0.031 A 
ATOM     52  C   UNL A   1      43.202  24.645  26.120  1.00  0.00     0.131 A 
ATOM     53  C   UNL A   1      42.115  22.114  26.300  1.00  0.00     0.055 A 
ATOM     54  C   UNL A   1      43.273  23.789  25.022  1.00  0.00     0.041 A 
ATOM     55  F   UNL A   1      43.743  25.867  25.994  1.00  0.00    -0.206 F 
ATOM     56  C   UNL A   1      42.732  22.511  25.111  1.00  0.00     0.022 A 
BRANCH  53  57
ATOM     57  S   UNL A   1      41.483  20.423  26.471  1.00  0.00     0.124 S 
ATOM     58  O   UNL A   1      41.892  20.090  27.831  1.00  0.00    -0.237 OA
ATOM     59  O   UNL A   1      40.052  20.608  26.258  1.00  0.00    -0.237 OA
ATOM     60  O   UNL A   1      42.179  19.691  25.414  1.00  0.00    -0.744 OA
ENDBRANCH  53  57
ENDBRANCH  26  50
BRANCH  38  61
ATOM     61  C   UNL A   1      46.716  26.126  32.630  1.00  0.00     0.023 A 
ATOM     62  C   UNL A   1      46.783  25.033  33.511  1.00  0.00     0.031 A 
ATOM     63  C   UNL A   1      47.924  26.700  32.193  1.00  0.00     0.131 A 
ATOM     64  C   UNL A   1      48.034  24.567  33.948  1.00  0.00     0.055 A 
ATOM     65  C   UNL A   1      49.164  26.199  32.588  1.00  0.00     0.041 A 
ATOM     66  F   UNL A   1      47.916  27.750  31.356  1.00  0.00    -0.206 F 
ATOM     67  C   UNL A   1      49.223  25.129  33.476  1.00  0.00     0.022 A 
BRANCH  64  68
ATOM     68  S   UNL A   1      48.092  23.244  35.189  1.00  0.00     0.124 S 
ATOM     69  O   UNL A   1      46.849  22.526  34.926  1.00  0.00    -0.237 OA
ATOM     70  O   UNL A   1      49.322  22.540  34.840  1.00  0.00    -0.237 OA
ATOM     71  O   UNL A   1      48.133  23.967  36.460  1.00  0.00    -0.744 OA
ENDBRANCH  64  68
ENDBRANCH  38  61
ENDBRANCH  12  13
ENDBRANCH   5   7
ENDBRANCH   2   3
ENDBRANCH   1   2
BRANCH   1  72
ATOM     72  C   UNL A   1      31.609  27.722  26.680  1.00  0.00     0.023 C 
BRANCH  72  73
ATOM     73  C   UNL A   1      31.132  26.728  25.627  1.00  0.00     0.116 C 
BRANCH  73  74
ATOM     74  N   UNL A   1      30.678  25.472  26.189  1.00  0.00    -0.356 N 
ATOM     75  C   UNL A   1      31.401  24.330  26.392  1.00  0.00     0.227 C 
ATOM     76  H   UNL A   1      29.731  25.436  26.459  1.00  0.00     0.163 HD
ATOM     77  O   UNL A   1      31.059  23.647  27.353  1.00  0.00    -0.274 OA
BRANCH  75  78
ATOM     78  C   UNL A   1      32.580  24.001  25.464  1.00  0.00     0.110 C 
BRANCH  78  79
ATOM     79  C   UNL A   1      32.647  22.504  25.149  1.00  0.00    -0.021 A 
ATOM     80  C   UNL A   1      32.104  22.090  23.909  1.00  0.00     0.006 A 
ATOM     81  C   UNL A   1      33.282  21.526  25.932  1.00  0.00     0.021 A 
ATOM     82  C   UNL A   1      32.250  20.786  23.439  1.00  0.00     0.000 A 
ATOM     83  C   UNL A   1      33.429  20.215  25.450  1.00  0.00     0.016 A 
ATOM     84  Br  UNL A   1      33.983  21.824  27.667  1.00  0.00    -0.051 Br
ATOM     85  C   UNL A   1      32.930  19.850  24.204  1.00  0.00     0.001 A 
ENDBRANCH  78  79
BRANCH  78  86
ATOM     86  C   UNL A   1      32.937  24.963  24.298  1.00  0.00     0.025 C 
BRANCH  86  87
ATOM     87  C   UNL A   1      34.258  24.885  23.520  1.00  0.00     0.057 C 
BRANCH  87  88
ATOM     88  C   UNL A   1      35.358  24.020  24.076  1.00  0.00     0.040 A 
ATOM     89  C   UNL A   1      35.782  22.854  23.442  1.00  0.00     0.024 A 
ATOM     90  N   UNL A   1      35.857  24.414  25.274  1.00  0.00    -0.261 NA
ATOM     91  C   UNL A   1      36.639  21.994  24.124  1.00  0.00     0.003 A 
ATOM     92  C   UNL A   1      36.673  23.552  25.918  1.00  0.00     0.111 A 
ATOM     93  C   UNL A   1      37.075  22.336  25.397  1.00  0.00     0.020 A 
ENDBRANCH  87  88
ENDBRANCH  86  87
ENDBRANCH  78  86
ENDBRANCH  75  78
ENDBRANCH  73  74
ENDBRANCH  72  73
ENDBRANCH   1  72
TORSDOF 18
ENDMDL
MODEL 3
REMARK VINA RESULT:     -11.6      5.132      8.334
REMARK SMILES O=C(NCCCCNC(=O)[C@H](CCc1ccccn1)c1ccccc1Br)c1ccc(-c2c3nc(c(-c4cc(S(=O)(=O)[O-])ccc4F)c4ccc([nH]4)c(-c4cc(S(=O)(=O)[O-])ccc4F)c4nc(c(-c5cc(S(=O)(=O)[O-])ccc5F)c5ccc2[nH]5)C=C4)C=C3)cc1
REMARK SMILES IDX 5 1 4 2 3 3 1 4 2 5 27 7 28 8 89 9 29 10 88 11 30 12 31 13
REMARK SMILES IDX 32 14 82 15 33 16 87 17 81 18 83 19 34 20 86 21 80 22 79 23
REMARK SMILES IDX 35 25 67 26 47 27 66 28 48 29 51 30 65 31 84 32 49 33 50 34
REMARK SMILES IDX 64 36 85 37 52 38 36 39 37 40 45 41 38 42 44 43 46 44 43 45
REMARK SMILES IDX 39 46 40 47 41 48 42 49 68 50 69 51 77 52 70 53 76 54 78 55
REMARK SMILES IDX 75 56 71 57 72 58 73 59 74 60 53 61 54 62 62 63 55 64 61 65
REMARK SMILES IDX 63 66 60 67 56 68 57 69 58 70 59 71 6 72 7 73 8 74 9 75
REMARK SMILES IDX 10 77 11 78 20 79 21 80 25 81 22 82 24 83 26 84 23 85 12 86
REMARK SMILES IDX 13 87 14 88 15 89 19 90 16 91 18 92 17 93
REMARK H PARENT 3 6 83 24 51 35 8 76
REMARK Flexibility Score: inf
ROOT
ATOM      1  C   UNL A   1      31.389  31.890  26.502  1.00  0.00     0.023 C 
ENDROOT
BRANCH   1   2
ATOM      2  C   UNL A   1      32.648  32.429  27.170  1.00  0.00     0.116 C 
BRANCH   2   3
ATOM      3  N   UNL A   1      32.489  33.801  27.624  1.00  0.00    -0.352 N 
ATOM      4  O   UNL A   1      32.783  35.581  28.970  1.00  0.00    -0.269 OA
ATOM      5  C   UNL A   1      33.185  34.482  28.590  1.00  0.00     0.251 C 
ATOM      6  H   UNL A   1      31.778  34.314  27.175  1.00  0.00     0.163 HD
BRANCH   5   7
ATOM      7  C   UNL A   1      34.402  33.890  29.183  1.00  0.00     0.039 A 
ATOM      8  C   UNL A   1      35.675  34.307  28.776  1.00  0.00     0.014 A 
ATOM      9  C   UNL A   1      34.266  32.918  30.177  1.00  0.00     0.014 A 
ATOM     10  C   UNL A   1      36.807  33.668  29.276  1.00  0.00     0.010 A 
ATOM     11  C   UNL A   1      35.407  32.332  30.730  1.00  0.00     0.010 A 
ATOM     12  C   UNL A   1      36.685  32.686  30.268  1.00  0.00    -0.014 A 
BRANCH  12  13
ATOM     13  C   UNL A   1      37.896  32.060  30.862  1.00  0.00     0.031 A 
ATOM     14  C   UNL A   1      38.656  31.004  30.111  1.00  0.00     0.074 A 
ATOM     15  C   UNL A   1      38.279  32.418  32.101  1.00  0.00     0.049 A 
ATOM     16  N   UNL A   1      39.654  30.258  30.511  1.00  0.00    -0.248 NA
ATOM     17  C   UNL A   1      38.223  30.744  28.732  1.00  0.00     0.031 C 
ATOM     18  C   UNL A   1      37.623  33.437  32.922  1.00  0.00     0.029 A 
ATOM     19  N   UNL A   1      39.297  31.954  32.896  1.00  0.00    -0.354 N 
ATOM     20  C   UNL A   1      39.957  29.422  29.443  1.00  0.00     0.074 A 
ATOM     21  C   UNL A   1      39.007  29.731  28.392  1.00  0.00     0.031 C 
ATOM     22  C   UNL A   1      38.251  33.521  34.103  1.00  0.00     0.029 A 
ATOM     23  C   UNL A   1      39.304  32.514  34.152  1.00  0.00     0.049 A 
ATOM     24  H   UNL A   1      39.957  31.289  32.597  1.00  0.00     0.167 HD
ATOM     25  C   UNL A   1      40.937  28.488  29.351  1.00  0.00     0.034 A 
ATOM     26  C   UNL A   1      40.038  32.216  35.243  1.00  0.00     0.034 A 
ATOM     27  C   UNL A   1      41.860  28.190  30.423  1.00  0.00     0.049 A 
ATOM     28  C   UNL A   1      41.071  31.127  35.151  1.00  0.00     0.074 A 
ATOM     29  C   UNL A   1      42.915  27.294  30.430  1.00  0.00     0.029 A 
ATOM     30  N   UNL A   1      41.825  28.767  31.688  1.00  0.00    -0.354 N 
ATOM     31  N   UNL A   1      41.363  30.354  34.130  1.00  0.00    -0.248 NA
ATOM     32  C   UNL A   1      41.878  30.873  36.351  1.00  0.00     0.031 C 
ATOM     33  C   UNL A   1      43.459  27.264  31.718  1.00  0.00     0.029 A 
ATOM     34  C   UNL A   1      42.811  28.213  32.493  1.00  0.00     0.049 A 
ATOM     35  H   UNL A   1      41.193  29.466  31.972  1.00  0.00     0.167 HD
ATOM     36  C   UNL A   1      42.409  29.542  34.555  1.00  0.00     0.074 A 
ATOM     37  C   UNL A   1      42.694  29.917  35.926  1.00  0.00     0.031 C 
ATOM     38  C   UNL A   1      43.082  28.586  33.865  1.00  0.00     0.034 A 
BRANCH  25  39
ATOM     39  C   UNL A   1      41.011  27.683  28.072  1.00  0.00     0.023 A 
ATOM     40  C   UNL A   1      40.574  26.349  28.006  1.00  0.00     0.031 A 
ATOM     41  C   UNL A   1      41.583  28.240  26.913  1.00  0.00     0.131 A 
ATOM     42  C   UNL A   1      40.812  25.587  26.851  1.00  0.00     0.055 A 
ATOM     43  C   UNL A   1      41.726  27.506  25.733  1.00  0.00     0.041 A 
ATOM     44  F   UNL A   1      42.039  29.503  26.914  1.00  0.00    -0.206 F 
ATOM     45  C   UNL A   1      41.360  26.165  25.704  1.00  0.00     0.022 A 
BRANCH  42  46
ATOM     46  S   UNL A   1      40.579  23.789  26.941  1.00  0.00     0.124 S 
ATOM     47  O   UNL A   1      41.536  23.315  25.943  1.00  0.00    -0.237 OA
ATOM     48  O   UNL A   1      40.907  23.497  28.331  1.00  0.00    -0.237 OA
ATOM     49  O   UNL A   1      39.175  23.606  26.577  1.00  0.00    -0.744 OA
ENDBRANCH  42  46
ENDBRANCH  25  39
BRANCH  26  50
ATOM     50  C   UNL A   1      39.768  32.931  36.520  1.00  0.00     0.023 A 
ATOM     51  C   UNL A   1      38.815  32.459  37.435  1.00  0.00     0.031 A 
ATOM     52  C   UNL A   1      40.492  34.091  36.857  1.00  0.00     0.131 A 
ATOM     53  C   UNL A   1      38.599  33.154  38.635  1.00  0.00     0.055 A 
ATOM     54  C   UNL A   1      40.308  34.749  38.072  1.00  0.00     0.041 A 
ATOM     55  F   UNL A   1      41.420  34.578  36.018  1.00  0.00    -0.206 F 
ATOM     56  C   UNL A   1      39.351  34.284  38.967  1.00  0.00     0.022 A 
BRANCH  53  57
ATOM     57  S   UNL A   1      37.284  32.583  39.745  1.00  0.00     0.124 S 
ATOM     58  O   UNL A   1      37.296  33.616  40.774  1.00  0.00    -0.237 OA
ATOM     59  O   UNL A   1      36.123  32.569  38.861  1.00  0.00    -0.237 OA
ATOM     60  O   UNL A   1      37.751  31.267  40.177  1.00  0.00    -0.744 OA
ENDBRANCH  53  57
ENDBRANCH  26  50
BRANCH  38  61
ATOM     61  C   UNL A   1      44.244  27.917  34.557  1.00  0.00     0.023 A 
ATOM     62  C   UNL A   1      44.094  26.736  35.304  1.00  0.00     0.031 A 
ATOM     63  C   UNL A   1      45.536  28.461  34.429  1.00  0.00     0.131 A 
ATOM     64  C   UNL A   1      45.215  26.153  35.917  1.00  0.00     0.055 A 
ATOM     65  C   UNL A   1      46.653  27.848  34.995  1.00  0.00     0.041 A 
ATOM     66  F   UNL A   1      45.734  29.591  33.731  1.00  0.00    -0.206 F 
ATOM     67  C   UNL A   1      46.495  26.690  35.750  1.00  0.00     0.022 A 
BRANCH  64  68
ATOM     68  S   UNL A   1      44.977  24.706  36.987  1.00  0.00     0.124 S 
ATOM     69  O   UNL A   1      46.140  24.783  37.864  1.00  0.00    -0.237 OA
ATOM     70  O   UNL A   1      43.688  24.984  37.610  1.00  0.00    -0.237 OA
ATOM     71  O   UNL A   1      44.981  23.583  36.050  1.00  0.00    -0.744 OA
ENDBRANCH  64  68
ENDBRANCH  38  61
ENDBRANCH  12  13
ENDBRANCH   5   7
ENDBRANCH   2   3
ENDBRANCH   1   2
BRANCH   1  72
ATOM     72  C   UNL A   1      31.553  30.555  25.772  1.00  0.00     0.023 C 
BRANCH  72  73
ATOM     73  C   UNL A   1      32.756  29.717  26.188  1.00  0.00     0.116 C 
BRANCH  73  74
ATOM     74  N   UNL A   1      33.660  29.430  25.092  1.00  0.00    -0.356 N 
ATOM     75  C   UNL A   1      33.537  28.468  24.130  1.00  0.00     0.227 C 
ATOM     76  H   UNL A   1      34.462  30.000  25.033  1.00  0.00     0.163 HD
ATOM     77  O   UNL A   1      34.016  28.745  23.034  1.00  0.00    -0.274 OA
BRANCH  75  78
ATOM     78  C   UNL A   1      32.800  27.159  24.452  1.00  0.00     0.110 C 
BRANCH  78  79
ATOM     79  C   UNL A   1      33.704  25.940  24.252  1.00  0.00    -0.021 A 
ATOM     80  C   UNL A   1      34.535  25.578  25.339  1.00  0.00     0.006 A 
ATOM     81  C   UNL A   1      33.711  25.096  23.128  1.00  0.00     0.021 A 
ATOM     82  C   UNL A   1      35.279  24.399  25.339  1.00  0.00     0.000 A 
ATOM     83  C   UNL A   1      34.460  23.909  23.136  1.00  0.00     0.016 A 
ATOM     84  Br  UNL A   1      32.767  25.437  21.521  1.00  0.00    -0.051 Br
ATOM     85  C   UNL A   1      35.227  23.553  24.241  1.00  0.00     0.001 A 
ENDBRANCH  78  79
BRANCH  78  86
ATOM     86  C   UNL A   1      31.827  27.098  25.663  1.00  0.00     0.025 C 
BRANCH  86  87
ATOM     87  C   UNL A   1      30.686  26.077  25.771  1.00  0.00     0.057 C 
BRANCH  87  88
ATOM     88  C   UNL A   1      31.043  24.615  25.789  1.00  0.00     0.040 A 
ATOM     89  C   UNL A   1      31.699  24.021  26.867  1.00  0.00     0.024 A 
ATOM     90  N   UNL A   1      30.750  23.932  24.656  1.00  0.00    -0.261 NA
ATOM     91  C   UNL A   1      32.193  22.727  26.720  1.00  0.00     0.003 A 
ATOM     92  C   UNL A   1      31.257  22.685  24.536  1.00  0.00     0.111 A 
ATOM     93  C   UNL A   1      31.992  22.053  25.523  1.00  0.00     0.020 A 
ENDBRANCH  87  88
ENDBRANCH  86  87
ENDBRANCH  78  86
ENDBRANCH  75  78
ENDBRANCH  73  74
ENDBRANCH  72  73
ENDBRANCH   1  72
TORSDOF 18
ENDMDL
