MODEL 1
REMARK VINA RESULT:     -12.3      0.000      0.000
REMARK SMILES C[NH+]1CCN(C(=O)c2ccc3c(c2)N(CC(=O)NCCCCNC(=O)c2ccc(-c4c5nc(c(-c6cc(S(=O)(=O)[O-])ccc6F)c6ccc([nH]6)c(-c6cc(S(=O)(=O)[O-])ccc6F)c6nc(c(-c7cc(S(=O)(=O)[O-])ccc7F)c7ccc4[nH]7)C=C6)C=C5)cc2)C(=O)CO3)CC1
REMARK SMILES IDX 21 1 20 2 19 3 18 4 16 5 17 6 15 8 14 9 8 10 9 11 13 12
REMARK SMILES IDX 10 13 12 14 11 15 92 16 89 17 91 18 90 19 6 20 1 21 2 22
REMARK SMILES IDX 3 23 94 24 4 26 93 27 5 28 7 29 22 30 23 31 24 32 25 34
REMARK SMILES IDX 26 35 27 36 88 37 28 38 87 39 29 40 30 41 31 42 81 43 32 44
REMARK SMILES IDX 86 45 80 46 82 47 33 48 85 49 79 50 78 51 34 53 66 54 46 55
REMARK SMILES IDX 65 56 47 57 50 58 64 59 83 60 48 61 49 62 63 64 84 65 51 66
REMARK SMILES IDX 35 67 36 68 44 69 37 70 43 71 45 72 42 73 38 74 39 75 40 76
REMARK SMILES IDX 41 77 67 78 68 79 76 80 69 81 75 82 77 83 74 84 70 85 71 86
REMARK SMILES IDX 72 87 73 88 52 89 53 90 61 91 54 92 60 93 62 94 59 95 55 96
REMARK SMILES IDX 56 97 57 98 58 99
REMARK H PARENT 18 7 2 25 23 33 82 52 50 63
REMARK Flexibility Score: inf
ROOT
ATOM      1  C   UNL A   1      35.805  24.395  25.165  1.00  0.00     0.023 C 
ENDROOT
BRANCH   1   2
ATOM      2  C   UNL A   1      34.715  25.448  25.383  1.00  0.00     0.023 C 
BRANCH   2   3
ATOM      3  C   UNL A   1      33.829  25.715  24.168  1.00  0.00     0.116 C 
BRANCH   3   4
ATOM      4  N   UNL A   1      34.070  24.772  23.097  1.00  0.00    -0.355 N 
ATOM      5  C   UNL A   1      33.192  23.935  22.474  1.00  0.00     0.240 C 
ATOM      6  O   UNL A   1      33.598  23.300  21.497  1.00  0.00    -0.273 OA
ATOM      7  H   UNL A   1      34.998  24.729  22.772  1.00  0.00     0.163 HD
BRANCH   5   8
ATOM      8  C   UNL A   1      31.724  23.833  22.912  1.00  0.00     0.225 C 
BRANCH   8   9
ATOM      9  N   UNL A   1      31.511  23.804  24.360  1.00  0.00    -0.296 N 
ATOM     10  C   UNL A   1      33.772  21.053  25.538  1.00  0.00     0.042 A 
ATOM     11  C   UNL A   1      33.737  21.252  26.918  1.00  0.00     0.018 A 
ATOM     12  C   UNL A   1      33.004  21.854  24.679  1.00  0.00     0.044 A 
ATOM     13  C   UNL A   1      32.956  22.280  27.441  1.00  0.00     0.049 A 
ATOM     14  C   UNL A   1      32.232  22.904  25.196  1.00  0.00     0.087 A 
ATOM     15  C   UNL A   1      32.204  23.089  26.587  1.00  0.00     0.143 A 
ATOM     16  O   UNL A   1      31.513  24.097  27.202  1.00  0.00    -0.482 OA
ATOM     17  C   UNL A   1      30.602  24.689  24.921  1.00  0.00     0.265 C 
ATOM     18  C   UNL A   1      30.436  24.587  26.431  1.00  0.00     0.330 C 
ATOM     19  O   UNL A   1      29.915  25.472  24.262  1.00  0.00    -0.270 OA
BRANCH  10  20
ATOM     20  C   UNL A   1      34.580  19.934  25.009  1.00  0.00     0.254 C 
ATOM     21  C   UNL A   1      32.691  14.687  25.435  1.00  0.00     0.332 C 
ATOM     22  N   UNL A   1      32.985  15.966  24.791  1.00  0.00    -0.334 N 
ATOM     23  C   UNL A   1      34.434  16.255  24.835  1.00  0.00     0.283 C 
ATOM     24  C   UNL A   1      32.244  17.058  25.456  1.00  0.00     0.283 C 
ATOM     25  H   UNL A   1      32.692  15.902  23.816  1.00  0.00     0.347 HD
ATOM     26  C   UNL A   1      34.780  17.620  24.210  1.00  0.00     0.181 C 
ATOM     27  C   UNL A   1      32.534  18.423  24.803  1.00  0.00     0.181 C 
ATOM     28  N   UNL A   1      33.976  18.708  24.774  1.00  0.00    -0.327 N 
ATOM     29  O   UNL A   1      35.769  20.164  24.795  1.00  0.00    -0.269 OA
ENDBRANCH  10  20
ENDBRANCH   8   9
ENDBRANCH   5   8
ENDBRANCH   3   4
ENDBRANCH   2   3
ENDBRANCH   1   2
BRANCH   1  30
ATOM     30  C   UNL A   1      36.249  23.637  26.413  1.00  0.00     0.116 C 
BRANCH  30  31
ATOM     31  N   UNL A   1      37.252  22.621  26.141  1.00  0.00    -0.352 N 
ATOM     32  C   UNL A   1      38.622  22.720  26.218  1.00  0.00     0.251 C 
ATOM     33  H   UNL A   1      36.903  21.743  25.864  1.00  0.00     0.163 HD
ATOM     34  O   UNL A   1      39.320  21.786  25.832  1.00  0.00    -0.269 OA
BRANCH  32  35
ATOM     35  C   UNL A   1      39.243  23.963  26.723  1.00  0.00     0.039 A 
ATOM     36  C   UNL A   1      39.840  24.838  25.811  1.00  0.00     0.014 A 
ATOM     37  C   UNL A   1      39.221  24.278  28.085  1.00  0.00     0.014 A 
ATOM     38  C   UNL A   1      40.347  26.062  26.254  1.00  0.00     0.010 A 
ATOM     39  C   UNL A   1      39.665  25.527  28.515  1.00  0.00     0.010 A 
ATOM     40  C   UNL A   1      40.226  26.435  27.603  1.00  0.00    -0.014 A 
BRANCH  40  41
ATOM     41  C   UNL A   1      40.677  27.769  28.080  1.00  0.00     0.031 A 
ATOM     42  C   UNL A   1      42.144  28.094  28.137  1.00  0.00     0.074 A 
ATOM     43  C   UNL A   1      39.770  28.661  28.522  1.00  0.00     0.049 A 
ATOM     44  N   UNL A   1      42.740  29.164  28.601  1.00  0.00    -0.248 NA
ATOM     45  C   UNL A   1      43.063  27.063  27.634  1.00  0.00     0.031 C 
ATOM     46  C   UNL A   1      38.321  28.452  28.548  1.00  0.00     0.029 A 
ATOM     47  N   UNL A   1      39.930  29.921  29.042  1.00  0.00    -0.354 N 
ATOM     48  C   UNL A   1      44.103  28.933  28.453  1.00  0.00     0.074 A 
ATOM     49  C   UNL A   1      44.242  27.592  27.922  1.00  0.00     0.031 C 
ATOM     50  C   UNL A   1      37.725  29.554  29.031  1.00  0.00     0.029 A 
ATOM     51  C   UNL A   1      38.747  30.530  29.394  1.00  0.00     0.049 A 
ATOM     52  H   UNL A   1      40.810  30.349  29.154  1.00  0.00     0.167 HD
ATOM     53  C   UNL A   1      45.140  29.769  28.710  1.00  0.00     0.034 A 
ATOM     54  C   UNL A   1      38.514  31.734  29.954  1.00  0.00     0.034 A 
ATOM     55  C   UNL A   1      44.984  31.104  29.237  1.00  0.00     0.049 A 
ATOM     56  C   UNL A   1      39.684  32.629  30.275  1.00  0.00     0.074 A 
ATOM     57  C   UNL A   1      45.960  32.050  29.498  1.00  0.00     0.029 A 
ATOM     58  N   UNL A   1      43.770  31.682  29.593  1.00  0.00    -0.354 N 
ATOM     59  N   UNL A   1      40.965  32.411  30.094  1.00  0.00    -0.248 NA
ATOM     60  C   UNL A   1      39.371  33.936  30.867  1.00  0.00     0.031 C 
ATOM     61  C   UNL A   1      45.346  33.171  30.070  1.00  0.00     0.029 A 
ATOM     62  C   UNL A   1      43.978  32.956  30.098  1.00  0.00     0.049 A 
ATOM     63  H   UNL A   1      42.893  31.248  29.500  1.00  0.00     0.167 HD
ATOM     64  C   UNL A   1      41.610  33.569  30.520  1.00  0.00     0.074 A 
ATOM     65  C   UNL A   1      40.574  34.484  30.957  1.00  0.00     0.031 C 
ATOM     66  C   UNL A   1      42.937  33.854  30.543  1.00  0.00     0.034 A 
BRANCH  53  67
ATOM     67  C   UNL A   1      46.532  29.241  28.444  1.00  0.00     0.023 A 
ATOM     68  C   UNL A   1      47.269  28.576  29.440  1.00  0.00     0.031 A 
ATOM     69  C   UNL A   1      47.151  29.448  27.199  1.00  0.00     0.131 A 
ATOM     70  C   UNL A   1      48.607  28.227  29.208  1.00  0.00     0.055 A 
ATOM     71  C   UNL A   1      48.455  29.016  26.943  1.00  0.00     0.041 A 
ATOM     72  F   UNL A   1      46.508  30.094  26.213  1.00  0.00    -0.206 F 
ATOM     73  C   UNL A   1      49.199  28.419  27.957  1.00  0.00     0.022 A 
BRANCH  70  74
ATOM     74  S   UNL A   1      49.613  27.680  30.615  1.00  0.00     0.124 S 
ATOM     75  O   UNL A   1      49.790  28.928  31.353  1.00  0.00    -0.237 OA
ATOM     76  O   UNL A   1      48.757  26.681  31.245  1.00  0.00    -0.237 OA
ATOM     77  O   UNL A   1      50.825  27.158  29.987  1.00  0.00    -0.744 OA
ENDBRANCH  70  74
ENDBRANCH  53  67
BRANCH  54  78
ATOM     78  C   UNL A   1      37.120  32.169  30.251  1.00  0.00     0.023 A 
ATOM     79  C   UNL A   1      36.351  32.830  29.280  1.00  0.00     0.031 A 
ATOM     80  C   UNL A   1      36.549  31.965  31.520  1.00  0.00     0.131 A 
ATOM     81  C   UNL A   1      35.070  33.301  29.605  1.00  0.00     0.055 A 
ATOM     82  C   UNL A   1      35.255  32.392  31.823  1.00  0.00     0.041 A 
ATOM     83  F   UNL A   1      37.240  31.332  32.482  1.00  0.00    -0.206 F 
ATOM     84  C   UNL A   1      34.512  33.076  30.866  1.00  0.00     0.022 A 
BRANCH  81  85
ATOM     85  S   UNL A   1      34.169  34.282  28.374  1.00  0.00     0.124 S 
ATOM     86  O   UNL A   1      33.868  35.495  29.123  1.00  0.00    -0.237 OA
ATOM     87  O   UNL A   1      35.158  34.413  27.309  1.00  0.00    -0.237 OA
ATOM     88  O   UNL A   1      33.016  33.445  28.050  1.00  0.00    -0.744 OA
ENDBRANCH  81  85
ENDBRANCH  54  78
BRANCH  66  89
ATOM     89  C   UNL A   1      43.333  35.233  31.014  1.00  0.00     0.023 A 
ATOM     90  C   UNL A   1      43.484  36.306  30.120  1.00  0.00     0.031 A 
ATOM     91  C   UNL A   1      43.578  35.468  32.379  1.00  0.00     0.131 A 
ATOM     92  C   UNL A   1      43.922  37.554  30.594  1.00  0.00     0.055 A 
ATOM     93  C   UNL A   1      43.955  36.725  32.852  1.00  0.00     0.041 A 
ATOM     94  F   UNL A   1      43.451  34.477  33.276  1.00  0.00    -0.206 F 
ATOM     95  C   UNL A   1      44.142  37.773  31.956  1.00  0.00     0.022 A 
BRANCH  92  96
ATOM     96  S   UNL A   1      44.285  38.864  29.394  1.00  0.00     0.124 S 
ATOM     97  O   UNL A   1      43.695  40.035  30.035  1.00  0.00    -0.237 OA
ATOM     98  O   UNL A   1      45.743  38.838  29.334  1.00  0.00    -0.237 OA
ATOM     99  O   UNL A   1      43.607  38.415  28.179  1.00  0.00    -0.744 OA
ENDBRANCH  92  96
ENDBRANCH  66  89
ENDBRANCH  40  41
ENDBRANCH  32  35
ENDBRANCH  30  31
ENDBRANCH   1  30
TORSDOF 16
ENDMDL
MODEL 2
REMARK VINA RESULT:     -12.1      2.064      4.515
REMARK SMILES C[NH+]1CCN(C(=O)c2ccc3c(c2)N(CC(=O)NCCCCNC(=O)c2ccc(-c4c5nc(c(-c6cc(S(=O)(=O)[O-])ccc6F)c6ccc([nH]6)c(-c6cc(S(=O)(=O)[O-])ccc6F)c6nc(c(-c7cc(S(=O)(=O)[O-])ccc7F)c7ccc4[nH]7)C=C6)C=C5)cc2)C(=O)CO3)CC1
REMARK SMILES IDX 21 1 20 2 19 3 18 4 16 5 17 6 15 8 14 9 8 10 9 11 13 12
REMARK SMILES IDX 10 13 12 14 11 15 92 16 89 17 91 18 90 19 6 20 1 21 2 22
REMARK SMILES IDX 3 23 94 24 4 26 93 27 5 28 7 29 22 30 23 31 24 32 25 34
REMARK SMILES IDX 26 35 27 36 88 37 28 38 87 39 29 40 30 41 31 42 81 43 32 44
REMARK SMILES IDX 86 45 80 46 82 47 33 48 85 49 79 50 78 51 34 53 66 54 46 55
REMARK SMILES IDX 65 56 47 57 50 58 64 59 83 60 48 61 49 62 63 64 84 65 51 66
REMARK SMILES IDX 35 67 36 68 44 69 37 70 43 71 45 72 42 73 38 74 39 75 40 76
REMARK SMILES IDX 41 77 67 78 68 79 76 80 69 81 75 82 77 83 74 84 70 85 71 86
REMARK SMILES IDX 72 87 73 88 52 89 53 90 61 91 54 92 60 93 62 94 59 95 55 96
REMARK SMILES IDX 56 97 57 98 58 99
REMARK H PARENT 18 7 2 25 23 33 82 52 50 63
REMARK Flexibility Score: inf
ROOT
ATOM      1  C   UNL A   1      35.208  23.240  25.808  1.00  0.00     0.023 C 
ENDROOT
BRANCH   1   2
ATOM      2  C   UNL A   1      34.934  21.833  26.347  1.00  0.00     0.023 C 
BRANCH   2   3
ATOM      3  C   UNL A   1      33.844  21.756  27.414  1.00  0.00     0.116 C 
BRANCH   3   4
ATOM      4  N   UNL A   1      33.149  23.016  27.579  1.00  0.00    -0.355 N 
ATOM      5  C   UNL A   1      31.941  23.403  27.081  1.00  0.00     0.240 C 
ATOM      6  O   UNL A   1      31.487  24.489  27.453  1.00  0.00    -0.273 OA
ATOM      7  H   UNL A   1      33.615  23.687  28.128  1.00  0.00     0.163 HD
BRANCH   5   8
ATOM      8  C   UNL A   1      31.123  22.496  26.149  1.00  0.00     0.225 C 
BRANCH   8   9
ATOM      9  N   UNL A   1      31.636  22.391  24.782  1.00  0.00    -0.296 N 
ATOM     10  C   UNL A   1      31.557  25.925  23.528  1.00  0.00     0.042 A 
ATOM     11  C   UNL A   1      32.297  25.806  22.351  1.00  0.00     0.018 A 
ATOM     12  C   UNL A   1      31.285  24.799  24.319  1.00  0.00     0.044 A 
ATOM     13  C   UNL A   1      32.796  24.561  21.981  1.00  0.00     0.049 A 
ATOM     14  C   UNL A   1      31.802  23.545  23.964  1.00  0.00     0.087 A 
ATOM     15  C   UNL A   1      32.541  23.441  22.775  1.00  0.00     0.143 A 
ATOM     16  O   UNL A   1      33.120  22.279  22.343  1.00  0.00    -0.482 OA
ATOM     17  C   UNL A   1      31.982  21.141  24.291  1.00  0.00     0.265 C 
ATOM     18  C   UNL A   1      32.497  21.120  22.858  1.00  0.00     0.330 C 
ATOM     19  O   UNL A   1      31.833  20.093  24.923  1.00  0.00    -0.270 OA
BRANCH  10  20
ATOM     20  C   UNL A   1      31.007  27.250  23.882  1.00  0.00     0.254 C 
ATOM     21  C   UNL A   1      33.863  30.636  27.295  1.00  0.00     0.332 C 
ATOM     22  N   UNL A   1      33.353  30.119  26.027  1.00  0.00    -0.334 N 
ATOM     23  C   UNL A   1      31.876  30.131  26.011  1.00  0.00     0.283 C 
ATOM     24  C   UNL A   1      33.837  28.741  25.803  1.00  0.00     0.283 C 
ATOM     25  H   UNL A   1      33.695  30.723  25.280  1.00  0.00     0.347 HD
ATOM     26  C   UNL A   1      31.297  29.545  24.709  1.00  0.00     0.181 C 
ATOM     27  C   UNL A   1      33.315  28.161  24.474  1.00  0.00     0.181 C 
ATOM     28  N   UNL A   1      31.848  28.222  24.403  1.00  0.00    -0.327 N 
ATOM     29  O   UNL A   1      29.806  27.422  23.677  1.00  0.00    -0.269 OA
ENDBRANCH  10  20
ENDBRANCH   8   9
ENDBRANCH   5   8
ENDBRANCH   3   4
ENDBRANCH   2   3
ENDBRANCH   1   2
BRANCH   1  30
ATOM     30  C   UNL A   1      36.648  23.729  25.944  1.00  0.00     0.116 C 
BRANCH  30  31
ATOM     31  N   UNL A   1      37.617  22.648  26.016  1.00  0.00    -0.352 N 
ATOM     32  C   UNL A   1      38.945  22.703  26.369  1.00  0.00     0.251 C 
ATOM     33  H   UNL A   1      37.276  21.755  25.781  1.00  0.00     0.163 HD
ATOM     34  O   UNL A   1      39.645  21.700  26.256  1.00  0.00    -0.269 OA
BRANCH  32  35
ATOM     35  C   UNL A   1      39.530  23.978  26.839  1.00  0.00     0.039 A 
ATOM     36  C   UNL A   1      40.074  24.857  25.898  1.00  0.00     0.014 A 
ATOM     37  C   UNL A   1      39.525  24.316  28.195  1.00  0.00     0.014 A 
ATOM     38  C   UNL A   1      40.544  26.107  26.309  1.00  0.00     0.010 A 
ATOM     39  C   UNL A   1      39.931  25.589  28.593  1.00  0.00     0.010 A 
ATOM     40  C   UNL A   1      40.438  26.500  27.653  1.00  0.00    -0.014 A 
BRANCH  40  41
ATOM     41  C   UNL A   1      40.849  27.858  28.096  1.00  0.00     0.031 A 
ATOM     42  C   UNL A   1      42.305  28.230  28.140  1.00  0.00     0.074 A 
ATOM     43  C   UNL A   1      39.916  28.732  28.521  1.00  0.00     0.049 A 
ATOM     44  N   UNL A   1      42.869  29.329  28.576  1.00  0.00    -0.248 NA
ATOM     45  C   UNL A   1      43.254  27.217  27.658  1.00  0.00     0.031 C 
ATOM     46  C   UNL A   1      38.474  28.479  28.558  1.00  0.00     0.029 A 
ATOM     47  N   UNL A   1      40.039  30.009  29.011  1.00  0.00    -0.354 N 
ATOM     48  C   UNL A   1      44.238  29.137  28.428  1.00  0.00     0.074 A 
ATOM     49  C   UNL A   1      44.417  27.789  27.929  1.00  0.00     0.031 C 
ATOM     50  C   UNL A   1      37.846  29.573  29.017  1.00  0.00     0.029 A 
ATOM     51  C   UNL A   1      38.838  30.589  29.352  1.00  0.00     0.049 A 
ATOM     52  H   UNL A   1      40.905  30.466  29.109  1.00  0.00     0.167 HD
ATOM     53  C   UNL A   1      45.250  30.011  28.661  1.00  0.00     0.034 A 
ATOM     54  C   UNL A   1      38.570  31.797  29.884  1.00  0.00     0.034 A 
ATOM     55  C   UNL A   1      45.054  31.352  29.157  1.00  0.00     0.049 A 
ATOM     56  C   UNL A   1      39.711  32.736  30.179  1.00  0.00     0.074 A 
ATOM     57  C   UNL A   1      46.001  32.334  29.391  1.00  0.00     0.029 A 
ATOM     58  N   UNL A   1      43.824  31.900  29.504  1.00  0.00    -0.354 N 
ATOM     59  N   UNL A   1      40.999  32.554  29.998  1.00  0.00    -0.248 NA
ATOM     60  C   UNL A   1      39.360  34.046  30.742  1.00  0.00     0.031 C 
ATOM     61  C   UNL A   1      45.354  33.448  29.939  1.00  0.00     0.029 A 
ATOM     62  C   UNL A   1      43.993  33.193  29.978  1.00  0.00     0.049 A 
ATOM     63  H   UNL A   1      42.959  31.438  29.425  1.00  0.00     0.167 HD
ATOM     64  C   UNL A   1      41.608  33.741  30.395  1.00  0.00     0.074 A 
ATOM     65  C   UNL A   1      40.546  34.633  30.814  1.00  0.00     0.031 C 
ATOM     66  C   UNL A   1      42.926  34.068  30.405  1.00  0.00     0.034 A 
BRANCH  53  67
ATOM     67  C   UNL A   1      46.657  29.520  28.402  1.00  0.00     0.023 A 
ATOM     68  C   UNL A   1      47.421  28.911  29.413  1.00  0.00     0.031 A 
ATOM     69  C   UNL A   1      47.261  29.708  27.146  1.00  0.00     0.131 A 
ATOM     70  C   UNL A   1      48.768  28.599  29.183  1.00  0.00     0.055 A 
ATOM     71  C   UNL A   1      48.576  29.310  26.895  1.00  0.00     0.041 A 
ATOM     72  F   UNL A   1      46.591  30.301  26.146  1.00  0.00    -0.206 F 
ATOM     73  C   UNL A   1      49.346  28.770  27.923  1.00  0.00     0.022 A 
BRANCH  70  74
ATOM     74  S   UNL A   1      49.799  28.129  30.599  1.00  0.00     0.124 S 
ATOM     75  O   UNL A   1      48.802  27.997  31.659  1.00  0.00    -0.237 OA
ATOM     76  O   UNL A   1      50.415  26.888  30.143  1.00  0.00    -0.237 OA
ATOM     77  O   UNL A   1      50.711  29.261  30.750  1.00  0.00    -0.744 OA
ENDBRANCH  70  74
ENDBRANCH  53  67
BRANCH  54  78
ATOM     78  C   UNL A   1      37.164  32.196  30.177  1.00  0.00     0.023 A 
ATOM     79  C   UNL A   1      36.409  32.913  29.235  1.00  0.00     0.031 A 
ATOM     80  C   UNL A   1      36.565  31.900  31.415  1.00  0.00     0.131 A 
ATOM     81  C   UNL A   1      35.115  33.347  29.560  1.00  0.00     0.055 A 
ATOM     82  C   UNL A   1      35.259  32.292  31.715  1.00  0.00     0.041 A 
ATOM     83  F   UNL A   1      37.242  31.211  32.348  1.00  0.00    -0.206 F 
ATOM     84  C   UNL A   1      34.530  33.030  30.789  1.00  0.00     0.022 A 
BRANCH  81  85
ATOM     85  S   UNL A   1      34.231  34.399  28.376  1.00  0.00     0.124 S 
ATOM     86  O   UNL A   1      35.049  34.251  27.179  1.00  0.00    -0.237 OA
ATOM     87  O   UNL A   1      32.915  33.770  28.336  1.00  0.00    -0.237 OA
ATOM     88  O   UNL A   1      34.268  35.720  29.001  1.00  0.00    -0.744 OA
ENDBRANCH  81  85
ENDBRANCH  54  78
BRANCH  66  89
ATOM     89  C   UNL A   1      43.281  35.469  30.842  1.00  0.00     0.023 A 
ATOM     90  C   UNL A   1      43.288  35.844  32.196  1.00  0.00     0.031 A 
ATOM     91  C   UNL A   1      43.601  36.446  29.882  1.00  0.00     0.131 A 
ATOM     92  C   UNL A   1      43.556  37.176  32.550  1.00  0.00     0.055 A 
ATOM     93  C   UNL A   1      43.924  37.754  30.244  1.00  0.00     0.041 A 
ATOM     94  F   UNL A   1      43.607  36.142  28.573  1.00  0.00    -0.206 F 
ATOM     95  C   UNL A   1      43.889  38.129  31.584  1.00  0.00     0.022 A 
BRANCH  92  96
ATOM     96  S   UNL A   1      43.375  37.670  34.286  1.00  0.00     0.124 S 
ATOM     97  O   UNL A   1      44.742  37.544  34.782  1.00  0.00    -0.237 OA
ATOM     98  O   UNL A   1      42.863  39.032  34.171  1.00  0.00    -0.237 OA
ATOM     99  O   UNL A   1      42.428  36.696  34.824  1.00  0.00    -0.744 OA
ENDBRANCH  92  96
ENDBRANCH  66  89
ENDBRANCH  40  41
ENDBRANCH  32  35
ENDBRANCH  30  31
ENDBRANCH   1  30
TORSDOF 16
ENDMDL
MODEL 3
REMARK VINA RESULT:     -12.0      2.686      4.903
REMARK SMILES C[NH+]1CCN(C(=O)c2ccc3c(c2)N(CC(=O)NCCCCNC(=O)c2ccc(-c4c5nc(c(-c6cc(S(=O)(=O)[O-])ccc6F)c6ccc([nH]6)c(-c6cc(S(=O)(=O)[O-])ccc6F)c6nc(c(-c7cc(S(=O)(=O)[O-])ccc7F)c7ccc4[nH]7)C=C6)C=C5)cc2)C(=O)CO3)CC1
REMARK SMILES IDX 21 1 20 2 19 3 18 4 16 5 17 6 15 8 14 9 8 10 9 11 13 12
REMARK SMILES IDX 10 13 12 14 11 15 92 16 89 17 91 18 90 19 6 20 1 21 2 22
REMARK SMILES IDX 3 23 94 24 4 26 93 27 5 28 7 29 22 30 23 31 24 32 25 34
REMARK SMILES IDX 26 35 27 36 88 37 28 38 87 39 29 40 30 41 31 42 81 43 32 44
REMARK SMILES IDX 86 45 80 46 82 47 33 48 85 49 79 50 78 51 34 53 66 54 46 55
REMARK SMILES IDX 65 56 47 57 50 58 64 59 83 60 48 61 49 62 63 64 84 65 51 66
REMARK SMILES IDX 35 67 36 68 44 69 37 70 43 71 45 72 42 73 38 74 39 75 40 76
REMARK SMILES IDX 41 77 67 78 68 79 76 80 69 81 75 82 77 83 74 84 70 85 71 86
REMARK SMILES IDX 72 87 73 88 52 89 53 90 61 91 54 92 60 93 62 94 59 95 55 96
REMARK SMILES IDX 56 97 57 98 58 99
REMARK H PARENT 18 7 2 25 23 33 82 52 50 63
REMARK Flexibility Score: inf
ROOT
ATOM      1  C   UNL A   1      35.270  22.741  25.622  1.00  0.00     0.023 C 
ENDROOT
BRANCH   1   2
ATOM      2  C   UNL A   1      35.088  21.491  26.487  1.00  0.00     0.023 C 
BRANCH   2   3
ATOM      3  C   UNL A   1      33.794  21.453  27.296  1.00  0.00     0.116 C 
BRANCH   3   4
ATOM      4  N   UNL A   1      33.255  22.777  27.530  1.00  0.00    -0.355 N 
ATOM      5  C   UNL A   1      32.092  23.324  27.077  1.00  0.00     0.240 C 
ATOM      6  O   UNL A   1      31.776  24.438  27.505  1.00  0.00    -0.273 OA
ATOM      7  H   UNL A   1      33.807  23.364  28.095  1.00  0.00     0.163 HD
BRANCH   5   8
ATOM      8  C   UNL A   1      31.156  22.561  26.128  1.00  0.00     0.225 C 
BRANCH   8   9
ATOM      9  N   UNL A   1      31.646  22.420  24.757  1.00  0.00    -0.296 N 
ATOM     10  C   UNL A   1      31.564  25.923  23.419  1.00  0.00     0.042 A 
ATOM     11  C   UNL A   1      32.285  25.772  22.234  1.00  0.00     0.018 A 
ATOM     12  C   UNL A   1      31.299  24.818  24.241  1.00  0.00     0.044 A 
ATOM     13  C   UNL A   1      32.773  24.516  21.886  1.00  0.00     0.049 A 
ATOM     14  C   UNL A   1      31.805  23.553  23.908  1.00  0.00     0.087 A 
ATOM     15  C   UNL A   1      32.525  23.417  22.711  1.00  0.00     0.143 A 
ATOM     16  O   UNL A   1      33.091  22.242  22.299  1.00  0.00    -0.482 OA
ATOM     17  C   UNL A   1      31.978  21.157  24.290  1.00  0.00     0.265 C 
ATOM     18  C   UNL A   1      32.472  21.099  22.851  1.00  0.00     0.330 C 
ATOM     19  O   UNL A   1      31.835  20.126  24.950  1.00  0.00    -0.270 OA
BRANCH  10  20
ATOM     20  C   UNL A   1      31.026  27.260  23.749  1.00  0.00     0.254 C 
ATOM     21  C   UNL A   1      33.806  30.595  27.273  1.00  0.00     0.332 C 
ATOM     22  N   UNL A   1      33.338  30.086  25.985  1.00  0.00    -0.334 N 
ATOM     23  C   UNL A   1      31.863  30.126  25.909  1.00  0.00     0.283 C 
ATOM     24  C   UNL A   1      33.804  28.698  25.782  1.00  0.00     0.283 C 
ATOM     25  H   UNL A   1      33.722  30.682  25.252  1.00  0.00     0.347 HD
ATOM     26  C   UNL A   1      31.326  29.549  24.585  1.00  0.00     0.181 C 
ATOM     27  C   UNL A   1      33.325  28.127  24.434  1.00  0.00     0.181 C 
ATOM     28  N   UNL A   1      31.864  28.215  24.303  1.00  0.00    -0.327 N 
ATOM     29  O   UNL A   1      29.838  27.454  23.495  1.00  0.00    -0.269 OA
ENDBRANCH  10  20
ENDBRANCH   8   9
ENDBRANCH   5   8
ENDBRANCH   3   4
ENDBRANCH   2   3
ENDBRANCH   1   2
BRANCH   1  30
ATOM     30  C   UNL A   1      36.625  23.435  25.742  1.00  0.00     0.116 C 
BRANCH  30  31
ATOM     31  N   UNL A   1      37.703  22.528  26.099  1.00  0.00    -0.352 N 
ATOM     32  C   UNL A   1      38.938  22.823  26.629  1.00  0.00     0.251 C 
ATOM     33  H   UNL A   1      37.526  21.573  25.941  1.00  0.00     0.163 HD
ATOM     34  O   UNL A   1      39.773  21.932  26.756  1.00  0.00    -0.269 OA
BRANCH  32  35
ATOM     35  C   UNL A   1      39.266  24.217  27.000  1.00  0.00     0.039 A 
ATOM     36  C   UNL A   1      39.005  24.647  28.305  1.00  0.00     0.014 A 
ATOM     37  C   UNL A   1      39.845  25.091  26.076  1.00  0.00     0.014 A 
ATOM     38  C   UNL A   1      39.395  25.927  28.704  1.00  0.00     0.010 A 
ATOM     39  C   UNL A   1      40.294  26.343  26.495  1.00  0.00     0.010 A 
ATOM     40  C   UNL A   1      40.080  26.772  27.814  1.00  0.00    -0.014 A 
BRANCH  40  41
ATOM     41  C   UNL A   1      40.583  28.103  28.243  1.00  0.00     0.031 A 
ATOM     42  C   UNL A   1      42.062  28.355  28.345  1.00  0.00     0.074 A 
ATOM     43  C   UNL A   1      39.707  29.062  28.604  1.00  0.00     0.049 A 
ATOM     44  N   UNL A   1      42.695  29.415  28.779  1.00  0.00    -0.248 NA
ATOM     45  C   UNL A   1      42.943  27.254  27.931  1.00  0.00     0.031 C 
ATOM     46  C   UNL A   1      38.249  28.929  28.581  1.00  0.00     0.029 A 
ATOM     47  N   UNL A   1      39.915  30.338  29.068  1.00  0.00    -0.354 N 
ATOM     48  C   UNL A   1      44.048  29.108  28.699  1.00  0.00     0.074 A 
ATOM     49  C   UNL A   1      44.137  27.736  28.241  1.00  0.00     0.031 C 
ATOM     50  C   UNL A   1      37.696  30.084  28.984  1.00  0.00     0.029 A 
ATOM     51  C   UNL A   1      38.754  31.023  29.340  1.00  0.00     0.049 A 
ATOM     52  H   UNL A   1      40.811  30.725  29.195  1.00  0.00     0.167 HD
ATOM     53  C   UNL A   1      45.118  29.901  28.957  1.00  0.00     0.034 A 
ATOM     54  C   UNL A   1      38.564  32.264  29.830  1.00  0.00     0.034 A 
ATOM     55  C   UNL A   1      45.014  31.267  29.411  1.00  0.00     0.049 A 
ATOM     56  C   UNL A   1      39.766  33.113  30.155  1.00  0.00     0.074 A 
ATOM     57  C   UNL A   1      46.028  32.174  29.665  1.00  0.00     0.029 A 
ATOM     58  N   UNL A   1      43.820  31.924  29.689  1.00  0.00    -0.354 N 
ATOM     59  N   UNL A   1      41.040  32.821  30.037  1.00  0.00    -0.248 NA
ATOM     60  C   UNL A   1      39.501  34.463  30.669  1.00  0.00     0.031 C 
ATOM     61  C   UNL A   1      45.453  33.353  30.156  1.00  0.00     0.029 A 
ATOM     62  C   UNL A   1      44.076  33.211  30.139  1.00  0.00     0.049 A 
ATOM     63  H   UNL A   1      42.924  31.532  29.581  1.00  0.00     0.167 HD
ATOM     64  C   UNL A   1      41.729  33.965  30.433  1.00  0.00     0.074 A 
ATOM     65  C   UNL A   1      40.727  34.952  30.782  1.00  0.00     0.031 C 
ATOM     66  C   UNL A   1      43.068  34.182  30.496  1.00  0.00     0.034 A 
BRANCH  53  67
ATOM     67  C   UNL A   1      46.490  29.290  28.774  1.00  0.00     0.023 A 
ATOM     68  C   UNL A   1      47.051  29.114  27.497  1.00  0.00     0.031 A 
ATOM     69  C   UNL A   1      47.224  28.832  29.882  1.00  0.00     0.131 A 
ATOM     70  C   UNL A   1      48.258  28.415  27.351  1.00  0.00     0.055 A 
ATOM     71  C   UNL A   1      48.470  28.217  29.737  1.00  0.00     0.041 A 
ATOM     72  F   UNL A   1      46.734  28.953  31.125  1.00  0.00    -0.206 F 
ATOM     73  C   UNL A   1      48.986  27.987  28.464  1.00  0.00     0.022 A 
BRANCH  70  74
ATOM     74  S   UNL A   1      48.774  27.922  25.683  1.00  0.00     0.124 S 
ATOM     75  O   UNL A   1      50.039  28.639  25.543  1.00  0.00    -0.237 OA
ATOM     76  O   UNL A   1      48.871  26.471  25.799  1.00  0.00    -0.237 OA
ATOM     77  O   UNL A   1      47.691  28.410  24.831  1.00  0.00    -0.744 OA
ENDBRANCH  70  74
ENDBRANCH  53  67
BRANCH  54  78
ATOM     78  C   UNL A   1      37.185  32.785  30.049  1.00  0.00     0.023 A 
ATOM     79  C   UNL A   1      36.680  32.958  31.347  1.00  0.00     0.031 A 
ATOM     80  C   UNL A   1      36.339  33.084  28.966  1.00  0.00     0.131 A 
ATOM     81  C   UNL A   1      35.352  33.375  31.531  1.00  0.00     0.055 A 
ATOM     82  C   UNL A   1      35.035  33.546  29.155  1.00  0.00     0.041 A 
ATOM     83  F   UNL A   1      36.775  32.942  27.704  1.00  0.00    -0.206 F 
ATOM     84  C   UNL A   1      34.531  33.682  30.444  1.00  0.00     0.022 A 
BRANCH  81  85
ATOM     85  S   UNL A   1      34.690  33.439  33.219  1.00  0.00     0.124 S 
ATOM     86  O   UNL A   1      34.823  34.856  33.536  1.00  0.00    -0.237 OA
ATOM     87  O   UNL A   1      33.329  32.950  33.028  1.00  0.00    -0.237 OA
ATOM     88  O   UNL A   1      35.572  32.545  33.965  1.00  0.00    -0.744 OA
ENDBRANCH  81  85
ENDBRANCH  54  78
BRANCH  66  89
ATOM     89  C   UNL A   1      43.518  35.561  30.915  1.00  0.00     0.023 A 
ATOM     90  C   UNL A   1      43.513  35.966  32.260  1.00  0.00     0.031 A 
ATOM     91  C   UNL A   1      43.945  36.487  29.946  1.00  0.00     0.131 A 
ATOM     92  C   UNL A   1      43.874  37.281  32.595  1.00  0.00     0.055 A 
ATOM     93  C   UNL A   1      44.360  37.774  30.291  1.00  0.00     0.041 A 
ATOM     94  F   UNL A   1      43.968  36.153  28.645  1.00  0.00    -0.206 F 
ATOM     95  C   UNL A   1      44.313  38.182  31.621  1.00  0.00     0.022 A 
BRANCH  92  96
ATOM     96  S   UNL A   1      43.679  37.828  34.313  1.00  0.00     0.124 S 
ATOM     97  O   UNL A   1      42.914  36.731  34.897  1.00  0.00    -0.237 OA
ATOM     98  O   UNL A   1      45.063  37.948  34.762  1.00  0.00    -0.237 OA
ATOM     99  O   UNL A   1      42.956  39.092  34.191  1.00  0.00    -0.744 OA
ENDBRANCH  92  96
ENDBRANCH  66  89
ENDBRANCH  40  41
ENDBRANCH  32  35
ENDBRANCH  30  31
ENDBRANCH   1  30
TORSDOF 16
ENDMDL
