MODEL 1
REMARK VINA RESULT:     -10.7      0.000      0.000
REMARK SMILES CN(CC1CCC1)C(=O)N(CC(=O)NCCCCNC(=O)c1ccc(-c2c3nc(c(-c4cc(S(=O)(=O)[O-])ccc4F)c4ccc([nH]4)c(-c4cc(S(=O)(=O)[O-])ccc4F)c4nc(c(-c5cc(S(=O)(=O)[O-])ccc5F)c5ccc2[nH]5)C=C4)C=C3)cc1)C(C)(C)C
REMARK SMILES IDX 15 1 14 2 12 3 13 4 11 6 10 7 8 8 9 9 2 10 1 11 3 12 4 13
REMARK SMILES IDX 5 14 7 15 6 16 85 17 86 18 87 19 88 20 16 21 17 22 18 23
REMARK SMILES IDX 19 24 20 25 21 27 22 28 23 29 84 30 24 31 83 32 25 33 26 34
REMARK SMILES IDX 27 35 77 36 28 37 82 38 76 39 78 40 29 41 81 42 75 43 74 44
REMARK SMILES IDX 30 46 62 47 42 48 61 49 43 50 46 51 60 52 79 53 44 54 45 55
REMARK SMILES IDX 59 57 80 58 47 59 31 60 32 61 40 62 33 63 39 64 41 65 38 66
REMARK SMILES IDX 34 67 35 68 36 69 37 70 63 71 64 72 72 73 65 74 71 75 73 76
REMARK SMILES IDX 70 77 66 78 67 79 68 80 69 81 48 82 49 83 57 84 50 85 56 86
REMARK SMILES IDX 58 87 55 88 51 89 52 90 53 91 54 92
REMARK H PARENT 14 5 19 26 78 45 46 56
REMARK Flexibility Score: inf
ROOT
ATOM      1  C   UNL A   1      32.664  28.893  22.632  1.00  0.00     0.116 C 
ENDROOT
BRANCH   1   2
ATOM      2  N   UNL A   1      33.216  27.695  22.028  1.00  0.00    -0.355 N 
ATOM      3  C   UNL A   1      32.856  26.387  22.123  1.00  0.00     0.239 C 
ATOM      4  O   UNL A   1      33.330  25.627  21.269  1.00  0.00    -0.273 OA
ATOM      5  H   UNL A   1      33.992  27.858  21.443  1.00  0.00     0.163 HD
BRANCH   3   6
ATOM      6  C   UNL A   1      31.792  25.836  23.095  1.00  0.00     0.221 C 
BRANCH   6   7
ATOM      7  N   UNL A   1      32.126  24.826  24.093  1.00  0.00    -0.311 N 
BRANCH   7   8
ATOM      8  C   UNL A   1      32.080  23.443  23.890  1.00  0.00     0.320 C 
ATOM      9  O   UNL A   1      30.984  22.868  23.882  1.00  0.00    -0.248 OA
BRANCH   8  10
ATOM     10  N   UNL A   1      33.208  22.674  23.586  1.00  0.00    -0.327 N 
ATOM     11  C   UNL A   1      33.039  21.245  23.852  1.00  0.00     0.148 C 
BRANCH  10  12
ATOM     12  C   UNL A   1      34.606  23.068  23.307  1.00  0.00     0.124 C 
BRANCH  12  13
ATOM     13  C   UNL A   1      35.470  22.710  24.516  1.00  0.00     0.008 C 
ATOM     14  C   UNL A   1      36.867  22.074  24.212  1.00  0.00     0.005 C 
ATOM     15  C   UNL A   1      36.280  23.756  25.343  1.00  0.00     0.005 C 
ATOM     16  C   UNL A   1      37.301  22.614  25.587  1.00  0.00     0.001 C 
ENDBRANCH  12  13
ENDBRANCH  10  12
ENDBRANCH   8  10
ENDBRANCH   7   8
BRANCH   7  17
ATOM     17  C   UNL A   1      32.316  25.357  25.516  1.00  0.00     0.037 C 
ATOM     18  C   UNL A   1      31.177  26.321  25.903  1.00  0.00     0.034 C 
ATOM     19  C   UNL A   1      32.402  24.214  26.553  1.00  0.00     0.034 C 
ATOM     20  C   UNL A   1      33.632  26.168  25.712  1.00  0.00     0.034 C 
ENDBRANCH   7  17
ENDBRANCH   6   7
ENDBRANCH   3   6
ENDBRANCH   1   2
BRANCH   1  21
ATOM     21  C   UNL A   1      33.007  29.062  24.106  1.00  0.00     0.023 C 
BRANCH  21  22
ATOM     22  C   UNL A   1      31.903  29.693  24.943  1.00  0.00     0.023 C 
BRANCH  22  23
ATOM     23  C   UNL A   1      32.338  30.125  26.335  1.00  0.00     0.116 C 
BRANCH  23  24
ATOM     24  N   UNL A   1      32.154  31.554  26.558  1.00  0.00    -0.352 N 
ATOM     25  C   UNL A   1      32.922  32.412  27.311  1.00  0.00     0.251 C 
ATOM     26  H   UNL A   1      31.378  31.960  26.110  1.00  0.00     0.163 HD
ATOM     27  O   UNL A   1      32.527  33.549  27.551  1.00  0.00    -0.269 OA
BRANCH  25  28
ATOM     28  C   UNL A   1      34.207  31.927  27.848  1.00  0.00     0.039 A 
ATOM     29  C   UNL A   1      35.244  32.833  28.075  1.00  0.00     0.014 A 
ATOM     30  C   UNL A   1      34.346  30.583  28.204  1.00  0.00     0.014 A 
ATOM     31  C   UNL A   1      36.395  32.401  28.737  1.00  0.00     0.010 A 
ATOM     32  C   UNL A   1      35.445  30.184  28.952  1.00  0.00     0.010 A 
ATOM     33  C   UNL A   1      36.485  31.086  29.222  1.00  0.00    -0.014 A 
BRANCH  33  34
ATOM     34  C   UNL A   1      37.664  30.617  29.995  1.00  0.00     0.031 A 
ATOM     35  C   UNL A   1      38.650  29.681  29.351  1.00  0.00     0.074 A 
ATOM     36  C   UNL A   1      37.808  30.969  31.287  1.00  0.00     0.049 A 
ATOM     37  N   UNL A   1      39.690  29.083  29.872  1.00  0.00    -0.248 NA
ATOM     38  C   UNL A   1      38.403  29.343  27.942  1.00  0.00     0.031 C 
ATOM     39  C   UNL A   1      36.897  31.839  32.035  1.00  0.00     0.029 A 
ATOM     40  N   UNL A   1      38.773  30.637  32.203  1.00  0.00    -0.354 N 
ATOM     41  C   UNL A   1      40.212  28.289  28.857  1.00  0.00     0.074 A 
ATOM     42  C   UNL A   1      39.318  28.413  27.727  1.00  0.00     0.031 C 
ATOM     43  C   UNL A   1      37.372  32.005  33.280  1.00  0.00     0.029 A 
ATOM     44  C   UNL A   1      38.589  31.217  33.437  1.00  0.00     0.049 A 
ATOM     45  H   UNL A   1      39.527  30.039  31.996  1.00  0.00     0.167 HD
ATOM     46  C   UNL A   1      41.352  27.552  28.854  1.00  0.00     0.034 A 
ATOM     47  C   UNL A   1      39.318  31.119  34.565  1.00  0.00     0.034 A 
ATOM     48  C   UNL A   1      42.232  27.442  29.991  1.00  0.00     0.049 A 
ATOM     49  C   UNL A   1      40.552  30.252  34.562  1.00  0.00     0.074 A 
ATOM     50  C   UNL A   1      43.431  26.760  30.095  1.00  0.00     0.029 A 
ATOM     51  N   UNL A   1      42.002  28.026  31.232  1.00  0.00    -0.354 N 
ATOM     52  N   UNL A   1      41.060  29.539  33.583  1.00  0.00    -0.248 NA
ATOM     53  C   UNL A   1      41.313  30.184  35.816  1.00  0.00     0.031 C 
ATOM     54  C   UNL A   1      43.888  26.872  31.413  1.00  0.00     0.029 A 
ATOM     55  C   UNL A   1      43.018  27.692  32.114  1.00  0.00     0.049 A 
ATOM     56  H   UNL A   1      41.227  28.595  31.452  1.00  0.00     0.167 HD
ATOM     57  C   UNL A   1      42.222  28.966  34.094  1.00  0.00     0.074 A 
ATOM     58  C   UNL A   1      42.340  29.424  35.464  1.00  0.00     0.031 C 
ATOM     59  C   UNL A   1      43.114  28.145  33.484  1.00  0.00     0.034 A 
BRANCH  46  60
ATOM     60  C   UNL A   1      41.675  26.798  27.583  1.00  0.00     0.023 A 
ATOM     61  C   UNL A   1      41.490  25.405  27.488  1.00  0.00     0.031 A 
ATOM     62  C   UNL A   1      42.247  27.456  26.481  1.00  0.00     0.131 A 
ATOM     63  C   UNL A   1      41.980  24.705  26.376  1.00  0.00     0.055 A 
ATOM     64  C   UNL A   1      42.638  26.765  25.330  1.00  0.00     0.041 A 
ATOM     65  F   UNL A   1      42.469  28.780  26.512  1.00  0.00    -0.206 F 
ATOM     66  C   UNL A   1      42.529  25.378  25.284  1.00  0.00     0.022 A 
BRANCH  63  67
ATOM     67  S   UNL A   1      42.081  22.896  26.476  1.00  0.00     0.124 S 
ATOM     68  O   UNL A   1      42.329  22.537  25.081  1.00  0.00    -0.237 OA
ATOM     69  O   UNL A   1      43.194  22.693  27.396  1.00  0.00    -0.237 OA
ATOM     70  O   UNL A   1      40.768  22.507  26.987  1.00  0.00    -0.744 OA
ENDBRANCH  63  67
ENDBRANCH  46  60
BRANCH  47  71
ATOM     71  C   UNL A   1      38.919  31.872  35.788  1.00  0.00     0.023 A 
ATOM     72  C   UNL A   1      38.205  31.238  36.817  1.00  0.00     0.031 A 
ATOM     73  C   UNL A   1      39.225  33.235  35.940  1.00  0.00     0.131 A 
ATOM     74  C   UNL A   1      37.787  31.974  37.936  1.00  0.00     0.055 A 
ATOM     75  C   UNL A   1      38.848  33.953  37.077  1.00  0.00     0.041 A 
ATOM     76  F   UNL A   1      39.911  33.887  34.988  1.00  0.00    -0.206 F 
ATOM     77  C   UNL A   1      38.114  33.324  38.079  1.00  0.00     0.022 A 
BRANCH  74  78
ATOM     78  S   UNL A   1      36.749  31.154  39.176  1.00  0.00     0.124 S 
ATOM     79  O   UNL A   1      36.573  29.831  38.588  1.00  0.00    -0.237 OA
ATOM     80  O   UNL A   1      37.590  31.220  40.367  1.00  0.00    -0.237 OA
ATOM     81  O   UNL A   1      35.548  31.985  39.218  1.00  0.00    -0.744 OA
ENDBRANCH  74  78
ENDBRANCH  47  71
BRANCH  59  82
ATOM     82  C   UNL A   1      44.325  27.732  34.286  1.00  0.00     0.023 A 
ATOM     83  C   UNL A   1      44.350  26.542  35.035  1.00  0.00     0.031 A 
ATOM     84  C   UNL A   1      45.469  28.550  34.307  1.00  0.00     0.131 A 
ATOM     85  C   UNL A   1      45.473  26.232  35.816  1.00  0.00     0.055 A 
ATOM     86  C   UNL A   1      46.608  28.204  35.034  1.00  0.00     0.041 A 
ATOM     87  F   UNL A   1      45.501  29.699  33.612  1.00  0.00    -0.206 F 
ATOM     88  C   UNL A   1      46.609  27.046  35.806  1.00  0.00     0.022 A 
BRANCH  85  89
ATOM     89  S   UNL A   1      45.397  24.795  36.921  1.00  0.00     0.124 S 
ATOM     90  O   UNL A   1      44.928  25.394  38.166  1.00  0.00    -0.237 OA
ATOM     91  O   UNL A   1      44.449  23.924  36.235  1.00  0.00    -0.237 OA
ATOM     92  O   UNL A   1      46.776  24.310  36.948  1.00  0.00    -0.744 OA
ENDBRANCH  85  89
ENDBRANCH  59  82
ENDBRANCH  33  34
ENDBRANCH  25  28
ENDBRANCH  23  24
ENDBRANCH  22  23
ENDBRANCH  21  22
ENDBRANCH   1  21
TORSDOF 20
ENDMDL
MODEL 2
REMARK VINA RESULT:     -10.7      1.184      2.242
REMARK SMILES CN(CC1CCC1)C(=O)N(CC(=O)NCCCCNC(=O)c1ccc(-c2c3nc(c(-c4cc(S(=O)(=O)[O-])ccc4F)c4ccc([nH]4)c(-c4cc(S(=O)(=O)[O-])ccc4F)c4nc(c(-c5cc(S(=O)(=O)[O-])ccc5F)c5ccc2[nH]5)C=C4)C=C3)cc1)C(C)(C)C
REMARK SMILES IDX 15 1 14 2 12 3 13 4 11 6 10 7 8 8 9 9 2 10 1 11 3 12 4 13
REMARK SMILES IDX 5 14 7 15 6 16 85 17 86 18 87 19 88 20 16 21 17 22 18 23
REMARK SMILES IDX 19 24 20 25 21 27 22 28 23 29 84 30 24 31 83 32 25 33 26 34
REMARK SMILES IDX 27 35 77 36 28 37 82 38 76 39 78 40 29 41 81 42 75 43 74 44
REMARK SMILES IDX 30 46 62 47 42 48 61 49 43 50 46 51 60 52 79 53 44 54 45 55
REMARK SMILES IDX 59 57 80 58 47 59 31 60 32 61 40 62 33 63 39 64 41 65 38 66
REMARK SMILES IDX 34 67 35 68 36 69 37 70 63 71 64 72 72 73 65 74 71 75 73 76
REMARK SMILES IDX 70 77 66 78 67 79 68 80 69 81 48 82 49 83 57 84 50 85 56 86
REMARK SMILES IDX 58 87 55 88 51 89 52 90 53 91 54 92
REMARK H PARENT 14 5 19 26 78 45 46 56
REMARK Flexibility Score: inf
ROOT
ATOM      1  C   UNL A   1      31.776  26.846  26.443  1.00  0.00     0.116 C 
ENDROOT
BRANCH   1   2
ATOM      2  N   UNL A   1      31.024  25.631  26.699  1.00  0.00    -0.355 N 
ATOM      3  C   UNL A   1      31.388  24.322  26.670  1.00  0.00     0.239 C 
ATOM      4  O   UNL A   1      30.609  23.527  27.214  1.00  0.00    -0.273 OA
ATOM      5  H   UNL A   1      30.080  25.784  26.936  1.00  0.00     0.163 HD
BRANCH   3   6
ATOM      6  C   UNL A   1      32.748  23.797  26.168  1.00  0.00     0.221 C 
BRANCH   6   7
ATOM      7  N   UNL A   1      32.892  23.204  24.843  1.00  0.00    -0.311 N 
BRANCH   7   8
ATOM      8  C   UNL A   1      32.708  21.852  24.538  1.00  0.00     0.320 C 
ATOM      9  O   UNL A   1      31.953  21.537  23.609  1.00  0.00    -0.248 OA
BRANCH   8  10
ATOM     10  N   UNL A   1      33.419  20.821  25.160  1.00  0.00    -0.327 N 
ATOM     11  C   UNL A   1      34.822  21.146  25.425  1.00  0.00     0.148 C 
BRANCH  10  12
ATOM     12  C   UNL A   1      33.092  19.392  25.348  1.00  0.00     0.124 C 
BRANCH  12  13
ATOM     13  C   UNL A   1      33.724  18.587  24.213  1.00  0.00     0.008 C 
ATOM     14  C   UNL A   1      34.384  17.224  24.605  1.00  0.00     0.005 C 
ATOM     15  C   UNL A   1      32.904  17.738  23.192  1.00  0.00     0.005 C 
ATOM     16  C   UNL A   1      34.137  16.797  23.146  1.00  0.00     0.001 C 
ENDBRANCH  12  13
ENDBRANCH  10  12
ENDBRANCH   8  10
ENDBRANCH   7   8
BRANCH   7  17
ATOM     17  C   UNL A   1      33.509  24.122  23.785  1.00  0.00     0.037 C 
ATOM     18  C   UNL A   1      32.416  24.810  22.944  1.00  0.00     0.034 C 
ATOM     19  C   UNL A   1      34.429  25.192  24.415  1.00  0.00     0.034 C 
ATOM     20  C   UNL A   1      34.416  23.376  22.759  1.00  0.00     0.034 C 
ENDBRANCH   7  17
ENDBRANCH   6   7
ENDBRANCH   3   6
ENDBRANCH   1   2
BRANCH   1  21
ATOM     21  C   UNL A   1      31.328  27.605  25.201  1.00  0.00     0.023 C 
BRANCH  21  22
ATOM     22  C   UNL A   1      31.753  29.066  25.167  1.00  0.00     0.023 C 
BRANCH  22  23
ATOM     23  C   UNL A   1      32.122  29.644  26.525  1.00  0.00     0.116 C 
BRANCH  23  24
ATOM     24  N   UNL A   1      31.927  31.088  26.589  1.00  0.00    -0.352 N 
ATOM     25  C   UNL A   1      32.715  32.036  27.199  1.00  0.00     0.251 C 
ATOM     26  H   UNL A   1      31.124  31.431  26.134  1.00  0.00     0.163 HD
ATOM     27  O   UNL A   1      32.315  33.189  27.323  1.00  0.00    -0.269 OA
BRANCH  25  28
ATOM     28  C   UNL A   1      34.031  31.630  27.726  1.00  0.00     0.039 A 
ATOM     29  C   UNL A   1      35.007  32.599  27.963  1.00  0.00     0.014 A 
ATOM     30  C   UNL A   1      34.260  30.293  28.063  1.00  0.00     0.014 A 
ATOM     31  C   UNL A   1      36.186  32.236  28.617  1.00  0.00     0.010 A 
ATOM     32  C   UNL A   1      35.385  29.958  28.804  1.00  0.00     0.010 A 
ATOM     33  C   UNL A   1      36.364  30.923  29.083  1.00  0.00    -0.014 A 
BRANCH  33  34
ATOM     34  C   UNL A   1      37.574  30.524  29.847  1.00  0.00     0.031 A 
ATOM     35  C   UNL A   1      38.584  29.607  29.213  1.00  0.00     0.074 A 
ATOM     36  C   UNL A   1      37.727  30.920  31.126  1.00  0.00     0.049 A 
ATOM     37  N   UNL A   1      39.655  29.064  29.732  1.00  0.00    -0.248 NA
ATOM     38  C   UNL A   1      38.325  29.216  27.820  1.00  0.00     0.031 C 
ATOM     39  C   UNL A   1      36.797  31.777  31.864  1.00  0.00     0.029 A 
ATOM     40  N   UNL A   1      38.720  30.653  32.032  1.00  0.00    -0.354 N 
ATOM     41  C   UNL A   1      40.189  28.260  28.731  1.00  0.00     0.074 A 
ATOM     42  C   UNL A   1      39.271  28.316  27.615  1.00  0.00     0.031 C 
ATOM     43  C   UNL A   1      37.287  31.999  33.095  1.00  0.00     0.029 A 
ATOM     44  C   UNL A   1      38.536  31.262  33.252  1.00  0.00     0.049 A 
ATOM     45  H   UNL A   1      39.493  30.078  31.829  1.00  0.00     0.167 HD
ATOM     46  C   UNL A   1      41.357  27.567  28.728  1.00  0.00     0.034 A 
ATOM     47  C   UNL A   1      39.289  31.227  34.369  1.00  0.00     0.034 A 
ATOM     48  C   UNL A   1      42.260  27.525  29.851  1.00  0.00     0.049 A 
ATOM     49  C   UNL A   1      40.555  30.408  34.368  1.00  0.00     0.074 A 
ATOM     50  C   UNL A   1      43.487  26.893  29.953  1.00  0.00     0.029 A 
ATOM     51  N   UNL A   1      42.030  28.138  31.078  1.00  0.00    -0.354 N 
ATOM     52  N   UNL A   1      41.073  29.685  33.401  1.00  0.00    -0.248 NA
ATOM     53  C   UNL A   1      41.341  30.407  35.608  1.00  0.00     0.031 C 
ATOM     54  C   UNL A   1      43.962  27.062  31.258  1.00  0.00     0.029 A 
ATOM     55  C   UNL A   1      43.074  27.870  31.950  1.00  0.00     0.049 A 
ATOM     56  H   UNL A   1      41.238  28.683  31.296  1.00  0.00     0.167 HD
ATOM     57  C   UNL A   1      42.264  29.172  33.907  1.00  0.00     0.074 A 
ATOM     58  C   UNL A   1      42.390  29.676  35.259  1.00  0.00     0.031 C 
ATOM     59  C   UNL A   1      43.177  28.368  33.304  1.00  0.00     0.034 A 
BRANCH  46  60
ATOM     60  C   UNL A   1      41.685  26.787  27.474  1.00  0.00     0.023 A 
ATOM     61  C   UNL A   1      41.390  25.416  27.364  1.00  0.00     0.031 A 
ATOM     62  C   UNL A   1      42.372  27.394  26.408  1.00  0.00     0.131 A 
ATOM     63  C   UNL A   1      41.881  24.675  26.279  1.00  0.00     0.055 A 
ATOM     64  C   UNL A   1      42.767  26.672  25.279  1.00  0.00     0.041 A 
ATOM     65  F   UNL A   1      42.702  28.695  26.458  1.00  0.00    -0.206 F 
ATOM     66  C   UNL A   1      42.544  25.299  25.221  1.00  0.00     0.022 A 
BRANCH  63  67
ATOM     67  S   UNL A   1      41.824  22.865  26.377  1.00  0.00     0.124 S 
ATOM     68  O   UNL A   1      40.407  22.600  26.135  1.00  0.00    -0.237 OA
ATOM     69  O   UNL A   1      42.739  22.462  25.316  1.00  0.00    -0.237 OA
ATOM     70  O   UNL A   1      42.278  22.580  27.736  1.00  0.00    -0.744 OA
ENDBRANCH  63  67
ENDBRANCH  46  60
BRANCH  47  71
ATOM     71  C   UNL A   1      38.883  32.001  35.576  1.00  0.00     0.023 A 
ATOM     72  C   UNL A   1      38.239  31.366  36.649  1.00  0.00     0.031 A 
ATOM     73  C   UNL A   1      39.112  33.385  35.669  1.00  0.00     0.131 A 
ATOM     74  C   UNL A   1      37.813  32.118  37.754  1.00  0.00     0.055 A 
ATOM     75  C   UNL A   1      38.728  34.121  36.790  1.00  0.00     0.041 A 
ATOM     76  F   UNL A   1      39.729  34.039  34.672  1.00  0.00    -0.206 F 
ATOM     77  C   UNL A   1      38.064  33.489  37.838  1.00  0.00     0.022 A 
BRANCH  74  78
ATOM     78  S   UNL A   1      36.864  31.286  39.057  1.00  0.00     0.124 S 
ATOM     79  O   UNL A   1      35.681  32.134  39.149  1.00  0.00    -0.237 OA
ATOM     80  O   UNL A   1      36.660  29.960  38.484  1.00  0.00    -0.237 OA
ATOM     81  O   UNL A   1      37.758  31.332  40.211  1.00  0.00    -0.744 OA
ENDBRANCH  74  78
ENDBRANCH  47  71
BRANCH  59  82
ATOM     82  C   UNL A   1      44.417  28.025  34.095  1.00  0.00     0.023 A 
ATOM     83  C   UNL A   1      44.485  26.885  34.915  1.00  0.00     0.031 A 
ATOM     84  C   UNL A   1      45.546  28.862  34.033  1.00  0.00     0.131 A 
ATOM     85  C   UNL A   1      45.635  26.642  35.681  1.00  0.00     0.055 A 
ATOM     86  C   UNL A   1      46.711  28.581  34.747  1.00  0.00     0.041 A 
ATOM     87  F   UNL A   1      45.537  29.967  33.269  1.00  0.00    -0.206 F 
ATOM     88  C   UNL A   1      46.755  27.474  35.588  1.00  0.00     0.022 A 
BRANCH  85  89
ATOM     89  S   UNL A   1      45.616  25.276  36.873  1.00  0.00     0.124 S 
ATOM     90  O   UNL A   1      44.943  24.224  36.118  1.00  0.00    -0.237 OA
ATOM     91  O   UNL A   1      47.037  25.066  37.130  1.00  0.00    -0.237 OA
ATOM     92  O   UNL A   1      44.855  25.813  38.000  1.00  0.00    -0.744 OA
ENDBRANCH  85  89
ENDBRANCH  59  82
ENDBRANCH  33  34
ENDBRANCH  25  28
ENDBRANCH  23  24
ENDBRANCH  22  23
ENDBRANCH  21  22
ENDBRANCH   1  21
TORSDOF 20
ENDMDL
MODEL 3
REMARK VINA RESULT:     -10.6      1.963      2.721
REMARK SMILES CN(CC1CCC1)C(=O)N(CC(=O)NCCCCNC(=O)c1ccc(-c2c3nc(c(-c4cc(S(=O)(=O)[O-])ccc4F)c4ccc([nH]4)c(-c4cc(S(=O)(=O)[O-])ccc4F)c4nc(c(-c5cc(S(=O)(=O)[O-])ccc5F)c5ccc2[nH]5)C=C4)C=C3)cc1)C(C)(C)C
REMARK SMILES IDX 15 1 14 2 12 3 13 4 11 6 10 7 8 8 9 9 2 10 1 11 3 12 4 13
REMARK SMILES IDX 5 14 7 15 6 16 85 17 86 18 87 19 88 20 16 21 17 22 18 23
REMARK SMILES IDX 19 24 20 25 21 27 22 28 23 29 84 30 24 31 83 32 25 33 26 34
REMARK SMILES IDX 27 35 77 36 28 37 82 38 76 39 78 40 29 41 81 42 75 43 74 44
REMARK SMILES IDX 30 46 62 47 42 48 61 49 43 50 46 51 60 52 79 53 44 54 45 55
REMARK SMILES IDX 59 57 80 58 47 59 31 60 32 61 40 62 33 63 39 64 41 65 38 66
REMARK SMILES IDX 34 67 35 68 36 69 37 70 63 71 64 72 72 73 65 74 71 75 73 76
REMARK SMILES IDX 70 77 66 78 67 79 68 80 69 81 48 82 49 83 57 84 50 85 56 86
REMARK SMILES IDX 58 87 55 88 51 89 52 90 53 91 54 92
REMARK H PARENT 14 5 19 26 78 45 46 56
REMARK Flexibility Score: inf
ROOT
ATOM      1  C   UNL A   1      31.295  26.426  25.755  1.00  0.00     0.116 C 
ENDROOT
BRANCH   1   2
ATOM      2  N   UNL A   1      30.695  25.365  26.542  1.00  0.00    -0.355 N 
ATOM      3  C   UNL A   1      30.632  24.021  26.347  1.00  0.00     0.239 C 
ATOM      4  O   UNL A   1      30.308  23.341  27.329  1.00  0.00    -0.273 OA
ATOM      5  H   UNL A   1      30.255  25.674  27.368  1.00  0.00     0.163 HD
BRANCH   3   6
ATOM      6  C   UNL A   1      31.087  23.296  25.064  1.00  0.00     0.221 C 
BRANCH   6   7
ATOM      7  N   UNL A   1      32.501  23.153  24.732  1.00  0.00    -0.311 N 
BRANCH   7   8
ATOM      8  C   UNL A   1      33.540  23.032  25.660  1.00  0.00     0.320 C 
ATOM      9  O   UNL A   1      33.994  24.050  26.198  1.00  0.00    -0.248 OA
BRANCH   8  10
ATOM     10  N   UNL A   1      34.034  21.801  26.102  1.00  0.00    -0.327 N 
ATOM     11  C   UNL A   1      33.931  21.608  27.550  1.00  0.00     0.148 C 
BRANCH  10  12
ATOM     12  C   UNL A   1      34.875  20.792  25.424  1.00  0.00     0.124 C 
BRANCH  12  13
ATOM     13  C   UNL A   1      33.983  19.917  24.543  1.00  0.00     0.008 C 
ATOM     14  C   UNL A   1      34.276  18.380  24.561  1.00  0.00     0.005 C 
ATOM     15  C   UNL A   1      32.527  19.504  24.924  1.00  0.00     0.005 C 
ATOM     16  C   UNL A   1      32.807  18.196  24.138  1.00  0.00     0.001 C 
ENDBRANCH  12  13
ENDBRANCH  10  12
ENDBRANCH   8  10
ENDBRANCH   7   8
BRANCH   7  17
ATOM     17  C   UNL A   1      32.848  23.385  23.260  1.00  0.00     0.037 C 
ATOM     18  C   UNL A   1      32.133  24.636  22.713  1.00  0.00     0.034 C 
ATOM     19  C   UNL A   1      34.372  23.521  23.041  1.00  0.00     0.034 C 
ATOM     20  C   UNL A   1      32.417  22.216  22.322  1.00  0.00     0.034 C 
ENDBRANCH   7  17
ENDBRANCH   6   7
ENDBRANCH   3   6
ENDBRANCH   1   2
BRANCH   1  21
ATOM     21  C   UNL A   1      31.893  27.555  26.585  1.00  0.00     0.023 C 
BRANCH  21  22
ATOM     22  C   UNL A   1      31.582  28.952  26.066  1.00  0.00     0.023 C 
BRANCH  22  23
ATOM     23  C   UNL A   1      32.789  29.875  25.986  1.00  0.00     0.116 C 
BRANCH  23  24
ATOM     24  N   UNL A   1      32.467  31.247  26.356  1.00  0.00    -0.352 N 
ATOM     25  C   UNL A   1      33.134  32.083  27.223  1.00  0.00     0.251 C 
ATOM     26  H   UNL A   1      31.666  31.628  25.930  1.00  0.00     0.163 HD
ATOM     27  O   UNL A   1      32.629  33.146  27.571  1.00  0.00    -0.269 OA
BRANCH  25  28
ATOM     28  C   UNL A   1      34.447  31.660  27.745  1.00  0.00     0.039 A 
ATOM     29  C   UNL A   1      35.456  32.607  27.919  1.00  0.00     0.014 A 
ATOM     30  C   UNL A   1      34.640  30.334  28.140  1.00  0.00     0.014 A 
ATOM     31  C   UNL A   1      36.636  32.238  28.568  1.00  0.00     0.010 A 
ATOM     32  C   UNL A   1      35.768  29.997  28.875  1.00  0.00     0.010 A 
ATOM     33  C   UNL A   1      36.782  30.943  29.092  1.00  0.00    -0.014 A 
BRANCH  33  34
ATOM     34  C   UNL A   1      37.993  30.540  29.853  1.00  0.00     0.031 A 
ATOM     35  C   UNL A   1      38.993  29.611  29.220  1.00  0.00     0.074 A 
ATOM     36  C   UNL A   1      38.156  30.945  31.127  1.00  0.00     0.049 A 
ATOM     37  N   UNL A   1      40.064  29.065  29.736  1.00  0.00    -0.248 NA
ATOM     38  C   UNL A   1      38.724  29.212  27.831  1.00  0.00     0.031 C 
ATOM     39  C   UNL A   1      37.236  31.814  31.864  1.00  0.00     0.029 A 
ATOM     40  N   UNL A   1      39.152  30.678  32.030  1.00  0.00    -0.354 N 
ATOM     41  C   UNL A   1      40.586  28.250  28.739  1.00  0.00     0.074 A 
ATOM     42  C   UNL A   1      39.662  28.303  27.627  1.00  0.00     0.031 C 
ATOM     43  C   UNL A   1      37.735  32.041  33.091  1.00  0.00     0.029 A 
ATOM     44  C   UNL A   1      38.979  31.297  33.246  1.00  0.00     0.049 A 
ATOM     45  H   UNL A   1      39.920  30.096  31.827  1.00  0.00     0.167 HD
ATOM     46  C   UNL A   1      41.749  27.549  28.735  1.00  0.00     0.034 A 
ATOM     47  C   UNL A   1      39.738  31.265  34.359  1.00  0.00     0.034 A 
ATOM     48  C   UNL A   1      42.658  27.509  29.853  1.00  0.00     0.049 A 
ATOM     49  C   UNL A   1      40.998  30.437  34.357  1.00  0.00     0.074 A 
ATOM     50  C   UNL A   1      43.881  26.869  29.953  1.00  0.00     0.029 A 
ATOM     51  N   UNL A   1      42.439  28.132  31.077  1.00  0.00    -0.354 N 
ATOM     52  N   UNL A   1      41.505  29.703  33.393  1.00  0.00    -0.248 NA
ATOM     53  C   UNL A   1      41.791  30.440  35.593  1.00  0.00     0.031 C 
ATOM     54  C   UNL A   1      44.364  27.044  31.254  1.00  0.00     0.029 A 
ATOM     55  C   UNL A   1      43.486  27.863  31.945  1.00  0.00     0.049 A 
ATOM     56  H   UNL A   1      41.652  28.685  31.295  1.00  0.00     0.167 HD
ATOM     57  C   UNL A   1      42.696  29.186  33.896  1.00  0.00     0.074 A 
ATOM     58  C   UNL A   1      42.833  29.699  35.244  1.00  0.00     0.031 C 
ATOM     59  C   UNL A   1      43.600  28.371  33.295  1.00  0.00     0.034 A 
BRANCH  46  60
ATOM     60  C   UNL A   1      42.065  26.757  27.485  1.00  0.00     0.023 A 
ATOM     61  C   UNL A   1      41.694  25.405  27.359  1.00  0.00     0.031 A 
ATOM     62  C   UNL A   1      42.813  27.328  26.441  1.00  0.00     0.131 A 
ATOM     63  C   UNL A   1      42.170  24.643  26.282  1.00  0.00     0.055 A 
ATOM     64  C   UNL A   1      43.195  26.591  25.318  1.00  0.00     0.041 A 
ATOM     65  F   UNL A   1      43.216  28.608  26.507  1.00  0.00    -0.206 F 
ATOM     66  C   UNL A   1      42.896  25.233  25.246  1.00  0.00     0.022 A 
BRANCH  63  67
ATOM     67  S   UNL A   1      42.007  22.838  26.367  1.00  0.00     0.124 S 
ATOM     68  O   UNL A   1      40.558  22.678  26.474  1.00  0.00    -0.237 OA
ATOM     69  O   UNL A   1      42.608  22.407  25.111  1.00  0.00    -0.237 OA
ATOM     70  O   UNL A   1      42.755  22.483  27.572  1.00  0.00    -0.744 OA
ENDBRANCH  63  67
ENDBRANCH  46  60
BRANCH  47  71
ATOM     71  C   UNL A   1      39.344  32.051  35.563  1.00  0.00     0.023 A 
ATOM     72  C   UNL A   1      38.572  31.465  36.578  1.00  0.00     0.031 A 
ATOM     73  C   UNL A   1      39.713  33.399  35.709  1.00  0.00     0.131 A 
ATOM     74  C   UNL A   1      38.161  32.234  37.677  1.00  0.00     0.055 A 
ATOM     75  C   UNL A   1      39.342  34.148  36.827  1.00  0.00     0.041 A 
ATOM     76  F   UNL A   1      40.457  34.005  34.770  1.00  0.00    -0.206 F 
ATOM     77  C   UNL A   1      38.552  33.568  37.816  1.00  0.00     0.022 A 
BRANCH  74  78
ATOM     78  S   UNL A   1      37.051  31.481  38.898  1.00  0.00     0.124 S 
ATOM     79  O   UNL A   1      35.884  32.351  38.814  1.00  0.00    -0.237 OA
ATOM     80  O   UNL A   1      36.886  30.132  38.366  1.00  0.00    -0.237 OA
ATOM     81  O   UNL A   1      37.808  31.566  40.145  1.00  0.00    -0.744 OA
ENDBRANCH  74  78
ENDBRANCH  47  71
BRANCH  59  82
ATOM     82  C   UNL A   1      44.842  28.025  34.082  1.00  0.00     0.023 A 
ATOM     83  C   UNL A   1      46.002  28.819  34.027  1.00  0.00     0.031 A 
ATOM     84  C   UNL A   1      44.865  26.876  34.891  1.00  0.00     0.131 A 
ATOM     85  C   UNL A   1      47.152  28.423  34.724  1.00  0.00     0.055 A 
ATOM     86  C   UNL A   1      45.992  26.521  35.634  1.00  0.00     0.041 A 
ATOM     87  F   UNL A   1      43.788  26.079  34.979  1.00  0.00    -0.206 F 
ATOM     88  C   UNL A   1      47.149  27.289  35.542  1.00  0.00     0.022 A 
BRANCH  85  89
ATOM     89  S   UNL A   1      48.687  29.358  34.478  1.00  0.00     0.124 S 
ATOM     90  O   UNL A   1      49.187  29.484  35.843  1.00  0.00    -0.237 OA
ATOM     91  O   UNL A   1      49.450  28.480  33.597  1.00  0.00    -0.237 OA
ATOM     92  O   UNL A   1      48.233  30.606  33.866  1.00  0.00    -0.744 OA
ENDBRANCH  85  89
ENDBRANCH  59  82
ENDBRANCH  33  34
ENDBRANCH  25  28
ENDBRANCH  23  24
ENDBRANCH  22  23
ENDBRANCH  21  22
ENDBRANCH   1  21
TORSDOF 20
ENDMDL
