MODEL 1
REMARK VINA RESULT:     -11.0      0.000      0.000
REMARK SMILES COc1cc2c(cc1OC)-c1c(c(C(=O)Nc3ccc(C(=O)NCCCCNC(=O)c4ccc(-c5c6nc(c(-c7cc(S(=O)(=O)[O-])ccc7F)c7ccc([nH]7)c(-c7cc(S(=O)(=O)[O-])ccc7F)c7nc(c(-c8cc(S(=O)(=O)[O-])ccc8F)c8ccc5[nH]8)C=C7)C=C6)cc4)cc3)nn1-c1ccc(F)cc1)C2
REMARK SMILES IDX 25 1 24 2 23 3 21 4 22 5 20 7 17 8 18 9 95 10 19 11 94 12
REMARK SMILES IDX 16 13 14 14 15 15 13 17 3 18 4 19 8 20 5 21 7 22 6 23 105 24
REMARK SMILES IDX 11 25 12 26 97 27 96 28 2 29 1 30 9 31 10 32 98 33 99 34
REMARK SMILES IDX 104 35 100 36 103 37 101 38 102 39 26 40 27 41 28 42 29 43
REMARK SMILES IDX 30 45 31 46 32 47 93 48 33 49 92 50 34 51 35 52 36 53 86 54
REMARK SMILES IDX 37 55 91 56 85 57 87 58 38 59 90 60 84 61 83 62 39 64 71 65
REMARK SMILES IDX 51 66 70 67 52 68 55 69 69 70 88 71 53 72 54 73 68 75 89 76
REMARK SMILES IDX 56 77 40 78 41 79 49 80 42 81 48 82 50 83 47 84 43 85 44 86
REMARK SMILES IDX 45 87 46 88 72 89 73 90 81 91 74 92 80 93 82 94 79 95 75 96
REMARK SMILES IDX 76 97 77 98 78 99 57 100 58 101 66 102 59 103 65 104 67 105
REMARK SMILES IDX 64 106 60 107 61 108 62 109 63 110
REMARK H PARENT 23 6 16 16 28 44 87 63 55 74
REMARK Flexibility Score: inf
ROOT
ATOM      1  C   UNL A   1      36.236  34.049  33.295  1.00  0.00     0.023 C 
ENDROOT
BRANCH   1   2
ATOM      2  C   UNL A   1      37.569  33.326  33.136  1.00  0.00     0.116 C 
BRANCH   2   3
ATOM      3  N   UNL A   1      38.736  33.983  33.696  1.00  0.00    -0.352 N 
ATOM      4  C   UNL A   1      39.930  34.360  33.110  1.00  0.00     0.251 C 
ATOM      5  O   UNL A   1      40.708  35.037  33.783  1.00  0.00    -0.269 OA
ATOM      6  H   UNL A   1      38.666  34.195  34.655  1.00  0.00     0.163 HD
BRANCH   4   7
ATOM      7  C   UNL A   1      40.396  33.833  31.784  1.00  0.00     0.039 A 
ATOM      8  C   UNL A   1      42.093  33.814  29.592  1.00  0.00     0.041 A 
ATOM      9  C   UNL A   1      40.965  34.614  29.557  1.00  0.00     0.027 A 
ATOM     10  C   UNL A   1      42.157  32.778  30.524  1.00  0.00     0.027 A 
ATOM     11  C   UNL A   1      40.098  34.613  30.658  1.00  0.00     0.016 A 
ATOM     12  C   UNL A   1      41.291  32.781  31.620  1.00  0.00     0.016 A 
BRANCH   8  13
ATOM     13  N   UNL A   1      43.174  33.986  28.735  1.00  0.00    -0.321 N 
ATOM     14  C   UNL A   1      43.654  35.068  28.019  1.00  0.00     0.276 C 
ATOM     15  O   UNL A   1      44.449  34.756  27.120  1.00  0.00    -0.267 OA
ATOM     16  H   UNL A   1      43.710  33.170  28.614  1.00  0.00     0.170 HD
BRANCH  14  17
ATOM     17  C   UNL A   1      43.418  36.508  28.363  1.00  0.00     0.155 A 
ATOM     18  C   UNL A   1      43.344  40.697  32.715  1.00  0.00     0.161 A 
ATOM     19  C   UNL A   1      43.747  39.355  32.585  1.00  0.00     0.055 A 
ATOM     20  C   UNL A   1      42.910  41.436  31.594  1.00  0.00     0.161 A 
ATOM     21  C   UNL A   1      43.718  38.769  31.324  1.00  0.00    -0.030 A 
ATOM     22  C   UNL A   1      42.862  40.816  30.338  1.00  0.00     0.061 A 
ATOM     23  C   UNL A   1      43.295  39.515  30.214  1.00  0.00     0.008 A 
ATOM     24  C   UNL A   1      43.969  37.295  30.977  1.00  0.00     0.076 C 
ATOM     25  C   UNL A   1      43.316  38.596  29.122  1.00  0.00     0.079 A 
ATOM     26  C   UNL A   1      43.614  37.320  29.522  1.00  0.00     0.016 A 
ATOM     27  N   UNL A   1      43.057  38.589  27.798  1.00  0.00    -0.232 N 
ATOM     28  N   UNL A   1      42.951  37.312  27.354  1.00  0.00    -0.162 NA
BRANCH  18  29
ATOM     29  O   UNL A   1      43.476  41.269  33.952  1.00  0.00    -0.493 OA
ATOM     30  C   UNL A   1      44.720  41.951  34.102  1.00  0.00     0.278 C 
ENDBRANCH  18  29
BRANCH  20  31
ATOM     31  O   UNL A   1      42.493  42.737  31.522  1.00  0.00    -0.493 OA
ATOM     32  C   UNL A   1      43.380  43.729  31.039  1.00  0.00     0.278 C 
ENDBRANCH  20  31
BRANCH  27  33
ATOM     33  C   UNL A   1      42.863  39.720  26.976  1.00  0.00     0.065 A 
ATOM     34  C   UNL A   1      43.965  40.434  26.501  1.00  0.00     0.031 A 
ATOM     35  C   UNL A   1      41.563  40.047  26.549  1.00  0.00     0.031 A 
ATOM     36  C   UNL A   1      43.769  41.393  25.503  1.00  0.00     0.041 A 
ATOM     37  C   UNL A   1      41.375  41.021  25.573  1.00  0.00     0.041 A 
ATOM     38  C   UNL A   1      42.483  41.665  25.039  1.00  0.00     0.123 A 
ATOM     39  F   UNL A   1      42.312  42.552  24.050  1.00  0.00    -0.207 F 
ENDBRANCH  27  33
ENDBRANCH  14  17
ENDBRANCH   8  13
ENDBRANCH   4   7
ENDBRANCH   2   3
ENDBRANCH   1   2
BRANCH   1  40
ATOM     40  C   UNL A   1      35.264  34.057  32.120  1.00  0.00     0.023 C 
BRANCH  40  41
ATOM     41  C   UNL A   1      35.013  32.729  31.409  1.00  0.00     0.116 C 
BRANCH  41  42
ATOM     42  N   UNL A   1      34.740  32.813  29.990  1.00  0.00    -0.352 N 
ATOM     43  C   UNL A   1      35.202  32.164  28.877  1.00  0.00     0.251 C 
ATOM     44  H   UNL A   1      34.066  33.497  29.776  1.00  0.00     0.163 HD
ATOM     45  O   UNL A   1      34.541  32.341  27.849  1.00  0.00    -0.269 OA
BRANCH  43  46
ATOM     46  C   UNL A   1      36.449  31.356  28.805  1.00  0.00     0.039 A 
ATOM     47  C   UNL A   1      36.517  30.003  28.475  1.00  0.00     0.014 A 
ATOM     48  C   UNL A   1      37.635  32.016  29.182  1.00  0.00     0.014 A 
ATOM     49  C   UNL A   1      37.700  29.294  28.656  1.00  0.00     0.010 A 
ATOM     50  C   UNL A   1      38.829  31.320  29.331  1.00  0.00     0.010 A 
ATOM     51  C   UNL A   1      38.843  29.944  29.129  1.00  0.00    -0.014 A 
BRANCH  51  52
ATOM     52  C   UNL A   1      40.051  29.143  29.322  1.00  0.00     0.031 A 
ATOM     53  C   UNL A   1      40.374  28.824  30.743  1.00  0.00     0.074 A 
ATOM     54  C   UNL A   1      40.763  28.631  28.299  1.00  0.00     0.049 A 
ATOM     55  N   UNL A   1      41.423  29.153  31.429  1.00  0.00    -0.248 NA
ATOM     56  C   UNL A   1      39.328  28.162  31.537  1.00  0.00     0.031 C 
ATOM     57  C   UNL A   1      40.392  28.594  26.880  1.00  0.00     0.029 A 
ATOM     58  N   UNL A   1      41.924  27.918  28.327  1.00  0.00    -0.354 N 
ATOM     59  C   UNL A   1      41.256  28.574  32.691  1.00  0.00     0.074 A 
ATOM     60  C   UNL A   1      39.891  28.119  32.743  1.00  0.00     0.031 C 
ATOM     61  C   UNL A   1      41.162  27.685  26.243  1.00  0.00     0.029 A 
ATOM     62  C   UNL A   1      42.170  27.195  27.167  1.00  0.00     0.049 A 
ATOM     63  H   UNL A   1      42.533  27.914  29.101  1.00  0.00     0.167 HD
ATOM     64  C   UNL A   1      42.308  28.337  33.528  1.00  0.00     0.034 A 
ATOM     65  C   UNL A   1      43.066  26.189  27.008  1.00  0.00     0.034 A 
ATOM     66  C   UNL A   1      43.478  29.059  33.114  1.00  0.00     0.049 A 
ATOM     67  C   UNL A   1      44.050  26.261  28.112  1.00  0.00     0.074 A 
ATOM     68  C   UNL A   1      43.834  30.387  33.023  1.00  0.00     0.029 A 
ATOM     69  N   UNL A   1      44.425  28.360  32.408  1.00  0.00    -0.354 N 
ATOM     70  N   UNL A   1      44.943  27.200  28.246  1.00  0.00    -0.248 NA
ATOM     71  C   UNL A   1      43.767  25.491  29.314  1.00  0.00     0.031 C 
ATOM     72  C   UNL A   1      44.708  30.459  31.903  1.00  0.00     0.029 A 
ATOM     73  C   UNL A   1      44.873  29.166  31.398  1.00  0.00     0.049 A 
ATOM     74  H   UNL A   1      44.726  27.443  32.595  1.00  0.00     0.167 HD
ATOM     75  C   UNL A   1      44.988  27.442  29.610  1.00  0.00     0.074 A 
ATOM     76  C   UNL A   1      44.338  26.285  30.222  1.00  0.00     0.031 C 
ATOM     77  C   UNL A   1      45.287  28.681  30.098  1.00  0.00     0.034 A 
BRANCH  64  78
ATOM     78  C   UNL A   1      42.391  27.178  34.500  1.00  0.00     0.023 A 
ATOM     79  C   UNL A   1      43.167  26.030  34.262  1.00  0.00     0.031 A 
ATOM     80  C   UNL A   1      41.896  27.317  35.816  1.00  0.00     0.131 A 
ATOM     81  C   UNL A   1      43.447  25.106  35.278  1.00  0.00     0.055 A 
ATOM     82  C   UNL A   1      42.230  26.430  36.848  1.00  0.00     0.041 A 
ATOM     83  F   UNL A   1      41.127  28.362  36.162  1.00  0.00    -0.206 F 
ATOM     84  C   UNL A   1      43.018  25.320  36.583  1.00  0.00     0.022 A 
BRANCH  81  85
ATOM     85  S   UNL A   1      44.412  23.615  34.910  1.00  0.00     0.124 S 
ATOM     86  O   UNL A   1      45.301  24.092  33.848  1.00  0.00    -0.237 OA
ATOM     87  O   UNL A   1      45.057  23.357  36.198  1.00  0.00    -0.237 OA
ATOM     88  O   UNL A   1      43.409  22.645  34.514  1.00  0.00    -0.744 OA
ENDBRANCH  81  85
ENDBRANCH  64  78
BRANCH  65  89
ATOM     89  C   UNL A   1      42.829  24.926  26.269  1.00  0.00     0.023 A 
ATOM     90  C   UNL A   1      41.794  24.065  26.682  1.00  0.00     0.031 A 
ATOM     91  C   UNL A   1      43.784  24.409  25.378  1.00  0.00     0.131 A 
ATOM     92  C   UNL A   1      41.761  22.733  26.254  1.00  0.00     0.055 A 
ATOM     93  C   UNL A   1      43.740  23.080  24.938  1.00  0.00     0.041 A 
ATOM     94  F   UNL A   1      44.817  25.164  24.974  1.00  0.00    -0.206 F 
ATOM     95  C   UNL A   1      42.733  22.230  25.388  1.00  0.00     0.022 A 
BRANCH  92  96
ATOM     96  S   UNL A   1      40.494  21.602  26.889  1.00  0.00     0.124 S 
ATOM     97  O   UNL A   1      39.257  22.279  26.507  1.00  0.00    -0.237 OA
ATOM     98  O   UNL A   1      40.794  20.377  26.156  1.00  0.00    -0.237 OA
ATOM     99  O   UNL A   1      40.757  21.565  28.325  1.00  0.00    -0.744 OA
ENDBRANCH  92  96
ENDBRANCH  65  89
BRANCH  77 100
ATOM    100  C   UNL A   1      45.855  29.722  29.164  1.00  0.00     0.023 A 
ATOM    101  C   UNL A   1      47.239  29.958  29.244  1.00  0.00     0.031 A 
ATOM    102  C   UNL A   1      45.081  30.625  28.410  1.00  0.00     0.131 A 
ATOM    103  C   UNL A   1      47.800  31.086  28.638  1.00  0.00     0.055 A 
ATOM    104  C   UNL A   1      45.660  31.708  27.742  1.00  0.00     0.041 A 
ATOM    105  F   UNL A   1      43.745  30.544  28.374  1.00  0.00    -0.206 F 
ATOM    106  C   UNL A   1      47.023  31.956  27.870  1.00  0.00     0.022 A 
BRANCH 103 107
ATOM    107  S   UNL A   1      49.517  31.544  28.987  1.00  0.00     0.124 S 
ATOM    108  O   UNL A   1      49.369  32.460  30.114  1.00  0.00    -0.237 OA
ATOM    109  O   UNL A   1      50.124  30.252  29.305  1.00  0.00    -0.237 OA
ATOM    110  O   UNL A   1      49.983  32.151  27.744  1.00  0.00    -0.744 OA
ENDBRANCH 103 107
ENDBRANCH  77 100
ENDBRANCH  51  52
ENDBRANCH  43  46
ENDBRANCH  41  42
ENDBRANCH  40  41
ENDBRANCH   1  40
TORSDOF 19
ENDMDL
MODEL 2
REMARK VINA RESULT:     -10.7      1.968      2.536
REMARK SMILES COc1cc2c(cc1OC)-c1c(c(C(=O)Nc3ccc(C(=O)NCCCCNC(=O)c4ccc(-c5c6nc(c(-c7cc(S(=O)(=O)[O-])ccc7F)c7ccc([nH]7)c(-c7cc(S(=O)(=O)[O-])ccc7F)c7nc(c(-c8cc(S(=O)(=O)[O-])ccc8F)c8ccc5[nH]8)C=C7)C=C6)cc4)cc3)nn1-c1ccc(F)cc1)C2
REMARK SMILES IDX 25 1 24 2 23 3 21 4 22 5 20 7 17 8 18 9 95 10 19 11 94 12
REMARK SMILES IDX 16 13 14 14 15 15 13 17 3 18 4 19 8 20 5 21 7 22 6 23 105 24
REMARK SMILES IDX 11 25 12 26 97 27 96 28 2 29 1 30 9 31 10 32 98 33 99 34
REMARK SMILES IDX 104 35 100 36 103 37 101 38 102 39 26 40 27 41 28 42 29 43
REMARK SMILES IDX 30 45 31 46 32 47 93 48 33 49 92 50 34 51 35 52 36 53 86 54
REMARK SMILES IDX 37 55 91 56 85 57 87 58 38 59 90 60 84 61 83 62 39 64 71 65
REMARK SMILES IDX 51 66 70 67 52 68 55 69 69 70 88 71 53 72 54 73 68 75 89 76
REMARK SMILES IDX 56 77 40 78 41 79 49 80 42 81 48 82 50 83 47 84 43 85 44 86
REMARK SMILES IDX 45 87 46 88 72 89 73 90 81 91 74 92 80 93 82 94 79 95 75 96
REMARK SMILES IDX 76 97 77 98 78 99 57 100 58 101 66 102 59 103 65 104 67 105
REMARK SMILES IDX 64 106 60 107 61 108 62 109 63 110
REMARK H PARENT 23 6 16 16 28 44 87 63 55 74
REMARK Flexibility Score: inf
ROOT
ATOM      1  C   UNL A   1      36.596  33.958  32.212  1.00  0.00     0.023 C 
ENDROOT
BRANCH   1   2
ATOM      2  C   UNL A   1      37.637  33.066  32.879  1.00  0.00     0.116 C 
BRANCH   2   3
ATOM      3  N   UNL A   1      38.731  33.737  33.556  1.00  0.00    -0.352 N 
ATOM      4  C   UNL A   1      39.881  34.321  33.059  1.00  0.00     0.251 C 
ATOM      5  O   UNL A   1      40.587  34.955  33.844  1.00  0.00    -0.269 OA
ATOM      6  H   UNL A   1      38.639  33.784  34.535  1.00  0.00     0.163 HD
BRANCH   4   7
ATOM      7  C   UNL A   1      40.399  34.062  31.674  1.00  0.00     0.039 A 
ATOM      8  C   UNL A   1      41.795  34.773  29.386  1.00  0.00     0.041 A 
ATOM      9  C   UNL A   1      40.451  35.091  29.475  1.00  0.00     0.027 A 
ATOM     10  C   UNL A   1      42.316  33.800  30.238  1.00  0.00     0.027 A 
ATOM     11  C   UNL A   1      39.741  34.719  30.624  1.00  0.00     0.016 A 
ATOM     12  C   UNL A   1      41.605  33.432  31.383  1.00  0.00     0.016 A 
BRANCH   8  13
ATOM     13  N   UNL A   1      42.660  35.374  28.479  1.00  0.00    -0.321 N 
ATOM     14  C   UNL A   1      43.179  36.652  28.366  1.00  0.00     0.276 C 
ATOM     15  O   UNL A   1      43.659  36.896  27.250  1.00  0.00    -0.267 OA
ATOM     16  H   UNL A   1      42.968  34.765  27.771  1.00  0.00     0.170 HD
BRANCH  14  17
ATOM     17  C   UNL A   1      43.339  37.625  29.496  1.00  0.00     0.155 A 
ATOM     18  C   UNL A   1      44.605  38.370  35.356  1.00  0.00     0.161 A 
ATOM     19  C   UNL A   1      44.644  37.319  34.419  1.00  0.00     0.055 A 
ATOM     20  C   UNL A   1      44.304  39.688  34.954  1.00  0.00     0.161 A 
ATOM     21  C   UNL A   1      44.388  37.607  33.084  1.00  0.00    -0.030 A 
ATOM     22  C   UNL A   1      44.021  39.949  33.607  1.00  0.00     0.061 A 
ATOM     23  C   UNL A   1      44.101  38.923  32.692  1.00  0.00     0.008 A 
ATOM     24  C   UNL A   1      44.234  36.607  31.929  1.00  0.00     0.076 C 
ATOM     25  C   UNL A   1      43.819  38.840  31.296  1.00  0.00     0.079 A 
ATOM     26  C   UNL A   1      43.806  37.547  30.843  1.00  0.00     0.016 A 
ATOM     27  N   UNL A   1      43.485  39.661  30.278  1.00  0.00    -0.232 N 
ATOM     28  N   UNL A   1      43.030  38.934  29.228  1.00  0.00    -0.162 NA
BRANCH  18  29
ATOM     29  O   UNL A   1      44.955  38.067  36.645  1.00  0.00    -0.493 OA
ATOM     30  C   UNL A   1      46.369  37.986  36.816  1.00  0.00     0.278 C 
ENDBRANCH  18  29
BRANCH  20  31
ATOM     31  O   UNL A   1      44.227  40.828  35.708  1.00  0.00    -0.493 OA
ATOM     32  C   UNL A   1      43.661  41.999  35.147  1.00  0.00     0.278 C 
ENDBRANCH  20  31
BRANCH  27  33
ATOM     33  C   UNL A   1      43.533  41.072  30.288  1.00  0.00     0.065 A 
ATOM     34  C   UNL A   1      42.524  41.799  30.923  1.00  0.00     0.031 A 
ATOM     35  C   UNL A   1      44.660  41.727  29.759  1.00  0.00     0.031 A 
ATOM     36  C   UNL A   1      42.708  43.168  31.133  1.00  0.00     0.041 A 
ATOM     37  C   UNL A   1      44.824  43.095  29.952  1.00  0.00     0.041 A 
ATOM     38  C   UNL A   1      43.860  43.798  30.662  1.00  0.00     0.123 A 
ATOM     39  F   UNL A   1      44.048  45.101  30.910  1.00  0.00    -0.207 F 
ENDBRANCH  27  33
ENDBRANCH  14  17
ENDBRANCH   8  13
ENDBRANCH   4   7
ENDBRANCH   2   3
ENDBRANCH   1   2
BRANCH   1  40
ATOM     40  C   UNL A   1      35.149  33.480  32.160  1.00  0.00     0.023 C 
BRANCH  40  41
ATOM     41  C   UNL A   1      34.826  32.323  31.217  1.00  0.00     0.116 C 
BRANCH  41  42
ATOM     42  N   UNL A   1      34.753  32.656  29.810  1.00  0.00    -0.352 N 
ATOM     43  C   UNL A   1      35.389  32.219  28.680  1.00  0.00     0.251 C 
ATOM     44  H   UNL A   1      34.092  33.360  29.623  1.00  0.00     0.163 HD
ATOM     45  O   UNL A   1      34.874  32.569  27.614  1.00  0.00    -0.269 OA
BRANCH  43  46
ATOM     46  C   UNL A   1      36.661  31.447  28.650  1.00  0.00     0.039 A 
ATOM     47  C   UNL A   1      36.811  30.156  28.145  1.00  0.00     0.014 A 
ATOM     48  C   UNL A   1      37.771  32.064  29.258  1.00  0.00     0.014 A 
ATOM     49  C   UNL A   1      37.987  29.447  28.368  1.00  0.00     0.010 A 
ATOM     50  C   UNL A   1      38.961  31.372  29.454  1.00  0.00     0.010 A 
ATOM     51  C   UNL A   1      39.043  30.039  29.064  1.00  0.00    -0.014 A 
BRANCH  51  52
ATOM     52  C   UNL A   1      40.244  29.237  29.291  1.00  0.00     0.031 A 
ATOM     53  C   UNL A   1      40.512  28.893  30.718  1.00  0.00     0.074 A 
ATOM     54  C   UNL A   1      40.997  28.744  28.287  1.00  0.00     0.049 A 
ATOM     55  N   UNL A   1      41.533  29.211  31.449  1.00  0.00    -0.248 NA
ATOM     56  C   UNL A   1      39.437  28.216  31.458  1.00  0.00     0.031 C 
ATOM     57  C   UNL A   1      40.681  28.732  26.854  1.00  0.00     0.029 A 
ATOM     58  N   UNL A   1      42.158  28.032  28.348  1.00  0.00    -0.354 N 
ATOM     59  C   UNL A   1      41.318  28.611  32.694  1.00  0.00     0.074 A 
ATOM     60  C   UNL A   1      39.953  28.152  32.685  1.00  0.00     0.031 C 
ATOM     61  C   UNL A   1      41.478  27.835  26.232  1.00  0.00     0.029 A 
ATOM     62  C   UNL A   1      42.450  27.330  27.186  1.00  0.00     0.049 A 
ATOM     63  H   UNL A   1      42.736  28.015  29.145  1.00  0.00     0.167 HD
ATOM     64  C   UNL A   1      42.337  28.360  33.567  1.00  0.00     0.034 A 
ATOM     65  C   UNL A   1      43.354  26.329  27.044  1.00  0.00     0.034 A 
ATOM     66  C   UNL A   1      43.520  29.091  33.212  1.00  0.00     0.049 A 
ATOM     67  C   UNL A   1      44.294  26.382  28.188  1.00  0.00     0.074 A 
ATOM     68  C   UNL A   1      43.877  30.421  33.158  1.00  0.00     0.029 A 
ATOM     69  N   UNL A   1      44.496  28.406  32.531  1.00  0.00    -0.354 N 
ATOM     70  N   UNL A   1      45.178  27.320  28.372  1.00  0.00    -0.248 NA
ATOM     71  C   UNL A   1      43.966  25.591  29.364  1.00  0.00     0.031 C 
ATOM     72  C   UNL A   1      44.794  30.514  32.074  1.00  0.00     0.029 A 
ATOM     73  C   UNL A   1      44.981  29.230  31.554  1.00  0.00     0.049 A 
ATOM     74  H   UNL A   1      44.792  27.486  32.713  1.00  0.00     0.167 HD
ATOM     75  C   UNL A   1      45.170  27.538  29.741  1.00  0.00     0.074 A 
ATOM     76  C   UNL A   1      44.499  26.370  30.307  1.00  0.00     0.031 C 
ATOM     77  C   UNL A   1      45.447  28.768  30.263  1.00  0.00     0.034 A 
BRANCH  64  78
ATOM     78  C   UNL A   1      42.384  27.184  34.521  1.00  0.00     0.023 A 
ATOM     79  C   UNL A   1      43.113  26.011  34.258  1.00  0.00     0.031 A 
ATOM     80  C   UNL A   1      41.907  27.322  35.844  1.00  0.00     0.131 A 
ATOM     81  C   UNL A   1      43.368  25.062  35.258  1.00  0.00     0.055 A 
ATOM     82  C   UNL A   1      42.216  26.408  36.859  1.00  0.00     0.041 A 
ATOM     83  F   UNL A   1      41.182  28.391  36.212  1.00  0.00    -0.206 F 
ATOM     84  C   UNL A   1      42.959  25.272  36.570  1.00  0.00     0.022 A 
BRANCH  81  85
ATOM     85  S   UNL A   1      44.271  23.541  34.858  1.00  0.00     0.124 S 
ATOM     86  O   UNL A   1      43.271  22.795  34.091  1.00  0.00    -0.237 OA
ATOM     87  O   UNL A   1      45.396  24.063  34.081  1.00  0.00    -0.237 OA
ATOM     88  O   UNL A   1      44.617  22.995  36.157  1.00  0.00    -0.744 OA
ENDBRANCH  81  85
ENDBRANCH  64  78
BRANCH  65  89
ATOM     89  C   UNL A   1      43.148  25.079  26.275  1.00  0.00     0.023 A 
ATOM     90  C   UNL A   1      42.275  24.093  26.774  1.00  0.00     0.031 A 
ATOM     91  C   UNL A   1      44.020  24.706  25.238  1.00  0.00     0.131 A 
ATOM     92  C   UNL A   1      42.320  22.784  26.280  1.00  0.00     0.055 A 
ATOM     93  C   UNL A   1      44.053  23.400  24.735  1.00  0.00     0.041 A 
ATOM     94  F   UNL A   1      44.904  25.586  24.743  1.00  0.00    -0.206 F 
ATOM     95  C   UNL A   1      43.210  22.427  25.266  1.00  0.00     0.022 A 
BRANCH  92  96
ATOM     96  S   UNL A   1      41.277  21.496  27.014  1.00  0.00     0.124 S 
ATOM     97  O   UNL A   1      42.198  20.364  27.099  1.00  0.00    -0.237 OA
ATOM     98  O   UNL A   1      40.906  22.103  28.287  1.00  0.00    -0.237 OA
ATOM     99  O   UNL A   1      40.195  21.337  26.046  1.00  0.00    -0.744 OA
ENDBRANCH  92  96
ENDBRANCH  65  89
BRANCH  77 100
ATOM    100  C   UNL A   1      46.049  29.827  29.370  1.00  0.00     0.023 A 
ATOM    101  C   UNL A   1      45.152  30.593  28.603  1.00  0.00     0.031 A 
ATOM    102  C   UNL A   1      47.421  29.935  29.073  1.00  0.00     0.131 A 
ATOM    103  C   UNL A   1      45.621  31.384  27.550  1.00  0.00     0.055 A 
ATOM    104  C   UNL A   1      47.890  30.788  28.068  1.00  0.00     0.041 A 
ATOM    105  F   UNL A   1      48.332  29.159  29.673  1.00  0.00    -0.206 F 
ATOM    106  C   UNL A   1      46.987  31.502  27.287  1.00  0.00     0.022 A 
BRANCH 103 107
ATOM    107  S   UNL A   1      44.451  32.131  26.386  1.00  0.00     0.124 S 
ATOM    108  O   UNL A   1      43.945  33.269  27.146  1.00  0.00    -0.237 OA
ATOM    109  O   UNL A   1      45.313  32.466  25.253  1.00  0.00    -0.237 OA
ATOM    110  O   UNL A   1      43.481  31.071  26.127  1.00  0.00    -0.744 OA
ENDBRANCH 103 107
ENDBRANCH  77 100
ENDBRANCH  51  52
ENDBRANCH  43  46
ENDBRANCH  41  42
ENDBRANCH  40  41
ENDBRANCH   1  40
TORSDOF 19
ENDMDL
MODEL 3
REMARK VINA RESULT:     -10.4      2.362      3.563
REMARK SMILES COc1cc2c(cc1OC)-c1c(c(C(=O)Nc3ccc(C(=O)NCCCCNC(=O)c4ccc(-c5c6nc(c(-c7cc(S(=O)(=O)[O-])ccc7F)c7ccc([nH]7)c(-c7cc(S(=O)(=O)[O-])ccc7F)c7nc(c(-c8cc(S(=O)(=O)[O-])ccc8F)c8ccc5[nH]8)C=C7)C=C6)cc4)cc3)nn1-c1ccc(F)cc1)C2
REMARK SMILES IDX 25 1 24 2 23 3 21 4 22 5 20 7 17 8 18 9 95 10 19 11 94 12
REMARK SMILES IDX 16 13 14 14 15 15 13 17 3 18 4 19 8 20 5 21 7 22 6 23 105 24
REMARK SMILES IDX 11 25 12 26 97 27 96 28 2 29 1 30 9 31 10 32 98 33 99 34
REMARK SMILES IDX 104 35 100 36 103 37 101 38 102 39 26 40 27 41 28 42 29 43
REMARK SMILES IDX 30 45 31 46 32 47 93 48 33 49 92 50 34 51 35 52 36 53 86 54
REMARK SMILES IDX 37 55 91 56 85 57 87 58 38 59 90 60 84 61 83 62 39 64 71 65
REMARK SMILES IDX 51 66 70 67 52 68 55 69 69 70 88 71 53 72 54 73 68 75 89 76
REMARK SMILES IDX 56 77 40 78 41 79 49 80 42 81 48 82 50 83 47 84 43 85 44 86
REMARK SMILES IDX 45 87 46 88 72 89 73 90 81 91 74 92 80 93 82 94 79 95 75 96
REMARK SMILES IDX 76 97 77 98 78 99 57 100 58 101 66 102 59 103 65 104 67 105
REMARK SMILES IDX 64 106 60 107 61 108 62 109 63 110
REMARK H PARENT 23 6 16 16 28 44 87 63 55 74
REMARK Flexibility Score: inf
ROOT
ATOM      1  C   UNL A   1      35.931  32.670  32.304  1.00  0.00     0.023 C 
ENDROOT
BRANCH   1   2
ATOM      2  C   UNL A   1      37.139  33.476  31.840  1.00  0.00     0.116 C 
BRANCH   2   3
ATOM      3  N   UNL A   1      38.095  33.861  32.862  1.00  0.00    -0.352 N 
ATOM      4  C   UNL A   1      39.428  34.215  32.767  1.00  0.00     0.251 C 
ATOM      5  O   UNL A   1      39.980  34.640  33.782  1.00  0.00    -0.269 OA
ATOM      6  H   UNL A   1      37.733  33.872  33.778  1.00  0.00     0.163 HD
BRANCH   4   7
ATOM      7  C   UNL A   1      40.268  33.931  31.556  1.00  0.00     0.039 A 
ATOM      8  C   UNL A   1      42.277  34.539  29.745  1.00  0.00     0.041 A 
ATOM      9  C   UNL A   1      40.992  34.988  29.493  1.00  0.00     0.027 A 
ATOM     10  C   UNL A   1      42.463  33.505  30.661  1.00  0.00     0.027 A 
ATOM     11  C   UNL A   1      39.973  34.668  30.400  1.00  0.00     0.016 A 
ATOM     12  C   UNL A   1      41.444  33.189  31.563  1.00  0.00     0.016 A 
BRANCH   8  13
ATOM     13  N   UNL A   1      43.402  35.068  29.122  1.00  0.00    -0.321 N 
ATOM     14  C   UNL A   1      44.036  36.296  29.191  1.00  0.00     0.276 C 
ATOM     15  O   UNL A   1      44.819  36.504  28.253  1.00  0.00    -0.267 OA
ATOM     16  H   UNL A   1      43.838  34.438  28.505  1.00  0.00     0.170 HD
BRANCH  14  17
ATOM     17  C   UNL A   1      43.965  37.244  30.350  1.00  0.00     0.155 A 
ATOM     18  C   UNL A   1      42.991  42.927  32.152  1.00  0.00     0.161 A 
ATOM     19  C   UNL A   1      42.868  42.190  30.960  1.00  0.00     0.055 A 
ATOM     20  C   UNL A   1      43.326  42.292  33.367  1.00  0.00     0.161 A 
ATOM     21  C   UNL A   1      43.075  40.816  31.001  1.00  0.00    -0.030 A 
ATOM     22  C   UNL A   1      43.559  40.910  33.378  1.00  0.00     0.061 A 
ATOM     23  C   UNL A   1      43.398  40.191  32.214  1.00  0.00     0.008 A 
ATOM     24  C   UNL A   1      43.138  39.849  29.810  1.00  0.00     0.076 C 
ATOM     25  C   UNL A   1      43.614  38.822  31.879  1.00  0.00     0.079 A 
ATOM     26  C   UNL A   1      43.555  38.601  30.528  1.00  0.00     0.016 A 
ATOM     27  N   UNL A   1      43.936  37.665  32.495  1.00  0.00    -0.232 N 
ATOM     28  N   UNL A   1      44.314  36.741  31.577  1.00  0.00    -0.162 NA
BRANCH  18  29
ATOM     29  O   UNL A   1      42.686  44.261  32.093  1.00  0.00    -0.493 OA
ATOM     30  C   UNL A   1      43.778  45.083  32.502  1.00  0.00     0.278 C 
ENDBRANCH  18  29
BRANCH  20  31
ATOM     31  O   UNL A   1      43.481  42.832  34.614  1.00  0.00    -0.493 OA
ATOM     32  C   UNL A   1      44.338  42.199  35.547  1.00  0.00     0.278 C 
ENDBRANCH  20  31
BRANCH  27  33
ATOM     33  C   UNL A   1      43.944  37.431  33.888  1.00  0.00     0.065 A 
ATOM     34  C   UNL A   1      45.066  37.775  34.645  1.00  0.00     0.031 A 
ATOM     35  C   UNL A   1      42.777  36.961  34.515  1.00  0.00     0.031 A 
ATOM     36  C   UNL A   1      44.969  37.763  36.039  1.00  0.00     0.041 A 
ATOM     37  C   UNL A   1      42.697  36.929  35.904  1.00  0.00     0.041 A 
ATOM     38  C   UNL A   1      43.784  37.357  36.653  1.00  0.00     0.123 A 
ATOM     39  F   UNL A   1      43.687  37.395  37.989  1.00  0.00    -0.207 F 
ENDBRANCH  27  33
ENDBRANCH  14  17
ENDBRANCH   8  13
ENDBRANCH   4   7
ENDBRANCH   2   3
ENDBRANCH   1   2
BRANCH   1  40
ATOM     40  C   UNL A   1      34.692  32.633  31.415  1.00  0.00     0.023 C 
BRANCH  40  41
ATOM     41  C   UNL A   1      34.650  33.596  30.231  1.00  0.00     0.116 C 
BRANCH  41  42
ATOM     42  N   UNL A   1      34.585  32.984  28.920  1.00  0.00    -0.352 N 
ATOM     43  C   UNL A   1      35.227  31.943  28.307  1.00  0.00     0.251 C 
ATOM     44  H   UNL A   1      33.926  33.419  28.334  1.00  0.00     0.163 HD
ATOM     45  O   UNL A   1      34.718  31.556  27.251  1.00  0.00    -0.269 OA
BRANCH  43  46
ATOM     46  C   UNL A   1      36.499  31.323  28.767  1.00  0.00     0.039 A 
ATOM     47  C   UNL A   1      37.685  32.008  29.025  1.00  0.00     0.014 A 
ATOM     48  C   UNL A   1      36.499  29.917  28.867  1.00  0.00     0.014 A 
ATOM     49  C   UNL A   1      38.870  31.309  29.231  1.00  0.00     0.010 A 
ATOM     50  C   UNL A   1      37.674  29.214  29.109  1.00  0.00     0.010 A 
ATOM     51  C   UNL A   1      38.871  29.912  29.226  1.00  0.00    -0.014 A 
BRANCH  51  52
ATOM     52  C   UNL A   1      40.150  29.231  29.425  1.00  0.00     0.031 A 
ATOM     53  C   UNL A   1      40.445  28.845  30.835  1.00  0.00     0.074 A 
ATOM     54  C   UNL A   1      40.957  28.874  28.406  1.00  0.00     0.049 A 
ATOM     55  N   UNL A   1      41.421  29.231  31.594  1.00  0.00    -0.248 NA
ATOM     56  C   UNL A   1      39.444  28.019  31.528  1.00  0.00     0.031 C 
ATOM     57  C   UNL A   1      40.653  28.903  26.971  1.00  0.00     0.029 A 
ATOM     58  N   UNL A   1      42.187  28.287  28.444  1.00  0.00    -0.354 N 
ATOM     59  C   UNL A   1      41.265  28.547  32.803  1.00  0.00     0.074 A 
ATOM     60  C   UNL A   1      39.956  27.947  32.755  1.00  0.00     0.031 C 
ATOM     61  C   UNL A   1      41.545  28.129  26.313  1.00  0.00     0.029 A 
ATOM     62  C   UNL A   1      42.559  27.682  27.251  1.00  0.00     0.049 A 
ATOM     63  H   UNL A   1      42.759  28.291  29.246  1.00  0.00     0.167 HD
ATOM     64  C   UNL A   1      42.299  28.362  33.674  1.00  0.00     0.034 A 
ATOM     65  C   UNL A   1      43.566  26.791  27.069  1.00  0.00     0.034 A 
ATOM     66  C   UNL A   1      43.400  29.232  33.370  1.00  0.00     0.049 A 
ATOM     67  C   UNL A   1      44.488  26.885  28.224  1.00  0.00     0.074 A 
ATOM     68  C   UNL A   1      43.613  30.593  33.388  1.00  0.00     0.029 A 
ATOM     69  N   UNL A   1      44.447  28.690  32.667  1.00  0.00    -0.354 N 
ATOM     70  N   UNL A   1      45.266  27.901  28.466  1.00  0.00    -0.248 NA
ATOM     71  C   UNL A   1      44.240  26.003  29.354  1.00  0.00     0.031 C 
ATOM     72  C   UNL A   1      44.521  30.839  32.321  1.00  0.00     0.029 A 
ATOM     73  C   UNL A   1      44.847  29.611  31.739  1.00  0.00     0.049 A 
ATOM     74  H   UNL A   1      44.839  27.799  32.805  1.00  0.00     0.167 HD
ATOM     75  C   UNL A   1      45.226  28.045  29.844  1.00  0.00     0.074 A 
ATOM     76  C   UNL A   1      44.681  26.785  30.342  1.00  0.00     0.031 C 
ATOM     77  C   UNL A   1      45.367  29.270  30.431  1.00  0.00     0.034 A 
BRANCH  64  78
ATOM     78  C   UNL A   1      42.467  27.150  34.568  1.00  0.00     0.023 A 
ATOM     79  C   UNL A   1      43.271  26.049  34.225  1.00  0.00     0.031 A 
ATOM     80  C   UNL A   1      42.027  27.189  35.910  1.00  0.00     0.131 A 
ATOM     81  C   UNL A   1      43.629  25.076  35.169  1.00  0.00     0.055 A 
ATOM     82  C   UNL A   1      42.437  26.254  36.869  1.00  0.00     0.041 A 
ATOM     83  F   UNL A   1      41.238  28.182  36.352  1.00  0.00    -0.206 F 
ATOM     84  C   UNL A   1      43.252  25.193  36.502  1.00  0.00     0.022 A 
BRANCH  81  85
ATOM     85  S   UNL A   1      44.629  23.648  34.667  1.00  0.00     0.124 S 
ATOM     86  O   UNL A   1      43.646  22.564  34.723  1.00  0.00    -0.237 OA
ATOM     87  O   UNL A   1      45.051  24.043  33.323  1.00  0.00    -0.237 OA
ATOM     88  O   UNL A   1      45.686  23.602  35.660  1.00  0.00    -0.744 OA
ENDBRANCH  81  85
ENDBRANCH  64  78
BRANCH  65  89
ATOM     89  C   UNL A   1      43.500  25.568  26.234  1.00  0.00     0.023 A 
ATOM     90  C   UNL A   1      42.606  24.538  26.584  1.00  0.00     0.031 A 
ATOM     91  C   UNL A   1      44.505  25.264  25.301  1.00  0.00     0.131 A 
ATOM     92  C   UNL A   1      42.757  23.252  26.052  1.00  0.00     0.055 A 
ATOM     93  C   UNL A   1      44.644  23.981  24.758  1.00  0.00     0.041 A 
ATOM     94  F   UNL A   1      45.412  26.189  24.952  1.00  0.00    -0.206 F 
ATOM     95  C   UNL A   1      43.777  22.963  25.144  1.00  0.00     0.022 A 
BRANCH  92  96
ATOM     96  S   UNL A   1      41.675  21.905  26.603  1.00  0.00     0.124 S 
ATOM     97  O   UNL A   1      41.996  20.843  25.650  1.00  0.00    -0.237 OA
ATOM     98  O   UNL A   1      42.141  21.688  27.968  1.00  0.00    -0.237 OA
ATOM     99  O   UNL A   1      40.334  22.466  26.470  1.00  0.00    -0.744 OA
ENDBRANCH  92  96
ENDBRANCH  65  89
BRANCH  77 100
ATOM    100  C   UNL A   1      45.858  30.431  29.600  1.00  0.00     0.023 A 
ATOM    101  C   UNL A   1      44.954  30.967  28.665  1.00  0.00     0.031 A 
ATOM    102  C   UNL A   1      47.200  30.847  29.524  1.00  0.00     0.131 A 
ATOM    103  C   UNL A   1      45.403  31.837  27.667  1.00  0.00     0.055 A 
ATOM    104  C   UNL A   1      47.628  31.778  28.570  1.00  0.00     0.041 A 
ATOM    105  F   UNL A   1      48.149  30.304  30.296  1.00  0.00    -0.206 F 
ATOM    106  C   UNL A   1      46.732  32.261  27.622  1.00  0.00     0.022 A 
BRANCH 103 107
ATOM    107  S   UNL A   1      44.307  32.289  26.297  1.00  0.00     0.124 S 
ATOM    108  O   UNL A   1      43.496  31.085  26.141  1.00  0.00    -0.237 OA
ATOM    109  O   UNL A   1      43.604  33.453  26.835  1.00  0.00    -0.237 OA
ATOM    110  O   UNL A   1      45.217  32.577  25.194  1.00  0.00    -0.744 OA
ENDBRANCH 103 107
ENDBRANCH  77 100
ENDBRANCH  51  52
ENDBRANCH  43  46
ENDBRANCH  41  42
ENDBRANCH  40  41
ENDBRANCH   1  40
TORSDOF 19
ENDMDL
