MODEL 1
REMARK VINA RESULT:     -12.9      0.000      0.000
REMARK SMILES Cc1cc(C[N@H+]2CC[C@](C)(C(=O)NCCCCNC(=O)c3ccc(-c4c5nc(c(-c6cc(S(=O)(=O)[O-])ccc6F)c6ccc([nH]6)c(-c6cc(S(=O)(=O)[O-])ccc6F)c6nc(c(-c7cc(S(=O)(=O)[O-])ccc7F)c7ccc4[nH]7)C=C6)C=C5)cc3)C2)c2ccccc2n1
REMARK SMILES IDX 16 1 15 2 14 3 13 4 11 5 12 6 9 8 6 9 7 10 84 11 8 13 10 14
REMARK SMILES IDX 5 15 4 16 1 17 2 18 3 19 91 20 90 21 85 22 89 23 86 24 88 25
REMARK SMILES IDX 87 26 17 27 18 28 19 29 20 31 21 32 22 33 83 34 23 35 82 36
REMARK SMILES IDX 24 37 25 38 26 39 76 40 27 41 81 42 75 43 77 44 28 45 80 46
REMARK SMILES IDX 74 47 73 48 29 50 61 51 41 52 60 53 42 54 45 55 59 56 78 57
REMARK SMILES IDX 43 58 44 59 58 61 79 62 46 63 30 64 31 65 39 66 32 67 38 68
REMARK SMILES IDX 40 69 37 70 33 71 34 72 35 73 36 74 62 75 63 76 71 77 64 78
REMARK SMILES IDX 70 79 72 80 69 81 65 82 66 83 67 84 68 85 47 86 48 87 56 88
REMARK SMILES IDX 49 89 55 90 57 91 54 92 50 93 51 94 52 95 53 96
REMARK H PARENT 13 7 6 12 18 30 77 49 45 60
REMARK Flexibility Score: inf
ROOT
ATOM      1  C   UNL A   1      35.729  21.484  25.759  1.00  0.00     0.023 C 
ENDROOT
BRANCH   1   2
ATOM      2  C   UNL A   1      35.363  22.626  26.704  1.00  0.00     0.023 C 
BRANCH   2   3
ATOM      3  C   UNL A   1      33.891  22.685  27.107  1.00  0.00     0.116 C 
BRANCH   3   4
ATOM      4  N   UNL A   1      33.070  21.670  26.459  1.00  0.00    -0.355 N 
ATOM      5  C   UNL A   1      32.240  21.735  25.371  1.00  0.00     0.231 C 
ATOM      6  O   UNL A   1      31.738  20.681  24.975  1.00  0.00    -0.274 OA
ATOM      7  H   UNL A   1      33.121  20.780  26.878  1.00  0.00     0.163 HD
BRANCH   5   8
ATOM      8  C   UNL A   1      31.965  23.067  24.667  1.00  0.00     0.100 C 
ATOM      9  N   UNL A   1      30.309  24.819  24.876  1.00  0.00    -0.330 N 
ATOM     10  C   UNL A   1      30.351  24.405  23.482  1.00  0.00     0.263 C 
ATOM     11  C   UNL A   1      31.251  24.011  25.638  1.00  0.00     0.279 C 
ATOM     12  H   UNL A   1      29.361  24.616  25.197  1.00  0.00     0.348 HD
ATOM     13  C   UNL A   1      30.901  22.978  23.557  1.00  0.00     0.084 C 
ATOM     14  C   UNL A   1      33.261  23.614  24.035  1.00  0.00     0.028 C 
BRANCH   9  15
ATOM     15  C   UNL A   1      30.226  26.241  25.207  1.00  0.00     0.299 C 
BRANCH  15  16
ATOM     16  C   UNL A   1      30.654  27.218  24.125  1.00  0.00     0.017 A 
ATOM     17  C   UNL A   1      33.914  28.427  22.618  1.00  0.00     0.067 C 
ATOM     18  C   UNL A   1      32.468  28.323  22.993  1.00  0.00     0.038 A 
ATOM     19  C   UNL A   1      32.027  27.354  23.879  1.00  0.00     0.033 A 
ATOM     20  N   UNL A   1      31.632  29.217  22.426  1.00  0.00    -0.253 NA
ATOM     21  C   UNL A   1      30.311  29.087  22.631  1.00  0.00     0.071 A 
ATOM     22  C   UNL A   1      29.752  28.041  23.396  1.00  0.00     0.009 A 
ATOM     23  C   UNL A   1      29.466  30.029  22.058  1.00  0.00     0.029 A 
ATOM     24  C   UNL A   1      28.343  27.894  23.382  1.00  0.00     0.011 A 
ATOM     25  C   UNL A   1      28.076  29.935  22.153  1.00  0.00     0.002 A 
ATOM     26  C   UNL A   1      27.512  28.841  22.785  1.00  0.00     0.001 A 
ENDBRANCH  15  16
ENDBRANCH   9  15
ENDBRANCH   5   8
ENDBRANCH   3   4
ENDBRANCH   2   3
ENDBRANCH   1   2
BRANCH   1  27
ATOM     27  C   UNL A   1      37.087  21.610  25.074  1.00  0.00     0.116 C 
BRANCH  27  28
ATOM     28  N   UNL A   1      38.003  20.524  25.388  1.00  0.00    -0.352 N 
ATOM     29  C   UNL A   1      39.239  20.591  25.994  1.00  0.00     0.251 C 
ATOM     30  H   UNL A   1      37.700  19.622  25.134  1.00  0.00     0.163 HD
ATOM     31  O   UNL A   1      39.928  19.584  26.089  1.00  0.00    -0.269 OA
BRANCH  29  32
ATOM     32  C   UNL A   1      39.737  21.898  26.482  1.00  0.00     0.039 A 
ATOM     33  C   UNL A   1      40.764  21.924  27.428  1.00  0.00     0.014 A 
ATOM     34  C   UNL A   1      39.224  23.092  25.968  1.00  0.00     0.014 A 
ATOM     35  C   UNL A   1      41.335  23.145  27.795  1.00  0.00     0.010 A 
ATOM     36  C   UNL A   1      39.847  24.298  26.273  1.00  0.00     0.010 A 
ATOM     37  C   UNL A   1      40.910  24.338  27.188  1.00  0.00    -0.014 A 
BRANCH  37  38
ATOM     38  C   UNL A   1      41.557  25.642  27.497  1.00  0.00     0.031 A 
ATOM     39  C   UNL A   1      40.821  26.672  28.310  1.00  0.00     0.074 A 
ATOM     40  C   UNL A   1      42.768  25.929  26.982  1.00  0.00     0.049 A 
ATOM     41  N   UNL A   1      41.172  27.895  28.615  1.00  0.00    -0.248 NA
ATOM     42  C   UNL A   1      39.496  26.282  28.812  1.00  0.00     0.031 C 
ATOM     43  C   UNL A   1      43.567  25.032  26.143  1.00  0.00     0.029 A 
ATOM     44  N   UNL A   1      43.540  27.060  27.083  1.00  0.00    -0.354 N 
ATOM     45  C   UNL A   1      40.102  28.428  29.327  1.00  0.00     0.074 A 
ATOM     46  C   UNL A   1      39.066  27.416  29.341  1.00  0.00     0.031 C 
ATOM     47  C   UNL A   1      44.728  25.634  25.839  1.00  0.00     0.029 A 
ATOM     48  C   UNL A   1      44.741  26.973  26.418  1.00  0.00     0.049 A 
ATOM     49  H   UNL A   1      43.258  27.860  27.585  1.00  0.00     0.167 HD
ATOM     50  C   UNL A   1      40.003  29.636  29.938  1.00  0.00     0.034 A 
ATOM     51  C   UNL A   1      45.736  27.871  26.289  1.00  0.00     0.034 A 
ATOM     52  C   UNL A   1      41.051  30.628  29.926  1.00  0.00     0.049 A 
ATOM     53  C   UNL A   1      45.595  29.219  26.946  1.00  0.00     0.074 A 
ATOM     54  C   UNL A   1      41.087  31.856  30.562  1.00  0.00     0.029 A 
ATOM     55  N   UNL A   1      42.250  30.509  29.231  1.00  0.00    -0.354 N 
ATOM     56  N   UNL A   1      44.601  29.691  27.663  1.00  0.00    -0.248 NA
ATOM     57  C   UNL A   1      46.715  30.154  26.780  1.00  0.00     0.031 C 
ATOM     58  C   UNL A   1      42.273  32.507  30.198  1.00  0.00     0.029 A 
ATOM     59  C   UNL A   1      43.014  31.655  29.395  1.00  0.00     0.049 A 
ATOM     60  H   UNL A   1      42.516  29.725  28.698  1.00  0.00     0.167 HD
ATOM     61  C   UNL A   1      44.993  30.965  28.064  1.00  0.00     0.074 A 
ATOM     62  C   UNL A   1      46.316  31.183  27.513  1.00  0.00     0.031 C 
ATOM     63  C   UNL A   1      44.326  31.867  28.828  1.00  0.00     0.034 A 
BRANCH  50  64
ATOM     64  C   UNL A   1      38.699  29.945  30.641  1.00  0.00     0.023 A 
ATOM     65  C   UNL A   1      37.662  30.642  29.995  1.00  0.00     0.031 A 
ATOM     66  C   UNL A   1      38.517  29.605  31.993  1.00  0.00     0.131 A 
ATOM     67  C   UNL A   1      36.546  31.075  30.726  1.00  0.00     0.055 A 
ATOM     68  C   UNL A   1      37.356  29.952  32.690  1.00  0.00     0.041 A 
ATOM     69  F   UNL A   1      39.475  28.956  32.671  1.00  0.00    -0.206 F 
ATOM     70  C   UNL A   1      36.373  30.712  32.063  1.00  0.00     0.022 A 
BRANCH  67  71
ATOM     71  S   UNL A   1      35.429  32.281  29.959  1.00  0.00     0.124 S 
ATOM     72  O   UNL A   1      36.325  33.415  29.739  1.00  0.00    -0.237 OA
ATOM     73  O   UNL A   1      34.981  31.579  28.762  1.00  0.00    -0.237 OA
ATOM     74  O   UNL A   1      34.404  32.497  30.978  1.00  0.00    -0.744 OA
ENDBRANCH  67  71
ENDBRANCH  50  64
BRANCH  51  75
ATOM     75  C   UNL A   1      46.966  27.526  25.523  1.00  0.00     0.023 A 
ATOM     76  C   UNL A   1      47.076  27.853  24.163  1.00  0.00     0.031 A 
ATOM     77  C   UNL A   1      48.037  26.845  26.129  1.00  0.00     0.131 A 
ATOM     78  C   UNL A   1      48.215  27.468  23.440  1.00  0.00     0.055 A 
ATOM     79  C   UNL A   1      49.188  26.503  25.416  1.00  0.00     0.041 A 
ATOM     80  F   UNL A   1      47.985  26.518  27.429  1.00  0.00    -0.206 F 
ATOM     81  C   UNL A   1      49.276  26.805  24.060  1.00  0.00     0.022 A 
BRANCH  78  82
ATOM     82  S   UNL A   1      48.263  27.796  21.657  1.00  0.00     0.124 S 
ATOM     83  O   UNL A   1      48.502  26.463  21.116  1.00  0.00    -0.237 OA
ATOM     84  O   UNL A   1      46.939  28.360  21.416  1.00  0.00    -0.237 OA
ATOM     85  O   UNL A   1      49.373  28.737  21.515  1.00  0.00    -0.744 OA
ENDBRANCH  78  82
ENDBRANCH  51  75
BRANCH  63  86
ATOM     86  C   UNL A   1      45.046  33.154  29.152  1.00  0.00     0.023 A 
ATOM     87  C   UNL A   1      44.935  34.294  28.335  1.00  0.00     0.031 A 
ATOM     88  C   UNL A   1      45.873  33.232  30.286  1.00  0.00     0.131 A 
ATOM     89  C   UNL A   1      45.682  35.443  28.635  1.00  0.00     0.055 A 
ATOM     90  C   UNL A   1      46.567  34.398  30.613  1.00  0.00     0.041 A 
ATOM     91  F   UNL A   1      46.019  32.173  31.100  1.00  0.00    -0.206 F 
ATOM     92  C   UNL A   1      46.484  35.508  29.777  1.00  0.00     0.022 A 
BRANCH  89  93
ATOM     93  S   UNL A   1      45.663  36.826  27.460  1.00  0.00     0.124 S 
ATOM     94  O   UNL A   1      46.390  37.857  28.195  1.00  0.00    -0.237 OA
ATOM     95  O   UNL A   1      46.350  36.263  26.303  1.00  0.00    -0.237 OA
ATOM     96  O   UNL A   1      44.238  37.092  27.266  1.00  0.00    -0.744 OA
ENDBRANCH  89  93
ENDBRANCH  63  86
ENDBRANCH  37  38
ENDBRANCH  29  32
ENDBRANCH  27  28
ENDBRANCH   1  27
TORSDOF 16
ENDMDL
MODEL 2
REMARK VINA RESULT:     -12.8      2.134      7.827
REMARK SMILES Cc1cc(C[N@H+]2CC[C@](C)(C(=O)NCCCCNC(=O)c3ccc(-c4c5nc(c(-c6cc(S(=O)(=O)[O-])ccc6F)c6ccc([nH]6)c(-c6cc(S(=O)(=O)[O-])ccc6F)c6nc(c(-c7cc(S(=O)(=O)[O-])ccc7F)c7ccc4[nH]7)C=C6)C=C5)cc3)C2)c2ccccc2n1
REMARK SMILES IDX 16 1 15 2 14 3 13 4 11 5 12 6 9 8 6 9 7 10 84 11 8 13 10 14
REMARK SMILES IDX 5 15 4 16 1 17 2 18 3 19 91 20 90 21 85 22 89 23 86 24 88 25
REMARK SMILES IDX 87 26 17 27 18 28 19 29 20 31 21 32 22 33 83 34 23 35 82 36
REMARK SMILES IDX 24 37 25 38 26 39 76 40 27 41 81 42 75 43 77 44 28 45 80 46
REMARK SMILES IDX 74 47 73 48 29 50 61 51 41 52 60 53 42 54 45 55 59 56 78 57
REMARK SMILES IDX 43 58 44 59 58 61 79 62 46 63 30 64 31 65 39 66 32 67 38 68
REMARK SMILES IDX 40 69 37 70 33 71 34 72 35 73 36 74 62 75 63 76 71 77 64 78
REMARK SMILES IDX 70 79 72 80 69 81 65 82 66 83 67 84 68 85 47 86 48 87 56 88
REMARK SMILES IDX 49 89 55 90 57 91 54 92 50 93 51 94 52 95 53 96
REMARK H PARENT 13 7 6 12 18 30 77 49 45 60
REMARK Flexibility Score: inf
ROOT
ATOM      1  C   UNL A   1      35.989  22.253  24.381  1.00  0.00     0.023 C 
ENDROOT
BRANCH   1   2
ATOM      2  C   UNL A   1      35.358  20.933  24.817  1.00  0.00     0.023 C 
BRANCH   2   3
ATOM      3  C   UNL A   1      33.863  21.002  25.123  1.00  0.00     0.116 C 
BRANCH   3   4
ATOM      4  N   UNL A   1      33.568  21.379  26.498  1.00  0.00    -0.355 N 
ATOM      5  C   UNL A   1      32.943  22.481  27.021  1.00  0.00     0.231 C 
ATOM      6  O   UNL A   1      32.737  22.494  28.237  1.00  0.00    -0.274 OA
ATOM      7  H   UNL A   1      33.871  20.727  27.171  1.00  0.00     0.163 HD
BRANCH   5   8
ATOM      8  C   UNL A   1      32.503  23.640  26.122  1.00  0.00     0.100 C 
ATOM      9  N   UNL A   1      30.385  24.633  25.503  1.00  0.00    -0.330 N 
ATOM     10  C   UNL A   1      31.109  24.323  24.280  1.00  0.00     0.263 C 
ATOM     11  C   UNL A   1      31.181  24.207  26.646  1.00  0.00     0.279 C 
ATOM     12  H   UNL A   1      29.530  24.077  25.467  1.00  0.00     0.348 HD
ATOM     13  C   UNL A   1      32.062  23.204  24.713  1.00  0.00     0.084 C 
ATOM     14  C   UNL A   1      33.651  24.658  25.964  1.00  0.00     0.028 C 
BRANCH   9  15
ATOM     15  C   UNL A   1      29.674  25.906  25.620  1.00  0.00     0.299 C 
BRANCH  15  16
ATOM     16  C   UNL A   1      30.361  27.126  25.031  1.00  0.00     0.017 A 
ATOM     17  C   UNL A   1      30.071  29.216  21.883  1.00  0.00     0.067 C 
ATOM     18  C   UNL A   1      30.586  28.618  23.155  1.00  0.00     0.038 A 
ATOM     19  C   UNL A   1      29.908  27.590  23.788  1.00  0.00     0.033 A 
ATOM     20  N   UNL A   1      31.735  29.133  23.643  1.00  0.00    -0.253 NA
ATOM     21  C   UNL A   1      32.170  28.718  24.843  1.00  0.00     0.071 A 
ATOM     22  C   UNL A   1      31.469  27.783  25.634  1.00  0.00     0.009 A 
ATOM     23  C   UNL A   1      33.366  29.241  25.319  1.00  0.00     0.029 A 
ATOM     24  C   UNL A   1      31.921  27.570  26.959  1.00  0.00     0.011 A 
ATOM     25  C   UNL A   1      33.861  28.928  26.587  1.00  0.00     0.002 A 
ATOM     26  C   UNL A   1      33.114  28.120  27.425  1.00  0.00     0.001 A 
ENDBRANCH  15  16
ENDBRANCH   9  15
ENDBRANCH   5   8
ENDBRANCH   3   4
ENDBRANCH   2   3
ENDBRANCH   1   2
BRANCH   1  27
ATOM     27  C   UNL A   1      36.912  22.908  25.406  1.00  0.00     0.116 C 
BRANCH  27  28
ATOM     28  N   UNL A   1      37.998  22.049  25.849  1.00  0.00    -0.352 N 
ATOM     29  C   UNL A   1      39.176  22.405  26.471  1.00  0.00     0.251 C 
ATOM     30  H   UNL A   1      37.877  21.086  25.683  1.00  0.00     0.163 HD
ATOM     31  O   UNL A   1      40.034  21.558  26.684  1.00  0.00    -0.269 OA
BRANCH  29  32
ATOM     32  C   UNL A   1      39.404  23.823  26.832  1.00  0.00     0.039 A 
ATOM     33  C   UNL A   1      39.169  24.236  28.146  1.00  0.00     0.014 A 
ATOM     34  C   UNL A   1      39.896  24.728  25.889  1.00  0.00     0.014 A 
ATOM     35  C   UNL A   1      39.507  25.535  28.533  1.00  0.00     0.010 A 
ATOM     36  C   UNL A   1      40.308  25.993  26.294  1.00  0.00     0.010 A 
ATOM     37  C   UNL A   1      40.120  26.410  27.621  1.00  0.00    -0.014 A 
BRANCH  37  38
ATOM     38  C   UNL A   1      40.569  27.769  28.029  1.00  0.00     0.031 A 
ATOM     39  C   UNL A   1      42.025  28.140  27.932  1.00  0.00     0.074 A 
ATOM     40  C   UNL A   1      39.686  28.638  28.557  1.00  0.00     0.049 A 
ATOM     41  N   UNL A   1      42.630  29.234  28.315  1.00  0.00    -0.248 NA
ATOM     42  C   UNL A   1      42.921  27.122  27.366  1.00  0.00     0.031 C 
ATOM     43  C   UNL A   1      38.256  28.384  28.744  1.00  0.00     0.029 A 
ATOM     44  N   UNL A   1      39.861  29.911  29.041  1.00  0.00    -0.354 N 
ATOM     45  C   UNL A   1      43.981  29.030  28.053  1.00  0.00     0.074 A 
ATOM     46  C   UNL A   1      44.107  27.678  27.550  1.00  0.00     0.031 C 
ATOM     47  C   UNL A   1      37.680  29.479  29.266  1.00  0.00     0.029 A 
ATOM     48  C   UNL A   1      38.702  30.495  29.495  1.00  0.00     0.049 A 
ATOM     49  H   UNL A   1      40.737  30.362  29.061  1.00  0.00     0.167 HD
ATOM     50  C   UNL A   1      45.016  29.897  28.191  1.00  0.00     0.034 A 
ATOM     51  C   UNL A   1      38.489  31.710  30.037  1.00  0.00     0.034 A 
ATOM     52  C   UNL A   1      44.871  31.246  28.682  1.00  0.00     0.049 A 
ATOM     53  C   UNL A   1      39.656  32.647  30.214  1.00  0.00     0.074 A 
ATOM     54  C   UNL A   1      45.835  32.231  28.803  1.00  0.00     0.029 A 
ATOM     55  N   UNL A   1      43.682  31.799  29.146  1.00  0.00    -0.354 N 
ATOM     56  N   UNL A   1      40.919  32.461  29.912  1.00  0.00    -0.248 NA
ATOM     57  C   UNL A   1      39.363  33.961  30.800  1.00  0.00     0.031 C 
ATOM     58  C   UNL A   1      45.247  33.353  29.401  1.00  0.00     0.029 A 
ATOM     59  C   UNL A   1      43.897  33.098  29.584  1.00  0.00     0.049 A 
ATOM     60  H   UNL A   1      42.814  31.335  29.160  1.00  0.00     0.167 HD
ATOM     61  C   UNL A   1      41.566  33.650  30.238  1.00  0.00     0.074 A 
ATOM     62  C   UNL A   1      40.550  34.546  30.754  1.00  0.00     0.031 C 
ATOM     63  C   UNL A   1      42.878  33.976  30.111  1.00  0.00     0.034 A 
BRANCH  50  64
ATOM     64  C   UNL A   1      46.394  29.385  27.829  1.00  0.00     0.023 A 
ATOM     65  C   UNL A   1      46.734  29.061  26.504  1.00  0.00     0.031 A 
ATOM     66  C   UNL A   1      47.354  29.149  28.829  1.00  0.00     0.131 A 
ATOM     67  C   UNL A   1      47.950  28.417  26.229  1.00  0.00     0.055 A 
ATOM     68  C   UNL A   1      48.605  28.600  28.534  1.00  0.00     0.041 A 
ATOM     69  F   UNL A   1      47.085  29.421  30.115  1.00  0.00    -0.206 F 
ATOM     70  C   UNL A   1      48.899  28.207  27.231  1.00  0.00     0.022 A 
BRANCH  67  71
ATOM     71  S   UNL A   1      48.183  27.681  24.587  1.00  0.00     0.124 S 
ATOM     72  O   UNL A   1      47.090  28.292  23.833  1.00  0.00    -0.237 OA
ATOM     73  O   UNL A   1      49.528  28.121  24.233  1.00  0.00    -0.237 OA
ATOM     74  O   UNL A   1      48.036  26.248  24.830  1.00  0.00    -0.744 OA
ENDBRANCH  67  71
ENDBRANCH  50  64
BRANCH  51  75
ATOM     75  C   UNL A   1      37.115  32.125  30.437  1.00  0.00     0.023 A 
ATOM     76  C   UNL A   1      36.256  32.736  29.512  1.00  0.00     0.031 A 
ATOM     77  C   UNL A   1      36.651  31.942  31.752  1.00  0.00     0.131 A 
ATOM     78  C   UNL A   1      34.988  33.178  29.920  1.00  0.00     0.055 A 
ATOM     79  C   UNL A   1      35.372  32.343  32.142  1.00  0.00     0.041 A 
ATOM     80  F   UNL A   1      37.432  31.354  32.672  1.00  0.00    -0.206 F 
ATOM     81  C   UNL A   1      34.536  32.974  31.226  1.00  0.00     0.022 A 
BRANCH  78  82
ATOM     82  S   UNL A   1      33.957  34.076  28.728  1.00  0.00     0.124 S 
ATOM     83  O   UNL A   1      34.878  35.101  28.252  1.00  0.00    -0.237 OA
ATOM     84  O   UNL A   1      33.612  33.027  27.774  1.00  0.00    -0.237 OA
ATOM     85  O   UNL A   1      32.845  34.563  29.542  1.00  0.00    -0.744 OA
ENDBRANCH  78  82
ENDBRANCH  51  75
BRANCH  63  86
ATOM     86  C   UNL A   1      43.273  35.382  30.493  1.00  0.00     0.023 A 
ATOM     87  C   UNL A   1      43.266  36.435  29.561  1.00  0.00     0.031 A 
ATOM     88  C   UNL A   1      43.681  35.667  31.809  1.00  0.00     0.131 A 
ATOM     89  C   UNL A   1      43.713  37.710  29.943  1.00  0.00     0.055 A 
ATOM     90  C   UNL A   1      44.067  36.950  32.198  1.00  0.00     0.041 A 
ATOM     91  F   UNL A   1      43.710  34.699  32.739  1.00  0.00    -0.206 F 
ATOM     92  C   UNL A   1      44.098  37.977  31.259  1.00  0.00     0.022 A 
BRANCH  89  93
ATOM     93  S   UNL A   1      43.872  38.995  28.673  1.00  0.00     0.124 S 
ATOM     94  O   UNL A   1      43.058  38.453  27.589  1.00  0.00    -0.237 OA
ATOM     95  O   UNL A   1      43.333  40.170  29.349  1.00  0.00    -0.237 OA
ATOM     96  O   UNL A   1      45.309  39.039  28.406  1.00  0.00    -0.744 OA
ENDBRANCH  89  93
ENDBRANCH  63  86
ENDBRANCH  37  38
ENDBRANCH  29  32
ENDBRANCH  27  28
ENDBRANCH   1  27
TORSDOF 16
ENDMDL
MODEL 3
REMARK VINA RESULT:     -12.6      4.476      7.983
REMARK SMILES Cc1cc(C[N@H+]2CC[C@](C)(C(=O)NCCCCNC(=O)c3ccc(-c4c5nc(c(-c6cc(S(=O)(=O)[O-])ccc6F)c6ccc([nH]6)c(-c6cc(S(=O)(=O)[O-])ccc6F)c6nc(c(-c7cc(S(=O)(=O)[O-])ccc7F)c7ccc4[nH]7)C=C6)C=C5)cc3)C2)c2ccccc2n1
REMARK SMILES IDX 16 1 15 2 14 3 13 4 11 5 12 6 9 8 6 9 7 10 84 11 8 13 10 14
REMARK SMILES IDX 5 15 4 16 1 17 2 18 3 19 91 20 90 21 85 22 89 23 86 24 88 25
REMARK SMILES IDX 87 26 17 27 18 28 19 29 20 31 21 32 22 33 83 34 23 35 82 36
REMARK SMILES IDX 24 37 25 38 26 39 76 40 27 41 81 42 75 43 77 44 28 45 80 46
REMARK SMILES IDX 74 47 73 48 29 50 61 51 41 52 60 53 42 54 45 55 59 56 78 57
REMARK SMILES IDX 43 58 44 59 58 61 79 62 46 63 30 64 31 65 39 66 32 67 38 68
REMARK SMILES IDX 40 69 37 70 33 71 34 72 35 73 36 74 62 75 63 76 71 77 64 78
REMARK SMILES IDX 70 79 72 80 69 81 65 82 66 83 67 84 68 85 47 86 48 87 56 88
REMARK SMILES IDX 49 89 55 90 57 91 54 92 50 93 51 94 52 95 53 96
REMARK H PARENT 13 7 6 12 18 30 77 49 45 60
REMARK Flexibility Score: inf
ROOT
ATOM      1  C   UNL A   1      34.033  28.399  26.127  1.00  0.00     0.023 C 
ENDROOT
BRANCH   1   2
ATOM      2  C   UNL A   1      33.478  28.974  24.826  1.00  0.00     0.023 C 
BRANCH   2   3
ATOM      3  C   UNL A   1      31.974  28.793  24.629  1.00  0.00     0.116 C 
BRANCH   3   4
ATOM      4  N   UNL A   1      31.620  28.276  23.314  1.00  0.00    -0.355 N 
ATOM      5  C   UNL A   1      31.171  27.044  22.916  1.00  0.00     0.231 C 
ATOM      6  O   UNL A   1      30.848  26.912  21.734  1.00  0.00    -0.274 OA
ATOM      7  H   UNL A   1      31.720  28.927  22.582  1.00  0.00     0.163 HD
BRANCH   5   8
ATOM      8  C   UNL A   1      31.058  25.886  23.911  1.00  0.00     0.100 C 
ATOM      9  N   UNL A   1      32.425  23.976  24.497  1.00  0.00    -0.330 N 
ATOM     10  C   UNL A   1      31.082  23.495  24.207  1.00  0.00     0.263 C 
ATOM     11  C   UNL A   1      32.464  25.419  24.299  1.00  0.00     0.279 C 
ATOM     12  H   UNL A   1      33.033  23.530  23.809  1.00  0.00     0.348 HD
ATOM     13  C   UNL A   1      30.509  24.585  23.296  1.00  0.00     0.084 C 
ATOM     14  C   UNL A   1      30.137  26.278  25.084  1.00  0.00     0.028 C 
BRANCH   9  15
ATOM     15  C   UNL A   1      33.155  23.437  25.643  1.00  0.00     0.299 C 
BRANCH  15  16
ATOM     16  C   UNL A   1      34.198  22.373  25.348  1.00  0.00     0.017 A 
ATOM     17  C   UNL A   1      34.216  18.705  24.394  1.00  0.00     0.067 C 
ATOM     18  C   UNL A   1      34.651  20.059  24.860  1.00  0.00     0.038 A 
ATOM     19  C   UNL A   1      33.740  21.091  25.012  1.00  0.00     0.033 A 
ATOM     20  N   UNL A   1      35.966  20.214  25.120  1.00  0.00    -0.253 NA
ATOM     21  C   UNL A   1      36.426  21.439  25.419  1.00  0.00     0.071 A 
ATOM     22  C   UNL A   1      35.600  22.583  25.451  1.00  0.00     0.009 A 
ATOM     23  C   UNL A   1      37.778  21.577  25.706  1.00  0.00     0.029 A 
ATOM     24  C   UNL A   1      36.227  23.847  25.586  1.00  0.00     0.011 A 
ATOM     25  C   UNL A   1      38.362  22.821  25.955  1.00  0.00     0.002 A 
ATOM     26  C   UNL A   1      37.590  23.964  25.855  1.00  0.00     0.001 A 
ENDBRANCH  15  16
ENDBRANCH   9  15
ENDBRANCH   5   8
ENDBRANCH   3   4
ENDBRANCH   2   3
ENDBRANCH   1   2
BRANCH   1  27
ATOM     27  C   UNL A   1      33.324  28.854  27.400  1.00  0.00     0.116 C 
BRANCH  27  28
ATOM     28  N   UNL A   1      33.412  30.286  27.638  1.00  0.00    -0.352 N 
ATOM     29  C   UNL A   1      34.465  31.007  28.161  1.00  0.00     0.251 C 
ATOM     30  H   UNL A   1      32.615  30.810  27.393  1.00  0.00     0.163 HD
ATOM     31  O   UNL A   1      34.331  32.201  28.392  1.00  0.00    -0.269 OA
BRANCH  29  32
ATOM     32  C   UNL A   1      35.732  30.310  28.482  1.00  0.00     0.039 A 
ATOM     33  C   UNL A   1      36.796  30.388  27.580  1.00  0.00     0.014 A 
ATOM     34  C   UNL A   1      35.882  29.624  29.689  1.00  0.00     0.014 A 
ATOM     35  C   UNL A   1      38.038  29.851  27.929  1.00  0.00     0.010 A 
ATOM     36  C   UNL A   1      37.138  29.163  30.069  1.00  0.00     0.010 A 
ATOM     37  C   UNL A   1      38.231  29.272  29.194  1.00  0.00    -0.014 A 
BRANCH  37  38
ATOM     38  C   UNL A   1      39.563  28.770  29.625  1.00  0.00     0.031 A 
ATOM     39  C   UNL A   1      40.320  29.484  30.712  1.00  0.00     0.074 A 
ATOM     40  C   UNL A   1      40.124  27.724  28.988  1.00  0.00     0.049 A 
ATOM     41  N   UNL A   1      41.525  29.260  31.170  1.00  0.00    -0.248 NA
ATOM     42  C   UNL A   1      39.641  30.629  31.335  1.00  0.00     0.031 C 
ATOM     43  C   UNL A   1      39.512  26.972  27.891  1.00  0.00     0.029 A 
ATOM     44  N   UNL A   1      41.341  27.114  29.168  1.00  0.00    -0.354 N 
ATOM     45  C   UNL A   1      41.757  30.248  32.122  1.00  0.00     0.074 A 
ATOM     46  C   UNL A   1      40.594  31.112  32.116  1.00  0.00     0.031 C 
ATOM     47  C   UNL A   1      40.340  25.981  27.522  1.00  0.00     0.029 A 
ATOM     48  C   UNL A   1      41.559  26.052  28.321  1.00  0.00     0.049 A 
ATOM     49  H   UNL A   1      41.997  27.410  29.841  1.00  0.00     0.167 HD
ATOM     50  C   UNL A   1      42.824  30.404  32.945  1.00  0.00     0.034 A 
ATOM     51  C   UNL A   1      42.621  25.232  28.200  1.00  0.00     0.034 A 
ATOM     52  C   UNL A   1      43.969  29.525  32.947  1.00  0.00     0.049 A 
ATOM     53  C   UNL A   1      43.812  25.441  29.100  1.00  0.00     0.074 A 
ATOM     54  C   UNL A   1      45.076  29.549  33.778  1.00  0.00     0.029 A 
ATOM     55  N   UNL A   1      44.160  28.467  32.065  1.00  0.00    -0.354 N 
ATOM     56  N   UNL A   1      43.995  26.346  30.033  1.00  0.00    -0.248 NA
ATOM     57  C   UNL A   1      44.936  24.512  28.931  1.00  0.00     0.031 C 
ATOM     58  C   UNL A   1      45.965  28.551  33.356  1.00  0.00     0.029 A 
ATOM     59  C   UNL A   1      45.380  27.855  32.309  1.00  0.00     0.049 A 
ATOM     60  H   UNL A   1      43.521  28.194  31.368  1.00  0.00     0.167 HD
ATOM     61  C   UNL A   1      45.242  26.071  30.588  1.00  0.00     0.074 A 
ATOM     62  C   UNL A   1      45.760  24.913  29.887  1.00  0.00     0.031 C 
ATOM     63  C   UNL A   1      45.894  26.709  31.593  1.00  0.00     0.034 A 
BRANCH  50  64
ATOM     64  C   UNL A   1      42.800  31.591  33.884  1.00  0.00     0.023 A 
ATOM     65  C   UNL A   1      42.315  31.479  35.200  1.00  0.00     0.031 A 
ATOM     66  C   UNL A   1      43.196  32.864  33.438  1.00  0.00     0.131 A 
ATOM     67  C   UNL A   1      42.133  32.630  35.981  1.00  0.00     0.055 A 
ATOM     68  C   UNL A   1      43.107  33.992  34.257  1.00  0.00     0.041 A 
ATOM     69  F   UNL A   1      43.651  33.041  32.188  1.00  0.00    -0.206 F 
ATOM     70  C   UNL A   1      42.550  33.884  35.528  1.00  0.00     0.022 A 
BRANCH  67  71
ATOM     71  S   UNL A   1      41.164  32.490  37.508  1.00  0.00     0.124 S 
ATOM     72  O   UNL A   1      41.073  33.886  37.929  1.00  0.00    -0.237 OA
ATOM     73  O   UNL A   1      39.923  31.882  37.038  1.00  0.00    -0.237 OA
ATOM     74  O   UNL A   1      41.992  31.642  38.363  1.00  0.00    -0.744 OA
ENDBRANCH  67  71
ENDBRANCH  50  64
BRANCH  51  75
ATOM     75  C   UNL A   1      42.608  24.124  27.205  1.00  0.00     0.023 A 
ATOM     76  C   UNL A   1      42.009  22.893  27.513  1.00  0.00     0.031 A 
ATOM     77  C   UNL A   1      43.213  24.269  25.944  1.00  0.00     0.131 A 
ATOM     78  C   UNL A   1      42.059  21.840  26.589  1.00  0.00     0.055 A 
ATOM     79  C   UNL A   1      43.222  23.232  25.010  1.00  0.00     0.041 A 
ATOM     80  F   UNL A   1      43.791  25.430  25.597  1.00  0.00    -0.206 F 
ATOM     81  C   UNL A   1      42.652  22.004  25.334  1.00  0.00     0.022 A 
BRANCH  78  82
ATOM     82  S   UNL A   1      41.387  20.227  27.074  1.00  0.00     0.124 S 
ATOM     83  O   UNL A   1      42.599  19.424  27.194  1.00  0.00    -0.237 OA
ATOM     84  O   UNL A   1      40.701  20.547  28.322  1.00  0.00    -0.237 OA
ATOM     85  O   UNL A   1      40.512  19.875  25.958  1.00  0.00    -0.744 OA
ENDBRANCH  78  82
ENDBRANCH  51  75
BRANCH  63  86
ATOM     86  C   UNL A   1      47.220  26.131  32.025  1.00  0.00     0.023 A 
ATOM     87  C   UNL A   1      48.414  26.419  31.340  1.00  0.00     0.031 A 
ATOM     88  C   UNL A   1      47.283  25.261  33.128  1.00  0.00     0.131 A 
ATOM     89  C   UNL A   1      49.610  25.798  31.732  1.00  0.00     0.055 A 
ATOM     90  C   UNL A   1      48.486  24.695  33.551  1.00  0.00     0.041 A 
ATOM     91  F   UNL A   1      46.173  24.949  33.817  1.00  0.00    -0.206 F 
ATOM     92  C   UNL A   1      49.657  24.951  32.842  1.00  0.00     0.022 A 
BRANCH  89  93
ATOM     93  S   UNL A   1      51.093  26.041  30.714  1.00  0.00     0.124 S 
ATOM     94  O   UNL A   1      52.106  25.319  31.477  1.00  0.00    -0.237 OA
ATOM     95  O   UNL A   1      50.701  25.441  29.444  1.00  0.00    -0.237 OA
ATOM     96  O   UNL A   1      51.256  27.495  30.688  1.00  0.00    -0.744 OA
ENDBRANCH  89  93
ENDBRANCH  63  86
ENDBRANCH  37  38
ENDBRANCH  29  32
ENDBRANCH  27  28
ENDBRANCH   1  27
TORSDOF 16
ENDMDL
