MODEL 1
REMARK VINA RESULT:     -11.3      0.000      0.000
REMARK SMILES C[C@@H](C(=O)NCCCCNC(=O)c1ccc(-c2c3nc(c(-c4cc(S(=O)(=O)[O-])ccc4F)c4ccc([nH]4)c(-c4cc(S(=O)(=O)[O-])ccc4F)c4nc(c(-c5cc(S(=O)(=O)[O-])ccc5F)c5ccc2[nH]5)C=C4)C=C3)cc1)c1ccc(=O)n(C(F)F)c1
REMARK SMILES IDX 8 1 7 2 6 3 5 4 3 5 4 6 2 8 1 9 76 10 77 11 85 12 78 13
REMARK SMILES IDX 81 14 79 15 80 16 82 17 83 18 84 19 9 20 10 21 11 22 12 24
REMARK SMILES IDX 13 25 14 26 75 27 15 28 74 29 16 30 17 31 18 32 68 33 19 34
REMARK SMILES IDX 73 35 67 36 69 37 20 38 72 39 66 40 65 41 21 43 53 44 33 45
REMARK SMILES IDX 52 46 34 47 37 48 51 49 70 50 35 51 36 52 50 54 71 55 38 56
REMARK SMILES IDX 22 57 23 58 31 59 24 60 30 61 32 62 29 63 25 64 26 65 27 66
REMARK SMILES IDX 28 67 54 68 55 69 63 70 56 71 62 72 64 73 61 74 57 75 58 76
REMARK SMILES IDX 59 77 60 78 39 79 40 80 48 81 41 82 47 83 49 84 46 85 42 86
REMARK SMILES IDX 43 87 44 88 45 89
REMARK H PARENT 5 7 10 23 69 42 37 53
REMARK Flexibility Score: inf
ROOT
ATOM      1  C   UNL A   1      31.422  29.518  26.409  1.00  0.00     0.023 C 
ENDROOT
BRANCH   1   2
ATOM      2  C   UNL A   1      31.741  28.282  27.259  1.00  0.00     0.023 C 
BRANCH   2   3
ATOM      3  C   UNL A   1      32.140  27.041  26.458  1.00  0.00     0.116 C 
BRANCH   3   4
ATOM      4  N   UNL A   1      32.856  27.406  25.252  1.00  0.00    -0.356 N 
ATOM      5  C   UNL A   1      32.735  26.943  23.974  1.00  0.00     0.227 C 
ATOM      6  O   UNL A   1      33.563  27.348  23.155  1.00  0.00    -0.274 OA
ATOM      7  H   UNL A   1      33.541  28.102  25.374  1.00  0.00     0.163 HD
BRANCH   5   8
ATOM      8  C   UNL A   1      31.568  26.007  23.589  1.00  0.00     0.107 C 
ATOM      9  C   UNL A   1      31.895  25.178  22.343  1.00  0.00     0.023 C 
BRANCH   8  10
ATOM     10  C   UNL A   1      30.277  26.825  23.481  1.00  0.00    -0.019 A 
ATOM     11  C   UNL A   1      29.010  26.294  23.958  1.00  0.00     0.012 A 
ATOM     12  C   UNL A   1      30.267  28.042  22.904  1.00  0.00     0.099 A 
ATOM     13  C   UNL A   1      27.877  27.000  23.859  1.00  0.00     0.072 A 
ATOM     14  N   UNL A   1      29.104  28.782  22.761  1.00  0.00    -0.258 N 
ATOM     15  C   UNL A   1      27.878  28.346  23.231  1.00  0.00     0.254 A 
ATOM     16  O   UNL A   1      26.821  28.965  23.170  1.00  0.00    -0.269 OA
BRANCH  14  17
ATOM     17  C   UNL A   1      29.122  30.042  22.067  1.00  0.00     0.451 C 
ATOM     18  F   UNL A   1      29.189  31.081  22.937  1.00  0.00    -0.185 F 
ATOM     19  F   UNL A   1      30.194  30.126  21.238  1.00  0.00    -0.185 F 
ENDBRANCH  14  17
ENDBRANCH   8  10
ENDBRANCH   5   8
ENDBRANCH   3   4
ENDBRANCH   2   3
ENDBRANCH   1   2
BRANCH   1  20
ATOM     20  C   UNL A   1      32.598  30.455  26.155  1.00  0.00     0.116 C 
BRANCH  20  21
ATOM     21  N   UNL A   1      32.331  31.824  26.569  1.00  0.00    -0.352 N 
ATOM     22  C   UNL A   1      33.063  32.623  27.416  1.00  0.00     0.251 C 
ATOM     23  H   UNL A   1      31.519  32.233  26.191  1.00  0.00     0.163 HD
ATOM     24  O   UNL A   1      32.619  33.714  27.760  1.00  0.00    -0.269 OA
BRANCH  22  25
ATOM     25  C   UNL A   1      34.358  32.138  27.938  1.00  0.00     0.039 A 
ATOM     26  C   UNL A   1      35.445  33.017  27.979  1.00  0.00     0.014 A 
ATOM     27  C   UNL A   1      34.488  30.832  28.418  1.00  0.00     0.014 A 
ATOM     28  C   UNL A   1      36.642  32.609  28.575  1.00  0.00     0.010 A 
ATOM     29  C   UNL A   1      35.659  30.450  29.067  1.00  0.00     0.010 A 
ATOM     30  C   UNL A   1      36.745  31.338  29.160  1.00  0.00    -0.014 A 
BRANCH  30  31
ATOM     31  C   UNL A   1      37.969  30.906  29.882  1.00  0.00     0.031 A 
ATOM     32  C   UNL A   1      38.891  29.898  29.257  1.00  0.00     0.074 A 
ATOM     33  C   UNL A   1      38.190  31.339  31.140  1.00  0.00     0.049 A 
ATOM     34  N   UNL A   1      39.920  29.279  29.776  1.00  0.00    -0.248 NA
ATOM     35  C   UNL A   1      38.586  29.506  27.872  1.00  0.00     0.031 C 
ATOM     36  C   UNL A   1      37.341  32.281  31.870  1.00  0.00     0.029 A 
ATOM     37  N   UNL A   1      39.179  31.018  32.036  1.00  0.00    -0.354 N 
ATOM     38  C   UNL A   1      40.371  28.405  28.792  1.00  0.00     0.074 A 
ATOM     39  C   UNL A   1      39.467  28.540  27.668  1.00  0.00     0.031 C 
ATOM     40  C   UNL A   1      37.843  32.460  33.103  1.00  0.00     0.029 A 
ATOM     41  C   UNL A   1      39.020  31.613  33.268  1.00  0.00     0.049 A 
ATOM     42  H   UNL A   1      39.930  30.420  31.820  1.00  0.00     0.167 HD
ATOM     43  C   UNL A   1      41.448  27.580  28.820  1.00  0.00     0.034 A 
ATOM     44  C   UNL A   1      39.724  31.471  34.408  1.00  0.00     0.034 A 
ATOM     45  C   UNL A   1      42.347  27.475  29.943  1.00  0.00     0.049 A 
ATOM     46  C   UNL A   1      40.914  30.546  34.423  1.00  0.00     0.074 A 
ATOM     47  C   UNL A   1      43.512  26.737  30.051  1.00  0.00     0.029 A 
ATOM     48  N   UNL A   1      42.172  28.119  31.164  1.00  0.00    -0.354 N 
ATOM     49  N   UNL A   1      41.367  29.773  33.464  1.00  0.00    -0.248 NA
ATOM     50  C   UNL A   1      41.691  30.482  35.667  1.00  0.00     0.031 C 
ATOM     51  C   UNL A   1      44.006  26.881  31.353  1.00  0.00     0.029 A 
ATOM     52  C   UNL A   1      43.189  27.767  32.038  1.00  0.00     0.049 A 
ATOM     53  H   UNL A   1      41.435  28.734  31.376  1.00  0.00     0.167 HD
ATOM     54  C   UNL A   1      42.499  29.150  33.982  1.00  0.00     0.074 A 
ATOM     55  C   UNL A   1      42.662  29.643  35.335  1.00  0.00     0.031 C 
ATOM     56  C   UNL A   1      43.333  28.258  33.388  1.00  0.00     0.034 A 
BRANCH  43  57
ATOM     57  C   UNL A   1      41.684  26.710  27.608  1.00  0.00     0.023 A 
ATOM     58  C   UNL A   1      41.277  25.364  27.573  1.00  0.00     0.031 A 
ATOM     59  C   UNL A   1      42.369  27.217  26.490  1.00  0.00     0.131 A 
ATOM     60  C   UNL A   1      41.640  24.550  26.490  1.00  0.00     0.055 A 
ATOM     61  C   UNL A   1      42.649  26.424  25.375  1.00  0.00     0.041 A 
ATOM     62  F   UNL A   1      42.800  28.488  26.471  1.00  0.00    -0.206 F 
ATOM     63  C   UNL A   1      42.302  25.076  25.379  1.00  0.00     0.022 A 
BRANCH  60  64
ATOM     64  S   UNL A   1      41.387  22.759  26.635  1.00  0.00     0.124 S 
ATOM     65  O   UNL A   1      42.024  22.474  27.918  1.00  0.00    -0.237 OA
ATOM     66  O   UNL A   1      39.935  22.643  26.602  1.00  0.00    -0.237 OA
ATOM     67  O   UNL A   1      42.085  22.220  25.469  1.00  0.00    -0.744 OA
ENDBRANCH  60  64
ENDBRANCH  43  57
BRANCH  44  68
ATOM     68  C   UNL A   1      39.305  32.199  35.638  1.00  0.00     0.023 A 
ATOM     69  C   UNL A   1      38.533  31.571  36.628  1.00  0.00     0.031 A 
ATOM     70  C   UNL A   1      39.666  33.544  35.835  1.00  0.00     0.131 A 
ATOM     71  C   UNL A   1      38.118  32.297  37.755  1.00  0.00     0.055 A 
ATOM     72  C   UNL A   1      39.287  34.250  36.979  1.00  0.00     0.041 A 
ATOM     73  F   UNL A   1      40.412  34.187  34.922  1.00  0.00    -0.206 F 
ATOM     74  C   UNL A   1      38.499  33.628  37.943  1.00  0.00     0.022 A 
BRANCH  71  75
ATOM     75  S   UNL A   1      37.019  31.491  38.952  1.00  0.00     0.124 S 
ATOM     76  O   UNL A   1      36.894  30.153  38.386  1.00  0.00    -0.237 OA
ATOM     77  O   UNL A   1      37.788  31.597  40.187  1.00  0.00    -0.237 OA
ATOM     78  O   UNL A   1      35.808  32.306  38.904  1.00  0.00    -0.744 OA
ENDBRANCH  71  75
ENDBRANCH  44  68
BRANCH  56  79
ATOM     79  C   UNL A   1      44.526  27.795  34.186  1.00  0.00     0.023 A 
ATOM     80  C   UNL A   1      44.488  26.626  34.967  1.00  0.00     0.031 A 
ATOM     81  C   UNL A   1      45.723  28.531  34.150  1.00  0.00     0.131 A 
ATOM     82  C   UNL A   1      45.617  26.247  35.708  1.00  0.00     0.055 A 
ATOM     83  C   UNL A   1      46.859  28.121  34.850  1.00  0.00     0.041 A 
ATOM     84  F   UNL A   1      45.811  29.656  33.421  1.00  0.00    -0.206 F 
ATOM     85  C   UNL A   1      46.807  26.978  35.642  1.00  0.00     0.022 A 
BRANCH  82  86
ATOM     86  S   UNL A   1      45.497  24.812  36.812  1.00  0.00     0.124 S 
ATOM     87  O   UNL A   1      44.376  24.078  36.234  1.00  0.00    -0.237 OA
ATOM     88  O   UNL A   1      46.810  24.192  36.665  1.00  0.00    -0.237 OA
ATOM     89  O   UNL A   1      45.239  25.408  38.123  1.00  0.00    -0.744 OA
ENDBRANCH  82  86
ENDBRANCH  56  79
ENDBRANCH  30  31
ENDBRANCH  22  25
ENDBRANCH  20  21
ENDBRANCH   1  20
TORSDOF 16
ENDMDL
MODEL 2
REMARK VINA RESULT:     -11.3      4.025      9.005
REMARK SMILES C[C@@H](C(=O)NCCCCNC(=O)c1ccc(-c2c3nc(c(-c4cc(S(=O)(=O)[O-])ccc4F)c4ccc([nH]4)c(-c4cc(S(=O)(=O)[O-])ccc4F)c4nc(c(-c5cc(S(=O)(=O)[O-])ccc5F)c5ccc2[nH]5)C=C4)C=C3)cc1)c1ccc(=O)n(C(F)F)c1
REMARK SMILES IDX 8 1 7 2 6 3 5 4 3 5 4 6 2 8 1 9 76 10 77 11 85 12 78 13
REMARK SMILES IDX 81 14 79 15 80 16 82 17 83 18 84 19 9 20 10 21 11 22 12 24
REMARK SMILES IDX 13 25 14 26 75 27 15 28 74 29 16 30 17 31 18 32 68 33 19 34
REMARK SMILES IDX 73 35 67 36 69 37 20 38 72 39 66 40 65 41 21 43 53 44 33 45
REMARK SMILES IDX 52 46 34 47 37 48 51 49 70 50 35 51 36 52 50 54 71 55 38 56
REMARK SMILES IDX 22 57 23 58 31 59 24 60 30 61 32 62 29 63 25 64 26 65 27 66
REMARK SMILES IDX 28 67 54 68 55 69 63 70 56 71 62 72 64 73 61 74 57 75 58 76
REMARK SMILES IDX 59 77 60 78 39 79 40 80 48 81 41 82 47 83 49 84 46 85 42 86
REMARK SMILES IDX 43 87 44 88 45 89
REMARK H PARENT 5 7 10 23 69 42 37 53
REMARK Flexibility Score: inf
ROOT
ATOM      1  C   UNL A   1      33.193  28.020  26.845  1.00  0.00     0.023 C 
ENDROOT
BRANCH   1   2
ATOM      2  C   UNL A   1      32.840  26.765  26.039  1.00  0.00     0.023 C 
BRANCH   2   3
ATOM      3  C   UNL A   1      34.039  25.900  25.644  1.00  0.00     0.116 C 
BRANCH   3   4
ATOM      4  N   UNL A   1      33.897  25.398  24.291  1.00  0.00    -0.356 N 
ATOM      5  C   UNL A   1      34.439  24.299  23.692  1.00  0.00     0.227 C 
ATOM      6  O   UNL A   1      34.244  24.173  22.481  1.00  0.00    -0.274 OA
ATOM      7  H   UNL A   1      33.317  25.940  23.710  1.00  0.00     0.163 HD
BRANCH   5   8
ATOM      8  C   UNL A   1      35.197  23.246  24.530  1.00  0.00     0.107 C 
ATOM      9  C   UNL A   1      36.598  22.981  23.971  1.00  0.00     0.023 C 
BRANCH   8  10
ATOM     10  C   UNL A   1      34.329  21.991  24.675  1.00  0.00    -0.019 A 
ATOM     11  C   UNL A   1      32.919  22.089  25.012  1.00  0.00     0.012 A 
ATOM     12  C   UNL A   1      34.855  20.759  24.537  1.00  0.00     0.099 A 
ATOM     13  C   UNL A   1      32.158  20.997  25.149  1.00  0.00     0.072 A 
ATOM     14  N   UNL A   1      34.098  19.611  24.702  1.00  0.00    -0.258 N 
ATOM     15  C   UNL A   1      32.743  19.642  24.984  1.00  0.00     0.254 A 
ATOM     16  O   UNL A   1      32.009  18.667  25.106  1.00  0.00    -0.269 OA
BRANCH  14  17
ATOM     17  C   UNL A   1      34.714  18.313  24.624  1.00  0.00     0.451 C 
ATOM     18  F   UNL A   1      34.398  17.688  23.462  1.00  0.00    -0.185 F 
ATOM     19  F   UNL A   1      36.065  18.411  24.689  1.00  0.00    -0.185 F 
ENDBRANCH  14  17
ENDBRANCH   8  10
ENDBRANCH   5   8
ENDBRANCH   3   4
ENDBRANCH   2   3
ENDBRANCH   1   2
BRANCH   1  20
ATOM     20  C   UNL A   1      33.949  29.098  26.076  1.00  0.00     0.116 C 
BRANCH  20  21
ATOM     21  N   UNL A   1      33.847  30.411  26.694  1.00  0.00    -0.352 N 
ATOM     22  C   UNL A   1      34.653  30.970  27.658  1.00  0.00     0.251 C 
ATOM     23  H   UNL A   1      33.102  30.974  26.381  1.00  0.00     0.163 HD
ATOM     24  O   UNL A   1      34.343  32.045  28.165  1.00  0.00    -0.269 OA
BRANCH  22  25
ATOM     25  C   UNL A   1      35.864  30.249  28.105  1.00  0.00     0.039 A 
ATOM     26  C   UNL A   1      37.019  30.312  27.321  1.00  0.00     0.014 A 
ATOM     27  C   UNL A   1      35.868  29.545  29.312  1.00  0.00     0.014 A 
ATOM     28  C   UNL A   1      38.203  29.732  27.786  1.00  0.00     0.010 A 
ATOM     29  C   UNL A   1      37.062  29.024  29.802  1.00  0.00     0.010 A 
ATOM     30  C   UNL A   1      38.244  29.120  29.048  1.00  0.00    -0.014 A 
BRANCH  30  31
ATOM     31  C   UNL A   1      39.506  28.576  29.613  1.00  0.00     0.031 A 
ATOM     32  C   UNL A   1      40.201  29.303  30.729  1.00  0.00     0.074 A 
ATOM     33  C   UNL A   1      40.078  27.493  29.049  1.00  0.00     0.049 A 
ATOM     34  N   UNL A   1      41.378  29.085  31.256  1.00  0.00    -0.248 NA
ATOM     35  C   UNL A   1      39.488  30.456  31.298  1.00  0.00     0.031 C 
ATOM     36  C   UNL A   1      39.522  26.730  27.930  1.00  0.00     0.029 A 
ATOM     37  N   UNL A   1      41.268  26.865  29.321  1.00  0.00    -0.354 N 
ATOM     38  C   UNL A   1      41.561  30.089  32.202  1.00  0.00     0.074 A 
ATOM     39  C   UNL A   1      40.393  30.943  32.134  1.00  0.00     0.031 C 
ATOM     40  C   UNL A   1      40.370  25.740  27.609  1.00  0.00     0.029 A 
ATOM     41  C   UNL A   1      41.549  25.824  28.465  1.00  0.00     0.049 A 
ATOM     42  H   UNL A   1      41.864  27.134  30.056  1.00  0.00     0.167 HD
ATOM     43  C   UNL A   1      42.598  30.268  33.058  1.00  0.00     0.034 A 
ATOM     44  C   UNL A   1      42.644  25.044  28.362  1.00  0.00     0.034 A 
ATOM     45  C   UNL A   1      43.743  29.393  33.122  1.00  0.00     0.049 A 
ATOM     46  C   UNL A   1      43.789  25.262  29.317  1.00  0.00     0.074 A 
ATOM     47  C   UNL A   1      44.810  29.431  34.002  1.00  0.00     0.029 A 
ATOM     48  N   UNL A   1      43.979  28.328  32.261  1.00  0.00    -0.354 N 
ATOM     49  N   UNL A   1      43.921  26.175  30.251  1.00  0.00    -0.248 NA
ATOM     50  C   UNL A   1      44.927  24.339  29.213  1.00  0.00     0.031 C 
ATOM     51  C   UNL A   1      45.720  28.434  33.634  1.00  0.00     0.029 A 
ATOM     52  C   UNL A   1      45.188  27.724  32.568  1.00  0.00     0.049 A 
ATOM     53  H   UNL A   1      43.375  28.043  31.538  1.00  0.00     0.167 HD
ATOM     54  C   UNL A   1      45.145  25.920  30.862  1.00  0.00     0.074 A 
ATOM     55  C   UNL A   1      45.709  24.764  30.195  1.00  0.00     0.031 C 
ATOM     56  C   UNL A   1      45.744  26.578  31.888  1.00  0.00     0.034 A 
BRANCH  43  57
ATOM     57  C   UNL A   1      42.545  31.475  33.965  1.00  0.00     0.023 A 
ATOM     58  C   UNL A   1      41.834  31.458  35.178  1.00  0.00     0.031 A 
ATOM     59  C   UNL A   1      43.176  32.675  33.592  1.00  0.00     0.131 A 
ATOM     60  C   UNL A   1      41.689  32.638  35.922  1.00  0.00     0.055 A 
ATOM     61  C   UNL A   1      43.103  33.823  34.383  1.00  0.00     0.041 A 
ATOM     62  F   UNL A   1      43.854  32.759  32.436  1.00  0.00    -0.206 F 
ATOM     63  C   UNL A   1      42.340  33.815  35.547  1.00  0.00     0.022 A 
BRANCH  60  64
ATOM     64  S   UNL A   1      40.499  32.654  37.291  1.00  0.00     0.124 S 
ATOM     65  O   UNL A   1      40.002  34.026  37.235  1.00  0.00    -0.237 OA
ATOM     66  O   UNL A   1      39.554  31.615  36.898  1.00  0.00    -0.237 OA
ATOM     67  O   UNL A   1      41.318  32.344  38.461  1.00  0.00    -0.744 OA
ENDBRANCH  60  64
ENDBRANCH  43  57
BRANCH  44  68
ATOM     68  C   UNL A   1      42.722  24.006  27.298  1.00  0.00     0.023 A 
ATOM     69  C   UNL A   1      42.113  22.751  27.459  1.00  0.00     0.031 A 
ATOM     70  C   UNL A   1      43.421  24.253  26.103  1.00  0.00     0.131 A 
ATOM     71  C   UNL A   1      42.242  21.779  26.455  1.00  0.00     0.055 A 
ATOM     72  C   UNL A   1      43.510  23.298  25.088  1.00  0.00     0.041 A 
ATOM     73  F   UNL A   1      44.013  25.441  25.896  1.00  0.00    -0.206 F 
ATOM     74  C   UNL A   1      42.926  22.048  25.266  1.00  0.00     0.022 A 
BRANCH  71  75
ATOM     75  S   UNL A   1      41.549  20.129  26.748  1.00  0.00     0.124 S 
ATOM     76  O   UNL A   1      41.604  19.541  25.415  1.00  0.00    -0.237 OA
ATOM     77  O   UNL A   1      42.479  19.581  27.730  1.00  0.00    -0.237 OA
ATOM     78  O   UNL A   1      40.207  20.409  27.254  1.00  0.00    -0.744 OA
ENDBRANCH  71  75
ENDBRANCH  44  68
BRANCH  56  79
ATOM     79  C   UNL A   1      47.058  26.030  32.382  1.00  0.00     0.023 A 
ATOM     80  C   UNL A   1      48.287  26.449  31.842  1.00  0.00     0.031 A 
ATOM     81  C   UNL A   1      47.078  25.084  33.422  1.00  0.00     0.131 A 
ATOM     82  C   UNL A   1      49.484  25.895  32.322  1.00  0.00     0.055 A 
ATOM     83  C   UNL A   1      48.274  24.574  33.929  1.00  0.00     0.041 A 
ATOM     84  F   UNL A   1      45.932  24.649  33.971  1.00  0.00    -0.206 F 
ATOM     85  C   UNL A   1      49.485  24.973  33.372  1.00  0.00     0.022 A 
BRANCH  82  86
ATOM     86  S   UNL A   1      51.044  26.351  31.516  1.00  0.00     0.124 S 
ATOM     87  O   UNL A   1      51.468  27.501  32.306  1.00  0.00    -0.237 OA
ATOM     88  O   UNL A   1      51.843  25.139  31.671  1.00  0.00    -0.237 OA
ATOM     89  O   UNL A   1      50.644  26.655  30.142  1.00  0.00    -0.744 OA
ENDBRANCH  82  86
ENDBRANCH  56  79
ENDBRANCH  30  31
ENDBRANCH  22  25
ENDBRANCH  20  21
ENDBRANCH   1  20
TORSDOF 16
ENDMDL
MODEL 3
REMARK VINA RESULT:     -11.3      2.456      3.454
REMARK SMILES C[C@@H](C(=O)NCCCCNC(=O)c1ccc(-c2c3nc(c(-c4cc(S(=O)(=O)[O-])ccc4F)c4ccc([nH]4)c(-c4cc(S(=O)(=O)[O-])ccc4F)c4nc(c(-c5cc(S(=O)(=O)[O-])ccc5F)c5ccc2[nH]5)C=C4)C=C3)cc1)c1ccc(=O)n(C(F)F)c1
REMARK SMILES IDX 8 1 7 2 6 3 5 4 3 5 4 6 2 8 1 9 76 10 77 11 85 12 78 13
REMARK SMILES IDX 81 14 79 15 80 16 82 17 83 18 84 19 9 20 10 21 11 22 12 24
REMARK SMILES IDX 13 25 14 26 75 27 15 28 74 29 16 30 17 31 18 32 68 33 19 34
REMARK SMILES IDX 73 35 67 36 69 37 20 38 72 39 66 40 65 41 21 43 53 44 33 45
REMARK SMILES IDX 52 46 34 47 37 48 51 49 70 50 35 51 36 52 50 54 71 55 38 56
REMARK SMILES IDX 22 57 23 58 31 59 24 60 30 61 32 62 29 63 25 64 26 65 27 66
REMARK SMILES IDX 28 67 54 68 55 69 63 70 56 71 62 72 64 73 61 74 57 75 58 76
REMARK SMILES IDX 59 77 60 78 39 79 40 80 48 81 41 82 47 83 49 84 46 85 42 86
REMARK SMILES IDX 43 87 44 88 45 89
REMARK H PARENT 5 7 10 23 69 42 37 53
REMARK Flexibility Score: inf
ROOT
ATOM      1  C   UNL A   1      31.754  29.451  27.060  1.00  0.00     0.023 C 
ENDROOT
BRANCH   1   2
ATOM      2  C   UNL A   1      32.325  28.029  27.094  1.00  0.00     0.023 C 
BRANCH   2   3
ATOM      3  C   UNL A   1      31.560  27.012  26.245  1.00  0.00     0.116 C 
BRANCH   3   4
ATOM      4  N   UNL A   1      31.447  25.740  26.931  1.00  0.00    -0.356 N 
ATOM      5  C   UNL A   1      31.499  24.465  26.448  1.00  0.00     0.227 C 
ATOM      6  O   UNL A   1      31.251  23.558  27.246  1.00  0.00    -0.274 OA
ATOM      7  H   UNL A   1      31.309  25.807  27.903  1.00  0.00     0.163 HD
BRANCH   5   8
ATOM      8  C   UNL A   1      31.916  24.199  24.985  1.00  0.00     0.107 C 
ATOM      9  C   UNL A   1      30.718  24.271  24.033  1.00  0.00     0.023 C 
BRANCH   8  10
ATOM     10  C   UNL A   1      32.701  22.885  24.912  1.00  0.00    -0.019 A 
ATOM     11  C   UNL A   1      32.030  21.623  24.647  1.00  0.00     0.012 A 
ATOM     12  C   UNL A   1      34.030  22.853  25.131  1.00  0.00     0.099 A 
ATOM     13  C   UNL A   1      32.709  20.471  24.590  1.00  0.00     0.072 A 
ATOM     14  N   UNL A   1      34.753  21.671  25.108  1.00  0.00    -0.258 N 
ATOM     15  C   UNL A   1      34.175  20.447  24.822  1.00  0.00     0.254 A 
ATOM     16  O   UNL A   1      34.762  19.372  24.750  1.00  0.00    -0.269 OA
BRANCH  14  17
ATOM     17  C   UNL A   1      36.156  21.668  25.426  1.00  0.00     0.451 C 
ATOM     18  F   UNL A   1      36.914  21.652  24.301  1.00  0.00    -0.185 F 
ATOM     19  F   UNL A   1      36.496  22.772  26.138  1.00  0.00    -0.185 F 
ENDBRANCH  14  17
ENDBRANCH   8  10
ENDBRANCH   5   8
ENDBRANCH   3   4
ENDBRANCH   2   3
ENDBRANCH   1   2
BRANCH   1  20
ATOM     20  C   UNL A   1      32.539  30.448  26.213  1.00  0.00     0.116 C 
BRANCH  20  21
ATOM     21  N   UNL A   1      32.278  31.832  26.581  1.00  0.00    -0.352 N 
ATOM     22  C   UNL A   1      33.015  32.656  27.399  1.00  0.00     0.251 C 
ATOM     23  H   UNL A   1      31.465  32.230  26.193  1.00  0.00     0.163 HD
ATOM     24  O   UNL A   1      32.576  33.760  27.707  1.00  0.00    -0.269 OA
BRANCH  22  25
ATOM     25  C   UNL A   1      34.310  32.185  27.932  1.00  0.00     0.039 A 
ATOM     26  C   UNL A   1      35.393  33.069  27.966  1.00  0.00     0.014 A 
ATOM     27  C   UNL A   1      34.444  30.887  28.432  1.00  0.00     0.014 A 
ATOM     28  C   UNL A   1      36.589  32.675  28.572  1.00  0.00     0.010 A 
ATOM     29  C   UNL A   1      35.614  30.519  29.090  1.00  0.00     0.010 A 
ATOM     30  C   UNL A   1      36.695  31.413  29.175  1.00  0.00    -0.014 A 
BRANCH  30  31
ATOM     31  C   UNL A   1      37.919  30.997  29.908  1.00  0.00     0.031 A 
ATOM     32  C   UNL A   1      38.859  30.000  29.291  1.00  0.00     0.074 A 
ATOM     33  C   UNL A   1      38.123  31.433  31.168  1.00  0.00     0.049 A 
ATOM     34  N   UNL A   1      39.891  29.394  29.820  1.00  0.00    -0.248 NA
ATOM     35  C   UNL A   1      38.571  29.604  27.905  1.00  0.00     0.031 C 
ATOM     36  C   UNL A   1      37.256  32.365  31.890  1.00  0.00     0.029 A 
ATOM     37  N   UNL A   1      39.108  31.125  32.073  1.00  0.00    -0.354 N 
ATOM     38  C   UNL A   1      40.361  28.525  28.841  1.00  0.00     0.074 A 
ATOM     39  C   UNL A   1      39.466  28.649  27.708  1.00  0.00     0.031 C 
ATOM     40  C   UNL A   1      37.745  32.550  33.127  1.00  0.00     0.029 A 
ATOM     41  C   UNL A   1      38.931  31.718  33.303  1.00  0.00     0.049 A 
ATOM     42  H   UNL A   1      39.869  30.536  31.864  1.00  0.00     0.167 HD
ATOM     43  C   UNL A   1      41.448  27.715  28.878  1.00  0.00     0.034 A 
ATOM     44  C   UNL A   1      39.627  31.585  34.449  1.00  0.00     0.034 A 
ATOM     45  C   UNL A   1      42.338  27.622  30.009  1.00  0.00     0.049 A 
ATOM     46  C   UNL A   1      40.828  30.675  34.475  1.00  0.00     0.074 A 
ATOM     47  C   UNL A   1      43.512  26.898  30.128  1.00  0.00     0.029 A 
ATOM     48  N   UNL A   1      42.145  28.263  31.228  1.00  0.00    -0.354 N 
ATOM     49  N   UNL A   1      41.299  29.908  33.520  1.00  0.00    -0.248 NA
ATOM     50  C   UNL A   1      41.595  30.622  35.726  1.00  0.00     0.031 C 
ATOM     51  C   UNL A   1      43.993  27.049  31.434  1.00  0.00     0.029 A 
ATOM     52  C   UNL A   1      43.159  27.925  32.111  1.00  0.00     0.049 A 
ATOM     53  H   UNL A   1      41.398  28.869  31.434  1.00  0.00     0.167 HD
ATOM     54  C   UNL A   1      42.434  29.300  34.048  1.00  0.00     0.074 A 
ATOM     55  C   UNL A   1      42.579  29.795  35.403  1.00  0.00     0.031 C 
ATOM     56  C   UNL A   1      43.285  28.418  33.462  1.00  0.00     0.034 A 
BRANCH  43  57
ATOM     57  C   UNL A   1      41.707  26.847  27.669  1.00  0.00     0.023 A 
ATOM     58  C   UNL A   1      41.258  25.516  27.605  1.00  0.00     0.031 A 
ATOM     59  C   UNL A   1      42.452  27.341  26.584  1.00  0.00     0.131 A 
ATOM     60  C   UNL A   1      41.640  24.699  26.530  1.00  0.00     0.055 A 
ATOM     61  C   UNL A   1      42.752  26.548  25.474  1.00  0.00     0.041 A 
ATOM     62  F   UNL A   1      42.923  28.598  26.595  1.00  0.00    -0.206 F 
ATOM     63  C   UNL A   1      42.363  25.212  25.451  1.00  0.00     0.022 A 
BRANCH  60  64
ATOM     64  S   UNL A   1      41.325  22.916  26.647  1.00  0.00     0.124 S 
ATOM     65  O   UNL A   1      39.881  22.856  26.432  1.00  0.00    -0.237 OA
ATOM     66  O   UNL A   1      42.154  22.379  25.575  1.00  0.00    -0.237 OA
ATOM     67  O   UNL A   1      41.759  22.580  28.002  1.00  0.00    -0.744 OA
ENDBRANCH  60  64
ENDBRANCH  43  57
BRANCH  44  68
ATOM     68  C   UNL A   1      39.188  32.308  35.676  1.00  0.00     0.023 A 
ATOM     69  C   UNL A   1      38.475  31.652  36.691  1.00  0.00     0.031 A 
ATOM     70  C   UNL A   1      39.469  33.676  35.842  1.00  0.00     0.131 A 
ATOM     71  C   UNL A   1      38.038  32.372  37.814  1.00  0.00     0.055 A 
ATOM     72  C   UNL A   1      39.070  34.378  36.981  1.00  0.00     0.041 A 
ATOM     73  F   UNL A   1      40.157  34.347  34.904  1.00  0.00    -0.206 F 
ATOM     74  C   UNL A   1      38.340  33.727  37.971  1.00  0.00     0.022 A 
BRANCH  71  75
ATOM     75  S   UNL A   1      37.013  31.523  39.046  1.00  0.00     0.124 S 
ATOM     76  O   UNL A   1      36.813  30.221  38.419  1.00  0.00    -0.237 OA
ATOM     77  O   UNL A   1      37.876  31.543  40.222  1.00  0.00    -0.237 OA
ATOM     78  O   UNL A   1      35.821  32.363  39.135  1.00  0.00    -0.744 OA
ENDBRANCH  71  75
ENDBRANCH  44  68
BRANCH  56  79
ATOM     79  C   UNL A   1      44.476  27.970  34.271  1.00  0.00     0.023 A 
ATOM     80  C   UNL A   1      44.433  26.823  35.083  1.00  0.00     0.031 A 
ATOM     81  C   UNL A   1      45.677  28.698  34.213  1.00  0.00     0.131 A 
ATOM     82  C   UNL A   1      45.561  26.458  35.833  1.00  0.00     0.055 A 
ATOM     83  C   UNL A   1      46.812  28.301  34.923  1.00  0.00     0.041 A 
ATOM     84  F   UNL A   1      45.770  29.803  33.454  1.00  0.00    -0.206 F 
ATOM     85  C   UNL A   1      46.755  27.180  35.745  1.00  0.00     0.022 A 
BRANCH  82  86
ATOM     86  S   UNL A   1      45.435  25.055  36.976  1.00  0.00     0.124 S 
ATOM     87  O   UNL A   1      44.101  25.240  37.537  1.00  0.00    -0.237 OA
ATOM     88  O   UNL A   1      45.599  23.910  36.085  1.00  0.00    -0.237 OA
ATOM     89  O   UNL A   1      46.538  25.273  37.911  1.00  0.00    -0.744 OA
ENDBRANCH  82  86
ENDBRANCH  56  79
ENDBRANCH  30  31
ENDBRANCH  22  25
ENDBRANCH  20  21
ENDBRANCH   1  20
TORSDOF 16
ENDMDL
