MODEL 1
REMARK VINA RESULT:     -12.8      0.000      0.000
REMARK SMILES Cc1cc2c(c(C)c1Cl)C=C(C(=O)NCCCCNC(=O)c1ccc(-c3c4nc(c(-c5cc(S(=O)(=O)[O-])ccc5F)c5ccc([nH]5)c(-c5cc(S(=O)(=O)[O-])ccc5F)c5nc(c(-c6cc(S(=O)(=O)[O-])ccc6F)c6ccc3[nH]6)C=C5)C=C4)cc1)[C@@H](C(F)(F)F)O2
REMARK SMILES IDX 17 1 16 2 15 3 14 4 12 5 13 6 11 8 1 9 2 10 3 11 8 12 4 13
REMARK SMILES IDX 6 14 9 15 5 16 90 17 7 18 10 19 85 20 86 21 87 22 88 23
REMARK SMILES IDX 89 24 18 25 19 26 20 27 21 29 22 30 23 31 84 32 24 33 83 34
REMARK SMILES IDX 25 35 26 36 27 37 77 38 28 39 82 40 76 41 78 42 29 43 81 44
REMARK SMILES IDX 75 45 74 46 30 48 62 49 42 50 61 51 43 52 46 53 60 54 79 55
REMARK SMILES IDX 44 56 45 57 59 59 80 60 47 61 31 62 32 63 40 64 33 65 39 66
REMARK SMILES IDX 41 67 38 68 34 69 35 70 36 71 37 72 63 73 64 74 72 75 65 76
REMARK SMILES IDX 71 77 73 78 70 79 66 80 67 81 68 82 69 83 48 84 49 85 57 86
REMARK SMILES IDX 50 87 56 88 58 89 55 90 51 91 52 92 53 93 54 94
REMARK H PARENT 14 7 19 28 78 47 46 58
REMARK Flexibility Score: inf
ROOT
ATOM      1  C   UNL A   1      36.812  20.418  24.905  1.00  0.00     0.023 C 
ENDROOT
BRANCH   1   2
ATOM      2  C   UNL A   1      35.532  21.205  25.201  1.00  0.00     0.023 C 
BRANCH   2   3
ATOM      3  C   UNL A   1      35.692  22.282  26.270  1.00  0.00     0.116 C 
BRANCH   3   4
ATOM      4  N   UNL A   1      34.515  22.389  27.115  1.00  0.00    -0.352 N 
ATOM      5  C   UNL A   1      33.351  23.079  27.105  1.00  0.00     0.251 C 
ATOM      6  O   UNL A   1      32.605  22.866  28.066  1.00  0.00    -0.270 OA
ATOM      7  H   UNL A   1      34.582  21.805  27.905  1.00  0.00     0.163 HD
BRANCH   5   8
ATOM      8  C   UNL A   1      32.924  24.041  26.045  1.00  0.00     0.067 C 
ATOM      9  C   UNL A   1      31.248  29.203  22.436  1.00  0.00     0.046 C 
ATOM     10  C   UNL A   1      31.596  28.227  23.526  1.00  0.00    -0.028 A 
ATOM     11  C   UNL A   1      31.978  26.930  23.168  1.00  0.00     0.052 A 
ATOM     12  C   UNL A   1      31.567  28.576  24.892  1.00  0.00     0.047 A 
ATOM     13  C   UNL A   1      32.319  26.000  24.145  1.00  0.00     0.128 A 
ATOM     14  C   UNL A   1      31.908  27.637  25.896  1.00  0.00    -0.021 A 
ATOM     15  Cl  UNL A   1      31.118  30.202  25.316  1.00  0.00    -0.084 Cl
ATOM     16  C   UNL A   1      32.308  26.336  25.501  1.00  0.00     0.022 A 
ATOM     17  O   UNL A   1      32.708  24.775  23.681  1.00  0.00    -0.475 OA
ATOM     18  C   UNL A   1      31.881  27.996  27.363  1.00  0.00     0.047 C 
ATOM     19  C   UNL A   1      32.764  25.316  26.450  1.00  0.00     0.026 C 
ATOM     20  C   UNL A   1      32.633  23.670  24.623  1.00  0.00     0.314 C 
BRANCH  20  21
ATOM     21  C   UNL A   1      31.282  22.950  24.459  1.00  0.00     0.429 C 
ATOM     22  F   UNL A   1      31.415  21.626  24.720  1.00  0.00    -0.167 F 
ATOM     23  F   UNL A   1      30.338  23.417  25.309  1.00  0.00    -0.167 F 
ATOM     24  F   UNL A   1      30.780  23.066  23.208  1.00  0.00    -0.167 F 
ENDBRANCH  20  21
ENDBRANCH   5   8
ENDBRANCH   3   4
ENDBRANCH   2   3
ENDBRANCH   1   2
BRANCH   1  25
ATOM     25  C   UNL A   1      38.115  21.093  25.332  1.00  0.00     0.116 C 
BRANCH  25  26
ATOM     26  N   UNL A   1      39.156  20.162  25.744  1.00  0.00    -0.352 N 
ATOM     27  C   UNL A   1      40.283  20.437  26.484  1.00  0.00     0.251 C 
ATOM     28  H   UNL A   1      39.040  19.227  25.459  1.00  0.00     0.163 HD
ATOM     29  O   UNL A   1      41.112  19.563  26.713  1.00  0.00    -0.269 OA
BRANCH  27  30
ATOM     30  C   UNL A   1      40.490  21.821  26.947  1.00  0.00     0.039 A 
ATOM     31  C   UNL A   1      41.350  22.047  28.021  1.00  0.00     0.014 A 
ATOM     32  C   UNL A   1      39.931  22.887  26.235  1.00  0.00     0.014 A 
ATOM     33  C   UNL A   1      41.722  23.355  28.333  1.00  0.00     0.010 A 
ATOM     34  C   UNL A   1      40.346  24.185  26.514  1.00  0.00     0.010 A 
ATOM     35  C   UNL A   1      41.259  24.426  27.552  1.00  0.00    -0.014 A 
BRANCH  35  36
ATOM     36  C   UNL A   1      41.744  25.806  27.794  1.00  0.00     0.031 A 
ATOM     37  C   UNL A   1      43.091  26.229  27.287  1.00  0.00     0.074 A 
ATOM     38  C   UNL A   1      40.988  26.658  28.514  1.00  0.00     0.049 A 
ATOM     39  N   UNL A   1      43.710  27.370  27.442  1.00  0.00    -0.248 NA
ATOM     40  C   UNL A   1      43.854  25.226  26.528  1.00  0.00     0.031 C 
ATOM     41  C   UNL A   1      39.678  26.344  29.095  1.00  0.00     0.029 A 
ATOM     42  N   UNL A   1      41.206  27.961  28.879  1.00  0.00    -0.354 N 
ATOM     43  C   UNL A   1      44.936  27.223  26.806  1.00  0.00     0.074 A 
ATOM     44  C   UNL A   1      44.995  25.863  26.312  1.00  0.00     0.031 C 
ATOM     45  C   UNL A   1      39.195  27.438  29.707  1.00  0.00     0.029 A 
ATOM     46  C   UNL A   1      40.171  28.518  29.593  1.00  0.00     0.049 A 
ATOM     47  H   UNL A   1      42.028  28.454  28.651  1.00  0.00     0.167 HD
ATOM     48  C   UNL A   1      45.913  28.145  26.629  1.00  0.00     0.034 A 
ATOM     49  C   UNL A   1      40.025  29.759  30.096  1.00  0.00     0.034 A 
ATOM     50  C   UNL A   1      45.834  29.501  27.103  1.00  0.00     0.049 A 
ATOM     51  C   UNL A   1      41.126  30.763  29.896  1.00  0.00     0.074 A 
ATOM     52  C   UNL A   1      46.745  30.529  26.936  1.00  0.00     0.029 A 
ATOM     53  N   UNL A   1      44.777  30.021  27.838  1.00  0.00    -0.354 N 
ATOM     54  N   UNL A   1      42.276  30.610  29.281  1.00  0.00    -0.248 NA
ATOM     55  C   UNL A   1      40.914  32.104  30.457  1.00  0.00     0.031 C 
ATOM     56  C   UNL A   1      46.258  31.659  27.602  1.00  0.00     0.029 A 
ATOM     57  C   UNL A   1      45.022  31.348  28.145  1.00  0.00     0.049 A 
ATOM     58  H   UNL A   1      43.972  29.519  28.101  1.00  0.00     0.167 HD
ATOM     59  C   UNL A   1      42.917  31.840  29.368  1.00  0.00     0.074 A 
ATOM     60  C   UNL A   1      42.028  32.725  30.094  1.00  0.00     0.031 C 
ATOM     61  C   UNL A   1      44.129  32.206  28.884  1.00  0.00     0.034 A 
BRANCH  48  62
ATOM     62  C   UNL A   1      47.149  27.701  25.894  1.00  0.00     0.023 A 
ATOM     63  C   UNL A   1      47.304  27.941  24.519  1.00  0.00     0.031 A 
ATOM     64  C   UNL A   1      48.169  27.008  26.568  1.00  0.00     0.131 A 
ATOM     65  C   UNL A   1      48.424  27.435  23.845  1.00  0.00     0.055 A 
ATOM     66  C   UNL A   1      49.316  26.568  25.905  1.00  0.00     0.041 A 
ATOM     67  F   UNL A   1      48.061  26.737  27.878  1.00  0.00    -0.206 F 
ATOM     68  C   UNL A   1      49.443  26.771  24.533  1.00  0.00     0.022 A 
BRANCH  65  69
ATOM     69  S   UNL A   1      48.486  27.573  22.039  1.00  0.00     0.124 S 
ATOM     70  O   UNL A   1      47.168  28.133  21.746  1.00  0.00    -0.237 OA
ATOM     71  O   UNL A   1      49.619  28.464  21.824  1.00  0.00    -0.237 OA
ATOM     72  O   UNL A   1      48.685  26.194  21.597  1.00  0.00    -0.744 OA
ENDBRANCH  65  69
ENDBRANCH  48  62
BRANCH  49  73
ATOM     73  C   UNL A   1      38.785  30.124  30.831  1.00  0.00     0.023 A 
ATOM     74  C   UNL A   1      37.783  30.886  30.212  1.00  0.00     0.031 A 
ATOM     75  C   UNL A   1      38.585  29.712  32.160  1.00  0.00     0.131 A 
ATOM     76  C   UNL A   1      36.629  31.236  30.931  1.00  0.00     0.055 A 
ATOM     77  C   UNL A   1      37.423  30.039  32.861  1.00  0.00     0.041 A 
ATOM     78  F   UNL A   1      39.511  28.970  32.786  1.00  0.00    -0.206 F 
ATOM     79  C   UNL A   1      36.439  30.811  32.249  1.00  0.00     0.022 A 
BRANCH  76  80
ATOM     80  S   UNL A   1      35.380  32.271  30.122  1.00  0.00     0.124 S 
ATOM     81  O   UNL A   1      35.003  31.444  28.981  1.00  0.00    -0.237 OA
ATOM     82  O   UNL A   1      34.376  32.414  31.172  1.00  0.00    -0.237 OA
ATOM     83  O   UNL A   1      36.111  33.493  29.795  1.00  0.00    -0.744 OA
ENDBRANCH  76  80
ENDBRANCH  49  73
BRANCH  61  84
ATOM     84  C   UNL A   1      44.554  33.630  29.102  1.00  0.00     0.023 A 
ATOM     85  C   UNL A   1      44.087  34.664  28.275  1.00  0.00     0.031 A 
ATOM     86  C   UNL A   1      45.393  33.958  30.181  1.00  0.00     0.131 A 
ATOM     87  C   UNL A   1      44.481  35.985  28.528  1.00  0.00     0.055 A 
ATOM     88  C   UNL A   1      45.754  35.278  30.448  1.00  0.00     0.041 A 
ATOM     89  F   UNL A   1      45.857  33.000  30.998  1.00  0.00    -0.206 F 
ATOM     90  C   UNL A   1      45.298  36.300  29.618  1.00  0.00     0.022 A 
BRANCH  87  91
ATOM     91  S   UNL A   1      43.912  37.298  27.414  1.00  0.00     0.124 S 
ATOM     92  O   UNL A   1      45.167  37.770  26.840  1.00  0.00    -0.237 OA
ATOM     93  O   UNL A   1      43.024  36.583  26.503  1.00  0.00    -0.237 OA
ATOM     94  O   UNL A   1      43.245  38.241  28.312  1.00  0.00    -0.744 OA
ENDBRANCH  87  91
ENDBRANCH  61  84
ENDBRANCH  35  36
ENDBRANCH  27  30
ENDBRANCH  25  26
ENDBRANCH   1  25
TORSDOF 15
ENDMDL
MODEL 2
REMARK VINA RESULT:     -12.7      1.476      1.819
REMARK SMILES Cc1cc2c(c(C)c1Cl)C=C(C(=O)NCCCCNC(=O)c1ccc(-c3c4nc(c(-c5cc(S(=O)(=O)[O-])ccc5F)c5ccc([nH]5)c(-c5cc(S(=O)(=O)[O-])ccc5F)c5nc(c(-c6cc(S(=O)(=O)[O-])ccc6F)c6ccc3[nH]6)C=C5)C=C4)cc1)[C@@H](C(F)(F)F)O2
REMARK SMILES IDX 17 1 16 2 15 3 14 4 12 5 13 6 11 8 1 9 2 10 3 11 8 12 4 13
REMARK SMILES IDX 6 14 9 15 5 16 90 17 7 18 10 19 85 20 86 21 87 22 88 23
REMARK SMILES IDX 89 24 18 25 19 26 20 27 21 29 22 30 23 31 84 32 24 33 83 34
REMARK SMILES IDX 25 35 26 36 27 37 77 38 28 39 82 40 76 41 78 42 29 43 81 44
REMARK SMILES IDX 75 45 74 46 30 48 62 49 42 50 61 51 43 52 46 53 60 54 79 55
REMARK SMILES IDX 44 56 45 57 59 59 80 60 47 61 31 62 32 63 40 64 33 65 39 66
REMARK SMILES IDX 41 67 38 68 34 69 35 70 36 71 37 72 63 73 64 74 72 75 65 76
REMARK SMILES IDX 71 77 73 78 70 79 66 80 67 81 68 82 69 83 48 84 49 85 57 86
REMARK SMILES IDX 50 87 56 88 58 89 55 90 51 91 52 92 53 93 54 94
REMARK H PARENT 14 7 19 28 78 47 46 58
REMARK Flexibility Score: inf
ROOT
ATOM      1  C   UNL A   1      36.686  20.059  24.910  1.00  0.00     0.023 C 
ENDROOT
BRANCH   1   2
ATOM      2  C   UNL A   1      35.413  20.830  25.272  1.00  0.00     0.023 C 
BRANCH   2   3
ATOM      3  C   UNL A   1      35.640  22.002  26.223  1.00  0.00     0.116 C 
BRANCH   3   4
ATOM      4  N   UNL A   1      34.506  22.212  27.107  1.00  0.00    -0.352 N 
ATOM      5  C   UNL A   1      33.397  22.986  27.124  1.00  0.00     0.251 C 
ATOM      6  O   UNL A   1      32.674  22.847  28.116  1.00  0.00    -0.270 OA
ATOM      7  H   UNL A   1      34.560  21.639  27.906  1.00  0.00     0.163 HD
BRANCH   5   8
ATOM      8  C   UNL A   1      33.003  23.959  26.061  1.00  0.00     0.067 C 
ATOM      9  C   UNL A   1      31.428  29.153  22.452  1.00  0.00     0.046 C 
ATOM     10  C   UNL A   1      31.742  28.166  23.544  1.00  0.00    -0.028 A 
ATOM     11  C   UNL A   1      32.145  26.875  23.185  1.00  0.00     0.052 A 
ATOM     12  C   UNL A   1      31.660  28.499  24.911  1.00  0.00     0.047 A 
ATOM     13  C   UNL A   1      32.456  25.936  24.162  1.00  0.00     0.128 A 
ATOM     14  C   UNL A   1      31.970  27.550  25.917  1.00  0.00    -0.021 A 
ATOM     15  Cl  UNL A   1      31.187  30.117  25.338  1.00  0.00    -0.084 Cl
ATOM     16  C   UNL A   1      32.393  26.256  25.522  1.00  0.00     0.022 A 
ATOM     17  O   UNL A   1      32.870  24.719  23.699  1.00  0.00    -0.475 OA
ATOM     18  C   UNL A   1      31.888  27.891  27.386  1.00  0.00     0.047 C 
ATOM     19  C   UNL A   1      32.820  25.227  26.475  1.00  0.00     0.026 C 
ATOM     20  C   UNL A   1      32.767  23.603  24.625  1.00  0.00     0.314 C 
BRANCH  20  21
ATOM     21  C   UNL A   1      31.427  22.877  24.403  1.00  0.00     0.429 C 
ATOM     22  F   UNL A   1      30.867  23.263  23.230  1.00  0.00    -0.167 F 
ATOM     23  F   UNL A   1      31.569  21.533  24.338  1.00  0.00    -0.167 F 
ATOM     24  F   UNL A   1      30.530  23.133  25.382  1.00  0.00    -0.167 F 
ENDBRANCH  20  21
ENDBRANCH   5   8
ENDBRANCH   3   4
ENDBRANCH   2   3
ENDBRANCH   1   2
BRANCH   1  25
ATOM     25  C   UNL A   1      38.000  20.746  25.277  1.00  0.00     0.116 C 
BRANCH  25  26
ATOM     26  N   UNL A   1      39.075  19.825  25.617  1.00  0.00    -0.352 N 
ATOM     27  C   UNL A   1      40.237  20.105  26.300  1.00  0.00     0.251 C 
ATOM     28  H   UNL A   1      38.957  18.893  25.323  1.00  0.00     0.163 HD
ATOM     29  O   UNL A   1      41.089  19.240  26.468  1.00  0.00    -0.269 OA
BRANCH  27  30
ATOM     30  C   UNL A   1      40.449  21.484  26.773  1.00  0.00     0.039 A 
ATOM     31  C   UNL A   1      41.236  21.691  27.906  1.00  0.00     0.014 A 
ATOM     32  C   UNL A   1      39.972  22.563  26.022  1.00  0.00     0.014 A 
ATOM     33  C   UNL A   1      41.621  22.988  28.241  1.00  0.00     0.010 A 
ATOM     34  C   UNL A   1      40.402  23.850  26.327  1.00  0.00     0.010 A 
ATOM     35  C   UNL A   1      41.245  24.070  27.427  1.00  0.00    -0.014 A 
BRANCH  35  36
ATOM     36  C   UNL A   1      41.749  25.436  27.702  1.00  0.00     0.031 A 
ATOM     37  C   UNL A   1      43.134  25.826  27.274  1.00  0.00     0.074 A 
ATOM     38  C   UNL A   1      40.975  26.306  28.380  1.00  0.00     0.049 A 
ATOM     39  N   UNL A   1      43.771  26.950  27.467  1.00  0.00    -0.248 NA
ATOM     40  C   UNL A   1      43.913  24.806  26.556  1.00  0.00     0.031 C 
ATOM     41  C   UNL A   1      39.627  26.024  28.883  1.00  0.00     0.029 A 
ATOM     42  N   UNL A   1      41.204  27.602  28.761  1.00  0.00    -0.354 N 
ATOM     43  C   UNL A   1      45.028  26.774  26.902  1.00  0.00     0.074 A 
ATOM     44  C   UNL A   1      45.080  25.414  26.408  1.00  0.00     0.031 C 
ATOM     45  C   UNL A   1      39.137  27.129  29.470  1.00  0.00     0.029 A 
ATOM     46  C   UNL A   1      40.144  28.184  29.416  1.00  0.00     0.049 A 
ATOM     47  H   UNL A   1      42.050  28.075  28.582  1.00  0.00     0.167 HD
ATOM     48  C   UNL A   1      46.036  27.671  26.785  1.00  0.00     0.034 A 
ATOM     49  C   UNL A   1      40.001  29.427  29.913  1.00  0.00     0.034 A 
ATOM     50  C   UNL A   1      45.964  29.028  27.258  1.00  0.00     0.049 A 
ATOM     51  C   UNL A   1      41.136  30.404  29.780  1.00  0.00     0.074 A 
ATOM     52  C   UNL A   1      46.909  30.033  27.147  1.00  0.00     0.029 A 
ATOM     53  N   UNL A   1      44.879  29.574  27.932  1.00  0.00    -0.354 N 
ATOM     54  N   UNL A   1      42.315  30.222  29.232  1.00  0.00    -0.248 NA
ATOM     55  C   UNL A   1      40.926  31.748  30.333  1.00  0.00     0.031 C 
ATOM     56  C   UNL A   1      46.412  31.173  27.787  1.00  0.00     0.029 A 
ATOM     57  C   UNL A   1      45.140  30.894  28.258  1.00  0.00     0.049 A 
ATOM     58  H   UNL A   1      44.048  29.092  28.147  1.00  0.00     0.167 HD
ATOM     59  C   UNL A   1      42.981  31.436  29.359  1.00  0.00     0.074 A 
ATOM     60  C   UNL A   1      42.075  32.342  30.036  1.00  0.00     0.031 C 
ATOM     61  C   UNL A   1      44.228  31.772  28.947  1.00  0.00     0.034 A 
BRANCH  48  62
ATOM     62  C   UNL A   1      47.300  27.198  26.121  1.00  0.00     0.023 A 
ATOM     63  C   UNL A   1      48.252  26.442  26.825  1.00  0.00     0.031 A 
ATOM     64  C   UNL A   1      47.570  27.527  24.782  1.00  0.00     0.131 A 
ATOM     65  C   UNL A   1      49.462  26.094  26.207  1.00  0.00     0.055 A 
ATOM     66  C   UNL A   1      48.746  27.118  24.150  1.00  0.00     0.041 A 
ATOM     67  F   UNL A   1      46.702  28.263  24.071  1.00  0.00    -0.206 F 
ATOM     68  C   UNL A   1      49.705  26.407  24.867  1.00  0.00     0.022 A 
BRANCH  65  69
ATOM     69  S   UNL A   1      50.755  25.312  27.208  1.00  0.00     0.124 S 
ATOM     70  O   UNL A   1      51.174  26.422  28.060  1.00  0.00    -0.237 OA
ATOM     71  O   UNL A   1      50.034  24.234  27.875  1.00  0.00    -0.237 OA
ATOM     72  O   UNL A   1      51.741  24.883  26.218  1.00  0.00    -0.744 OA
ENDBRANCH  65  69
ENDBRANCH  48  62
BRANCH  49  73
ATOM     73  C   UNL A   1      38.730  29.822  30.577  1.00  0.00     0.023 A 
ATOM     74  C   UNL A   1      37.780  30.601  29.900  1.00  0.00     0.031 A 
ATOM     75  C   UNL A   1      38.450  29.423  31.895  1.00  0.00     0.131 A 
ATOM     76  C   UNL A   1      36.596  30.978  30.552  1.00  0.00     0.055 A 
ATOM     77  C   UNL A   1      37.258  29.778  32.530  1.00  0.00     0.041 A 
ATOM     78  F   UNL A   1      39.324  28.666  32.575  1.00  0.00    -0.206 F 
ATOM     79  C   UNL A   1      36.325  30.566  31.860  1.00  0.00     0.022 A 
BRANCH  76  80
ATOM     80  S   UNL A   1      35.414  32.033  29.671  1.00  0.00     0.124 S 
ATOM     81  O   UNL A   1      34.464  32.363  30.728  1.00  0.00    -0.237 OA
ATOM     82  O   UNL A   1      36.264  33.125  29.208  1.00  0.00    -0.237 OA
ATOM     83  O   UNL A   1      34.899  31.160  28.618  1.00  0.00    -0.744 OA
ENDBRANCH  76  80
ENDBRANCH  49  73
BRANCH  61  84
ATOM     84  C   UNL A   1      44.675  33.185  29.193  1.00  0.00     0.023 A 
ATOM     85  C   UNL A   1      44.440  34.198  28.251  1.00  0.00     0.031 A 
ATOM     86  C   UNL A   1      45.296  33.526  30.407  1.00  0.00     0.131 A 
ATOM     87  C   UNL A   1      44.844  35.511  28.529  1.00  0.00     0.055 A 
ATOM     88  C   UNL A   1      45.666  34.840  30.692  1.00  0.00     0.041 A 
ATOM     89  F   UNL A   1      45.535  32.588  31.337  1.00  0.00    -0.206 F 
ATOM     90  C   UNL A   1      45.441  35.840  29.750  1.00  0.00     0.022 A 
BRANCH  87  91
ATOM     91  S   UNL A   1      44.580  36.794  27.275  1.00  0.00     0.124 S 
ATOM     92  O   UNL A   1      43.414  36.283  26.563  1.00  0.00    -0.237 OA
ATOM     93  O   UNL A   1      44.360  37.990  28.082  1.00  0.00    -0.237 OA
ATOM     94  O   UNL A   1      45.827  36.786  26.512  1.00  0.00    -0.744 OA
ENDBRANCH  87  91
ENDBRANCH  61  84
ENDBRANCH  35  36
ENDBRANCH  27  30
ENDBRANCH  25  26
ENDBRANCH   1  25
TORSDOF 15
ENDMDL
MODEL 3
REMARK VINA RESULT:     -12.7      5.787     10.812
REMARK SMILES Cc1cc2c(c(C)c1Cl)C=C(C(=O)NCCCCNC(=O)c1ccc(-c3c4nc(c(-c5cc(S(=O)(=O)[O-])ccc5F)c5ccc([nH]5)c(-c5cc(S(=O)(=O)[O-])ccc5F)c5nc(c(-c6cc(S(=O)(=O)[O-])ccc6F)c6ccc3[nH]6)C=C5)C=C4)cc1)[C@@H](C(F)(F)F)O2
REMARK SMILES IDX 17 1 16 2 15 3 14 4 12 5 13 6 11 8 1 9 2 10 3 11 8 12 4 13
REMARK SMILES IDX 6 14 9 15 5 16 90 17 7 18 10 19 85 20 86 21 87 22 88 23
REMARK SMILES IDX 89 24 18 25 19 26 20 27 21 29 22 30 23 31 84 32 24 33 83 34
REMARK SMILES IDX 25 35 26 36 27 37 77 38 28 39 82 40 76 41 78 42 29 43 81 44
REMARK SMILES IDX 75 45 74 46 30 48 62 49 42 50 61 51 43 52 46 53 60 54 79 55
REMARK SMILES IDX 44 56 45 57 59 59 80 60 47 61 31 62 32 63 40 64 33 65 39 66
REMARK SMILES IDX 41 67 38 68 34 69 35 70 36 71 37 72 63 73 64 74 72 75 65 76
REMARK SMILES IDX 71 77 73 78 70 79 66 80 67 81 68 82 69 83 48 84 49 85 57 86
REMARK SMILES IDX 50 87 56 88 58 89 55 90 51 91 52 92 53 93 54 94
REMARK H PARENT 14 7 19 28 78 47 46 58
REMARK Flexibility Score: inf
ROOT
ATOM      1  C   UNL A   1      33.724  31.704  27.905  1.00  0.00     0.023 C 
ENDROOT
BRANCH   1   2
ATOM      2  C   UNL A   1      34.911  30.740  27.834  1.00  0.00     0.023 C 
BRANCH   2   3
ATOM      3  C   UNL A   1      34.553  29.339  27.346  1.00  0.00     0.116 C 
BRANCH   3   4
ATOM      4  N   UNL A   1      33.250  28.912  27.827  1.00  0.00    -0.352 N 
ATOM      5  C   UNL A   1      32.247  28.117  27.389  1.00  0.00     0.251 C 
ATOM      6  O   UNL A   1      31.272  28.038  28.143  1.00  0.00    -0.270 OA
ATOM      7  H   UNL A   1      33.042  29.307  28.705  1.00  0.00     0.163 HD
BRANCH   5   8
ATOM      8  C   UNL A   1      32.244  27.355  26.104  1.00  0.00     0.067 C 
ATOM      9  C   UNL A   1      33.176  23.217  21.156  1.00  0.00     0.046 C 
ATOM     10  C   UNL A   1      33.243  24.031  22.419  1.00  0.00    -0.028 A 
ATOM     11  C   UNL A   1      32.219  24.947  22.682  1.00  0.00     0.052 A 
ATOM     12  C   UNL A   1      34.290  23.893  23.354  1.00  0.00     0.047 A 
ATOM     13  C   UNL A   1      32.236  25.711  23.844  1.00  0.00     0.128 A 
ATOM     14  C   UNL A   1      34.321  24.668  24.539  1.00  0.00    -0.021 A 
ATOM     15  Cl  UNL A   1      35.538  22.727  23.025  1.00  0.00    -0.084 Cl
ATOM     16  C   UNL A   1      33.260  25.574  24.785  1.00  0.00     0.022 A 
ATOM     17  O   UNL A   1      31.170  26.548  24.014  1.00  0.00    -0.475 OA
ATOM     18  C   UNL A   1      35.435  24.532  25.550  1.00  0.00     0.047 C 
ATOM     19  C   UNL A   1      33.148  26.361  26.018  1.00  0.00     0.026 C 
ATOM     20  C   UNL A   1      31.356  27.657  24.936  1.00  0.00     0.314 C 
BRANCH  20  21
ATOM     21  C   UNL A   1      31.805  28.904  24.152  1.00  0.00     0.429 C 
ATOM     22  F   UNL A   1      33.117  29.160  24.379  1.00  0.00    -0.167 F 
ATOM     23  F   UNL A   1      31.669  28.753  22.814  1.00  0.00    -0.167 F 
ATOM     24  F   UNL A   1      31.111  30.012  24.497  1.00  0.00    -0.167 F 
ENDBRANCH  20  21
ENDBRANCH   5   8
ENDBRANCH   3   4
ENDBRANCH   2   3
ENDBRANCH   1   2
BRANCH   1  25
ATOM     25  C   UNL A   1      34.057  33.177  27.673  1.00  0.00     0.116 C 
BRANCH  25  26
ATOM     26  N   UNL A   1      33.237  34.099  28.447  1.00  0.00    -0.352 N 
ATOM     27  C   UNL A   1      33.431  34.508  29.747  1.00  0.00     0.251 C 
ATOM     28  H   UNL A   1      32.450  34.472  27.986  1.00  0.00     0.163 HD
ATOM     29  O   UNL A   1      32.625  35.248  30.298  1.00  0.00    -0.269 OA
BRANCH  27  30
ATOM     30  C   UNL A   1      34.605  33.988  30.471  1.00  0.00     0.039 A 
ATOM     31  C   UNL A   1      34.422  32.949  31.384  1.00  0.00     0.014 A 
ATOM     32  C   UNL A   1      35.886  34.446  30.148  1.00  0.00     0.014 A 
ATOM     33  C   UNL A   1      35.540  32.306  31.915  1.00  0.00     0.010 A 
ATOM     34  C   UNL A   1      36.996  33.767  30.637  1.00  0.00     0.010 A 
ATOM     35  C   UNL A   1      36.831  32.680  31.509  1.00  0.00    -0.014 A 
BRANCH  35  36
ATOM     36  C   UNL A   1      38.020  31.924  31.970  1.00  0.00     0.031 A 
ATOM     37  C   UNL A   1      38.653  32.252  33.290  1.00  0.00     0.074 A 
ATOM     38  C   UNL A   1      38.554  30.977  31.174  1.00  0.00     0.049 A 
ATOM     39  N   UNL A   1      39.722  31.742  33.841  1.00  0.00    -0.248 NA
ATOM     40  C   UNL A   1      38.013  33.313  34.082  1.00  0.00     0.031 C 
ATOM     41  C   UNL A   1      38.048  30.600  29.850  1.00  0.00     0.029 A 
ATOM     42  N   UNL A   1      39.635  30.155  31.360  1.00  0.00    -0.354 N 
ATOM     43  C   UNL A   1      39.889  32.422  35.042  1.00  0.00     0.074 A 
ATOM     44  C   UNL A   1      38.841  33.418  35.110  1.00  0.00     0.031 C 
ATOM     45  C   UNL A   1      38.796  29.596  29.363  1.00  0.00     0.029 A 
ATOM     46  C   UNL A   1      39.850  29.279  30.321  1.00  0.00     0.049 A 
ATOM     47  H   UNL A   1      40.205  30.188  32.162  1.00  0.00     0.167 HD
ATOM     48  C   UNL A   1      40.815  32.216  36.008  1.00  0.00     0.034 A 
ATOM     49  C   UNL A   1      40.790  28.328  30.162  1.00  0.00     0.034 A 
ATOM     50  C   UNL A   1      41.838  31.206  35.941  1.00  0.00     0.049 A 
ATOM     51  C   UNL A   1      41.815  28.123  31.244  1.00  0.00     0.074 A 
ATOM     52  C   UNL A   1      42.796  30.882  36.885  1.00  0.00     0.029 A 
ATOM     53  N   UNL A   1      42.034  30.351  34.864  1.00  0.00    -0.354 N 
ATOM     54  N   UNL A   1      41.950  28.769  32.379  1.00  0.00    -0.248 NA
ATOM     55  C   UNL A   1      42.813  27.068  31.025  1.00  0.00     0.031 C 
ATOM     56  C   UNL A   1      43.595  29.858  36.365  1.00  0.00     0.029 A 
ATOM     57  C   UNL A   1      43.107  29.513  35.115  1.00  0.00     0.049 A 
ATOM     58  H   UNL A   1      41.490  30.342  34.044  1.00  0.00     0.167 HD
ATOM     59  C   UNL A   1      43.039  28.186  33.016  1.00  0.00     0.074 A 
ATOM     60  C   UNL A   1      43.526  27.138  32.142  1.00  0.00     0.031 C 
ATOM     61  C   UNL A   1      43.583  28.487  34.221  1.00  0.00     0.034 A 
BRANCH  48  62
ATOM     62  C   UNL A   1      40.758  33.114  37.215  1.00  0.00     0.023 A 
ATOM     63  C   UNL A   1      40.040  32.743  38.363  1.00  0.00     0.031 A 
ATOM     64  C   UNL A   1      41.403  34.362  37.207  1.00  0.00     0.131 A 
ATOM     65  C   UNL A   1      39.929  33.640  39.435  1.00  0.00     0.055 A 
ATOM     66  C   UNL A   1      41.346  35.222  38.305  1.00  0.00     0.041 A 
ATOM     67  F   UNL A   1      42.086  34.772  36.127  1.00  0.00    -0.206 F 
ATOM     68  C   UNL A   1      40.597  34.867  39.423  1.00  0.00     0.022 A 
BRANCH  65  69
ATOM     69  S   UNL A   1      38.818  33.221  40.806  1.00  0.00     0.124 S 
ATOM     70  O   UNL A   1      37.518  33.234  40.140  1.00  0.00    -0.237 OA
ATOM     71  O   UNL A   1      39.307  31.913  41.225  1.00  0.00    -0.237 OA
ATOM     72  O   UNL A   1      39.035  34.303  41.764  1.00  0.00    -0.744 OA
ENDBRANCH  65  69
ENDBRANCH  48  62
BRANCH  49  73
ATOM     73  C   UNL A   1      40.802  27.490  28.934  1.00  0.00     0.023 A 
ATOM     74  C   UNL A   1      41.716  27.745  27.901  1.00  0.00     0.031 A 
ATOM     75  C   UNL A   1      39.900  26.423  28.779  1.00  0.00     0.131 A 
ATOM     76  C   UNL A   1      41.696  26.954  26.742  1.00  0.00     0.055 A 
ATOM     77  C   UNL A   1      39.903  25.621  27.636  1.00  0.00     0.041 A 
ATOM     78  F   UNL A   1      39.018  26.135  29.748  1.00  0.00    -0.206 F 
ATOM     79  C   UNL A   1      40.801  25.889  26.606  1.00  0.00     0.022 A 
BRANCH  76  80
ATOM     80  S   UNL A   1      42.852  27.345  25.400  1.00  0.00     0.124 S 
ATOM     81  O   UNL A   1      42.893  26.084  24.667  1.00  0.00    -0.237 OA
ATOM     82  O   UNL A   1      42.181  28.455  24.733  1.00  0.00    -0.237 OA
ATOM     83  O   UNL A   1      44.082  27.699  26.105  1.00  0.00    -0.744 OA
ENDBRANCH  76  80
ENDBRANCH  49  73
BRANCH  61  84
ATOM     84  C   UNL A   1      44.749  27.656  34.674  1.00  0.00     0.023 A 
ATOM     85  C   UNL A   1      44.559  26.466  35.395  1.00  0.00     0.031 A 
ATOM     86  C   UNL A   1      46.059  28.035  34.335  1.00  0.00     0.131 A 
ATOM     87  C   UNL A   1      45.671  25.701  35.774  1.00  0.00     0.055 A 
ATOM     88  C   UNL A   1      47.159  27.252  34.686  1.00  0.00     0.041 A 
ATOM     89  F   UNL A   1      46.285  29.163  33.643  1.00  0.00    -0.206 F 
ATOM     90  C   UNL A   1      46.968  26.078  35.410  1.00  0.00     0.022 A 
BRANCH  87  91
ATOM     91  S   UNL A   1      45.407  24.196  36.752  1.00  0.00     0.124 S 
ATOM     92  O   UNL A   1      46.772  23.721  36.946  1.00  0.00    -0.237 OA
ATOM     93  O   UNL A   1      44.734  24.703  37.944  1.00  0.00    -0.237 OA
ATOM     94  O   UNL A   1      44.577  23.365  35.881  1.00  0.00    -0.744 OA
ENDBRANCH  87  91
ENDBRANCH  61  84
ENDBRANCH  35  36
ENDBRANCH  27  30
ENDBRANCH  25  26
ENDBRANCH   1  25
TORSDOF 15
ENDMDL
