MODEL 1
REMARK VINA RESULT:     -12.7      0.000      0.000
REMARK SMILES O=C(NCCCCNC(=O)[C@H]1Cc2ccc(Cl)cc2C[N@@H+]1Cc1ccc(Cl)cc1)c1ccc(-c2c3nc(c(-c4cc(S(=O)(=O)[O-])ccc4F)c4ccc([nH]4)c(-c4cc(S(=O)(=O)[O-])ccc4F)c4nc(c(-c5cc(S(=O)(=O)[O-])ccc5F)c5ccc2[nH]5)C=C4)C=C3)cc1
REMARK SMILES IDX 5 1 4 2 3 3 1 4 2 5 30 7 31 8 92 9 32 10 91 11 33 12 34 13
REMARK SMILES IDX 35 14 85 15 36 16 90 17 84 18 86 19 37 20 89 21 83 22 82 23
REMARK SMILES IDX 38 25 70 26 50 27 69 28 51 29 54 30 68 31 87 32 52 33 53 34
REMARK SMILES IDX 67 36 88 37 55 38 39 39 40 40 48 41 41 42 47 43 49 44 46 45
REMARK SMILES IDX 42 46 43 47 44 48 45 49 71 50 72 51 80 52 73 53 79 54 81 55
REMARK SMILES IDX 78 56 74 57 75 58 76 59 77 60 56 61 57 62 65 63 58 64 64 65
REMARK SMILES IDX 66 66 63 67 59 68 60 69 61 70 62 71 6 72 7 73 8 74 9 75
REMARK SMILES IDX 10 77 11 78 12 79 21 80 13 81 20 82 14 84 19 85 15 86 18 87
REMARK SMILES IDX 16 88 17 89 22 90 23 91 24 92 29 93 25 94 28 95 26 96 27 97
REMARK H PARENT 3 6 86 24 54 35 8 76 21 83
REMARK Flexibility Score: inf
ROOT
ATOM      1  C   UNL A   1      36.312  21.895  25.532  1.00  0.00     0.023 C 
ENDROOT
BRANCH   1   2
ATOM      2  C   UNL A   1      37.758  21.955  25.060  1.00  0.00     0.116 C 
BRANCH   2   3
ATOM      3  N   UNL A   1      38.590  20.949  25.699  1.00  0.00    -0.352 N 
ATOM      4  O   UNL A   1      40.410  20.132  26.743  1.00  0.00    -0.269 OA
ATOM      5  C   UNL A   1      39.733  21.116  26.435  1.00  0.00     0.251 C 
ATOM      6  H   UNL A   1      38.290  20.017  25.587  1.00  0.00     0.163 HD
BRANCH   5   7
ATOM      7  C   UNL A   1      40.155  22.468  26.853  1.00  0.00     0.039 A 
ATOM      8  C   UNL A   1      39.631  23.578  26.187  1.00  0.00     0.014 A 
ATOM      9  C   UNL A   1      41.089  22.641  27.879  1.00  0.00     0.014 A 
ATOM     10  C   UNL A   1      40.036  24.861  26.559  1.00  0.00     0.010 A 
ATOM     11  C   UNL A   1      41.420  23.920  28.310  1.00  0.00     0.010 A 
ATOM     12  C   UNL A   1      40.930  25.042  27.628  1.00  0.00    -0.014 A 
BRANCH  12  13
ATOM     13  C   UNL A   1      41.433  26.392  27.989  1.00  0.00     0.031 A 
ATOM     14  C   UNL A   1      42.846  26.776  27.636  1.00  0.00     0.074 A 
ATOM     15  C   UNL A   1      40.641  27.254  28.654  1.00  0.00     0.049 A 
ATOM     16  N   UNL A   1      43.487  27.886  27.892  1.00  0.00    -0.248 NA
ATOM     17  C   UNL A   1      43.655  25.769  26.927  1.00  0.00     0.031 C 
ATOM     18  C   UNL A   1      39.271  26.976  29.083  1.00  0.00     0.029 A 
ATOM     19  N   UNL A   1      40.873  28.537  29.087  1.00  0.00    -0.354 N 
ATOM     20  C   UNL A   1      44.771  27.704  27.390  1.00  0.00     0.074 A 
ATOM     21  C   UNL A   1      44.842  26.354  26.883  1.00  0.00     0.031 C 
ATOM     22  C   UNL A   1      38.773  28.064  29.689  1.00  0.00     0.029 A 
ATOM     23  C   UNL A   1      39.800  29.103  29.736  1.00  0.00     0.049 A 
ATOM     24  H   UNL A   1      41.727  29.006  28.949  1.00  0.00     0.167 HD
ATOM     25  C   UNL A   1      45.786  28.597  27.323  1.00  0.00     0.034 A 
ATOM     26  C   UNL A   1      39.659  30.320  30.304  1.00  0.00     0.034 A 
ATOM     27  C   UNL A   1      45.684  29.952  27.796  1.00  0.00     0.049 A 
ATOM     28  C   UNL A   1      40.802  31.301  30.217  1.00  0.00     0.074 A 
ATOM     29  C   UNL A   1      46.633  30.954  27.718  1.00  0.00     0.029 A 
ATOM     30  N   UNL A   1      44.574  30.498  28.426  1.00  0.00    -0.354 N 
ATOM     31  N   UNL A   1      41.980  31.146  29.656  1.00  0.00    -0.248 NA
ATOM     32  C   UNL A   1      40.599  32.626  30.817  1.00  0.00     0.031 C 
ATOM     33  C   UNL A   1      46.129  32.081  28.366  1.00  0.00     0.029 A 
ATOM     34  C   UNL A   1      44.829  31.815  28.769  1.00  0.00     0.049 A 
ATOM     35  H   UNL A   1      43.733  30.019  28.604  1.00  0.00     0.167 HD
ATOM     36  C   UNL A   1      42.645  32.360  29.813  1.00  0.00     0.074 A 
ATOM     37  C   UNL A   1      41.727  33.247  30.496  1.00  0.00     0.031 C 
ATOM     38  C   UNL A   1      43.901  32.704  29.429  1.00  0.00     0.034 A 
BRANCH  25  39
ATOM     39  C   UNL A   1      47.088  28.169  26.690  1.00  0.00     0.023 A 
ATOM     40  C   UNL A   1      47.221  28.176  25.289  1.00  0.00     0.031 A 
ATOM     41  C   UNL A   1      48.140  27.633  27.455  1.00  0.00     0.131 A 
ATOM     42  C   UNL A   1      48.361  27.619  24.696  1.00  0.00     0.055 A 
ATOM     43  C   UNL A   1      49.298  27.128  26.860  1.00  0.00     0.041 A 
ATOM     44  F   UNL A   1      48.062  27.599  28.795  1.00  0.00    -0.206 F 
ATOM     45  C   UNL A   1      49.404  27.106  25.473  1.00  0.00     0.022 A 
BRANCH  42  46
ATOM     46  S   UNL A   1      48.500  27.467  22.894  1.00  0.00     0.124 S 
ATOM     47  O   UNL A   1      48.392  26.021  22.707  1.00  0.00    -0.237 OA
ATOM     48  O   UNL A   1      47.352  28.243  22.434  1.00  0.00    -0.237 OA
ATOM     49  O   UNL A   1      49.809  28.034  22.593  1.00  0.00    -0.744 OA
ENDBRANCH  42  46
ENDBRANCH  25  39
BRANCH  26  50
ATOM     50  C   UNL A   1      38.354  30.678  30.936  1.00  0.00     0.023 A 
ATOM     51  C   UNL A   1      37.344  31.318  30.195  1.00  0.00     0.031 A 
ATOM     52  C   UNL A   1      38.142  30.488  32.313  1.00  0.00     0.131 A 
ATOM     53  C   UNL A   1      36.207  31.813  30.848  1.00  0.00     0.055 A 
ATOM     54  C   UNL A   1      36.972  30.913  32.945  1.00  0.00     0.041 A 
ATOM     55  F   UNL A   1      39.081  29.896  33.067  1.00  0.00    -0.206 F 
ATOM     56  C   UNL A   1      36.005  31.597  32.214  1.00  0.00     0.022 A 
BRANCH  53  57
ATOM     57  S   UNL A   1      35.025  32.879  29.975  1.00  0.00     0.124 S 
ATOM     58  O   UNL A   1      34.109  33.261  31.046  1.00  0.00    -0.237 OA
ATOM     59  O   UNL A   1      35.895  33.942  29.479  1.00  0.00    -0.237 OA
ATOM     60  O   UNL A   1      34.467  32.006  28.948  1.00  0.00    -0.744 OA
ENDBRANCH  53  57
ENDBRANCH  26  50
BRANCH  38  61
ATOM     61  C   UNL A   1      44.395  34.105  29.710  1.00  0.00     0.023 A 
ATOM     62  C   UNL A   1      44.227  35.113  28.740  1.00  0.00     0.031 A 
ATOM     63  C   UNL A   1      45.178  34.395  30.840  1.00  0.00     0.131 A 
ATOM     64  C   UNL A   1      44.880  36.343  28.891  1.00  0.00     0.055 A 
ATOM     65  C   UNL A   1      45.779  35.642  31.014  1.00  0.00     0.041 A 
ATOM     66  F   UNL A   1      45.383  33.464  31.786  1.00  0.00    -0.206 F 
ATOM     67  C   UNL A   1      45.646  36.617  30.029  1.00  0.00     0.022 A 
BRANCH  64  68
ATOM     68  S   UNL A   1      44.852  37.585  27.571  1.00  0.00     0.124 S 
ATOM     69  O   UNL A   1      45.942  37.134  26.708  1.00  0.00    -0.237 OA
ATOM     70  O   UNL A   1      43.511  37.419  27.019  1.00  0.00    -0.237 OA
ATOM     71  O   UNL A   1      45.093  38.845  28.266  1.00  0.00    -0.744 OA
ENDBRANCH  64  68
ENDBRANCH  38  61
ENDBRANCH  12  13
ENDBRANCH   5   7
ENDBRANCH   2   3
ENDBRANCH   1   2
BRANCH   1  72
ATOM     72  C   UNL A   1      35.897  23.030  26.467  1.00  0.00     0.023 C 
BRANCH  72  73
ATOM     73  C   UNL A   1      35.368  24.276  25.757  1.00  0.00     0.116 C 
BRANCH  73  74
ATOM     74  N   UNL A   1      35.239  24.056  24.329  1.00  0.00    -0.351 N 
ATOM     75  C   UNL A   1      34.210  24.375  23.490  1.00  0.00     0.278 C 
ATOM     76  H   UNL A   1      36.007  23.613  23.901  1.00  0.00     0.163 HD
ATOM     77  O   UNL A   1      34.305  24.027  22.309  1.00  0.00    -0.268 OA
BRANCH  75  78
ATOM     78  C   UNL A   1      32.960  25.122  23.998  1.00  0.00     0.279 C 
ATOM     79  C   UNL A   1      32.668  26.272  23.010  1.00  0.00     0.111 C 
ATOM     80  N   UNL A   1      31.816  24.196  24.224  1.00  0.00    -0.317 N 
ATOM     81  C   UNL A   1      31.269  26.822  23.087  1.00  0.00    -0.033 A 
ATOM     82  C   UNL A   1      30.614  24.928  24.638  1.00  0.00     0.300 C 
ATOM     83  H   UNL A   1      31.633  23.760  23.321  1.00  0.00     0.349 HD
ATOM     84  C   UNL A   1      30.947  28.005  22.407  1.00  0.00     0.006 A 
ATOM     85  C   UNL A   1      30.280  26.142  23.808  1.00  0.00     0.011 A 
ATOM     86  C   UNL A   1      29.658  28.533  22.479  1.00  0.00     0.021 A 
ATOM     87  C   UNL A   1      28.985  26.682  23.877  1.00  0.00     0.030 A 
ATOM     88  C   UNL A   1      28.684  27.871  23.219  1.00  0.00     0.041 A 
ATOM     89  Cl  UNL A   1      27.103  28.541  23.349  1.00  0.00    -0.084 Cl
BRANCH  80  90
ATOM     90  C   UNL A   1      32.117  23.073  25.148  1.00  0.00     0.299 C 
BRANCH  90  91
ATOM     91  C   UNL A   1      32.151  21.684  24.533  1.00  0.00     0.006 A 
ATOM     92  C   UNL A   1      32.449  20.553  25.310  1.00  0.00     0.011 A 
ATOM     93  C   UNL A   1      31.951  21.513  23.155  1.00  0.00     0.011 A 
ATOM     94  C   UNL A   1      32.666  19.312  24.710  1.00  0.00     0.021 A 
ATOM     95  C   UNL A   1      32.144  20.266  22.554  1.00  0.00     0.021 A 
ATOM     96  C   UNL A   1      32.529  19.178  23.331  1.00  0.00     0.041 A 
ATOM     97  Cl  UNL A   1      32.853  17.661  22.586  1.00  0.00    -0.084 Cl
ENDBRANCH  90  91
ENDBRANCH  80  90
ENDBRANCH  75  78
ENDBRANCH  73  74
ENDBRANCH  72  73
ENDBRANCH   1  72
TORSDOF 16
ENDMDL
MODEL 2
REMARK VINA RESULT:     -12.7      5.195      9.967
REMARK SMILES O=C(NCCCCNC(=O)[C@H]1Cc2ccc(Cl)cc2C[N@@H+]1Cc1ccc(Cl)cc1)c1ccc(-c2c3nc(c(-c4cc(S(=O)(=O)[O-])ccc4F)c4ccc([nH]4)c(-c4cc(S(=O)(=O)[O-])ccc4F)c4nc(c(-c5cc(S(=O)(=O)[O-])ccc5F)c5ccc2[nH]5)C=C4)C=C3)cc1
REMARK SMILES IDX 5 1 4 2 3 3 1 4 2 5 30 7 31 8 92 9 32 10 91 11 33 12 34 13
REMARK SMILES IDX 35 14 85 15 36 16 90 17 84 18 86 19 37 20 89 21 83 22 82 23
REMARK SMILES IDX 38 25 70 26 50 27 69 28 51 29 54 30 68 31 87 32 52 33 53 34
REMARK SMILES IDX 67 36 88 37 55 38 39 39 40 40 48 41 41 42 47 43 49 44 46 45
REMARK SMILES IDX 42 46 43 47 44 48 45 49 71 50 72 51 80 52 73 53 79 54 81 55
REMARK SMILES IDX 78 56 74 57 75 58 76 59 77 60 56 61 57 62 65 63 58 64 64 65
REMARK SMILES IDX 66 66 63 67 59 68 60 69 61 70 62 71 6 72 7 73 8 74 9 75
REMARK SMILES IDX 10 77 11 78 12 79 21 80 13 81 20 82 14 84 19 85 15 86 18 87
REMARK SMILES IDX 16 88 17 89 22 90 23 91 24 92 29 93 25 94 28 95 26 96 27 97
REMARK H PARENT 3 6 86 24 54 35 8 76 21 83
REMARK Flexibility Score: inf
ROOT
ATOM      1  C   UNL A   1      33.038  27.809  24.919  1.00  0.00     0.023 C 
ENDROOT
BRANCH   1   2
ATOM      2  C   UNL A   1      34.021  28.758  25.591  1.00  0.00     0.116 C 
BRANCH   2   3
ATOM      3  N   UNL A   1      33.419  30.042  25.911  1.00  0.00    -0.352 N 
ATOM      4  O   UNL A   1      32.951  31.846  27.173  1.00  0.00    -0.269 OA
ATOM      5  C   UNL A   1      33.692  30.885  26.955  1.00  0.00     0.251 C 
ATOM      6  H   UNL A   1      32.718  30.348  25.290  1.00  0.00     0.163 HD
BRANCH   5   7
ATOM      7  C   UNL A   1      34.864  30.640  27.820  1.00  0.00     0.039 A 
ATOM      8  C   UNL A   1      35.923  31.550  27.802  1.00  0.00     0.014 A 
ATOM      9  C   UNL A   1      34.932  29.499  28.626  1.00  0.00     0.014 A 
ATOM     10  C   UNL A   1      37.044  31.320  28.600  1.00  0.00     0.010 A 
ATOM     11  C   UNL A   1      36.007  29.321  29.489  1.00  0.00     0.010 A 
ATOM     12  C   UNL A   1      37.093  30.206  29.454  1.00  0.00    -0.014 A 
BRANCH  12  13
ATOM     13  C   UNL A   1      38.307  29.901  30.253  1.00  0.00     0.031 A 
ATOM     14  C   UNL A   1      38.484  30.541  31.605  1.00  0.00     0.074 A 
ATOM     15  C   UNL A   1      39.255  29.083  29.760  1.00  0.00     0.049 A 
ATOM     16  N   UNL A   1      39.483  30.437  32.441  1.00  0.00    -0.248 NA
ATOM     17  C   UNL A   1      37.412  31.441  32.065  1.00  0.00     0.031 C 
ATOM     18  C   UNL A   1      39.208  28.440  28.447  1.00  0.00     0.029 A 
ATOM     19  N   UNL A   1      40.442  28.654  30.300  1.00  0.00    -0.354 N 
ATOM     20  C   UNL A   1      39.165  31.263  33.513  1.00  0.00     0.074 A 
ATOM     21  C   UNL A   1      37.920  31.920  33.189  1.00  0.00     0.031 C 
ATOM     22  C   UNL A   1      40.299  27.673  28.297  1.00  0.00     0.029 A 
ATOM     23  C   UNL A   1      41.148  27.805  29.479  1.00  0.00     0.049 A 
ATOM     24  H   UNL A   1      40.759  28.929  31.191  1.00  0.00     0.167 HD
ATOM     25  C   UNL A   1      39.832  31.429  34.679  1.00  0.00     0.034 A 
ATOM     26  C   UNL A   1      42.343  27.201  29.658  1.00  0.00     0.034 A 
ATOM     27  C   UNL A   1      41.050  30.735  35.002  1.00  0.00     0.049 A 
ATOM     28  C   UNL A   1      43.069  27.398  30.966  1.00  0.00     0.074 A 
ATOM     29  C   UNL A   1      41.771  30.785  36.181  1.00  0.00     0.029 A 
ATOM     30  N   UNL A   1      41.724  29.866  34.156  1.00  0.00    -0.354 N 
ATOM     31  N   UNL A   1      42.710  28.111  32.008  1.00  0.00    -0.248 NA
ATOM     32  C   UNL A   1      44.350  26.698  31.136  1.00  0.00     0.031 C 
ATOM     33  C   UNL A   1      42.917  30.008  36.022  1.00  0.00     0.029 A 
ATOM     34  C   UNL A   1      42.869  29.398  34.778  1.00  0.00     0.049 A 
ATOM     35  H   UNL A   1      41.432  29.620  33.249  1.00  0.00     0.167 HD
ATOM     36  C   UNL A   1      43.705  27.924  32.965  1.00  0.00     0.074 A 
ATOM     37  C   UNL A   1      44.666  27.009  32.387  1.00  0.00     0.031 C 
ATOM     38  C   UNL A   1      43.812  28.465  34.206  1.00  0.00     0.034 A 
BRANCH  25  39
ATOM     39  C   UNL A   1      39.258  32.365  35.716  1.00  0.00     0.023 A 
ATOM     40  C   UNL A   1      39.742  33.682  35.815  1.00  0.00     0.031 A 
ATOM     41  C   UNL A   1      38.338  31.921  36.683  1.00  0.00     0.131 A 
ATOM     42  C   UNL A   1      39.337  34.494  36.881  1.00  0.00     0.055 A 
ATOM     43  C   UNL A   1      37.896  32.753  37.713  1.00  0.00     0.041 A 
ATOM     44  F   UNL A   1      37.847  30.672  36.636  1.00  0.00    -0.206 F 
ATOM     45  C   UNL A   1      38.409  34.041  37.824  1.00  0.00     0.022 A 
BRANCH  42  46
ATOM     46  S   UNL A   1      40.058  36.140  37.132  1.00  0.00     0.124 S 
ATOM     47  O   UNL A   1      39.771  36.790  35.855  1.00  0.00    -0.237 OA
ATOM     48  O   UNL A   1      39.292  36.636  38.272  1.00  0.00    -0.237 OA
ATOM     49  O   UNL A   1      41.469  35.870  37.387  1.00  0.00    -0.744 OA
ENDBRANCH  42  46
ENDBRANCH  25  39
BRANCH  26  50
ATOM     50  C   UNL A   1      42.870  26.305  28.585  1.00  0.00     0.023 A 
ATOM     51  C   UNL A   1      43.954  26.700  27.781  1.00  0.00     0.031 A 
ATOM     52  C   UNL A   1      42.225  25.095  28.275  1.00  0.00     0.131 A 
ATOM     53  C   UNL A   1      44.310  25.932  26.664  1.00  0.00     0.055 A 
ATOM     54  C   UNL A   1      42.634  24.293  27.208  1.00  0.00     0.041 A 
ATOM     55  F   UNL A   1      41.176  24.681  29.002  1.00  0.00    -0.206 F 
ATOM     56  C   UNL A   1      43.671  24.722  26.383  1.00  0.00     0.022 A 
BRANCH  53  57
ATOM     57  S   UNL A   1      45.515  26.553  25.457  1.00  0.00     0.124 S 
ATOM     58  O   UNL A   1      44.796  27.672  24.855  1.00  0.00    -0.237 OA
ATOM     59  O   UNL A   1      46.638  26.916  26.318  1.00  0.00    -0.237 OA
ATOM     60  O   UNL A   1      45.749  25.409  24.583  1.00  0.00    -0.744 OA
ENDBRANCH  53  57
ENDBRANCH  26  50
BRANCH  38  61
ATOM     61  C   UNL A   1      44.998  28.093  35.067  1.00  0.00     0.023 A 
ATOM     62  C   UNL A   1      44.827  27.206  36.148  1.00  0.00     0.031 A 
ATOM     63  C   UNL A   1      46.236  28.744  34.934  1.00  0.00     0.131 A 
ATOM     64  C   UNL A   1      45.855  27.037  37.084  1.00  0.00     0.055 A 
ATOM     65  C   UNL A   1      47.279  28.528  35.836  1.00  0.00     0.041 A 
ATOM     66  F   UNL A   1      46.446  29.612  33.931  1.00  0.00    -0.206 F 
ATOM     67  C   UNL A   1      47.084  27.685  36.927  1.00  0.00     0.022 A 
BRANCH  64  68
ATOM     68  S   UNL A   1      45.598  26.064  38.592  1.00  0.00     0.124 S 
ATOM     69  O   UNL A   1      44.312  26.573  39.065  1.00  0.00    -0.237 OA
ATOM     70  O   UNL A   1      45.575  24.698  38.077  1.00  0.00    -0.237 OA
ATOM     71  O   UNL A   1      46.745  26.401  39.429  1.00  0.00    -0.744 OA
ENDBRANCH  64  68
ENDBRANCH  38  61
ENDBRANCH  12  13
ENDBRANCH   5   7
ENDBRANCH   2   3
ENDBRANCH   1   2
BRANCH   1  72
ATOM     72  C   UNL A   1      33.497  27.267  23.567  1.00  0.00     0.023 C 
BRANCH  72  73
ATOM     73  C   UNL A   1      32.963  25.877  23.225  1.00  0.00     0.116 C 
BRANCH  73  74
ATOM     74  N   UNL A   1      32.421  25.215  24.398  1.00  0.00    -0.351 N 
ATOM     75  C   UNL A   1      32.932  24.177  25.122  1.00  0.00     0.278 C 
ATOM     76  H   UNL A   1      31.560  25.567  24.718  1.00  0.00     0.163 HD
ATOM     77  O   UNL A   1      32.250  23.740  26.054  1.00  0.00    -0.268 OA
BRANCH  75  78
ATOM     78  C   UNL A   1      34.299  23.552  24.780  1.00  0.00     0.279 C 
ATOM     79  C   UNL A   1      35.360  24.230  25.675  1.00  0.00     0.111 C 
ATOM     80  N   UNL A   1      34.269  22.067  24.876  1.00  0.00    -0.317 N 
ATOM     81  C   UNL A   1      36.650  23.466  25.803  1.00  0.00    -0.033 A 
ATOM     82  C   UNL A   1      35.593  21.490  24.619  1.00  0.00     0.300 C 
ATOM     83  H   UNL A   1      34.008  21.859  25.840  1.00  0.00     0.349 HD
ATOM     84  C   UNL A   1      37.765  24.074  26.399  1.00  0.00     0.006 A 
ATOM     85  C   UNL A   1      36.734  22.140  25.360  1.00  0.00     0.011 A 
ATOM     86  C   UNL A   1      38.970  23.382  26.513  1.00  0.00     0.021 A 
ATOM     87  C   UNL A   1      37.953  21.451  25.477  1.00  0.00     0.030 A 
ATOM     88  C   UNL A   1      39.061  22.074  26.047  1.00  0.00     0.041 A 
ATOM     89  Cl  UNL A   1      40.557  21.230  26.145  1.00  0.00    -0.084 Cl
BRANCH  80  90
ATOM     90  C   UNL A   1      33.222  21.426  24.040  1.00  0.00     0.299 C 
BRANCH  90  91
ATOM     91  C   UNL A   1      32.943  19.958  24.316  1.00  0.00     0.006 A 
ATOM     92  C   UNL A   1      32.841  19.472  25.628  1.00  0.00     0.011 A 
ATOM     93  C   UNL A   1      32.847  19.043  23.256  1.00  0.00     0.011 A 
ATOM     94  C   UNL A   1      32.774  18.100  25.878  1.00  0.00     0.021 A 
ATOM     95  C   UNL A   1      32.756  17.671  23.502  1.00  0.00     0.021 A 
ATOM     96  C   UNL A   1      32.750  17.204  24.813  1.00  0.00     0.041 A 
ATOM     97  Cl  UNL A   1      32.726  15.512  25.123  1.00  0.00    -0.084 Cl
ENDBRANCH  90  91
ENDBRANCH  80  90
ENDBRANCH  75  78
ENDBRANCH  73  74
ENDBRANCH  72  73
ENDBRANCH   1  72
TORSDOF 16
ENDMDL
MODEL 3
REMARK VINA RESULT:     -12.6      2.878      4.354
REMARK SMILES O=C(NCCCCNC(=O)[C@H]1Cc2ccc(Cl)cc2C[N@@H+]1Cc1ccc(Cl)cc1)c1ccc(-c2c3nc(c(-c4cc(S(=O)(=O)[O-])ccc4F)c4ccc([nH]4)c(-c4cc(S(=O)(=O)[O-])ccc4F)c4nc(c(-c5cc(S(=O)(=O)[O-])ccc5F)c5ccc2[nH]5)C=C4)C=C3)cc1
REMARK SMILES IDX 5 1 4 2 3 3 1 4 2 5 30 7 31 8 92 9 32 10 91 11 33 12 34 13
REMARK SMILES IDX 35 14 85 15 36 16 90 17 84 18 86 19 37 20 89 21 83 22 82 23
REMARK SMILES IDX 38 25 70 26 50 27 69 28 51 29 54 30 68 31 87 32 52 33 53 34
REMARK SMILES IDX 67 36 88 37 55 38 39 39 40 40 48 41 41 42 47 43 49 44 46 45
REMARK SMILES IDX 42 46 43 47 44 48 45 49 71 50 72 51 80 52 73 53 79 54 81 55
REMARK SMILES IDX 78 56 74 57 75 58 76 59 77 60 56 61 57 62 65 63 58 64 64 65
REMARK SMILES IDX 66 66 63 67 59 68 60 69 61 70 62 71 6 72 7 73 8 74 9 75
REMARK SMILES IDX 10 77 11 78 12 79 21 80 13 81 20 82 14 84 19 85 15 86 18 87
REMARK SMILES IDX 16 88 17 89 22 90 23 91 24 92 29 93 25 94 28 95 26 96 27 97
REMARK H PARENT 3 6 86 24 54 35 8 76 21 83
REMARK Flexibility Score: inf
ROOT
ATOM      1  C   UNL A   1      35.022  22.539  25.854  1.00  0.00     0.023 C 
ENDROOT
BRANCH   1   2
ATOM      2  C   UNL A   1      36.482  22.966  25.901  1.00  0.00     0.116 C 
BRANCH   2   3
ATOM      3  N   UNL A   1      37.388  21.832  25.985  1.00  0.00    -0.352 N 
ATOM      4  O   UNL A   1      39.374  20.776  26.052  1.00  0.00    -0.269 OA
ATOM      5  C   UNL A   1      38.741  21.823  26.198  1.00  0.00     0.251 C 
ATOM      6  H   UNL A   1      36.970  20.947  25.875  1.00  0.00     0.163 HD
BRANCH   5   7
ATOM      7  C   UNL A   1      39.438  23.064  26.592  1.00  0.00     0.039 A 
ATOM      8  C   UNL A   1      39.129  24.256  25.932  1.00  0.00     0.014 A 
ATOM      9  C   UNL A   1      40.416  23.048  27.591  1.00  0.00     0.014 A 
ATOM     10  C   UNL A   1      39.793  25.431  26.283  1.00  0.00     0.010 A 
ATOM     11  C   UNL A   1      41.009  24.236  28.002  1.00  0.00     0.010 A 
ATOM     12  C   UNL A   1      40.736  25.432  27.324  1.00  0.00    -0.014 A 
BRANCH  12  13
ATOM     13  C   UNL A   1      41.509  26.654  27.661  1.00  0.00     0.031 A 
ATOM     14  C   UNL A   1      42.946  26.766  27.223  1.00  0.00     0.074 A 
ATOM     15  C   UNL A   1      40.939  27.641  28.377  1.00  0.00     0.049 A 
ATOM     16  N   UNL A   1      43.802  27.728  27.445  1.00  0.00    -0.248 NA
ATOM     17  C   UNL A   1      43.503  25.635  26.461  1.00  0.00     0.031 C 
ATOM     18  C   UNL A   1      39.569  27.623  28.889  1.00  0.00     0.029 A 
ATOM     19  N   UNL A   1      41.439  28.848  28.802  1.00  0.00    -0.354 N 
ATOM     20  C   UNL A   1      44.995  27.312  26.864  1.00  0.00     0.074 A 
ATOM     21  C   UNL A   1      44.775  25.982  26.347  1.00  0.00     0.031 C 
ATOM     22  C   UNL A   1      39.326  28.776  29.529  1.00  0.00     0.029 A 
ATOM     23  C   UNL A   1      40.535  29.598  29.519  1.00  0.00     0.049 A 
ATOM     24  H   UNL A   1      42.357  29.147  28.614  1.00  0.00     0.167 HD
ATOM     25  C   UNL A   1      46.157  27.995  26.739  1.00  0.00     0.034 A 
ATOM     26  C   UNL A   1      40.665  30.810  30.101  1.00  0.00     0.034 A 
ATOM     27  C   UNL A   1      46.346  29.336  27.225  1.00  0.00     0.049 A 
ATOM     28  C   UNL A   1      41.968  31.555  29.948  1.00  0.00     0.074 A 
ATOM     29  C   UNL A   1      47.464  30.139  27.093  1.00  0.00     0.029 A 
ATOM     30  N   UNL A   1      45.402  30.074  27.925  1.00  0.00    -0.354 N 
ATOM     31  N   UNL A   1      43.058  31.186  29.315  1.00  0.00    -0.248 NA
ATOM     32  C   UNL A   1      42.059  32.884  30.566  1.00  0.00     0.031 C 
ATOM     33  C   UNL A   1      47.225  31.330  27.776  1.00  0.00     0.029 A 
ATOM     34  C   UNL A   1      45.925  31.312  28.258  1.00  0.00     0.049 A 
ATOM     35  H   UNL A   1      44.496  29.763  28.151  1.00  0.00     0.167 HD
ATOM     36  C   UNL A   1      43.953  32.248  29.437  1.00  0.00     0.074 A 
ATOM     37  C   UNL A   1      43.265  33.283  30.179  1.00  0.00     0.031 C 
ATOM     38  C   UNL A   1      45.226  32.351  28.978  1.00  0.00     0.034 A 
BRANCH  25  39
ATOM     39  C   UNL A   1      47.313  27.335  26.025  1.00  0.00     0.023 A 
ATOM     40  C   UNL A   1      48.268  26.610  26.760  1.00  0.00     0.031 A 
ATOM     41  C   UNL A   1      47.540  27.531  24.651  1.00  0.00     0.131 A 
ATOM     42  C   UNL A   1      49.427  26.146  26.127  1.00  0.00     0.055 A 
ATOM     43  C   UNL A   1      48.671  27.019  24.013  1.00  0.00     0.041 A 
ATOM     44  F   UNL A   1      46.662  28.218  23.904  1.00  0.00    -0.206 F 
ATOM     45  C   UNL A   1      49.629  26.336  24.756  1.00  0.00     0.022 A 
BRANCH  42  46
ATOM     46  S   UNL A   1      50.755  25.347  27.070  1.00  0.00     0.124 S 
ATOM     47  O   UNL A   1      51.241  26.450  27.895  1.00  0.00    -0.237 OA
ATOM     48  O   UNL A   1      50.030  24.302  27.788  1.00  0.00    -0.237 OA
ATOM     49  O   UNL A   1      51.684  24.883  26.046  1.00  0.00    -0.744 OA
ENDBRANCH  42  46
ENDBRANCH  25  39
BRANCH  26  50
ATOM     50  C   UNL A   1      39.492  31.401  30.813  1.00  0.00     0.023 A 
ATOM     51  C   UNL A   1      39.457  31.463  32.219  1.00  0.00     0.031 A 
ATOM     52  C   UNL A   1      38.346  31.804  30.107  1.00  0.00     0.131 A 
ATOM     53  C   UNL A   1      38.277  31.844  32.871  1.00  0.00     0.055 A 
ATOM     54  C   UNL A   1      37.199  32.258  30.760  1.00  0.00     0.041 A 
ATOM     55  F   UNL A   1      38.323  31.749  28.766  1.00  0.00    -0.206 F 
ATOM     56  C   UNL A   1      37.154  32.261  32.151  1.00  0.00     0.022 A 
BRANCH  53  57
ATOM     57  S   UNL A   1      38.113  31.671  34.670  1.00  0.00     0.124 S 
ATOM     58  O   UNL A   1      39.321  32.334  35.152  1.00  0.00    -0.237 OA
ATOM     59  O   UNL A   1      36.861  32.378  34.924  1.00  0.00    -0.237 OA
ATOM     60  O   UNL A   1      38.062  30.227  34.874  1.00  0.00    -0.744 OA
ENDBRANCH  53  57
ENDBRANCH  26  50
BRANCH  38  61
ATOM     61  C   UNL A   1      45.996  33.626  29.235  1.00  0.00     0.023 A 
ATOM     62  C   UNL A   1      46.025  34.636  28.253  1.00  0.00     0.031 A 
ATOM     63  C   UNL A   1      46.835  33.765  30.354  1.00  0.00     0.131 A 
ATOM     64  C   UNL A   1      46.914  35.710  28.380  1.00  0.00     0.055 A 
ATOM     65  C   UNL A   1      47.678  34.868  30.505  1.00  0.00     0.041 A 
ATOM     66  F   UNL A   1      46.859  32.823  31.310  1.00  0.00    -0.206 F 
ATOM     67  C   UNL A   1      47.732  35.837  29.507  1.00  0.00     0.022 A 
BRANCH  64  68
ATOM     68  S   UNL A   1      47.122  36.917  27.043  1.00  0.00     0.124 S 
ATOM     69  O   UNL A   1      48.563  37.159  27.076  1.00  0.00    -0.237 OA
ATOM     70  O   UNL A   1      46.642  36.175  25.881  1.00  0.00    -0.237 OA
ATOM     71  O   UNL A   1      46.293  38.045  27.454  1.00  0.00    -0.744 OA
ENDBRANCH  64  68
ENDBRANCH  38  61
ENDBRANCH  12  13
ENDBRANCH   5   7
ENDBRANCH   2   3
ENDBRANCH   1   2
BRANCH   1  72
ATOM     72  C   UNL A   1      34.100  23.313  26.795  1.00  0.00     0.023 C 
BRANCH  72  73
ATOM     73  C   UNL A   1      32.789  23.775  26.161  1.00  0.00     0.116 C 
BRANCH  73  74
ATOM     74  N   UNL A   1      33.010  24.350  24.847  1.00  0.00    -0.351 N 
ATOM     75  C   UNL A   1      32.978  25.658  24.455  1.00  0.00     0.278 C 
ATOM     76  H   UNL A   1      33.213  23.703  24.134  1.00  0.00     0.163 HD
ATOM     77  O   UNL A   1      33.139  25.899  23.255  1.00  0.00    -0.268 OA
BRANCH  75  78
ATOM     78  C   UNL A   1      32.727  26.795  25.465  1.00  0.00     0.279 C 
ATOM     79  C   UNL A   1      34.101  27.277  25.979  1.00  0.00     0.111 C 
ATOM     80  N   UNL A   1      31.873  27.870  24.888  1.00  0.00    -0.317 N 
ATOM     81  C   UNL A   1      34.088  28.640  26.617  1.00  0.00    -0.033 A 
ATOM     82  C   UNL A   1      31.701  28.978  25.834  1.00  0.00     0.300 C 
ATOM     83  H   UNL A   1      32.380  28.216  24.074  1.00  0.00     0.349 HD
ATOM     84  C   UNL A   1      35.215  29.093  27.317  1.00  0.00     0.006 A 
ATOM     85  C   UNL A   1      32.969  29.471  26.486  1.00  0.00     0.011 A 
ATOM     86  C   UNL A   1      35.213  30.350  27.923  1.00  0.00     0.021 A 
ATOM     87  C   UNL A   1      32.974  30.734  27.101  1.00  0.00     0.030 A 
ATOM     88  C   UNL A   1      34.089  31.163  27.817  1.00  0.00     0.041 A 
ATOM     89  Cl  UNL A   1      34.062  32.695  28.599  1.00  0.00    -0.084 Cl
BRANCH  80  90
ATOM     90  C   UNL A   1      30.568  27.392  24.364  1.00  0.00     0.299 C 
BRANCH  90  91
ATOM     91  C   UNL A   1      29.879  28.289  23.349  1.00  0.00     0.006 A 
ATOM     92  C   UNL A   1      30.619  29.066  22.446  1.00  0.00     0.011 A 
ATOM     93  C   UNL A   1      28.480  28.407  23.342  1.00  0.00     0.011 A 
ATOM     94  C   UNL A   1      29.993  30.026  21.649  1.00  0.00     0.021 A 
ATOM     95  C   UNL A   1      27.847  29.350  22.528  1.00  0.00     0.021 A 
ATOM     96  C   UNL A   1      28.610  30.175  21.707  1.00  0.00     0.041 A 
ATOM     97  Cl  UNL A   1      27.844  31.396  20.767  1.00  0.00    -0.084 Cl
ENDBRANCH  90  91
ENDBRANCH  80  90
ENDBRANCH  75  78
ENDBRANCH  73  74
ENDBRANCH  72  73
ENDBRANCH   1  72
TORSDOF 16
ENDMDL
