MODEL 1
REMARK VINA RESULT:     -12.7      0.000      0.000
REMARK SMILES Cc1ccc(C[C@@H](Cc2cc(F)cc(Br)c2)C(=O)NCCCCNC(=O)c2ccc(-c3c4nc(c(-c5cc(S(=O)(=O)[O-])ccc5F)c5ccc([nH]5)c(-c5cc(S(=O)(=O)[O-])ccc5F)c5nc(c(-c6cc(S(=O)(=O)[O-])ccc6F)c6ccc3[nH]6)C=C5)C=C4)cc2)cc1
REMARK SMILES IDX 22 1 21 2 20 3 19 4 17 5 18 6 7 8 6 9 5 10 1 11 2 12 3 13
REMARK SMILES IDX 91 14 4 15 90 16 8 17 9 18 10 19 16 20 11 21 14 22 12 23
REMARK SMILES IDX 13 24 15 25 23 26 24 27 25 28 26 30 27 31 28 32 89 33 29 34
REMARK SMILES IDX 88 35 30 36 31 37 32 38 82 39 33 40 87 41 81 42 83 43 34 44
REMARK SMILES IDX 86 45 80 46 79 47 35 49 67 50 47 51 66 52 48 53 51 54 65 55
REMARK SMILES IDX 84 56 49 57 50 58 64 60 85 61 52 62 36 63 37 64 45 65 38 66
REMARK SMILES IDX 44 67 46 68 43 69 39 70 40 71 41 72 42 73 68 74 69 75 77 76
REMARK SMILES IDX 70 77 76 78 78 79 75 80 71 81 72 82 73 83 74 84 53 85 54 86
REMARK SMILES IDX 62 87 55 88 61 89 63 90 60 91 56 92 57 93 58 94 59 95
REMARK H PARENT 19 7 24 29 83 48 51 59
REMARK Flexibility Score: inf
ROOT
ATOM      1  C   UNL A   1      33.030  30.677  26.912  1.00  0.00     0.023 C 
ENDROOT
BRANCH   1   2
ATOM      2  C   UNL A   1      31.956  29.625  26.624  1.00  0.00     0.023 C 
BRANCH   2   3
ATOM      3  C   UNL A   1      31.361  29.700  25.214  1.00  0.00     0.116 C 
BRANCH   3   4
ATOM      4  N   UNL A   1      32.415  29.769  24.206  1.00  0.00    -0.356 N 
ATOM      5  C   UNL A   1      33.142  28.784  23.618  1.00  0.00     0.223 C 
ATOM      6  O   UNL A   1      34.005  29.119  22.799  1.00  0.00    -0.275 OA
ATOM      7  H   UNL A   1      32.635  30.679  23.903  1.00  0.00     0.163 HD
BRANCH   5   8
ATOM      8  C   UNL A   1      32.933  27.314  23.948  1.00  0.00     0.087 C 
BRANCH   8   9
ATOM      9  C   UNL A   1      33.054  26.536  22.615  1.00  0.00     0.049 C 
BRANCH   9  10
ATOM     10  C   UNL A   1      32.801  25.047  22.610  1.00  0.00    -0.047 A 
ATOM     11  C   UNL A   1      32.206  20.797  23.111  1.00  0.00     0.044 C 
ATOM     12  C   UNL A   1      32.422  22.266  22.916  1.00  0.00    -0.051 A 
ATOM     13  C   UNL A   1      31.364  23.154  23.127  1.00  0.00     0.004 A 
ATOM     14  C   UNL A   1      33.665  22.775  22.525  1.00  0.00     0.004 A 
ATOM     15  C   UNL A   1      31.558  24.529  22.994  1.00  0.00     0.004 A 
ATOM     16  C   UNL A   1      33.851  24.152  22.368  1.00  0.00     0.004 A 
ENDBRANCH   9  10
ENDBRANCH   8   9
BRANCH   8  17
ATOM     17  C   UNL A   1      33.774  26.748  25.115  1.00  0.00     0.049 C 
BRANCH  17  18
ATOM     18  C   UNL A   1      33.620  25.362  25.714  1.00  0.00    -0.043 A 
ATOM     19  C   UNL A   1      32.367  25.072  26.284  1.00  0.00     0.043 A 
ATOM     20  C   UNL A   1      34.582  24.346  25.724  1.00  0.00     0.019 A 
ATOM     21  C   UNL A   1      32.078  23.806  26.781  1.00  0.00     0.124 A 
ATOM     22  C   UNL A   1      34.250  23.054  26.159  1.00  0.00     0.021 A 
ATOM     23  F   UNL A   1      30.889  23.595  27.357  1.00  0.00    -0.207 F 
ATOM     24  C   UNL A   1      32.997  22.776  26.690  1.00  0.00     0.055 A 
ATOM     25  Br  UNL A   1      35.515  21.657  25.981  1.00  0.00    -0.051 Br
ENDBRANCH  17  18
ENDBRANCH   8  17
ENDBRANCH   5   8
ENDBRANCH   3   4
ENDBRANCH   2   3
ENDBRANCH   1   2
BRANCH   1  26
ATOM     26  C   UNL A   1      34.209  30.135  27.709  1.00  0.00     0.116 C 
BRANCH  26  27
ATOM     27  N   UNL A   1      34.855  31.095  28.584  1.00  0.00    -0.352 N 
ATOM     28  C   UNL A   1      36.056  30.987  29.264  1.00  0.00     0.251 C 
ATOM     29  H   UNL A   1      34.372  31.943  28.713  1.00  0.00     0.163 HD
ATOM     30  O   UNL A   1      36.391  31.852  30.063  1.00  0.00    -0.269 OA
BRANCH  28  31
ATOM     31  C   UNL A   1      36.998  29.880  28.938  1.00  0.00     0.039 A 
ATOM     32  C   UNL A   1      37.262  28.942  29.947  1.00  0.00     0.014 A 
ATOM     33  C   UNL A   1      37.742  29.851  27.760  1.00  0.00     0.014 A 
ATOM     34  C   UNL A   1      38.398  28.139  29.864  1.00  0.00     0.010 A 
ATOM     35  C   UNL A   1      38.915  29.120  27.712  1.00  0.00     0.010 A 
ATOM     36  C   UNL A   1      39.270  28.305  28.786  1.00  0.00    -0.014 A 
BRANCH  36  37
ATOM     37  C   UNL A   1      40.621  27.763  28.776  1.00  0.00     0.031 A 
ATOM     38  C   UNL A   1      40.891  26.390  28.320  1.00  0.00     0.074 A 
ATOM     39  C   UNL A   1      41.655  28.517  29.209  1.00  0.00     0.049 A 
ATOM     40  N   UNL A   1      41.789  25.626  28.848  1.00  0.00    -0.248 NA
ATOM     41  C   UNL A   1      40.153  25.761  27.230  1.00  0.00     0.031 C 
ATOM     42  C   UNL A   1      43.073  28.187  29.139  1.00  0.00     0.029 A 
ATOM     43  N   UNL A   1      41.594  29.638  30.029  1.00  0.00    -0.354 N 
ATOM     44  C   UNL A   1      41.953  24.556  28.005  1.00  0.00     0.074 A 
ATOM     45  C   UNL A   1      40.854  24.634  27.066  1.00  0.00     0.031 C 
ATOM     46  C   UNL A   1      43.726  28.895  30.072  1.00  0.00     0.029 A 
ATOM     47  C   UNL A   1      42.735  29.619  30.847  1.00  0.00     0.049 A 
ATOM     48  H   UNL A   1      40.883  30.320  30.035  1.00  0.00     0.167 HD
ATOM     49  C   UNL A   1      43.084  23.800  28.059  1.00  0.00     0.034 A 
ATOM     50  C   UNL A   1      42.633  29.610  32.207  1.00  0.00     0.034 A 
ATOM     51  C   UNL A   1      44.049  24.308  29.025  1.00  0.00     0.049 A 
ATOM     52  C   UNL A   1      43.274  28.391  32.830  1.00  0.00     0.074 A 
ATOM     53  C   UNL A   1      45.193  25.078  28.880  1.00  0.00     0.029 A 
ATOM     54  N   UNL A   1      43.755  24.295  30.385  1.00  0.00    -0.354 N 
ATOM     55  N   UNL A   1      43.559  27.304  32.167  1.00  0.00    -0.248 NA
ATOM     56  C   UNL A   1      43.653  28.296  34.236  1.00  0.00     0.031 C 
ATOM     57  C   UNL A   1      45.559  25.568  30.159  1.00  0.00     0.029 A 
ATOM     58  C   UNL A   1      44.659  25.069  31.084  1.00  0.00     0.049 A 
ATOM     59  H   UNL A   1      43.005  23.802  30.791  1.00  0.00     0.167 HD
ATOM     60  C   UNL A   1      44.164  26.396  32.998  1.00  0.00     0.074 A 
ATOM     61  C   UNL A   1      44.198  27.067  34.286  1.00  0.00     0.031 C 
ATOM     62  C   UNL A   1      44.594  25.181  32.536  1.00  0.00     0.034 A 
BRANCH  49  63
ATOM     63  C   UNL A   1      43.413  22.808  26.977  1.00  0.00     0.023 A 
ATOM     64  C   UNL A   1      42.860  21.513  27.008  1.00  0.00     0.031 A 
ATOM     65  C   UNL A   1      44.291  23.082  25.912  1.00  0.00     0.131 A 
ATOM     66  C   UNL A   1      43.252  20.533  26.081  1.00  0.00     0.055 A 
ATOM     67  C   UNL A   1      44.720  22.095  25.016  1.00  0.00     0.041 A 
ATOM     68  F   UNL A   1      44.763  24.323  25.708  1.00  0.00    -0.206 F 
ATOM     69  C   UNL A   1      44.209  20.806  25.107  1.00  0.00     0.022 A 
BRANCH  66  70
ATOM     70  S   UNL A   1      42.491  18.888  26.169  1.00  0.00     0.124 S 
ATOM     71  O   UNL A   1      42.683  18.532  27.572  1.00  0.00    -0.237 OA
ATOM     72  O   UNL A   1      41.120  19.159  25.755  1.00  0.00    -0.237 OA
ATOM     73  O   UNL A   1      43.277  18.099  25.221  1.00  0.00    -0.744 OA
ENDBRANCH  66  70
ENDBRANCH  49  63
BRANCH  50  74
ATOM     74  C   UNL A   1      41.432  30.341  32.702  1.00  0.00     0.023 A 
ATOM     75  C   UNL A   1      41.490  31.754  32.686  1.00  0.00     0.031 A 
ATOM     76  C   UNL A   1      40.170  29.738  32.773  1.00  0.00     0.131 A 
ATOM     77  C   UNL A   1      40.317  32.512  32.564  1.00  0.00     0.055 A 
ATOM     78  C   UNL A   1      38.998  30.505  32.725  1.00  0.00     0.041 A 
ATOM     79  F   UNL A   1      40.047  28.403  32.761  1.00  0.00    -0.206 F 
ATOM     80  C   UNL A   1      39.067  31.892  32.573  1.00  0.00     0.022 A 
BRANCH  77  81
ATOM     81  S   UNL A   1      40.463  34.270  32.120  1.00  0.00     0.124 S 
ATOM     82  O   UNL A   1      41.583  34.262  31.188  1.00  0.00    -0.237 OA
ATOM     83  O   UNL A   1      39.155  34.574  31.537  1.00  0.00    -0.237 OA
ATOM     84  O   UNL A   1      40.712  34.931  33.399  1.00  0.00    -0.744 OA
ENDBRANCH  77  81
ENDBRANCH  50  74
BRANCH  62  85
ATOM     85  C   UNL A   1      45.105  24.025  33.372  1.00  0.00     0.023 A 
ATOM     86  C   UNL A   1      46.370  24.002  33.975  1.00  0.00     0.031 A 
ATOM     87  C   UNL A   1      44.272  22.912  33.661  1.00  0.00     0.131 A 
ATOM     88  C   UNL A   1      46.789  22.901  34.748  1.00  0.00     0.055 A 
ATOM     89  C   UNL A   1      44.662  21.856  34.491  1.00  0.00     0.041 A 
ATOM     90  F   UNL A   1      43.031  22.803  33.163  1.00  0.00    -0.206 F 
ATOM     91  C   UNL A   1      45.935  21.838  35.030  1.00  0.00     0.022 A 
BRANCH  88  92
ATOM     92  S   UNL A   1      48.501  22.869  35.339  1.00  0.00     0.124 S 
ATOM     93  O   UNL A   1      49.249  23.076  34.101  1.00  0.00    -0.237 OA
ATOM     94  O   UNL A   1      48.528  23.976  36.288  1.00  0.00    -0.237 OA
ATOM     95  O   UNL A   1      48.638  21.539  35.931  1.00  0.00    -0.744 OA
ENDBRANCH  88  92
ENDBRANCH  62  85
ENDBRANCH  36  37
ENDBRANCH  28  31
ENDBRANCH  26  27
ENDBRANCH   1  26
TORSDOF 18
ENDMDL
MODEL 2
REMARK VINA RESULT:     -12.3      4.188     10.437
REMARK SMILES Cc1ccc(C[C@@H](Cc2cc(F)cc(Br)c2)C(=O)NCCCCNC(=O)c2ccc(-c3c4nc(c(-c5cc(S(=O)(=O)[O-])ccc5F)c5ccc([nH]5)c(-c5cc(S(=O)(=O)[O-])ccc5F)c5nc(c(-c6cc(S(=O)(=O)[O-])ccc6F)c6ccc3[nH]6)C=C5)C=C4)cc2)cc1
REMARK SMILES IDX 22 1 21 2 20 3 19 4 17 5 18 6 7 8 6 9 5 10 1 11 2 12 3 13
REMARK SMILES IDX 91 14 4 15 90 16 8 17 9 18 10 19 16 20 11 21 14 22 12 23
REMARK SMILES IDX 13 24 15 25 23 26 24 27 25 28 26 30 27 31 28 32 89 33 29 34
REMARK SMILES IDX 88 35 30 36 31 37 32 38 82 39 33 40 87 41 81 42 83 43 34 44
REMARK SMILES IDX 86 45 80 46 79 47 35 49 67 50 47 51 66 52 48 53 51 54 65 55
REMARK SMILES IDX 84 56 49 57 50 58 64 60 85 61 52 62 36 63 37 64 45 65 38 66
REMARK SMILES IDX 44 67 46 68 43 69 39 70 40 71 41 72 42 73 68 74 69 75 77 76
REMARK SMILES IDX 70 77 76 78 78 79 75 80 71 81 72 82 73 83 74 84 53 85 54 86
REMARK SMILES IDX 62 87 55 88 61 89 63 90 60 91 56 92 57 93 58 94 59 95
REMARK H PARENT 19 7 24 29 83 48 51 59
REMARK Flexibility Score: inf
ROOT
ATOM      1  C   UNL A   1      38.951  21.303  25.781  1.00  0.00     0.023 C 
ENDROOT
BRANCH   1   2
ATOM      2  C   UNL A   1      37.585  21.304  25.091  1.00  0.00     0.023 C 
BRANCH   2   3
ATOM      3  C   UNL A   1      36.609  22.359  25.623  1.00  0.00     0.116 C 
BRANCH   3   4
ATOM      4  N   UNL A   1      35.609  21.751  26.496  1.00  0.00    -0.356 N 
ATOM      5  C   UNL A   1      34.295  22.043  26.672  1.00  0.00     0.223 C 
ATOM      6  O   UNL A   1      33.666  21.380  27.506  1.00  0.00    -0.275 OA
ATOM      7  H   UNL A   1      35.943  21.007  27.047  1.00  0.00     0.163 HD
BRANCH   5   8
ATOM      8  C   UNL A   1      33.599  23.151  25.897  1.00  0.00     0.087 C 
BRANCH   8   9
ATOM      9  C   UNL A   1      32.077  22.893  26.021  1.00  0.00     0.049 C 
BRANCH   9  10
ATOM     10  C   UNL A   1      31.113  23.881  25.407  1.00  0.00    -0.047 A 
ATOM     11  C   UNL A   1      28.772  27.042  23.620  1.00  0.00     0.044 C 
ATOM     12  C   UNL A   1      29.565  25.941  24.253  1.00  0.00    -0.051 A 
ATOM     13  C   UNL A   1      30.214  25.003  23.446  1.00  0.00     0.004 A 
ATOM     14  C   UNL A   1      29.673  25.826  25.643  1.00  0.00     0.004 A 
ATOM     15  C   UNL A   1      30.994  23.998  24.017  1.00  0.00     0.004 A 
ATOM     16  C   UNL A   1      30.436  24.803  26.215  1.00  0.00     0.004 A 
ENDBRANCH   9  10
ENDBRANCH   8   9
BRANCH   8  17
ATOM     17  C   UNL A   1      34.045  24.596  26.218  1.00  0.00     0.049 C 
BRANCH  17  18
ATOM     18  C   UNL A   1      33.710  25.820  25.386  1.00  0.00    -0.043 A 
ATOM     19  C   UNL A   1      33.931  25.705  24.001  1.00  0.00     0.043 A 
ATOM     20  C   UNL A   1      33.179  27.027  25.854  1.00  0.00     0.019 A 
ATOM     21  C   UNL A   1      33.577  26.727  23.128  1.00  0.00     0.124 A 
ATOM     22  C   UNL A   1      32.757  28.017  24.954  1.00  0.00     0.021 A 
ATOM     23  F   UNL A   1      33.853  26.588  21.826  1.00  0.00    -0.207 F 
ATOM     24  C   UNL A   1      32.953  27.874  23.587  1.00  0.00     0.055 A 
ATOM     25  Br  UNL A   1      31.867  29.555  25.610  1.00  0.00    -0.051 Br
ENDBRANCH  17  18
ENDBRANCH   8  17
ENDBRANCH   5   8
ENDBRANCH   3   4
ENDBRANCH   2   3
ENDBRANCH   1   2
BRANCH   1  26
ATOM     26  C   UNL A   1      39.377  22.676  26.284  1.00  0.00     0.116 C 
BRANCH  26  27
ATOM     27  N   UNL A   1      40.792  22.969  26.153  1.00  0.00    -0.352 N 
ATOM     28  C   UNL A   1      41.448  24.182  26.279  1.00  0.00     0.251 C 
ATOM     29  H   UNL A   1      41.367  22.197  25.946  1.00  0.00     0.163 HD
ATOM     30  O   UNL A   1      42.639  24.268  26.012  1.00  0.00    -0.269 OA
BRANCH  28  31
ATOM     31  C   UNL A   1      40.734  25.357  26.853  1.00  0.00     0.039 A 
ATOM     32  C   UNL A   1      40.895  26.588  26.202  1.00  0.00     0.014 A 
ATOM     33  C   UNL A   1      40.079  25.309  28.083  1.00  0.00     0.014 A 
ATOM     34  C   UNL A   1      40.604  27.772  26.879  1.00  0.00     0.010 A 
ATOM     35  C   UNL A   1      39.871  26.479  28.790  1.00  0.00     0.010 A 
ATOM     36  C   UNL A   1      40.183  27.707  28.208  1.00  0.00    -0.014 A 
BRANCH  36  37
ATOM     37  C   UNL A   1      40.172  28.867  29.088  1.00  0.00     0.031 A 
ATOM     38  C   UNL A   1      39.055  29.827  29.075  1.00  0.00     0.074 A 
ATOM     39  C   UNL A   1      41.208  29.092  29.924  1.00  0.00     0.049 A 
ATOM     40  N   UNL A   1      39.205  31.099  29.242  1.00  0.00    -0.248 NA
ATOM     41  C   UNL A   1      37.671  29.424  28.856  1.00  0.00     0.031 C 
ATOM     42  C   UNL A   1      41.297  30.115  30.959  1.00  0.00     0.029 A 
ATOM     43  N   UNL A   1      42.496  28.577  29.825  1.00  0.00    -0.354 N 
ATOM     44  C   UNL A   1      37.956  31.627  29.451  1.00  0.00     0.074 A 
ATOM     45  C   UNL A   1      37.029  30.569  29.110  1.00  0.00     0.031 C 
ATOM     46  C   UNL A   1      42.592  30.350  31.219  1.00  0.00     0.029 A 
ATOM     47  C   UNL A   1      43.378  29.569  30.282  1.00  0.00     0.049 A 
ATOM     48  H   UNL A   1      42.745  27.683  29.496  1.00  0.00     0.167 HD
ATOM     49  C   UNL A   1      37.810  32.839  30.052  1.00  0.00     0.034 A 
ATOM     50  C   UNL A   1      44.374  30.054  29.487  1.00  0.00     0.034 A 
ATOM     51  C   UNL A   1      39.083  33.411  30.472  1.00  0.00     0.049 A 
ATOM     52  C   UNL A   1      44.256  31.543  29.251  1.00  0.00     0.074 A 
ATOM     53  C   UNL A   1      39.720  33.459  31.703  1.00  0.00     0.029 A 
ATOM     54  N   UNL A   1      40.029  33.789  29.526  1.00  0.00    -0.354 N 
ATOM     55  N   UNL A   1      43.162  32.224  29.454  1.00  0.00    -0.248 NA
ATOM     56  C   UNL A   1      45.351  32.384  28.779  1.00  0.00     0.031 C 
ATOM     57  C   UNL A   1      41.072  33.823  31.485  1.00  0.00     0.029 A 
ATOM     58  C   UNL A   1      41.249  34.030  30.128  1.00  0.00     0.049 A 
ATOM     59  H   UNL A   1      39.853  33.873  28.560  1.00  0.00     0.167 HD
ATOM     60  C   UNL A   1      43.382  33.551  29.186  1.00  0.00     0.074 A 
ATOM     61  C   UNL A   1      44.771  33.598  28.764  1.00  0.00     0.031 C 
ATOM     62  C   UNL A   1      42.397  34.486  29.354  1.00  0.00     0.034 A 
BRANCH  49  63
ATOM     63  C   UNL A   1      36.468  33.312  30.541  1.00  0.00     0.023 A 
ATOM     64  C   UNL A   1      35.641  34.090  29.708  1.00  0.00     0.031 A 
ATOM     65  C   UNL A   1      35.975  33.048  31.832  1.00  0.00     0.131 A 
ATOM     66  C   UNL A   1      34.444  34.647  30.187  1.00  0.00     0.055 A 
ATOM     67  C   UNL A   1      34.806  33.640  32.328  1.00  0.00     0.041 A 
ATOM     68  F   UNL A   1      36.615  32.203  32.657  1.00  0.00    -0.206 F 
ATOM     69  C   UNL A   1      34.040  34.458  31.507  1.00  0.00     0.022 A 
BRANCH  66  70
ATOM     70  S   UNL A   1      33.419  35.629  29.057  1.00  0.00     0.124 S 
ATOM     71  O   UNL A   1      32.530  34.621  28.488  1.00  0.00    -0.237 OA
ATOM     72  O   UNL A   1      32.804  36.595  29.959  1.00  0.00    -0.237 OA
ATOM     73  O   UNL A   1      34.390  36.191  28.120  1.00  0.00    -0.744 OA
ENDBRANCH  66  70
ENDBRANCH  49  63
BRANCH  50  74
ATOM     74  C   UNL A   1      44.903  29.037  28.535  1.00  0.00     0.023 A 
ATOM     75  C   UNL A   1      45.709  28.009  29.079  1.00  0.00     0.031 A 
ATOM     76  C   UNL A   1      44.323  28.819  27.279  1.00  0.00     0.131 A 
ATOM     77  C   UNL A   1      45.772  26.753  28.458  1.00  0.00     0.055 A 
ATOM     78  C   UNL A   1      44.450  27.586  26.626  1.00  0.00     0.041 A 
ATOM     79  F   UNL A   1      43.524  29.743  26.725  1.00  0.00    -0.206 F 
ATOM     80  C   UNL A   1      45.137  26.532  27.236  1.00  0.00     0.022 A 
BRANCH  77  81
ATOM     81  S   UNL A   1      46.458  25.355  29.398  1.00  0.00     0.124 S 
ATOM     82  O   UNL A   1      47.892  25.518  29.193  1.00  0.00    -0.237 OA
ATOM     83  O   UNL A   1      45.979  25.604  30.759  1.00  0.00    -0.237 OA
ATOM     84  O   UNL A   1      45.859  24.184  28.762  1.00  0.00    -0.744 OA
ENDBRANCH  77  81
ENDBRANCH  50  74
BRANCH  62  85
ATOM     85  C   UNL A   1      42.445  35.939  28.926  1.00  0.00     0.023 A 
ATOM     86  C   UNL A   1      43.133  36.935  29.633  1.00  0.00     0.031 A 
ATOM     87  C   UNL A   1      41.849  36.359  27.707  1.00  0.00     0.131 A 
ATOM     88  C   UNL A   1      43.149  38.270  29.183  1.00  0.00     0.055 A 
ATOM     89  C   UNL A   1      41.931  37.668  27.223  1.00  0.00     0.041 A 
ATOM     90  F   UNL A   1      41.169  35.513  26.919  1.00  0.00    -0.206 F 
ATOM     91  C   UNL A   1      42.574  38.639  27.971  1.00  0.00     0.022 A 
BRANCH  88  92
ATOM     92  S   UNL A   1      43.903  39.525  30.248  1.00  0.00     0.124 S 
ATOM     93  O   UNL A   1      43.906  38.855  31.546  1.00  0.00    -0.237 OA
ATOM     94  O   UNL A   1      45.212  39.718  29.632  1.00  0.00    -0.237 OA
ATOM     95  O   UNL A   1      42.992  40.664  30.140  1.00  0.00    -0.744 OA
ENDBRANCH  88  92
ENDBRANCH  62  85
ENDBRANCH  36  37
ENDBRANCH  28  31
ENDBRANCH  26  27
ENDBRANCH   1  26
TORSDOF 18
ENDMDL
MODEL 3
REMARK VINA RESULT:     -12.2      4.176     10.490
REMARK SMILES Cc1ccc(C[C@@H](Cc2cc(F)cc(Br)c2)C(=O)NCCCCNC(=O)c2ccc(-c3c4nc(c(-c5cc(S(=O)(=O)[O-])ccc5F)c5ccc([nH]5)c(-c5cc(S(=O)(=O)[O-])ccc5F)c5nc(c(-c6cc(S(=O)(=O)[O-])ccc6F)c6ccc3[nH]6)C=C5)C=C4)cc2)cc1
REMARK SMILES IDX 22 1 21 2 20 3 19 4 17 5 18 6 7 8 6 9 5 10 1 11 2 12 3 13
REMARK SMILES IDX 91 14 4 15 90 16 8 17 9 18 10 19 16 20 11 21 14 22 12 23
REMARK SMILES IDX 13 24 15 25 23 26 24 27 25 28 26 30 27 31 28 32 89 33 29 34
REMARK SMILES IDX 88 35 30 36 31 37 32 38 82 39 33 40 87 41 81 42 83 43 34 44
REMARK SMILES IDX 86 45 80 46 79 47 35 49 67 50 47 51 66 52 48 53 51 54 65 55
REMARK SMILES IDX 84 56 49 57 50 58 64 60 85 61 52 62 36 63 37 64 45 65 38 66
REMARK SMILES IDX 44 67 46 68 43 69 39 70 40 71 41 72 42 73 68 74 69 75 77 76
REMARK SMILES IDX 70 77 76 78 78 79 75 80 71 81 72 82 73 83 74 84 53 85 54 86
REMARK SMILES IDX 62 87 55 88 61 89 63 90 60 91 56 92 57 93 58 94 59 95
REMARK H PARENT 19 7 24 29 83 48 51 59
REMARK Flexibility Score: inf
ROOT
ATOM      1  C   UNL A   1      38.348  21.506  25.553  1.00  0.00     0.023 C 
ENDROOT
BRANCH   1   2
ATOM      2  C   UNL A   1      37.218  21.749  24.549  1.00  0.00     0.023 C 
BRANCH   2   3
ATOM      3  C   UNL A   1      35.941  20.950  24.828  1.00  0.00     0.116 C 
BRANCH   3   4
ATOM      4  N   UNL A   1      35.413  21.257  26.154  1.00  0.00    -0.356 N 
ATOM      5  C   UNL A   1      34.199  21.734  26.533  1.00  0.00     0.223 C 
ATOM      6  O   UNL A   1      34.012  21.933  27.739  1.00  0.00    -0.275 OA
ATOM      7  H   UNL A   1      36.040  21.091  26.895  1.00  0.00     0.163 HD
BRANCH   5   8
ATOM      8  C   UNL A   1      33.097  22.035  25.530  1.00  0.00     0.087 C 
BRANCH   8   9
ATOM      9  C   UNL A   1      33.781  22.664  24.292  1.00  0.00     0.049 C 
BRANCH   9  10
ATOM     10  C   UNL A   1      33.596  24.139  24.021  1.00  0.00    -0.047 A 
ATOM     11  C   UNL A   1      33.554  28.345  23.034  1.00  0.00     0.044 C 
ATOM     12  C   UNL A   1      33.557  26.892  23.396  1.00  0.00    -0.051 A 
ATOM     13  C   UNL A   1      33.099  25.948  22.473  1.00  0.00     0.004 A 
ATOM     14  C   UNL A   1      34.010  26.453  24.645  1.00  0.00     0.004 A 
ATOM     15  C   UNL A   1      33.136  24.587  22.776  1.00  0.00     0.004 A 
ATOM     16  C   UNL A   1      34.025  25.089  24.956  1.00  0.00     0.004 A 
ENDBRANCH   9  10
ENDBRANCH   8   9
BRANCH   8  17
ATOM     17  C   UNL A   1      32.117  20.881  25.220  1.00  0.00     0.049 C 
BRANCH  17  18
ATOM     18  C   UNL A   1      32.488  19.575  24.543  1.00  0.00    -0.043 A 
ATOM     19  C   UNL A   1      32.222  19.496  23.163  1.00  0.00     0.043 A 
ATOM     20  C   UNL A   1      33.094  18.466  25.144  1.00  0.00     0.019 A 
ATOM     21  C   UNL A   1      32.602  18.387  22.419  1.00  0.00     0.124 A 
ATOM     22  C   UNL A   1      33.539  17.387  24.366  1.00  0.00     0.021 A 
ATOM     23  F   UNL A   1      32.281  18.340  21.120  1.00  0.00    -0.207 F 
ATOM     24  C   UNL A   1      33.296  17.340  22.999  1.00  0.00     0.055 A 
ATOM     25  Br  UNL A   1      34.524  15.992  25.184  1.00  0.00    -0.051 Br
ENDBRANCH  17  18
ENDBRANCH   8  17
ENDBRANCH   5   8
ENDBRANCH   3   4
ENDBRANCH   2   3
ENDBRANCH   1   2
BRANCH   1  26
ATOM     26  C   UNL A   1      38.855  22.781  26.213  1.00  0.00     0.116 C 
BRANCH  26  27
ATOM     27  N   UNL A   1      40.298  22.932  26.236  1.00  0.00    -0.352 N 
ATOM     28  C   UNL A   1      41.054  24.070  26.455  1.00  0.00     0.251 C 
ATOM     29  H   UNL A   1      40.813  22.108  26.071  1.00  0.00     0.163 HD
ATOM     30  O   UNL A   1      42.270  24.038  26.313  1.00  0.00    -0.269 OA
BRANCH  28  31
ATOM     31  C   UNL A   1      40.404  25.304  26.978  1.00  0.00     0.039 A 
ATOM     32  C   UNL A   1      40.703  26.512  26.331  1.00  0.00     0.014 A 
ATOM     33  C   UNL A   1      39.675  25.322  28.166  1.00  0.00     0.014 A 
ATOM     34  C   UNL A   1      40.468  27.722  26.982  1.00  0.00     0.010 A 
ATOM     35  C   UNL A   1      39.520  26.512  28.853  1.00  0.00     0.010 A 
ATOM     36  C   UNL A   1      39.964  27.705  28.284  1.00  0.00    -0.014 A 
BRANCH  36  37
ATOM     37  C   UNL A   1      39.994  28.872  29.155  1.00  0.00     0.031 A 
ATOM     38  C   UNL A   1      38.903  29.860  29.148  1.00  0.00     0.074 A 
ATOM     39  C   UNL A   1      41.046  29.075  29.977  1.00  0.00     0.049 A 
ATOM     40  N   UNL A   1      39.088  31.129  29.304  1.00  0.00    -0.248 NA
ATOM     41  C   UNL A   1      37.505  29.492  28.948  1.00  0.00     0.031 C 
ATOM     42  C   UNL A   1      41.174  30.103  31.003  1.00  0.00     0.029 A 
ATOM     43  N   UNL A   1      42.319  28.526  29.866  1.00  0.00    -0.354 N 
ATOM     44  C   UNL A   1      37.855  31.691  29.523  1.00  0.00     0.074 A 
ATOM     45  C   UNL A   1      36.897  30.655  29.201  1.00  0.00     0.031 C 
ATOM     46  C   UNL A   1      42.477  30.307  31.246  1.00  0.00     0.029 A 
ATOM     47  C   UNL A   1      43.231  29.498  30.306  1.00  0.00     0.049 A 
ATOM     48  H   UNL A   1      42.540  27.623  29.541  1.00  0.00     0.167 HD
ATOM     49  C   UNL A   1      37.748  32.911  30.117  1.00  0.00     0.034 A 
ATOM     50  C   UNL A   1      44.230  29.951  29.495  1.00  0.00     0.034 A 
ATOM     51  C   UNL A   1      39.040  33.452  30.517  1.00  0.00     0.049 A 
ATOM     52  C   UNL A   1      44.148  31.441  29.249  1.00  0.00     0.074 A 
ATOM     53  C   UNL A   1      39.693  33.493  31.740  1.00  0.00     0.029 A 
ATOM     54  N   UNL A   1      39.985  33.799  29.557  1.00  0.00    -0.354 N 
ATOM     55  N   UNL A   1      43.075  32.152  29.460  1.00  0.00    -0.248 NA
ATOM     56  C   UNL A   1      45.258  32.250  28.758  1.00  0.00     0.031 C 
ATOM     57  C   UNL A   1      41.051  33.820  31.503  1.00  0.00     0.029 A 
ATOM     58  C   UNL A   1      41.217  34.012  30.143  1.00  0.00     0.049 A 
ATOM     59  H   UNL A   1      39.799  33.880  28.593  1.00  0.00     0.167 HD
ATOM     60  C   UNL A   1      43.325  33.471  29.179  1.00  0.00     0.074 A 
ATOM     61  C   UNL A   1      44.710  33.479  28.740  1.00  0.00     0.031 C 
ATOM     62  C   UNL A   1      42.367  34.432  29.352  1.00  0.00     0.034 A 
BRANCH  49  63
ATOM     63  C   UNL A   1      36.425  33.422  30.618  1.00  0.00     0.023 A 
ATOM     64  C   UNL A   1      35.562  34.127  29.757  1.00  0.00     0.031 A 
ATOM     65  C   UNL A   1      35.985  33.267  31.946  1.00  0.00     0.131 A 
ATOM     66  C   UNL A   1      34.383  34.721  30.236  1.00  0.00     0.055 A 
ATOM     67  C   UNL A   1      34.834  33.898  32.437  1.00  0.00     0.041 A 
ATOM     68  F   UNL A   1      36.661  32.494  32.812  1.00  0.00    -0.206 F 
ATOM     69  C   UNL A   1      34.033  34.643  31.582  1.00  0.00     0.022 A 
BRANCH  66  70
ATOM     70  S   UNL A   1      33.309  35.604  29.069  1.00  0.00     0.124 S 
ATOM     71  O   UNL A   1      34.274  36.204  28.152  1.00  0.00    -0.237 OA
ATOM     72  O   UNL A   1      32.489  34.527  28.528  1.00  0.00    -0.237 OA
ATOM     73  O   UNL A   1      32.595  36.556  29.919  1.00  0.00    -0.744 OA
ENDBRANCH  66  70
ENDBRANCH  49  63
BRANCH  50  74
ATOM     74  C   UNL A   1      44.721  28.914  28.545  1.00  0.00     0.023 A 
ATOM     75  C   UNL A   1      45.492  27.860  29.089  1.00  0.00     0.031 A 
ATOM     76  C   UNL A   1      44.130  28.713  27.291  1.00  0.00     0.131 A 
ATOM     77  C   UNL A   1      45.511  26.601  28.472  1.00  0.00     0.055 A 
ATOM     78  C   UNL A   1      44.213  27.474  26.641  1.00  0.00     0.041 A 
ATOM     79  F   UNL A   1      43.362  29.662  26.736  1.00  0.00    -0.206 F 
ATOM     80  C   UNL A   1      44.864  26.399  27.252  1.00  0.00     0.022 A 
BRANCH  77  81
ATOM     81  S   UNL A   1      46.150  25.183  29.414  1.00  0.00     0.124 S 
ATOM     82  O   UNL A   1      45.154  25.039  30.469  1.00  0.00    -0.237 OA
ATOM     83  O   UNL A   1      46.180  24.110  28.419  1.00  0.00    -0.237 OA
ATOM     84  O   UNL A   1      47.472  25.625  29.851  1.00  0.00    -0.744 OA
ENDBRANCH  77  81
ENDBRANCH  50  74
BRANCH  62  85
ATOM     85  C   UNL A   1      42.448  35.880  28.912  1.00  0.00     0.023 A 
ATOM     86  C   UNL A   1      43.212  36.851  29.574  1.00  0.00     0.031 A 
ATOM     87  C   UNL A   1      41.802  36.318  27.725  1.00  0.00     0.131 A 
ATOM     88  C   UNL A   1      43.256  38.183  29.114  1.00  0.00     0.055 A 
ATOM     89  C   UNL A   1      41.908  37.621  27.229  1.00  0.00     0.041 A 
ATOM     90  F   UNL A   1      41.046  35.496  26.982  1.00  0.00    -0.206 F 
ATOM     91  C   UNL A   1      42.628  38.569  27.934  1.00  0.00     0.022 A 
BRANCH  88  92
ATOM     92  S   UNL A   1      44.116  39.413  30.127  1.00  0.00     0.124 S 
ATOM     93  O   UNL A   1      43.001  40.148  30.717  1.00  0.00    -0.237 OA
ATOM     94  O   UNL A   1      44.884  38.581  31.049  1.00  0.00    -0.237 OA
ATOM     95  O   UNL A   1      44.912  40.164  29.158  1.00  0.00    -0.744 OA
ENDBRANCH  88  92
ENDBRANCH  62  85
ENDBRANCH  36  37
ENDBRANCH  28  31
ENDBRANCH  26  27
ENDBRANCH   1  26
TORSDOF 18
ENDMDL
