MODEL 1
REMARK VINA RESULT:      -9.8      0.000      0.000
REMARK SMILES O=C(NCCCCNC(=O)c1ccc(-c2c3nc(c(-c4cc(S(=O)(=O)[O-])ccc4F)c4ccc([nH]4)c(-c4cc(S(=O)(=O)[O-])ccc4F)c4nc(c(-c5cc(S(=O)(=O)[O-])ccc5F)c5ccc2[nH]5)C=C4)C=C3)cc1)c1ccc(NC(=O)[C@@H]2CC=CC[C@H]2C(=O)Nc2cccc([N+](=O)[O-])c2)cc1
REMARK SMILES IDX 4 1 3 2 1 3 2 4 74 6 75 7 100 8 76 9 99 10 77 11 78 12 79 13
REMARK SMILES IDX 80 15 81 16 82 17 86 18 83 19 85 20 84 21 87 22 88 23 89 24
REMARK SMILES IDX 90 26 91 27 98 28 92 29 94 30 93 31 95 32 96 33 97 34 5 35
REMARK SMILES IDX 6 36 7 37 8 38 9 39 10 41 11 42 12 43 73 44 13 45 72 46
REMARK SMILES IDX 14 47 15 48 16 49 66 50 17 51 71 52 65 53 67 54 18 55 70 56
REMARK SMILES IDX 64 57 63 58 19 60 51 61 31 62 50 63 32 64 35 65 49 66 68 67
REMARK SMILES IDX 33 68 34 69 48 71 69 72 36 73 20 74 21 75 29 76 22 77 28 78
REMARK SMILES IDX 30 79 27 80 23 81 24 82 25 83 26 84 52 85 53 86 61 87 54 88
REMARK SMILES IDX 60 89 62 90 59 91 55 92 56 93 57 94 58 95 37 96 38 97 46 98
REMARK SMILES IDX 39 99 45 100 47 101 44 102 40 103 41 104 42 105 43 106
REMARK H PARENT 3 5 78 14 89 25 8 40 67 59 35 70
REMARK Flexibility Score: inf
ROOT
ATOM      1  C   UNL A   1      35.877  32.303  30.311  1.00  0.00     0.116 C 
ENDROOT
BRANCH   1   2
ATOM      2  N   UNL A   1      35.384  31.344  29.329  1.00  0.00    -0.352 N 
ATOM      3  O   UNL A   1      35.547  29.502  27.994  1.00  0.00    -0.269 OA
ATOM      4  C   UNL A   1      36.021  30.209  28.874  1.00  0.00     0.251 C 
ATOM      5  H   UNL A   1      34.494  31.528  28.947  1.00  0.00     0.163 HD
BRANCH   4   6
ATOM      6  C   UNL A   1      37.333  29.887  29.459  1.00  0.00     0.039 A 
ATOM      7  C   UNL A   1      38.484  30.399  28.870  1.00  0.00     0.016 A 
ATOM      8  C   UNL A   1      37.420  28.932  30.467  1.00  0.00     0.016 A 
ATOM      9  C   UNL A   1      39.719  29.828  29.167  1.00  0.00     0.027 A 
ATOM     10  C   UNL A   1      38.675  28.417  30.804  1.00  0.00     0.027 A 
ATOM     11  C   UNL A   1      39.836  28.822  30.121  1.00  0.00     0.041 A 
BRANCH  11  12
ATOM     12  N   UNL A   1      41.020  28.153  30.466  1.00  0.00    -0.326 N 
ATOM     13  C   UNL A   1      42.086  27.623  29.820  1.00  0.00     0.228 C 
ATOM     14  H   UNL A   1      41.095  28.036  31.440  1.00  0.00     0.169 HD
ATOM     15  O   UNL A   1      42.953  27.114  30.548  1.00  0.00    -0.274 OA
BRANCH  13  16
ATOM     16  C   UNL A   1      42.276  27.520  28.315  1.00  0.00     0.095 C 
ATOM     17  C   UNL A   1      42.943  28.740  27.665  1.00  0.00     0.041 C 
ATOM     18  C   UNL A   1      41.057  26.898  27.623  1.00  0.00     0.095 C 
ATOM     19  C   UNL A   1      42.619  28.911  26.210  1.00  0.00    -0.030 C 
ATOM     20  C   UNL A   1      41.150  26.884  26.090  1.00  0.00     0.041 C 
ATOM     21  C   UNL A   1      41.830  28.085  25.510  1.00  0.00    -0.030 C 
BRANCH  18  22
ATOM     22  C   UNL A   1      40.607  25.519  28.161  1.00  0.00     0.228 C 
ATOM     23  O   UNL A   1      39.498  25.427  28.705  1.00  0.00    -0.274 OA
ATOM     24  N   UNL A   1      41.286  24.348  27.946  1.00  0.00    -0.326 N 
ATOM     25  H   UNL A   1      40.744  23.537  28.077  1.00  0.00     0.169 HD
BRANCH  24  26
ATOM     26  C   UNL A   1      42.611  24.100  27.574  1.00  0.00     0.048 A 
ATOM     27  C   UNL A   1      43.590  24.021  28.567  1.00  0.00     0.026 A 
ATOM     28  C   UNL A   1      42.990  23.983  26.242  1.00  0.00     0.111 A 
ATOM     29  C   UNL A   1      44.900  23.652  28.239  1.00  0.00     0.009 A 
ATOM     30  C   UNL A   1      44.279  23.550  25.915  1.00  0.00     0.271 A 
ATOM     31  C   UNL A   1      45.240  23.376  26.913  1.00  0.00     0.086 A 
BRANCH  30  32
ATOM     32  N   UNL A   1      44.598  23.222  24.521  1.00  0.00     0.062 N 
ATOM     33  O   UNL A   1      45.694  23.593  24.080  1.00  0.00    -0.258 OA
ATOM     34  O   UNL A   1      43.766  22.569  23.876  1.00  0.00    -0.258 OA
ENDBRANCH  30  32
ENDBRANCH  24  26
ENDBRANCH  18  22
ENDBRANCH  13  16
ENDBRANCH  11  12
ENDBRANCH   4   6
ENDBRANCH   1   2
BRANCH   1  35
ATOM     35  C   UNL A   1      34.783  32.948  31.149  1.00  0.00     0.023 C 
BRANCH  35  36
ATOM     36  C   UNL A   1      34.989  34.426  31.457  1.00  0.00     0.023 C 
BRANCH  36  37
ATOM     37  C   UNL A   1      36.161  34.740  32.379  1.00  0.00     0.116 C 
BRANCH  37  38
ATOM     38  N   UNL A   1      35.822  34.635  33.793  1.00  0.00    -0.352 N 
ATOM     39  C   UNL A   1      36.380  33.832  34.763  1.00  0.00     0.251 C 
ATOM     40  H   UNL A   1      35.092  35.220  34.097  1.00  0.00     0.163 HD
ATOM     41  O   UNL A   1      35.881  33.783  35.883  1.00  0.00    -0.269 OA
BRANCH  39  42
ATOM     42  C   UNL A   1      37.554  32.998  34.427  1.00  0.00     0.039 A 
ATOM     43  C   UNL A   1      37.376  31.865  33.629  1.00  0.00     0.014 A 
ATOM     44  C   UNL A   1      38.835  33.378  34.837  1.00  0.00     0.014 A 
ATOM     45  C   UNL A   1      38.494  31.178  33.148  1.00  0.00     0.010 A 
ATOM     46  C   UNL A   1      39.946  32.740  34.297  1.00  0.00     0.010 A 
ATOM     47  C   UNL A   1      39.788  31.648  33.429  1.00  0.00    -0.014 A 
BRANCH  47  48
ATOM     48  C   UNL A   1      40.988  31.055  32.784  1.00  0.00     0.031 A 
ATOM     49  C   UNL A   1      41.701  29.900  33.426  1.00  0.00     0.074 A 
ATOM     50  C   UNL A   1      41.500  31.635  31.680  1.00  0.00     0.049 A 
ATOM     51  N   UNL A   1      42.831  29.334  33.090  1.00  0.00    -0.248 NA
ATOM     52  C   UNL A   1      41.073  29.333  34.627  1.00  0.00     0.031 C 
ATOM     53  C   UNL A   1      40.934  32.802  30.998  1.00  0.00     0.029 A 
ATOM     54  N   UNL A   1      42.628  31.343  30.954  1.00  0.00    -0.354 N 
ATOM     55  C   UNL A   1      43.059  28.350  34.045  1.00  0.00     0.074 A 
ATOM     56  C   UNL A   1      41.979  28.445  35.006  1.00  0.00     0.031 C 
ATOM     57  C   UNL A   1      41.719  33.127  29.957  1.00  0.00     0.029 A 
ATOM     58  C   UNL A   1      42.862  32.222  29.922  1.00  0.00     0.049 A 
ATOM     59  H   UNL A   1      43.213  30.577  31.153  1.00  0.00     0.167 HD
ATOM     60  C   UNL A   1      44.063  27.438  34.102  1.00  0.00     0.034 A 
ATOM     61  C   UNL A   1      43.895  32.311  29.061  1.00  0.00     0.034 A 
ATOM     62  C   UNL A   1      45.130  27.358  33.134  1.00  0.00     0.049 A 
ATOM     63  C   UNL A   1      45.015  31.311  29.156  1.00  0.00     0.074 A 
ATOM     64  C   UNL A   1      46.147  26.423  33.045  1.00  0.00     0.029 A 
ATOM     65  N   UNL A   1      45.333  28.261  32.097  1.00  0.00    -0.354 N 
ATOM     66  N   UNL A   1      45.180  30.339  30.022  1.00  0.00    -0.248 NA
ATOM     67  C   UNL A   1      46.084  31.420  28.156  1.00  0.00     0.031 C 
ATOM     68  C   UNL A   1      46.999  26.797  31.998  1.00  0.00     0.029 A 
ATOM     69  C   UNL A   1      46.480  27.929  31.390  1.00  0.00     0.049 A 
ATOM     70  H   UNL A   1      44.747  29.026  31.894  1.00  0.00     0.167 HD
ATOM     71  C   UNL A   1      46.370  29.713  29.665  1.00  0.00     0.074 A 
ATOM     72  C   UNL A   1      46.870  30.408  28.496  1.00  0.00     0.031 C 
ATOM     73  C   UNL A   1      46.989  28.656  30.250  1.00  0.00     0.034 A 
BRANCH  60  74
ATOM     74  C   UNL A   1      44.053  26.479  35.270  1.00  0.00     0.023 A 
ATOM     75  C   UNL A   1      44.436  26.888  36.559  1.00  0.00     0.031 A 
ATOM     76  C   UNL A   1      43.715  25.128  35.084  1.00  0.00     0.131 A 
ATOM     77  C   UNL A   1      44.567  25.942  37.586  1.00  0.00     0.055 A 
ATOM     78  C   UNL A   1      43.763  24.206  36.132  1.00  0.00     0.041 A 
ATOM     79  F   UNL A   1      43.357  24.673  33.872  1.00  0.00    -0.206 F 
ATOM     80  C   UNL A   1      44.211  24.607  37.388  1.00  0.00     0.022 A 
BRANCH  77  81
ATOM     81  S   UNL A   1      45.376  26.450  39.129  1.00  0.00     0.124 S 
ATOM     82  O   UNL A   1      44.841  25.474  40.078  1.00  0.00    -0.237 OA
ATOM     83  O   UNL A   1      46.790  26.315  38.802  1.00  0.00    -0.237 OA
ATOM     84  O   UNL A   1      44.906  27.819  39.328  1.00  0.00    -0.744 OA
ENDBRANCH  77  81
ENDBRANCH  60  74
BRANCH  61  85
ATOM     85  C   UNL A   1      43.934  33.414  28.063  1.00  0.00     0.023 A 
ATOM     86  C   UNL A   1      44.123  34.746  28.459  1.00  0.00     0.031 A 
ATOM     87  C   UNL A   1      43.786  33.142  26.691  1.00  0.00     0.131 A 
ATOM     88  C   UNL A   1      44.134  35.764  27.493  1.00  0.00     0.055 A 
ATOM     89  C   UNL A   1      43.835  34.153  25.731  1.00  0.00     0.041 A 
ATOM     90  F   UNL A   1      43.616  31.880  26.264  1.00  0.00    -0.206 F 
ATOM     91  C   UNL A   1      44.002  35.475  26.131  1.00  0.00     0.022 A 
BRANCH  88  92
ATOM     92  S   UNL A   1      44.292  37.484  28.044  1.00  0.00     0.124 S 
ATOM     93  O   UNL A   1      43.018  38.052  27.618  1.00  0.00    -0.237 OA
ATOM     94  O   UNL A   1      44.476  37.327  29.482  1.00  0.00    -0.237 OA
ATOM     95  O   UNL A   1      45.465  37.967  27.319  1.00  0.00    -0.744 OA
ENDBRANCH  88  92
ENDBRANCH  61  85
BRANCH  73  96
ATOM     96  C   UNL A   1      48.275  28.187  29.617  1.00  0.00     0.023 A 
ATOM     97  C   UNL A   1      48.285  27.180  28.635  1.00  0.00     0.031 A 
ATOM     98  C   UNL A   1      49.504  28.744  30.010  1.00  0.00     0.131 A 
ATOM     99  C   UNL A   1      49.506  26.731  28.110  1.00  0.00     0.055 A 
ATOM    100  C   UNL A   1      50.712  28.327  29.448  1.00  0.00     0.041 A 
ATOM    101  F   UNL A   1      49.550  29.706  30.946  1.00  0.00    -0.206 F 
ATOM    102  C   UNL A   1      50.717  27.308  28.499  1.00  0.00     0.022 A 
BRANCH  99 103
ATOM    103  S   UNL A   1      49.498  25.329  26.958  1.00  0.00     0.124 S 
ATOM    104  O   UNL A   1      48.493  24.455  27.554  1.00  0.00    -0.237 OA
ATOM    105  O   UNL A   1      49.128  25.961  25.697  1.00  0.00    -0.237 OA
ATOM    106  O   UNL A   1      50.870  24.827  27.019  1.00  0.00    -0.744 OA
ENDBRANCH  99 103
ENDBRANCH  73  96
ENDBRANCH  47  48
ENDBRANCH  39  42
ENDBRANCH  37  38
ENDBRANCH  36  37
ENDBRANCH  35  36
ENDBRANCH   1  35
TORSDOF 19
ENDMDL
MODEL 2
REMARK VINA RESULT:      -9.5      1.463      7.225
REMARK SMILES O=C(NCCCCNC(=O)c1ccc(-c2c3nc(c(-c4cc(S(=O)(=O)[O-])ccc4F)c4ccc([nH]4)c(-c4cc(S(=O)(=O)[O-])ccc4F)c4nc(c(-c5cc(S(=O)(=O)[O-])ccc5F)c5ccc2[nH]5)C=C4)C=C3)cc1)c1ccc(NC(=O)[C@@H]2CC=CC[C@H]2C(=O)Nc2cccc([N+](=O)[O-])c2)cc1
REMARK SMILES IDX 4 1 3 2 1 3 2 4 74 6 75 7 100 8 76 9 99 10 77 11 78 12 79 13
REMARK SMILES IDX 80 15 81 16 82 17 86 18 83 19 85 20 84 21 87 22 88 23 89 24
REMARK SMILES IDX 90 26 91 27 98 28 92 29 94 30 93 31 95 32 96 33 97 34 5 35
REMARK SMILES IDX 6 36 7 37 8 38 9 39 10 41 11 42 12 43 73 44 13 45 72 46
REMARK SMILES IDX 14 47 15 48 16 49 66 50 17 51 71 52 65 53 67 54 18 55 70 56
REMARK SMILES IDX 64 57 63 58 19 60 51 61 31 62 50 63 32 64 35 65 49 66 68 67
REMARK SMILES IDX 33 68 34 69 48 71 69 72 36 73 20 74 21 75 29 76 22 77 28 78
REMARK SMILES IDX 30 79 27 80 23 81 24 82 25 83 26 84 52 85 53 86 61 87 54 88
REMARK SMILES IDX 60 89 62 90 59 91 55 92 56 93 57 94 58 95 37 96 38 97 46 98
REMARK SMILES IDX 39 99 45 100 47 101 44 102 40 103 41 104 42 105 43 106
REMARK H PARENT 3 5 78 14 89 25 8 40 67 59 35 70
REMARK Flexibility Score: inf
ROOT
ATOM      1  C   UNL A   1      35.595  31.693  31.068  1.00  0.00     0.116 C 
ENDROOT
BRANCH   1   2
ATOM      2  N   UNL A   1      35.443  31.407  29.646  1.00  0.00    -0.352 N 
ATOM      3  O   UNL A   1      36.123  30.577  27.633  1.00  0.00    -0.269 OA
ATOM      4  C   UNL A   1      36.312  30.707  28.836  1.00  0.00     0.251 C 
ATOM      5  H   UNL A   1      34.628  31.752  29.215  1.00  0.00     0.163 HD
BRANCH   4   6
ATOM      6  C   UNL A   1      37.519  30.142  29.462  1.00  0.00     0.039 A 
ATOM      7  C   UNL A   1      38.759  30.708  29.181  1.00  0.00     0.016 A 
ATOM      8  C   UNL A   1      37.431  28.947  30.169  1.00  0.00     0.016 A 
ATOM      9  C   UNL A   1      39.919  29.987  29.455  1.00  0.00     0.027 A 
ATOM     10  C   UNL A   1      38.608  28.269  30.500  1.00  0.00     0.027 A 
ATOM     11  C   UNL A   1      39.865  28.756  30.100  1.00  0.00     0.041 A 
BRANCH  11  12
ATOM     12  N   UNL A   1      40.965  27.932  30.386  1.00  0.00    -0.326 N 
ATOM     13  C   UNL A   1      41.988  27.366  29.701  1.00  0.00     0.228 C 
ATOM     14  H   UNL A   1      41.002  27.703  31.343  1.00  0.00     0.169 HD
ATOM     15  O   UNL A   1      42.778  26.693  30.381  1.00  0.00    -0.274 OA
BRANCH  13  16
ATOM     16  C   UNL A   1      42.205  27.408  28.197  1.00  0.00     0.095 C 
ATOM     17  C   UNL A   1      42.849  28.699  27.675  1.00  0.00     0.041 C 
ATOM     18  C   UNL A   1      41.015  26.821  27.427  1.00  0.00     0.095 C 
ATOM     19  C   UNL A   1      42.545  28.996  26.236  1.00  0.00    -0.030 C 
ATOM     20  C   UNL A   1      41.133  26.951  25.902  1.00  0.00     0.041 C 
ATOM     21  C   UNL A   1      41.790  28.218  25.448  1.00  0.00    -0.030 C 
BRANCH  18  22
ATOM     22  C   UNL A   1      40.594  25.387  27.828  1.00  0.00     0.228 C 
ATOM     23  O   UNL A   1      39.458  25.208  28.286  1.00  0.00    -0.274 OA
ATOM     24  N   UNL A   1      41.339  24.265  27.572  1.00  0.00    -0.326 N 
ATOM     25  H   UNL A   1      40.826  23.425  27.604  1.00  0.00     0.169 HD
BRANCH  24  26
ATOM     26  C   UNL A   1      42.695  24.100  27.273  1.00  0.00     0.048 A 
ATOM     27  C   UNL A   1      43.626  24.138  28.313  1.00  0.00     0.026 A 
ATOM     28  C   UNL A   1      43.146  23.954  25.967  1.00  0.00     0.111 A 
ATOM     29  C   UNL A   1      44.975  23.854  28.063  1.00  0.00     0.009 A 
ATOM     30  C   UNL A   1      44.478  23.605  25.720  1.00  0.00     0.271 A 
ATOM     31  C   UNL A   1      45.399  23.546  26.769  1.00  0.00     0.086 A 
BRANCH  30  32
ATOM     32  N   UNL A   1      44.888  23.242  24.360  1.00  0.00     0.062 N 
ATOM     33  O   UNL A   1      44.106  22.555  23.688  1.00  0.00    -0.258 OA
ATOM     34  O   UNL A   1      45.978  23.668  23.951  1.00  0.00    -0.258 OA
ENDBRANCH  30  32
ENDBRANCH  24  26
ENDBRANCH  18  22
ENDBRANCH  13  16
ENDBRANCH  11  12
ENDBRANCH   4   6
ENDBRANCH   1   2
BRANCH   1  35
ATOM     35  C   UNL A   1      35.719  33.175  31.390  1.00  0.00     0.023 C 
BRANCH  35  36
ATOM     36  C   UNL A   1      37.124  33.751  31.262  1.00  0.00     0.023 C 
BRANCH  36  37
ATOM     37  C   UNL A   1      37.594  34.587  32.447  1.00  0.00     0.116 C 
BRANCH  37  38
ATOM     38  N   UNL A   1      37.031  34.148  33.717  1.00  0.00    -0.352 N 
ATOM     39  C   UNL A   1      37.437  33.121  34.539  1.00  0.00     0.251 C 
ATOM     40  H   UNL A   1      36.250  34.658  34.032  1.00  0.00     0.163 HD
ATOM     41  O   UNL A   1      36.762  32.811  35.517  1.00  0.00    -0.269 OA
BRANCH  39  42
ATOM     42  C   UNL A   1      38.665  32.367  34.207  1.00  0.00     0.039 A 
ATOM     43  C   UNL A   1      38.559  31.197  33.450  1.00  0.00     0.014 A 
ATOM     44  C   UNL A   1      39.920  32.857  34.578  1.00  0.00     0.014 A 
ATOM     45  C   UNL A   1      39.718  30.582  32.968  1.00  0.00     0.010 A 
ATOM     46  C   UNL A   1      41.067  32.287  34.035  1.00  0.00     0.010 A 
ATOM     47  C   UNL A   1      40.977  31.158  33.206  1.00  0.00    -0.014 A 
BRANCH  47  48
ATOM     48  C   UNL A   1      42.207  30.636  32.556  1.00  0.00     0.031 A 
ATOM     49  C   UNL A   1      42.751  31.297  31.322  1.00  0.00     0.074 A 
ATOM     50  C   UNL A   1      42.763  29.496  33.012  1.00  0.00     0.049 A 
ATOM     51  N   UNL A   1      43.727  30.915  30.540  1.00  0.00    -0.248 NA
ATOM     52  C   UNL A   1      42.080  32.532  30.895  1.00  0.00     0.031 C 
ATOM     53  C   UNL A   1      42.288  28.726  34.165  1.00  0.00     0.029 A 
ATOM     54  N   UNL A   1      43.830  28.769  32.546  1.00  0.00    -0.354 N 
ATOM     55  C   UNL A   1      43.783  31.857  29.518  1.00  0.00     0.074 A 
ATOM     56  C   UNL A   1      42.698  32.788  29.752  1.00  0.00     0.031 C 
ATOM     57  C   UNL A   1      43.058  27.634  34.312  1.00  0.00     0.029 A 
ATOM     58  C   UNL A   1      44.051  27.605  33.244  1.00  0.00     0.049 A 
ATOM     59  H   UNL A   1      44.385  29.055  31.784  1.00  0.00     0.167 HD
ATOM     60  C   UNL A   1      44.670  31.948  28.495  1.00  0.00     0.034 A 
ATOM     61  C   UNL A   1      44.933  26.608  33.033  1.00  0.00     0.034 A 
ATOM     62  C   UNL A   1      45.746  31.011  28.280  1.00  0.00     0.049 A 
ATOM     63  C   UNL A   1      45.890  26.709  31.877  1.00  0.00     0.074 A 
ATOM     64  C   UNL A   1      46.753  31.055  27.331  1.00  0.00     0.029 A 
ATOM     65  N   UNL A   1      45.944  29.845  29.011  1.00  0.00    -0.354 N 
ATOM     66  N   UNL A   1      45.978  27.644  30.961  1.00  0.00    -0.248 NA
ATOM     67  C   UNL A   1      46.867  25.624  31.731  1.00  0.00     0.031 C 
ATOM     68  C   UNL A   1      47.518  29.887  27.446  1.00  0.00     0.029 A 
ATOM     69  C   UNL A   1      47.030  29.143  28.508  1.00  0.00     0.049 A 
ATOM     70  H   UNL A   1      45.393  29.560  29.775  1.00  0.00     0.167 HD
ATOM     71  C   UNL A   1      47.027  27.263  30.131  1.00  0.00     0.074 A 
ATOM     72  C   UNL A   1      47.551  26.023  30.668  1.00  0.00     0.031 C 
ATOM     73  C   UNL A   1      47.517  27.886  29.029  1.00  0.00     0.034 A 
BRANCH  60  74
ATOM     74  C   UNL A   1      44.483  33.092  27.526  1.00  0.00     0.023 A 
ATOM     75  C   UNL A   1      44.717  34.425  27.910  1.00  0.00     0.031 A 
ATOM     76  C   UNL A   1      44.012  32.858  26.224  1.00  0.00     0.131 A 
ATOM     77  C   UNL A   1      44.385  35.474  27.040  1.00  0.00     0.055 A 
ATOM     78  C   UNL A   1      43.767  33.903  25.330  1.00  0.00     0.041 A 
ATOM     79  F   UNL A   1      43.754  31.608  25.804  1.00  0.00    -0.206 F 
ATOM     80  C   UNL A   1      43.933  35.222  25.744  1.00  0.00     0.022 A 
BRANCH  77  81
ATOM     81  S   UNL A   1      44.387  37.168  27.691  1.00  0.00     0.124 S 
ATOM     82  O   UNL A   1      45.721  37.630  27.308  1.00  0.00    -0.237 OA
ATOM     83  O   UNL A   1      43.271  37.779  26.981  1.00  0.00    -0.237 OA
ATOM     84  O   UNL A   1      44.191  36.984  29.127  1.00  0.00    -0.744 OA
ENDBRANCH  77  81
ENDBRANCH  60  74
BRANCH  61  85
ATOM     85  C   UNL A   1      44.921  25.409  33.916  1.00  0.00     0.023 A 
ATOM     86  C   UNL A   1      45.460  25.454  35.210  1.00  0.00     0.031 A 
ATOM     87  C   UNL A   1      44.362  24.198  33.469  1.00  0.00     0.131 A 
ATOM     88  C   UNL A   1      45.450  24.300  36.008  1.00  0.00     0.055 A 
ATOM     89  C   UNL A   1      44.322  23.064  34.279  1.00  0.00     0.041 A 
ATOM     90  F   UNL A   1      43.823  24.112  32.242  1.00  0.00    -0.206 F 
ATOM     91  C   UNL A   1      44.876  23.108  35.555  1.00  0.00     0.022 A 
BRANCH  88  92
ATOM     92  S   UNL A   1      46.232  24.366  37.642  1.00  0.00     0.124 S 
ATOM     93  O   UNL A   1      46.186  25.793  37.938  1.00  0.00    -0.237 OA
ATOM     94  O   UNL A   1      45.350  23.517  38.435  1.00  0.00    -0.237 OA
ATOM     95  O   UNL A   1      47.566  23.820  37.404  1.00  0.00    -0.744 OA
ENDBRANCH  88  92
ENDBRANCH  61  85
BRANCH  73  96
ATOM     96  C   UNL A   1      48.687  27.230  28.341  1.00  0.00     0.023 A 
ATOM     97  C   UNL A   1      50.009  27.465  28.757  1.00  0.00     0.031 A 
ATOM     98  C   UNL A   1      48.477  26.371  27.248  1.00  0.00     0.131 A 
ATOM     99  C   UNL A   1      51.075  26.881  28.057  1.00  0.00     0.055 A 
ATOM    100  C   UNL A   1      49.539  25.753  26.586  1.00  0.00     0.041 A 
ATOM    101  F   UNL A   1      47.234  26.116  26.808  1.00  0.00    -0.206 F 
ATOM    102  C   UNL A   1      50.848  26.015  26.984  1.00  0.00     0.022 A 
BRANCH  99 103
ATOM    103  S   UNL A   1      52.772  27.322  28.523  1.00  0.00     0.124 S 
ATOM    104  O   UNL A   1      53.521  26.150  28.079  1.00  0.00    -0.237 OA
ATOM    105  O   UNL A   1      52.997  28.548  27.764  1.00  0.00    -0.237 OA
ATOM    106  O   UNL A   1      52.697  27.497  29.972  1.00  0.00    -0.744 OA
ENDBRANCH  99 103
ENDBRANCH  73  96
ENDBRANCH  47  48
ENDBRANCH  39  42
ENDBRANCH  37  38
ENDBRANCH  36  37
ENDBRANCH  35  36
ENDBRANCH   1  35
TORSDOF 19
ENDMDL
MODEL 3
REMARK VINA RESULT:      -9.3      2.702     11.505
REMARK SMILES O=C(NCCCCNC(=O)c1ccc(-c2c3nc(c(-c4cc(S(=O)(=O)[O-])ccc4F)c4ccc([nH]4)c(-c4cc(S(=O)(=O)[O-])ccc4F)c4nc(c(-c5cc(S(=O)(=O)[O-])ccc5F)c5ccc2[nH]5)C=C4)C=C3)cc1)c1ccc(NC(=O)[C@@H]2CC=CC[C@H]2C(=O)Nc2cccc([N+](=O)[O-])c2)cc1
REMARK SMILES IDX 4 1 3 2 1 3 2 4 74 6 75 7 100 8 76 9 99 10 77 11 78 12 79 13
REMARK SMILES IDX 80 15 81 16 82 17 86 18 83 19 85 20 84 21 87 22 88 23 89 24
REMARK SMILES IDX 90 26 91 27 98 28 92 29 94 30 93 31 95 32 96 33 97 34 5 35
REMARK SMILES IDX 6 36 7 37 8 38 9 39 10 41 11 42 12 43 73 44 13 45 72 46
REMARK SMILES IDX 14 47 15 48 16 49 66 50 17 51 71 52 65 53 67 54 18 55 70 56
REMARK SMILES IDX 64 57 63 58 19 60 51 61 31 62 50 63 32 64 35 65 49 66 68 67
REMARK SMILES IDX 33 68 34 69 48 71 69 72 36 73 20 74 21 75 29 76 22 77 28 78
REMARK SMILES IDX 30 79 27 80 23 81 24 82 25 83 26 84 52 85 53 86 61 87 54 88
REMARK SMILES IDX 60 89 62 90 59 91 55 92 56 93 57 94 58 95 37 96 38 97 46 98
REMARK SMILES IDX 39 99 45 100 47 101 44 102 40 103 41 104 42 105 43 106
REMARK H PARENT 3 5 78 14 89 25 8 40 67 59 35 70
REMARK Flexibility Score: inf
ROOT
ATOM      1  C   UNL A   1      43.145  23.922  25.366  1.00  0.00     0.116 C 
ENDROOT
BRANCH   1   2
ATOM      2  N   UNL A   1      41.865  23.301  25.689  1.00  0.00    -0.352 N 
ATOM      3  O   UNL A   1      39.857  23.171  26.763  1.00  0.00    -0.269 OA
ATOM      4  C   UNL A   1      40.872  23.805  26.501  1.00  0.00     0.251 C 
ATOM      5  H   UNL A   1      41.691  22.422  25.281  1.00  0.00     0.163 HD
BRANCH   4   6
ATOM      6  C   UNL A   1      41.087  25.137  27.091  1.00  0.00     0.039 A 
ATOM      7  C   UNL A   1      41.432  25.237  28.435  1.00  0.00     0.016 A 
ATOM      8  C   UNL A   1      40.762  26.273  26.358  1.00  0.00     0.016 A 
ATOM      9  C   UNL A   1      41.283  26.456  29.092  1.00  0.00     0.027 A 
ATOM     10  C   UNL A   1      40.684  27.504  27.017  1.00  0.00     0.027 A 
ATOM     11  C   UNL A   1      40.893  27.601  28.405  1.00  0.00     0.041 A 
BRANCH  11  12
ATOM     12  N   UNL A   1      40.673  28.864  28.974  1.00  0.00    -0.326 N 
ATOM     13  C   UNL A   1      39.609  29.644  29.282  1.00  0.00     0.228 C 
ATOM     14  H   UNL A   1      41.521  29.302  29.214  1.00  0.00     0.169 HD
ATOM     15  O   UNL A   1      39.880  30.734  29.811  1.00  0.00    -0.274 OA
BRANCH  13  16
ATOM     16  C   UNL A   1      38.150  29.353  28.969  1.00  0.00     0.095 C 
ATOM     17  C   UNL A   1      37.772  29.476  27.487  1.00  0.00     0.041 C 
ATOM     18  C   UNL A   1      37.205  29.956  30.016  1.00  0.00     0.095 C 
ATOM     19  C   UNL A   1      36.320  29.765  27.247  1.00  0.00    -0.030 C 
ATOM     20  C   UNL A   1      35.716  29.794  29.680  1.00  0.00     0.041 C 
ATOM     21  C   UNL A   1      35.407  29.899  28.218  1.00  0.00    -0.030 C 
BRANCH  18  22
ATOM     22  C   UNL A   1      37.486  29.559  31.485  1.00  0.00     0.228 C 
ATOM     23  O   UNL A   1      37.632  28.360  31.759  1.00  0.00    -0.274 OA
ATOM     24  N   UNL A   1      37.737  30.455  32.492  1.00  0.00    -0.326 N 
ATOM     25  H   UNL A   1      38.188  30.065  33.276  1.00  0.00     0.169 HD
BRANCH  24  26
ATOM     26  C   UNL A   1      37.470  31.823  32.603  1.00  0.00     0.048 A 
ATOM     27  C   UNL A   1      38.404  32.738  32.112  1.00  0.00     0.026 A 
ATOM     28  C   UNL A   1      36.327  32.298  33.236  1.00  0.00     0.111 A 
ATOM     29  C   UNL A   1      38.110  34.107  32.097  1.00  0.00     0.009 A 
ATOM     30  C   UNL A   1      35.999  33.656  33.164  1.00  0.00     0.271 A 
ATOM     31  C   UNL A   1      36.887  34.567  32.587  1.00  0.00     0.086 A 
BRANCH  30  32
ATOM     32  N   UNL A   1      34.689  34.108  33.644  1.00  0.00     0.062 N 
ATOM     33  O   UNL A   1      33.691  33.474  33.275  1.00  0.00    -0.258 OA
ATOM     34  O   UNL A   1      34.659  35.078  34.415  1.00  0.00    -0.258 OA
ENDBRANCH  30  32
ENDBRANCH  24  26
ENDBRANCH  18  22
ENDBRANCH  13  16
ENDBRANCH  11  12
ENDBRANCH   4   6
ENDBRANCH   1   2
BRANCH   1  35
ATOM     35  C   UNL A   1      44.183  22.952  24.821  1.00  0.00     0.023 C 
BRANCH  35  36
ATOM     36  C   UNL A   1      45.317  22.612  25.780  1.00  0.00     0.023 C 
BRANCH  36  37
ATOM     37  C   UNL A   1      46.106  23.807  26.303  1.00  0.00     0.116 C 
BRANCH  37  38
ATOM     38  N   UNL A   1      46.812  24.531  25.254  1.00  0.00    -0.352 N 
ATOM     39  C   UNL A   1      46.873  25.888  25.024  1.00  0.00     0.251 C 
ATOM     40  H   UNL A   1      47.317  23.972  24.621  1.00  0.00     0.163 HD
ATOM     41  O   UNL A   1      47.417  26.317  24.011  1.00  0.00    -0.269 OA
BRANCH  39  42
ATOM     42  C   UNL A   1      46.237  26.816  25.984  1.00  0.00     0.039 A 
ATOM     43  C   UNL A   1      44.857  27.023  25.914  1.00  0.00     0.014 A 
ATOM     44  C   UNL A   1      46.991  27.417  26.995  1.00  0.00     0.014 A 
ATOM     45  C   UNL A   1      44.216  27.743  26.927  1.00  0.00     0.010 A 
ATOM     46  C   UNL A   1      46.343  28.067  28.040  1.00  0.00     0.010 A 
ATOM     47  C   UNL A   1      44.947  28.217  28.029  1.00  0.00    -0.014 A 
BRANCH  47  48
ATOM     48  C   UNL A   1      44.273  28.821  29.208  1.00  0.00     0.031 A 
ATOM     49  C   UNL A   1      43.915  30.279  29.212  1.00  0.00     0.074 A 
ATOM     50  C   UNL A   1      44.091  28.077  30.317  1.00  0.00     0.049 A 
ATOM     51  N   UNL A   1      43.447  31.014  30.188  1.00  0.00    -0.248 NA
ATOM     52  C   UNL A   1      44.151  31.012  27.961  1.00  0.00     0.031 C 
ATOM     53  C   UNL A   1      44.455  26.665  30.459  1.00  0.00     0.029 A 
ATOM     54  N   UNL A   1      43.582  28.412  31.548  1.00  0.00    -0.354 N 
ATOM     55  C   UNL A   1      43.342  32.301  29.673  1.00  0.00     0.074 A 
ATOM     56  C   UNL A   1      43.858  32.252  28.320  1.00  0.00     0.031 C 
ATOM     57  C   UNL A   1      44.162  26.257  31.704  1.00  0.00     0.029 A 
ATOM     58  C   UNL A   1      43.630  27.384  32.461  1.00  0.00     0.049 A 
ATOM     59  H   UNL A   1      43.219  29.303  31.756  1.00  0.00     0.167 HD
ATOM     60  C   UNL A   1      42.842  33.415  30.267  1.00  0.00     0.034 A 
ATOM     61  C   UNL A   1      43.310  27.357  33.770  1.00  0.00     0.034 A 
ATOM     62  C   UNL A   1      42.332  33.444  31.616  1.00  0.00     0.049 A 
ATOM     63  C   UNL A   1      42.785  28.608  34.422  1.00  0.00     0.074 A 
ATOM     64  C   UNL A   1      41.723  34.491  32.287  1.00  0.00     0.029 A 
ATOM     65  N   UNL A   1      42.389  32.383  32.512  1.00  0.00    -0.354 N 
ATOM     66  N   UNL A   1      42.623  29.801  33.901  1.00  0.00    -0.248 NA
ATOM     67  C   UNL A   1      42.397  28.504  35.833  1.00  0.00     0.031 C 
ATOM     68  C   UNL A   1      41.473  34.084  33.604  1.00  0.00     0.029 A 
ATOM     69  C   UNL A   1      41.866  32.763  33.739  1.00  0.00     0.049 A 
ATOM     70  H   UNL A   1      42.750  31.490  32.305  1.00  0.00     0.167 HD
ATOM     71  C   UNL A   1      42.106  30.592  34.922  1.00  0.00     0.074 A 
ATOM     72  C   UNL A   1      41.967  29.733  36.082  1.00  0.00     0.031 C 
ATOM     73  C   UNL A   1      41.771  31.907  34.900  1.00  0.00     0.034 A 
BRANCH  60  74
ATOM     74  C   UNL A   1      42.854  34.689  29.455  1.00  0.00     0.023 A 
ATOM     75  C   UNL A   1      44.038  35.424  29.260  1.00  0.00     0.031 A 
ATOM     76  C   UNL A   1      41.664  35.209  28.920  1.00  0.00     0.131 A 
ATOM     77  C   UNL A   1      43.990  36.680  28.638  1.00  0.00     0.055 A 
ATOM     78  C   UNL A   1      41.637  36.420  28.224  1.00  0.00     0.041 A 
ATOM     79  F   UNL A   1      40.499  34.562  29.087  1.00  0.00    -0.206 F 
ATOM     80  C   UNL A   1      42.801  37.173  28.098  1.00  0.00     0.022 A 
BRANCH  77  81
ATOM     81  S   UNL A   1      45.466  37.732  28.704  1.00  0.00     0.124 S 
ATOM     82  O   UNL A   1      45.673  38.040  27.290  1.00  0.00    -0.237 OA
ATOM     83  O   UNL A   1      45.025  38.841  29.542  1.00  0.00    -0.237 OA
ATOM     84  O   UNL A   1      46.480  36.864  29.297  1.00  0.00    -0.744 OA
ENDBRANCH  77  81
ENDBRANCH  60  74
BRANCH  61  85
ATOM     85  C   UNL A   1      43.518  26.112  34.558  1.00  0.00     0.023 A 
ATOM     86  C   UNL A   1      44.808  25.656  34.869  1.00  0.00     0.031 A 
ATOM     87  C   UNL A   1      42.419  25.362  35.013  1.00  0.00     0.131 A 
ATOM     88  C   UNL A   1      44.968  24.467  35.596  1.00  0.00     0.055 A 
ATOM     89  C   UNL A   1      42.583  24.200  35.768  1.00  0.00     0.041 A 
ATOM     90  F   UNL A   1      41.166  25.767  34.751  1.00  0.00    -0.206 F 
ATOM     91  C   UNL A   1      43.865  23.742  36.056  1.00  0.00     0.022 A 
BRANCH  88  92
ATOM     92  S   UNL A   1      46.647  23.857  35.908  1.00  0.00     0.124 S 
ATOM     93  O   UNL A   1      47.264  25.005  36.563  1.00  0.00    -0.237 OA
ATOM     94  O   UNL A   1      46.397  22.694  36.752  1.00  0.00    -0.237 OA
ATOM     95  O   UNL A   1      47.153  23.554  34.571  1.00  0.00    -0.744 OA
ENDBRANCH  88  92
ENDBRANCH  61  85
BRANCH  73  96
ATOM     96  C   UNL A   1      41.212  32.487  36.175  1.00  0.00     0.023 A 
ATOM     97  C   UNL A   1      39.878  32.262  36.561  1.00  0.00     0.031 A 
ATOM     98  C   UNL A   1      42.018  33.285  37.005  1.00  0.00     0.131 A 
ATOM     99  C   UNL A   1      39.378  32.865  37.724  1.00  0.00     0.055 A 
ATOM    100  C   UNL A   1      41.528  33.841  38.188  1.00  0.00     0.041 A 
ATOM    101  F   UNL A   1      43.297  33.534  36.680  1.00  0.00    -0.206 F 
ATOM    102  C   UNL A   1      40.198  33.640  38.548  1.00  0.00     0.022 A 
BRANCH  99 103
ATOM    103  S   UNL A   1      37.616  32.680  38.116  1.00  0.00     0.124 S 
ATOM    104  O   UNL A   1      36.984  33.344  36.980  1.00  0.00    -0.237 OA
ATOM    105  O   UNL A   1      37.458  31.230  38.176  1.00  0.00    -0.237 OA
ATOM    106  O   UNL A   1      37.474  33.371  39.396  1.00  0.00    -0.744 OA
ENDBRANCH  99 103
ENDBRANCH  73  96
ENDBRANCH  47  48
ENDBRANCH  39  42
ENDBRANCH  37  38
ENDBRANCH  36  37
ENDBRANCH  35  36
ENDBRANCH   1  35
TORSDOF 19
ENDMDL
