MODEL 1
REMARK VINA RESULT:     -12.4      0.000      0.000
REMARK SMILES Cc1ccnc(C(=O)c2[nH]c3cc(F)ccc3c2CC(=O)NCCCCNC(=O)c2ccc(-c3c4nc(c(-c5cc(S(=O)(=O)[O-])ccc5F)c5ccc([nH]5)c(-c5cc(S(=O)(=O)[O-])ccc5F)c5nc(c(-c6cc(S(=O)(=O)[O-])ccc6F)c6ccc3[nH]6)C=C5)C=C4)cc2)c1
REMARK SMILES IDX 24 1 23 2 22 3 20 4 21 5 19 7 18 8 9 9 10 10 11 11 17 13
REMARK SMILES IDX 12 14 16 15 13 16 15 17 14 18 7 19 8 20 6 21 1 22 2 23 3 24
REMARK SMILES IDX 93 25 4 26 5 27 25 28 26 29 27 30 28 31 29 33 30 34 31 35
REMARK SMILES IDX 92 36 32 37 91 38 33 39 34 40 35 41 85 42 36 43 90 44 84 45
REMARK SMILES IDX 86 46 37 47 89 48 83 49 82 50 38 52 70 53 50 54 69 55 51 56
REMARK SMILES IDX 54 57 68 58 87 59 52 60 53 61 67 63 88 64 55 65 39 66 40 67
REMARK SMILES IDX 48 68 41 69 47 70 49 71 46 72 42 73 43 74 44 75 45 76 71 77
REMARK SMILES IDX 72 78 80 79 73 80 79 81 81 82 78 83 74 84 75 85 76 86 77 87
REMARK SMILES IDX 56 88 57 89 65 90 58 91 64 92 66 93 63 94 59 95 60 96 61 97
REMARK SMILES IDX 62 98
REMARK H PARENT 22 6 10 12 27 32 86 51 54 62
REMARK Flexibility Score: inf
ROOT
ATOM      1  C   UNL A   1      31.929  27.278  26.287  1.00  0.00     0.023 C 
ENDROOT
BRANCH   1   2
ATOM      2  C   UNL A   1      31.229  25.986  25.871  1.00  0.00     0.116 C 
BRANCH   2   3
ATOM      3  N   UNL A   1      31.403  24.913  26.828  1.00  0.00    -0.356 N 
ATOM      4  C   UNL A   1      32.059  23.724  26.683  1.00  0.00     0.224 C 
ATOM      5  O   UNL A   1      32.231  23.023  27.684  1.00  0.00    -0.275 OA
ATOM      6  H   UNL A   1      30.988  25.061  27.710  1.00  0.00     0.163 HD
BRANCH   4   7
ATOM      7  C   UNL A   1      32.679  23.329  25.350  1.00  0.00     0.138 C 
BRANCH   7   8
ATOM      8  C   UNL A   1      33.855  22.395  25.437  1.00  0.00    -0.002 A 
ATOM      9  C   UNL A   1      33.838  21.004  25.376  1.00  0.00     0.093 A 
ATOM     10  N   UNL A   1      35.145  20.575  25.384  1.00  0.00    -0.351 N 
ATOM     11  C   UNL A   1      36.002  21.630  25.580  1.00  0.00     0.049 A 
ATOM     12  H   UNL A   1      35.427  19.640  25.267  1.00  0.00     0.167 HD
ATOM     13  C   UNL A   1      35.224  22.786  25.633  1.00  0.00     0.004 A 
ATOM     14  C   UNL A   1      37.398  21.649  25.683  1.00  0.00     0.066 A 
ATOM     15  C   UNL A   1      35.875  24.027  25.814  1.00  0.00     0.013 A 
ATOM     16  C   UNL A   1      38.006  22.890  25.857  1.00  0.00     0.125 A 
ATOM     17  C   UNL A   1      37.270  24.064  25.925  1.00  0.00     0.040 A 
ATOM     18  F   UNL A   1      39.341  22.950  25.963  1.00  0.00    -0.207 F 
BRANCH   9  19
ATOM     19  C   UNL A   1      32.711  20.100  25.213  1.00  0.00     0.227 C 
ATOM     20  O   UNL A   1      31.558  20.502  25.341  1.00  0.00    -0.285 OA
BRANCH  19  21
ATOM     21  C   UNL A   1      32.988  18.662  24.840  1.00  0.00     0.113 A 
ATOM     22  C   UNL A   1      32.314  15.105  25.978  1.00  0.00     0.044 C 
ATOM     23  C   UNL A   1      32.807  16.287  25.198  1.00  0.00    -0.047 A 
ATOM     24  C   UNL A   1      33.607  16.099  24.071  1.00  0.00     0.023 A 
ATOM     25  C   UNL A   1      32.475  17.592  25.574  1.00  0.00     0.036 A 
ATOM     26  C   UNL A   1      34.058  17.214  23.386  1.00  0.00     0.112 A 
ATOM     27  N   UNL A   1      33.779  18.480  23.751  1.00  0.00    -0.253 NA
ENDBRANCH  19  21
ENDBRANCH   9  19
ENDBRANCH   7   8
ENDBRANCH   4   7
ENDBRANCH   2   3
ENDBRANCH   1   2
BRANCH   1  28
ATOM     28  C   UNL A   1      33.451  27.193  26.414  1.00  0.00     0.023 C 
BRANCH  28  29
ATOM     29  C   UNL A   1      34.229  28.382  25.864  1.00  0.00     0.116 C 
BRANCH  29  30
ATOM     30  N   UNL A   1      33.772  29.661  26.379  1.00  0.00    -0.352 N 
ATOM     31  C   UNL A   1      34.347  30.467  27.336  1.00  0.00     0.251 C 
ATOM     32  H   UNL A   1      32.933  29.998  25.990  1.00  0.00     0.163 HD
ATOM     33  O   UNL A   1      33.761  31.474  27.708  1.00  0.00    -0.269 OA
BRANCH  31  34
ATOM     34  C   UNL A   1      35.645  30.089  27.941  1.00  0.00     0.039 A 
ATOM     35  C   UNL A   1      35.645  29.523  29.220  1.00  0.00     0.014 A 
ATOM     36  C   UNL A   1      36.851  30.282  27.262  1.00  0.00     0.014 A 
ATOM     37  C   UNL A   1      36.843  29.084  29.788  1.00  0.00     0.010 A 
ATOM     38  C   UNL A   1      38.038  29.797  27.806  1.00  0.00     0.010 A 
ATOM     39  C   UNL A   1      38.043  29.188  29.070  1.00  0.00    -0.014 A 
BRANCH  39  40
ATOM     40  C   UNL A   1      39.318  28.661  29.617  1.00  0.00     0.031 A 
ATOM     41  C   UNL A   1      40.001  29.366  30.753  1.00  0.00     0.074 A 
ATOM     42  C   UNL A   1      39.898  27.595  29.033  1.00  0.00     0.049 A 
ATOM     43  N   UNL A   1      41.162  29.121  31.303  1.00  0.00    -0.248 NA
ATOM     44  C   UNL A   1      39.292  30.520  31.322  1.00  0.00     0.031 C 
ATOM     45  C   UNL A   1      39.355  26.851  27.895  1.00  0.00     0.029 A 
ATOM     46  N   UNL A   1      41.085  26.964  29.308  1.00  0.00    -0.354 N 
ATOM     47  C   UNL A   1      41.336  30.102  32.272  1.00  0.00     0.074 A 
ATOM     48  C   UNL A   1      40.177  30.970  32.198  1.00  0.00     0.031 C 
ATOM     49  C   UNL A   1      40.201  25.858  27.576  1.00  0.00     0.029 A 
ATOM     50  C   UNL A   1      41.358  25.916  28.465  1.00  0.00     0.049 A 
ATOM     51  H   UNL A   1      41.683  27.238  30.040  1.00  0.00     0.167 HD
ATOM     52  C   UNL A   1      42.357  30.256  33.153  1.00  0.00     0.034 A 
ATOM     53  C   UNL A   1      42.426  25.099  28.406  1.00  0.00     0.034 A 
ATOM     54  C   UNL A   1      43.498  29.376  33.225  1.00  0.00     0.049 A 
ATOM     55  C   UNL A   1      43.553  25.291  29.382  1.00  0.00     0.074 A 
ATOM     56  C   UNL A   1      44.551  29.393  34.124  1.00  0.00     0.029 A 
ATOM     57  N   UNL A   1      43.741  28.321  32.354  1.00  0.00    -0.354 N 
ATOM     58  N   UNL A   1      43.686  26.199  30.319  1.00  0.00    -0.248 NA
ATOM     59  C   UNL A   1      44.670  24.342  29.291  1.00  0.00     0.031 C 
ATOM     60  C   UNL A   1      45.451  28.379  33.769  1.00  0.00     0.029 A 
ATOM     61  C   UNL A   1      44.936  27.698  32.678  1.00  0.00     0.049 A 
ATOM     62  H   UNL A   1      43.148  28.054  31.614  1.00  0.00     0.167 HD
ATOM     63  C   UNL A   1      44.897  25.921  30.943  1.00  0.00     0.074 A 
ATOM     64  C   UNL A   1      45.454  24.761  30.275  1.00  0.00     0.031 C 
ATOM     65  C   UNL A   1      45.489  26.560  31.983  1.00  0.00     0.034 A 
BRANCH  52  66
ATOM     66  C   UNL A   1      42.284  31.445  34.077  1.00  0.00     0.023 A 
ATOM     67  C   UNL A   1      41.459  31.442  35.215  1.00  0.00     0.031 A 
ATOM     68  C   UNL A   1      42.989  32.623  33.777  1.00  0.00     0.131 A 
ATOM     69  C   UNL A   1      41.287  32.620  35.958  1.00  0.00     0.055 A 
ATOM     70  C   UNL A   1      42.875  33.769  34.567  1.00  0.00     0.041 A 
ATOM     71  F   UNL A   1      43.778  32.691  32.693  1.00  0.00    -0.206 F 
ATOM     72  C   UNL A   1      42.004  33.778  35.653  1.00  0.00     0.022 A 
BRANCH  69  73
ATOM     73  S   UNL A   1      39.984  32.661  37.221  1.00  0.00     0.124 S 
ATOM     74  O   UNL A   1      39.234  31.446  36.913  1.00  0.00    -0.237 OA
ATOM     75  O   UNL A   1      40.749  32.645  38.461  1.00  0.00    -0.237 OA
ATOM     76  O   UNL A   1      39.275  33.908  36.939  1.00  0.00    -0.744 OA
ENDBRANCH  69  73
ENDBRANCH  52  66
BRANCH  53  77
ATOM     77  C   UNL A   1      42.487  24.030  27.378  1.00  0.00     0.023 A 
ATOM     78  C   UNL A   1      41.962  22.756  27.637  1.00  0.00     0.031 A 
ATOM     79  C   UNL A   1      43.076  24.271  26.125  1.00  0.00     0.131 A 
ATOM     80  C   UNL A   1      42.056  21.755  26.658  1.00  0.00     0.055 A 
ATOM     81  C   UNL A   1      43.144  23.279  25.147  1.00  0.00     0.041 A 
ATOM     82  F   UNL A   1      43.578  25.481  25.834  1.00  0.00    -0.206 F 
ATOM     83  C   UNL A   1      42.636  22.010  25.413  1.00  0.00     0.022 A 
BRANCH  80  84
ATOM     84  S   UNL A   1      41.415  20.103  27.043  1.00  0.00     0.124 S 
ATOM     85  O   UNL A   1      40.844  20.306  28.369  1.00  0.00    -0.237 OA
ATOM     86  O   UNL A   1      40.462  19.884  25.960  1.00  0.00    -0.237 OA
ATOM     87  O   UNL A   1      42.607  19.258  26.998  1.00  0.00    -0.744 OA
ENDBRANCH  80  84
ENDBRANCH  53  77
BRANCH  65  88
ATOM     88  C   UNL A   1      46.789  25.983  32.471  1.00  0.00     0.023 A 
ATOM     89  C   UNL A   1      46.830  25.032  33.505  1.00  0.00     0.031 A 
ATOM     90  C   UNL A   1      48.005  26.418  31.915  1.00  0.00     0.131 A 
ATOM     91  C   UNL A   1      48.068  24.575  33.981  1.00  0.00     0.055 A 
ATOM     92  C   UNL A   1      49.232  25.931  32.367  1.00  0.00     0.041 A 
ATOM     93  F   UNL A   1      48.015  27.329  30.928  1.00  0.00    -0.206 F 
ATOM     94  C   UNL A   1      49.268  25.012  33.412  1.00  0.00     0.022 A 
BRANCH  91  95
ATOM     95  S   UNL A   1      48.096  23.448  35.403  1.00  0.00     0.124 S 
ATOM     96  O   UNL A   1      48.590  22.214  34.802  1.00  0.00    -0.237 OA
ATOM     97  O   UNL A   1      49.011  24.123  36.318  1.00  0.00    -0.237 OA
ATOM     98  O   UNL A   1      46.702  23.411  35.839  1.00  0.00    -0.744 OA
ENDBRANCH  91  95
ENDBRANCH  65  88
ENDBRANCH  39  40
ENDBRANCH  31  34
ENDBRANCH  29  30
ENDBRANCH  28  29
ENDBRANCH   1  28
TORSDOF 17
ENDMDL
MODEL 2
REMARK VINA RESULT:     -12.4      5.106      7.721
REMARK SMILES Cc1ccnc(C(=O)c2[nH]c3cc(F)ccc3c2CC(=O)NCCCCNC(=O)c2ccc(-c3c4nc(c(-c5cc(S(=O)(=O)[O-])ccc5F)c5ccc([nH]5)c(-c5cc(S(=O)(=O)[O-])ccc5F)c5nc(c(-c6cc(S(=O)(=O)[O-])ccc6F)c6ccc3[nH]6)C=C5)C=C4)cc2)c1
REMARK SMILES IDX 24 1 23 2 22 3 20 4 21 5 19 7 18 8 9 9 10 10 11 11 17 13
REMARK SMILES IDX 12 14 16 15 13 16 15 17 14 18 7 19 8 20 6 21 1 22 2 23 3 24
REMARK SMILES IDX 93 25 4 26 5 27 25 28 26 29 27 30 28 31 29 33 30 34 31 35
REMARK SMILES IDX 92 36 32 37 91 38 33 39 34 40 35 41 85 42 36 43 90 44 84 45
REMARK SMILES IDX 86 46 37 47 89 48 83 49 82 50 38 52 70 53 50 54 69 55 51 56
REMARK SMILES IDX 54 57 68 58 87 59 52 60 53 61 67 63 88 64 55 65 39 66 40 67
REMARK SMILES IDX 48 68 41 69 47 70 49 71 46 72 42 73 43 74 44 75 45 76 71 77
REMARK SMILES IDX 72 78 80 79 73 80 79 81 81 82 78 83 74 84 75 85 76 86 77 87
REMARK SMILES IDX 56 88 57 89 65 90 58 91 64 92 66 93 63 94 59 95 60 96 61 97
REMARK SMILES IDX 62 98
REMARK H PARENT 22 6 10 12 27 32 86 51 54 62
REMARK Flexibility Score: inf
ROOT
ATOM      1  C   UNL A   1      34.943  24.086  24.161  1.00  0.00     0.023 C 
ENDROOT
BRANCH   1   2
ATOM      2  C   UNL A   1      34.391  24.748  25.422  1.00  0.00     0.116 C 
BRANCH   2   3
ATOM      3  N   UNL A   1      34.507  26.192  25.403  1.00  0.00    -0.356 N 
ATOM      4  C   UNL A   1      33.654  27.134  25.904  1.00  0.00     0.224 C 
ATOM      5  O   UNL A   1      34.030  28.309  25.930  1.00  0.00    -0.275 OA
ATOM      6  H   UNL A   1      35.316  26.545  24.966  1.00  0.00     0.163 HD
BRANCH   4   7
ATOM      7  C   UNL A   1      32.329  26.734  26.536  1.00  0.00     0.138 C 
BRANCH   7   8
ATOM      8  C   UNL A   1      31.193  26.524  25.575  1.00  0.00    -0.002 A 
ATOM      9  C   UNL A   1      30.493  25.343  25.337  1.00  0.00     0.093 A 
ATOM     10  N   UNL A   1      29.470  25.639  24.465  1.00  0.00    -0.351 N 
ATOM     11  C   UNL A   1      29.562  26.939  24.031  1.00  0.00     0.049 A 
ATOM     12  H   UNL A   1      28.769  25.006  24.191  1.00  0.00     0.167 HD
ATOM     13  C   UNL A   1      30.642  27.518  24.695  1.00  0.00     0.004 A 
ATOM     14  C   UNL A   1      28.758  27.645  23.129  1.00  0.00     0.066 A 
ATOM     15  C   UNL A   1      30.944  28.873  24.433  1.00  0.00     0.013 A 
ATOM     16  C   UNL A   1      29.083  28.980  22.897  1.00  0.00     0.125 A 
ATOM     17  C   UNL A   1      30.155  29.594  23.529  1.00  0.00     0.040 A 
ATOM     18  F   UNL A   1      28.339  29.690  22.038  1.00  0.00    -0.207 F 
BRANCH   9  19
ATOM     19  C   UNL A   1      30.663  24.031  25.937  1.00  0.00     0.227 C 
ATOM     20  O   UNL A   1      30.305  23.815  27.091  1.00  0.00    -0.285 OA
BRANCH  19  21
ATOM     21  C   UNL A   1      31.254  22.923  25.096  1.00  0.00     0.113 A 
ATOM     22  C   UNL A   1      32.902  19.517  25.385  1.00  0.00     0.044 C 
ATOM     23  C   UNL A   1      32.321  20.780  24.825  1.00  0.00    -0.047 A 
ATOM     24  C   UNL A   1      32.339  21.012  23.449  1.00  0.00     0.023 A 
ATOM     25  C   UNL A   1      31.749  21.746  25.659  1.00  0.00     0.036 A 
ATOM     26  C   UNL A   1      31.810  22.197  22.969  1.00  0.00     0.112 A 
ATOM     27  N   UNL A   1      31.285  23.155  23.759  1.00  0.00    -0.253 NA
ENDBRANCH  19  21
ENDBRANCH   9  19
ENDBRANCH   7   8
ENDBRANCH   4   7
ENDBRANCH   2   3
ENDBRANCH   1   2
BRANCH   1  28
ATOM     28  C   UNL A   1      35.370  22.625  24.316  1.00  0.00     0.023 C 
BRANCH  28  29
ATOM     29  C   UNL A   1      36.032  22.266  25.641  1.00  0.00     0.116 C 
BRANCH  29  30
ATOM     30  N   UNL A   1      36.983  21.172  25.534  1.00  0.00    -0.352 N 
ATOM     31  C   UNL A   1      38.342  21.178  25.756  1.00  0.00     0.251 C 
ATOM     32  H   UNL A   1      36.602  20.305  25.265  1.00  0.00     0.163 HD
ATOM     33  O   UNL A   1      38.996  20.171  25.524  1.00  0.00    -0.269 OA
BRANCH  31  34
ATOM     34  C   UNL A   1      39.010  22.414  26.228  1.00  0.00     0.039 A 
ATOM     35  C   UNL A   1      40.090  22.292  27.109  1.00  0.00     0.014 A 
ATOM     36  C   UNL A   1      38.587  23.677  25.810  1.00  0.00     0.014 A 
ATOM     37  C   UNL A   1      40.791  23.431  27.513  1.00  0.00     0.010 A 
ATOM     38  C   UNL A   1      39.318  24.808  26.170  1.00  0.00     0.010 A 
ATOM     39  C   UNL A   1      40.429  24.693  27.019  1.00  0.00    -0.014 A 
BRANCH  39  40
ATOM     40  C   UNL A   1      41.203  25.910  27.370  1.00  0.00     0.031 A 
ATOM     41  C   UNL A   1      40.569  26.997  28.189  1.00  0.00     0.074 A 
ATOM     42  C   UNL A   1      42.448  26.067  26.880  1.00  0.00     0.049 A 
ATOM     43  N   UNL A   1      41.043  28.171  28.516  1.00  0.00    -0.248 NA
ATOM     44  C   UNL A   1      39.209  26.735  28.677  1.00  0.00     0.031 C 
ATOM     45  C   UNL A   1      43.156  25.102  26.037  1.00  0.00     0.029 A 
ATOM     46  N   UNL A   1      43.330  27.109  27.008  1.00  0.00    -0.354 N 
ATOM     47  C   UNL A   1      40.031  28.801  29.232  1.00  0.00     0.074 A 
ATOM     48  C   UNL A   1      38.904  27.889  29.249  1.00  0.00     0.031 C 
ATOM     49  C   UNL A   1      44.368  25.593  25.732  1.00  0.00     0.029 A 
ATOM     50  C   UNL A   1      44.509  26.916  26.330  1.00  0.00     0.049 A 
ATOM     51  H   UNL A   1      43.137  27.918  27.534  1.00  0.00     0.167 HD
ATOM     52  C   UNL A   1      40.046  30.017  29.834  1.00  0.00     0.034 A 
ATOM     53  C   UNL A   1      45.579  27.722  26.195  1.00  0.00     0.034 A 
ATOM     54  C   UNL A   1      41.180  30.909  29.821  1.00  0.00     0.049 A 
ATOM     55  C   UNL A   1      45.573  29.070  26.860  1.00  0.00     0.074 A 
ATOM     56  C   UNL A   1      41.330  32.129  30.459  1.00  0.00     0.029 A 
ATOM     57  N   UNL A   1      42.359  30.679  29.124  1.00  0.00    -0.354 N 
ATOM     58  N   UNL A   1      44.625  29.636  27.566  1.00  0.00    -0.248 NA
ATOM     59  C   UNL A   1      46.786  29.883  26.708  1.00  0.00     0.031 C 
ATOM     60  C   UNL A   1      42.582  32.656  30.111  1.00  0.00     0.029 A 
ATOM     61  C   UNL A   1      43.232  31.744  29.296  1.00  0.00     0.049 A 
ATOM     62  H   UNL A   1      42.549  29.876  28.588  1.00  0.00     0.167 HD
ATOM     63  C   UNL A   1      45.133  30.869  27.961  1.00  0.00     0.074 A 
ATOM     64  C   UNL A   1      46.472  30.962  27.412  1.00  0.00     0.031 C 
ATOM     65  C   UNL A   1      44.551  31.832  28.718  1.00  0.00     0.034 A 
BRANCH  52  66
ATOM     66  C   UNL A   1      38.775  30.450  30.521  1.00  0.00     0.023 A 
ATOM     67  C   UNL A   1      37.772  31.155  29.834  1.00  0.00     0.031 A 
ATOM     68  C   UNL A   1      38.596  30.222  31.896  1.00  0.00     0.131 A 
ATOM     69  C   UNL A   1      36.682  31.687  30.539  1.00  0.00     0.055 A 
ATOM     70  C   UNL A   1      37.469  30.685  32.578  1.00  0.00     0.041 A 
ATOM     71  F   UNL A   1      39.530  29.570  32.608  1.00  0.00    -0.206 F 
ATOM     72  C   UNL A   1      36.513  31.440  31.903  1.00  0.00     0.022 A 
BRANCH  69  73
ATOM     73  S   UNL A   1      35.581  32.846  29.681  1.00  0.00     0.124 S 
ATOM     74  O   UNL A   1      36.499  33.489  28.743  1.00  0.00    -0.237 OA
ATOM     75  O   UNL A   1      34.584  31.959  29.095  1.00  0.00    -0.237 OA
ATOM     76  O   UNL A   1      35.093  33.712  30.753  1.00  0.00    -0.744 OA
ENDBRANCH  69  73
ENDBRANCH  52  66
BRANCH  53  77
ATOM     77  C   UNL A   1      46.744  27.279  25.389  1.00  0.00     0.023 A 
ATOM     78  C   UNL A   1      46.916  27.728  24.072  1.00  0.00     0.031 A 
ATOM     79  C   UNL A   1      47.697  26.398  25.927  1.00  0.00     0.131 A 
ATOM     80  C   UNL A   1      48.011  27.273  23.322  1.00  0.00     0.055 A 
ATOM     81  C   UNL A   1      48.797  25.969  25.185  1.00  0.00     0.041 A 
ATOM     82  F   UNL A   1      47.575  25.957  27.189  1.00  0.00    -0.206 F 
ATOM     83  C   UNL A   1      48.957  26.404  23.872  1.00  0.00     0.022 A 
BRANCH  80  84
ATOM     84  S   UNL A   1      48.177  27.829  21.604  1.00  0.00     0.124 S 
ATOM     85  O   UNL A   1      49.392  28.634  21.667  1.00  0.00    -0.237 OA
ATOM     86  O   UNL A   1      48.280  26.566  20.881  1.00  0.00    -0.237 OA
ATOM     87  O   UNL A   1      46.943  28.578  21.369  1.00  0.00    -0.744 OA
ENDBRANCH  80  84
ENDBRANCH  53  77
BRANCH  65  88
ATOM     88  C   UNL A   1      45.386  33.046  29.017  1.00  0.00     0.023 A 
ATOM     89  C   UNL A   1      45.368  34.175  28.181  1.00  0.00     0.031 A 
ATOM     90  C   UNL A   1      46.238  33.056  30.136  1.00  0.00     0.131 A 
ATOM     91  C   UNL A   1      46.220  35.256  28.453  1.00  0.00     0.055 A 
ATOM     92  C   UNL A   1      47.054  34.151  30.423  1.00  0.00     0.041 A 
ATOM     93  F   UNL A   1      46.292  31.998  30.960  1.00  0.00    -0.206 F 
ATOM     94  C   UNL A   1      47.055  35.254  29.575  1.00  0.00     0.022 A 
BRANCH  91  95
ATOM     95  S   UNL A   1      46.272  36.644  27.286  1.00  0.00     0.124 S 
ATOM     96  O   UNL A   1      47.096  36.104  26.209  1.00  0.00    -0.237 OA
ATOM     97  O   UNL A   1      44.861  36.841  26.972  1.00  0.00    -0.237 OA
ATOM     98  O   UNL A   1      46.889  37.720  28.059  1.00  0.00    -0.744 OA
ENDBRANCH  91  95
ENDBRANCH  65  88
ENDBRANCH  39  40
ENDBRANCH  31  34
ENDBRANCH  29  30
ENDBRANCH  28  29
ENDBRANCH   1  28
TORSDOF 17
ENDMDL
MODEL 3
REMARK VINA RESULT:     -12.3      2.973      8.554
REMARK SMILES Cc1ccnc(C(=O)c2[nH]c3cc(F)ccc3c2CC(=O)NCCCCNC(=O)c2ccc(-c3c4nc(c(-c5cc(S(=O)(=O)[O-])ccc5F)c5ccc([nH]5)c(-c5cc(S(=O)(=O)[O-])ccc5F)c5nc(c(-c6cc(S(=O)(=O)[O-])ccc6F)c6ccc3[nH]6)C=C5)C=C4)cc2)c1
REMARK SMILES IDX 24 1 23 2 22 3 20 4 21 5 19 7 18 8 9 9 10 10 11 11 17 13
REMARK SMILES IDX 12 14 16 15 13 16 15 17 14 18 7 19 8 20 6 21 1 22 2 23 3 24
REMARK SMILES IDX 93 25 4 26 5 27 25 28 26 29 27 30 28 31 29 33 30 34 31 35
REMARK SMILES IDX 92 36 32 37 91 38 33 39 34 40 35 41 85 42 36 43 90 44 84 45
REMARK SMILES IDX 86 46 37 47 89 48 83 49 82 50 38 52 70 53 50 54 69 55 51 56
REMARK SMILES IDX 54 57 68 58 87 59 52 60 53 61 67 63 88 64 55 65 39 66 40 67
REMARK SMILES IDX 48 68 41 69 47 70 49 71 46 72 42 73 43 74 44 75 45 76 71 77
REMARK SMILES IDX 72 78 80 79 73 80 79 81 81 82 78 83 74 84 75 85 76 86 77 87
REMARK SMILES IDX 56 88 57 89 65 90 58 91 64 92 66 93 63 94 59 95 60 96 61 97
REMARK SMILES IDX 62 98
REMARK H PARENT 22 6 10 12 27 32 86 51 54 62
REMARK Flexibility Score: inf
ROOT
ATOM      1  C   UNL A   1      31.761  28.093  27.111  1.00  0.00     0.023 C 
ENDROOT
BRANCH   1   2
ATOM      2  C   UNL A   1      32.307  26.813  26.483  1.00  0.00     0.116 C 
BRANCH   2   3
ATOM      3  N   UNL A   1      31.571  25.628  26.875  1.00  0.00    -0.356 N 
ATOM      4  C   UNL A   1      31.857  24.315  26.635  1.00  0.00     0.224 C 
ATOM      5  O   UNL A   1      31.182  23.454  27.208  1.00  0.00    -0.275 OA
ATOM      6  H   UNL A   1      30.747  25.794  27.389  1.00  0.00     0.163 HD
BRANCH   4   7
ATOM      7  C   UNL A   1      33.057  23.916  25.788  1.00  0.00     0.138 C 
BRANCH   7   8
ATOM      8  C   UNL A   1      32.731  23.281  24.465  1.00  0.00    -0.002 A 
ATOM      9  C   UNL A   1      32.530  23.922  23.245  1.00  0.00     0.093 A 
ATOM     10  N   UNL A   1      32.368  22.947  22.289  1.00  0.00    -0.351 N 
ATOM     11  C   UNL A   1      32.328  21.701  22.866  1.00  0.00     0.049 A 
ATOM     12  H   UNL A   1      32.292  23.118  21.323  1.00  0.00     0.167 HD
ATOM     13  C   UNL A   1      32.536  21.876  24.233  1.00  0.00     0.004 A 
ATOM     14  C   UNL A   1      32.153  20.442  22.279  1.00  0.00     0.066 A 
ATOM     15  C   UNL A   1      32.556  20.732  25.061  1.00  0.00     0.013 A 
ATOM     16  C   UNL A   1      32.182  19.336  23.126  1.00  0.00     0.125 A 
ATOM     17  C   UNL A   1      32.378  19.465  24.493  1.00  0.00     0.040 A 
ATOM     18  F   UNL A   1      32.016  18.114  22.602  1.00  0.00    -0.207 F 
BRANCH   9  19
ATOM     19  C   UNL A   1      32.582  25.339  22.927  1.00  0.00     0.227 C 
ATOM     20  O   UNL A   1      33.612  25.852  22.501  1.00  0.00    -0.285 OA
BRANCH  19  21
ATOM     21  C   UNL A   1      31.325  26.163  23.092  1.00  0.00     0.113 A 
ATOM     22  C   UNL A   1      29.900  29.605  22.367  1.00  0.00     0.044 C 
ATOM     23  C   UNL A   1      30.045  28.187  22.833  1.00  0.00    -0.047 A 
ATOM     24  C   UNL A   1      28.994  27.557  23.501  1.00  0.00     0.023 A 
ATOM     25  C   UNL A   1      31.223  27.467  22.607  1.00  0.00     0.036 A 
ATOM     26  C   UNL A   1      29.170  26.254  23.931  1.00  0.00     0.112 A 
ATOM     27  N   UNL A   1      30.308  25.554  23.754  1.00  0.00    -0.253 NA
ENDBRANCH  19  21
ENDBRANCH   9  19
ENDBRANCH   7   8
ENDBRANCH   4   7
ENDBRANCH   2   3
ENDBRANCH   1   2
BRANCH   1  28
ATOM     28  C   UNL A   1      31.403  29.210  26.129  1.00  0.00     0.023 C 
BRANCH  28  29
ATOM     29  C   UNL A   1      32.501  30.233  25.862  1.00  0.00     0.116 C 
BRANCH  29  30
ATOM     30  N   UNL A   1      32.173  31.569  26.327  1.00  0.00    -0.352 N 
ATOM     31  C   UNL A   1      32.833  32.356  27.243  1.00  0.00     0.251 C 
ATOM     32  H   UNL A   1      31.364  31.968  25.931  1.00  0.00     0.163 HD
ATOM     33  O   UNL A   1      32.349  33.429  27.578  1.00  0.00    -0.269 OA
BRANCH  31  34
ATOM     34  C   UNL A   1      34.098  31.882  27.852  1.00  0.00     0.039 A 
ATOM     35  C   UNL A   1      35.139  32.801  28.026  1.00  0.00     0.014 A 
ATOM     36  C   UNL A   1      34.263  30.555  28.253  1.00  0.00     0.014 A 
ATOM     37  C   UNL A   1      36.316  32.406  28.666  1.00  0.00     0.010 A 
ATOM     38  C   UNL A   1      35.414  30.175  28.938  1.00  0.00     0.010 A 
ATOM     39  C   UNL A   1      36.448  31.098  29.156  1.00  0.00    -0.014 A 
BRANCH  39  40
ATOM     40  C   UNL A   1      37.655  30.674  29.908  1.00  0.00     0.031 A 
ATOM     41  C   UNL A   1      38.639  29.728  29.282  1.00  0.00     0.074 A 
ATOM     42  C   UNL A   1      37.817  31.077  31.182  1.00  0.00     0.049 A 
ATOM     43  N   UNL A   1      39.697  29.166  29.807  1.00  0.00    -0.248 NA
ATOM     44  C   UNL A   1      38.376  29.343  27.889  1.00  0.00     0.031 C 
ATOM     45  C   UNL A   1      36.907  31.960  31.915  1.00  0.00     0.029 A 
ATOM     46  N   UNL A   1      38.799  30.780  32.093  1.00  0.00    -0.354 N 
ATOM     47  C   UNL A   1      40.219  28.342  28.816  1.00  0.00     0.074 A 
ATOM     48  C   UNL A   1      39.329  28.449  27.676  1.00  0.00     0.031 C 
ATOM     49  C   UNL A   1      37.380  32.141  33.159  1.00  0.00     0.029 A 
ATOM     50  C   UNL A   1      38.605  31.364  33.320  1.00  0.00     0.049 A 
ATOM     51  H   UNL A   1      39.569  30.202  31.886  1.00  0.00     0.167 HD
ATOM     52  C   UNL A   1      41.342  27.582  28.846  1.00  0.00     0.034 A 
ATOM     53  C   UNL A   1      39.326  31.274  34.453  1.00  0.00     0.034 A 
ATOM     54  C   UNL A   1      42.226  27.496  29.983  1.00  0.00     0.049 A 
ATOM     55  C   UNL A   1      40.562  30.418  34.471  1.00  0.00     0.074 A 
ATOM     56  C   UNL A   1      43.428  26.818  30.097  1.00  0.00     0.029 A 
ATOM     57  N   UNL A   1      41.998  28.104  31.211  1.00  0.00    -0.354 N 
ATOM     58  N   UNL A   1      41.065  29.676  33.515  1.00  0.00    -0.248 NA
ATOM     59  C   UNL A   1      41.326  30.395  35.725  1.00  0.00     0.031 C 
ATOM     60  C   UNL A   1      43.902  26.979  31.407  1.00  0.00     0.029 A 
ATOM     61  C   UNL A   1      43.021  27.797  32.095  1.00  0.00     0.049 A 
ATOM     62  H   UNL A   1      41.222  28.672  31.422  1.00  0.00     0.167 HD
ATOM     63  C   UNL A   1      42.217  29.108  34.045  1.00  0.00     0.074 A 
ATOM     64  C   UNL A   1      42.334  29.595  35.406  1.00  0.00     0.031 C 
ATOM     65  C   UNL A   1      43.107  28.269  33.456  1.00  0.00     0.034 A 
BRANCH  52  66
ATOM     66  C   UNL A   1      41.641  26.762  27.616  1.00  0.00     0.023 A 
ATOM     67  C   UNL A   1      41.315  25.397  27.546  1.00  0.00     0.031 A 
ATOM     68  C   UNL A   1      42.327  27.333  26.531  1.00  0.00     0.131 A 
ATOM     69  C   UNL A   1      41.755  24.628  26.458  1.00  0.00     0.055 A 
ATOM     70  C   UNL A   1      42.693  26.579  25.414  1.00  0.00     0.041 A 
ATOM     71  F   UNL A   1      42.681  28.628  26.550  1.00  0.00    -0.206 F 
ATOM     72  C   UNL A   1      42.425  25.213  25.382  1.00  0.00     0.022 A 
BRANCH  69  73
ATOM     73  S   UNL A   1      41.587  22.823  26.554  1.00  0.00     0.124 S 
ATOM     74  O   UNL A   1      42.283  22.395  25.342  1.00  0.00    -0.237 OA
ATOM     75  O   UNL A   1      42.248  22.512  27.815  1.00  0.00    -0.237 OA
ATOM     76  O   UNL A   1      40.141  22.613  26.538  1.00  0.00    -0.744 OA
ENDBRANCH  69  73
ENDBRANCH  52  66
BRANCH  53  77
ATOM     77  C   UNL A   1      38.894  32.008  35.668  1.00  0.00     0.023 A 
ATOM     78  C   UNL A   1      38.201  31.349  36.694  1.00  0.00     0.031 A 
ATOM     79  C   UNL A   1      39.166  33.378  35.816  1.00  0.00     0.131 A 
ATOM     80  C   UNL A   1      37.780  32.071  37.821  1.00  0.00     0.055 A 
ATOM     81  C   UNL A   1      38.766  34.085  36.949  1.00  0.00     0.041 A 
ATOM     82  F   UNL A   1      39.838  34.041  34.862  1.00  0.00    -0.206 F 
ATOM     83  C   UNL A   1      38.064  33.432  37.959  1.00  0.00     0.022 A 
BRANCH  80  84
ATOM     84  S   UNL A   1      36.840  31.203  39.105  1.00  0.00     0.124 S 
ATOM     85  O   UNL A   1      36.651  29.888  38.501  1.00  0.00    -0.237 OA
ATOM     86  O   UNL A   1      37.750  31.261  40.244  1.00  0.00    -0.237 OA
ATOM     87  O   UNL A   1      35.627  32.008  39.241  1.00  0.00    -0.744 OA
ENDBRANCH  80  84
ENDBRANCH  53  77
BRANCH  65  88
ATOM     88  C   UNL A   1      44.294  27.863  34.284  1.00  0.00     0.023 A 
ATOM     89  C   UNL A   1      45.481  28.616  34.287  1.00  0.00     0.031 A 
ATOM     90  C   UNL A   1      44.247  26.688  35.054  1.00  0.00     0.131 A 
ATOM     91  C   UNL A   1      46.591  28.162  35.014  1.00  0.00     0.055 A 
ATOM     92  C   UNL A   1      45.342  26.261  35.806  1.00  0.00     0.041 A 
ATOM     93  F   UNL A   1      43.136  25.934  35.079  1.00  0.00    -0.206 F 
ATOM     94  C   UNL A   1      46.525  26.995  35.781  1.00  0.00     0.022 A 
BRANCH  91  95
ATOM     95  S   UNL A   1      48.150  29.082  34.895  1.00  0.00     0.124 S 
ATOM     96  O   UNL A   1      48.224  29.723  36.204  1.00  0.00    -0.237 OA
ATOM     97  O   UNL A   1      49.121  28.020  34.649  1.00  0.00    -0.237 OA
ATOM     98  O   UNL A   1      47.929  29.989  33.771  1.00  0.00    -0.744 OA
ENDBRANCH  91  95
ENDBRANCH  65  88
ENDBRANCH  39  40
ENDBRANCH  31  34
ENDBRANCH  29  30
ENDBRANCH  28  29
ENDBRANCH   1  28
TORSDOF 17
ENDMDL
