MODEL 1
REMARK VINA RESULT:     -13.0      0.000      0.000
REMARK SMILES O=C1NC(=S)S/C1=C\c1ccc(OCc2cn(-c3ccc(C(=O)NCCCCNC(=O)c4ccc(-c5c6nc(c(-c7cc(S(=O)(=O)[O-])ccc7F)c7ccc([nH]7)c(-c7cc(S(=O)(=O)[O-])ccc7F)c7nc(c(-c8cc(S(=O)(=O)[O-])ccc8F)c8ccc5[nH]8)C=C7)C=C6)cc4)cc3)nn2)cc1
REMARK SMILES IDX 25 1 24 2 22 3 23 4 21 6 18 7 19 8 96 9 20 10 95 11 17 12
REMARK SMILES IDX 15 13 16 14 98 15 97 16 14 17 13 18 12 19 9 20 10 21 100 22
REMARK SMILES IDX 11 23 99 24 8 25 1 26 2 27 3 28 7 29 4 30 6 32 5 33 26 34
REMARK SMILES IDX 27 35 28 36 29 37 30 38 31 40 32 41 33 42 94 43 34 44 93 45
REMARK SMILES IDX 35 46 36 47 37 48 87 49 38 50 92 51 86 52 88 53 39 54 91 55
REMARK SMILES IDX 85 56 84 57 40 59 72 60 52 61 71 62 53 63 56 64 70 65 89 66
REMARK SMILES IDX 54 67 55 68 69 70 90 71 57 72 41 73 42 74 50 75 43 76 49 77
REMARK SMILES IDX 51 78 48 79 44 80 45 81 46 82 47 83 73 84 74 85 82 86 75 87
REMARK SMILES IDX 81 88 83 89 80 90 76 91 77 92 78 93 79 94 58 95 59 96 67 97
REMARK SMILES IDX 60 98 66 99 68 100 65 101 61 102 62 103 63 104 64 105
REMARK H PARENT 24 5 3 31 29 39 88 58 56 69
REMARK Flexibility Score: inf
ROOT
ATOM      1  C   UNL A   1      35.896  33.814  28.618  1.00  0.00     0.116 C 
ENDROOT
BRANCH   1   2
ATOM      2  N   UNL A   1      34.682  34.576  28.840  1.00  0.00    -0.352 N 
ATOM      3  C   UNL A   1      33.376  34.388  28.468  1.00  0.00     0.251 C 
ATOM      4  O   UNL A   1      32.568  35.262  28.788  1.00  0.00    -0.269 OA
ATOM      5  H   UNL A   1      34.827  35.396  29.365  1.00  0.00     0.163 HD
BRANCH   3   6
ATOM      6  C   UNL A   1      32.878  33.175  27.754  1.00  0.00     0.039 A 
ATOM      7  C   UNL A   1      32.188  30.853  26.336  1.00  0.00     0.066 A 
ATOM      8  C   UNL A   1      33.286  30.835  27.199  1.00  0.00     0.029 A 
ATOM      9  C   UNL A   1      31.397  31.995  26.228  1.00  0.00     0.029 A 
ATOM     10  C   UNL A   1      33.647  32.004  27.874  1.00  0.00     0.016 A 
ATOM     11  C   UNL A   1      31.711  33.123  26.987  1.00  0.00     0.016 A 
BRANCH   7  12
ATOM     12  N   UNL A   1      31.853  29.704  25.596  1.00  0.00    -0.220 N 
ATOM     13  C   UNL A   1      30.906  28.224  24.305  1.00  0.00     0.120 A 
ATOM     14  C   UNL A   1      30.871  29.560  24.641  1.00  0.00     0.144 A 
ATOM     15  N   UNL A   1      31.914  27.627  25.017  1.00  0.00    -0.131 NA
ATOM     16  N   UNL A   1      32.508  28.539  25.765  1.00  0.00    -0.062 NA
BRANCH  13  17
ATOM     17  C   UNL A   1      30.143  27.458  23.272  1.00  0.00     0.289 C 
BRANCH  17  18
ATOM     18  O   UNL A   1      30.924  26.897  22.201  1.00  0.00    -0.487 OA
BRANCH  18  19
ATOM     19  C   UNL A   1      31.610  25.735  22.428  1.00  0.00     0.119 A 
ATOM     20  C   UNL A   1      32.943  23.434  23.330  1.00  0.00    -0.024 A 
ATOM     21  C   UNL A   1      31.601  23.639  23.657  1.00  0.00     0.012 A 
ATOM     22  C   UNL A   1      33.577  24.327  22.465  1.00  0.00     0.012 A 
ATOM     23  C   UNL A   1      30.942  24.791  23.212  1.00  0.00     0.047 A 
ATOM     24  C   UNL A   1      32.900  25.451  21.988  1.00  0.00     0.047 A 
BRANCH  20  25
ATOM     25  C   UNL A   1      33.695  22.306  23.886  1.00  0.00     0.029 C 
ATOM     26  O   UNL A   1      35.270  20.058  24.850  1.00  0.00    -0.268 OA
ATOM     27  C   UNL A   1      35.625  21.211  24.978  1.00  0.00     0.263 C 
ATOM     28  N   UNL A   1      36.800  21.606  25.561  1.00  0.00    -0.307 N 
ATOM     29  C   UNL A   1      34.871  22.411  24.522  1.00  0.00     0.080 C 
ATOM     30  C   UNL A   1      37.065  22.939  25.639  1.00  0.00     0.145 C 
ATOM     31  H   UNL A   1      37.437  20.944  25.914  1.00  0.00     0.171 HD
ATOM     32  S   UNL A   1      35.753  23.844  24.920  1.00  0.00    -0.055 SA
ATOM     33  S   UNL A   1      38.438  23.555  26.327  1.00  0.00    -0.052 S 
ENDBRANCH  20  25
ENDBRANCH  18  19
ENDBRANCH  17  18
ENDBRANCH  13  17
ENDBRANCH   7  12
ENDBRANCH   3   6
ENDBRANCH   1   2
BRANCH   1  34
ATOM     34  C   UNL A   1      36.673  33.629  29.929  1.00  0.00     0.023 C 
BRANCH  34  35
ATOM     35  C   UNL A   1      37.807  32.596  29.860  1.00  0.00     0.023 C 
BRANCH  35  36
ATOM     36  C   UNL A   1      37.603  31.368  30.741  1.00  0.00     0.116 C 
BRANCH  36  37
ATOM     37  N   UNL A   1      36.535  30.492  30.256  1.00  0.00    -0.352 N 
ATOM     38  C   UNL A   1      36.588  29.604  29.195  1.00  0.00     0.251 C 
ATOM     39  H   UNL A   1      35.679  30.540  30.741  1.00  0.00     0.163 HD
ATOM     40  O   UNL A   1      35.566  29.269  28.610  1.00  0.00    -0.269 OA
BRANCH  38  41
ATOM     41  C   UNL A   1      37.901  29.055  28.808  1.00  0.00     0.039 A 
ATOM     42  C   UNL A   1      38.590  29.490  27.675  1.00  0.00     0.014 A 
ATOM     43  C   UNL A   1      38.455  28.098  29.655  1.00  0.00     0.014 A 
ATOM     44  C   UNL A   1      39.881  29.008  27.455  1.00  0.00     0.010 A 
ATOM     45  C   UNL A   1      39.777  27.757  29.531  1.00  0.00     0.010 A 
ATOM     46  C   UNL A   1      40.478  28.156  28.403  1.00  0.00    -0.014 A 
BRANCH  46  47
ATOM     47  C   UNL A   1      41.890  27.789  28.327  1.00  0.00     0.031 A 
ATOM     48  C   UNL A   1      42.140  26.554  27.539  1.00  0.00     0.074 A 
ATOM     49  C   UNL A   1      42.899  28.596  28.731  1.00  0.00     0.049 A 
ATOM     50  N   UNL A   1      42.462  25.395  28.007  1.00  0.00    -0.248 NA
ATOM     51  C   UNL A   1      41.810  26.535  26.105  1.00  0.00     0.031 C 
ATOM     52  C   UNL A   1      42.823  29.952  29.284  1.00  0.00     0.029 A 
ATOM     53  N   UNL A   1      44.243  28.399  28.644  1.00  0.00    -0.354 N 
ATOM     54  C   UNL A   1      42.650  24.573  26.904  1.00  0.00     0.074 A 
ATOM     55  C   UNL A   1      42.015  25.249  25.805  1.00  0.00     0.031 C 
ATOM     56  C   UNL A   1      44.048  30.529  29.259  1.00  0.00     0.029 A 
ATOM     57  C   UNL A   1      45.026  29.538  28.842  1.00  0.00     0.049 A 
ATOM     58  H   UNL A   1      44.635  27.515  28.455  1.00  0.00     0.167 HD
ATOM     59  C   UNL A   1      43.541  23.543  26.953  1.00  0.00     0.034 A 
ATOM     60  C   UNL A   1      46.376  29.656  28.679  1.00  0.00     0.034 A 
ATOM     61  C   UNL A   1      43.933  23.275  28.324  1.00  0.00     0.049 A 
ATOM     62  C   UNL A   1      46.927  28.283  28.805  1.00  0.00     0.074 A 
ATOM     63  C   UNL A   1      43.241  22.955  29.478  1.00  0.00     0.029 A 
ATOM     64  N   UNL A   1      45.156  23.748  28.751  1.00  0.00    -0.354 N 
ATOM     65  N   UNL A   1      46.877  27.606  29.920  1.00  0.00    -0.248 NA
ATOM     66  C   UNL A   1      47.026  27.475  27.596  1.00  0.00     0.031 C 
ATOM     67  C   UNL A   1      43.851  23.747  30.496  1.00  0.00     0.029 A 
ATOM     68  C   UNL A   1      44.949  24.408  29.940  1.00  0.00     0.049 A 
ATOM     69  H   UNL A   1      46.019  23.634  28.291  1.00  0.00     0.167 HD
ATOM     70  C   UNL A   1      46.475  26.333  29.547  1.00  0.00     0.074 A 
ATOM     71  C   UNL A   1      46.671  26.285  28.095  1.00  0.00     0.031 C 
ATOM     72  C   UNL A   1      45.737  25.542  30.385  1.00  0.00     0.034 A 
BRANCH  59  73
ATOM     73  C   UNL A   1      44.362  23.038  25.785  1.00  0.00     0.023 A 
ATOM     74  C   UNL A   1      44.321  21.653  25.535  1.00  0.00     0.031 A 
ATOM     75  C   UNL A   1      45.381  23.750  25.114  1.00  0.00     0.131 A 
ATOM     76  C   UNL A   1      45.324  21.022  24.782  1.00  0.00     0.055 A 
ATOM     77  C   UNL A   1      46.337  23.126  24.306  1.00  0.00     0.041 A 
ATOM     78  F   UNL A   1      45.573  25.064  25.266  1.00  0.00    -0.206 F 
ATOM     79  C   UNL A   1      46.336  21.749  24.167  1.00  0.00     0.022 A 
BRANCH  76  80
ATOM     80  S   UNL A   1      45.385  19.213  24.792  1.00  0.00     0.124 S 
ATOM     81  O   UNL A   1      44.417  18.895  25.836  1.00  0.00    -0.237 OA
ATOM     82  O   UNL A   1      44.989  18.892  23.424  1.00  0.00    -0.237 OA
ATOM     83  O   UNL A   1      46.779  18.924  25.122  1.00  0.00    -0.744 OA
ENDBRANCH  76  80
ENDBRANCH  59  73
BRANCH  60  84
ATOM     84  C   UNL A   1      47.156  30.810  28.127  1.00  0.00     0.023 A 
ATOM     85  C   UNL A   1      46.607  31.784  27.254  1.00  0.00     0.031 A 
ATOM     86  C   UNL A   1      48.421  31.114  28.681  1.00  0.00     0.131 A 
ATOM     87  C   UNL A   1      47.313  32.987  26.981  1.00  0.00     0.055 A 
ATOM     88  C   UNL A   1      49.104  32.304  28.415  1.00  0.00     0.041 A 
ATOM     89  F   UNL A   1      49.001  30.299  29.574  1.00  0.00    -0.206 F 
ATOM     90  C   UNL A   1      48.548  33.252  27.573  1.00  0.00     0.022 A 
BRANCH  87  91
ATOM     91  S   UNL A   1      46.596  34.288  25.913  1.00  0.00     0.124 S 
ATOM     92  O   UNL A   1      46.168  35.287  26.885  1.00  0.00    -0.237 OA
ATOM     93  O   UNL A   1      47.719  34.653  25.057  1.00  0.00    -0.237 OA
ATOM     94  O   UNL A   1      45.503  33.601  25.222  1.00  0.00    -0.744 OA
ENDBRANCH  87  91
ENDBRANCH  60  84
BRANCH  72  95
ATOM     95  C   UNL A   1      45.567  25.977  31.832  1.00  0.00     0.023 A 
ATOM     96  C   UNL A   1      44.411  26.591  32.373  1.00  0.00     0.031 A 
ATOM     97  C   UNL A   1      46.593  25.631  32.730  1.00  0.00     0.131 A 
ATOM     98  C   UNL A   1      44.327  26.850  33.757  1.00  0.00     0.055 A 
ATOM     99  C   UNL A   1      46.495  25.863  34.102  1.00  0.00     0.041 A 
ATOM    100  F   UNL A   1      47.707  25.024  32.289  1.00  0.00    -0.206 F 
ATOM    101  C   UNL A   1      45.363  26.480  34.620  1.00  0.00     0.022 A 
BRANCH  98 102
ATOM    102  S   UNL A   1      42.875  27.697  34.466  1.00  0.00     0.124 S 
ATOM    103  O   UNL A   1      43.376  28.240  35.724  1.00  0.00    -0.237 OA
ATOM    104  O   UNL A   1      42.541  28.677  33.436  1.00  0.00    -0.237 OA
ATOM    105  O   UNL A   1      41.894  26.620  34.619  1.00  0.00    -0.744 OA
ENDBRANCH  98 102
ENDBRANCH  72  95
ENDBRANCH  46  47
ENDBRANCH  38  41
ENDBRANCH  36  37
ENDBRANCH  35  36
ENDBRANCH  34  35
ENDBRANCH   1  34
TORSDOF 19
ENDMDL
MODEL 2
REMARK VINA RESULT:     -12.9      4.087     11.390
REMARK SMILES O=C1NC(=S)S/C1=C\c1ccc(OCc2cn(-c3ccc(C(=O)NCCCCNC(=O)c4ccc(-c5c6nc(c(-c7cc(S(=O)(=O)[O-])ccc7F)c7ccc([nH]7)c(-c7cc(S(=O)(=O)[O-])ccc7F)c7nc(c(-c8cc(S(=O)(=O)[O-])ccc8F)c8ccc5[nH]8)C=C7)C=C6)cc4)cc3)nn2)cc1
REMARK SMILES IDX 25 1 24 2 22 3 23 4 21 6 18 7 19 8 96 9 20 10 95 11 17 12
REMARK SMILES IDX 15 13 16 14 98 15 97 16 14 17 13 18 12 19 9 20 10 21 100 22
REMARK SMILES IDX 11 23 99 24 8 25 1 26 2 27 3 28 7 29 4 30 6 32 5 33 26 34
REMARK SMILES IDX 27 35 28 36 29 37 30 38 31 40 32 41 33 42 94 43 34 44 93 45
REMARK SMILES IDX 35 46 36 47 37 48 87 49 38 50 92 51 86 52 88 53 39 54 91 55
REMARK SMILES IDX 85 56 84 57 40 59 72 60 52 61 71 62 53 63 56 64 70 65 89 66
REMARK SMILES IDX 54 67 55 68 69 70 90 71 57 72 41 73 42 74 50 75 43 76 49 77
REMARK SMILES IDX 51 78 48 79 44 80 45 81 46 82 47 83 73 84 74 85 82 86 75 87
REMARK SMILES IDX 81 88 83 89 80 90 76 91 77 92 78 93 79 94 58 95 59 96 67 97
REMARK SMILES IDX 60 98 66 99 68 100 65 101 61 102 62 103 63 104 64 105
REMARK H PARENT 24 5 3 31 29 39 88 58 56 69
REMARK Flexibility Score: inf
ROOT
ATOM      1  C   UNL A   1      43.055  22.346  25.893  1.00  0.00     0.116 C 
ENDROOT
BRANCH   1   2
ATOM      2  N   UNL A   1      43.082  21.072  26.586  1.00  0.00    -0.352 N 
ATOM      3  C   UNL A   1      42.126  20.123  26.841  1.00  0.00     0.251 C 
ATOM      4  O   UNL A   1      42.467  19.145  27.508  1.00  0.00    -0.269 OA
ATOM      5  H   UNL A   1      43.968  20.843  26.947  1.00  0.00     0.163 HD
BRANCH   3   6
ATOM      6  C   UNL A   1      40.729  20.184  26.316  1.00  0.00     0.039 A 
ATOM      7  C   UNL A   1      38.041  20.431  25.545  1.00  0.00     0.066 A 
ATOM      8  C   UNL A   1      38.731  21.551  26.013  1.00  0.00     0.029 A 
ATOM      9  C   UNL A   1      38.699  19.211  25.397  1.00  0.00     0.029 A 
ATOM     10  C   UNL A   1      40.059  21.415  26.430  1.00  0.00     0.016 A 
ATOM     11  C   UNL A   1      40.053  19.116  25.722  1.00  0.00     0.016 A 
BRANCH   7  12
ATOM     12  N   UNL A   1      36.685  20.536  25.188  1.00  0.00    -0.220 N 
ATOM     13  C   UNL A   1      34.637  21.200  24.840  1.00  0.00     0.120 A 
ATOM     14  C   UNL A   1      35.893  21.663  25.168  1.00  0.00     0.144 A 
ATOM     15  N   UNL A   1      34.718  19.846  24.633  1.00  0.00    -0.131 NA
ATOM     16  N   UNL A   1      35.969  19.461  24.806  1.00  0.00    -0.062 NA
BRANCH  13  17
ATOM     17  C   UNL A   1      33.361  21.937  24.584  1.00  0.00     0.289 C 
BRANCH  17  18
ATOM     18  O   UNL A   1      32.671  22.421  25.752  1.00  0.00    -0.487 OA
BRANCH  18  19
ATOM     19  C   UNL A   1      32.654  23.768  25.993  1.00  0.00     0.119 A 
ATOM     20  C   UNL A   1      32.271  26.542  26.202  1.00  0.00    -0.024 A 
ATOM     21  C   UNL A   1      31.234  25.666  26.526  1.00  0.00     0.012 A 
ATOM     22  C   UNL A   1      33.526  26.021  25.880  1.00  0.00     0.012 A 
ATOM     23  C   UNL A   1      31.425  24.283  26.413  1.00  0.00     0.047 A 
ATOM     24  C   UNL A   1      33.723  24.641  25.814  1.00  0.00     0.047 A 
BRANCH  20  25
ATOM     25  C   UNL A   1      32.063  27.992  26.187  1.00  0.00     0.029 C 
ATOM     26  O   UNL A   1      31.777  30.884  26.059  1.00  0.00    -0.268 OA
ATOM     27  C   UNL A   1      31.254  30.137  25.258  1.00  0.00     0.263 C 
ATOM     28  N   UNL A   1      30.494  30.541  24.193  1.00  0.00    -0.307 N 
ATOM     29  C   UNL A   1      31.347  28.651  25.265  1.00  0.00     0.080 C 
ATOM     30  C   UNL A   1      29.967  29.587  23.378  1.00  0.00     0.145 C 
ATOM     31  H   UNL A   1      30.332  31.497  24.021  1.00  0.00     0.171 HD
ATOM     32  S   UNL A   1      30.442  28.003  23.941  1.00  0.00    -0.055 SA
ATOM     33  S   UNL A   1      29.021  29.934  22.065  1.00  0.00    -0.052 S 
ENDBRANCH  20  25
ENDBRANCH  18  19
ENDBRANCH  17  18
ENDBRANCH  13  17
ENDBRANCH   7  12
ENDBRANCH   3   6
ENDBRANCH   1   2
BRANCH   1  34
ATOM     34  C   UNL A   1      43.116  23.512  26.891  1.00  0.00     0.023 C 
BRANCH  34  35
ATOM     35  C   UNL A   1      43.353  24.889  26.251  1.00  0.00     0.023 C 
BRANCH  35  36
ATOM     36  C   UNL A   1      42.231  25.896  26.477  1.00  0.00     0.116 C 
BRANCH  36  37
ATOM     37  N   UNL A   1      40.929  25.409  26.017  1.00  0.00    -0.352 N 
ATOM     38  C   UNL A   1      39.723  25.453  26.695  1.00  0.00     0.251 C 
ATOM     39  H   UNL A   1      40.910  25.002  25.120  1.00  0.00     0.163 HD
ATOM     40  O   UNL A   1      38.831  24.655  26.435  1.00  0.00    -0.269 OA
BRANCH  38  41
ATOM     41  C   UNL A   1      39.533  26.500  27.716  1.00  0.00     0.039 A 
ATOM     42  C   UNL A   1      39.348  26.203  29.067  1.00  0.00     0.014 A 
ATOM     43  C   UNL A   1      39.590  27.821  27.278  1.00  0.00     0.014 A 
ATOM     44  C   UNL A   1      39.303  27.258  29.980  1.00  0.00     0.010 A 
ATOM     45  C   UNL A   1      39.715  28.839  28.187  1.00  0.00     0.010 A 
ATOM     46  C   UNL A   1      39.511  28.576  29.534  1.00  0.00    -0.014 A 
BRANCH  46  47
ATOM     47  C   UNL A   1      39.678  29.688  30.467  1.00  0.00     0.031 A 
ATOM     48  C   UNL A   1      38.430  30.460  30.699  1.00  0.00     0.074 A 
ATOM     49  C   UNL A   1      40.786  29.874  31.222  1.00  0.00     0.049 A 
ATOM     50  N   UNL A   1      38.159  31.638  30.248  1.00  0.00    -0.248 NA
ATOM     51  C   UNL A   1      37.277  29.792  31.326  1.00  0.00     0.031 C 
ATOM     52  C   UNL A   1      41.994  29.046  31.298  1.00  0.00     0.029 A 
ATOM     53  N   UNL A   1      41.028  30.819  32.172  1.00  0.00    -0.354 N 
ATOM     54  C   UNL A   1      36.916  31.973  30.771  1.00  0.00     0.074 A 
ATOM     55  C   UNL A   1      36.336  30.734  31.213  1.00  0.00     0.031 C 
ATOM     56  C   UNL A   1      42.719  29.388  32.390  1.00  0.00     0.029 A 
ATOM     57  C   UNL A   1      42.119  30.560  33.004  1.00  0.00     0.049 A 
ATOM     58  H   UNL A   1      40.474  31.628  32.264  1.00  0.00     0.167 HD
ATOM     59  C   UNL A   1      36.603  33.275  31.026  1.00  0.00     0.034 A 
ATOM     60  C   UNL A   1      42.502  31.260  34.112  1.00  0.00     0.034 A 
ATOM     61  C   UNL A   1      37.553  34.162  30.384  1.00  0.00     0.049 A 
ATOM     62  C   UNL A   1      41.925  32.620  33.960  1.00  0.00     0.074 A 
ATOM     63  C   UNL A   1      37.971  34.343  29.078  1.00  0.00     0.029 A 
ATOM     64  N   UNL A   1      38.540  34.727  31.165  1.00  0.00    -0.354 N 
ATOM     65  N   UNL A   1      42.299  33.440  33.015  1.00  0.00    -0.248 NA
ATOM     66  C   UNL A   1      40.587  32.854  34.486  1.00  0.00     0.031 C 
ATOM     67  C   UNL A   1      39.387  34.496  29.170  1.00  0.00     0.029 A 
ATOM     68  C   UNL A   1      39.739  34.523  30.522  1.00  0.00     0.049 A 
ATOM     69  H   UNL A   1      38.411  35.190  32.024  1.00  0.00     0.167 HD
ATOM     70  C   UNL A   1      41.121  33.971  32.516  1.00  0.00     0.074 A 
ATOM     71  C   UNL A   1      40.104  33.646  33.520  1.00  0.00     0.031 C 
ATOM     72  C   UNL A   1      41.008  34.353  31.207  1.00  0.00     0.034 A 
BRANCH  59  73
ATOM     73  C   UNL A   1      35.708  33.755  32.150  1.00  0.00     0.023 A 
ATOM     74  C   UNL A   1      34.752  34.737  31.822  1.00  0.00     0.031 A 
ATOM     75  C   UNL A   1      35.923  33.549  33.530  1.00  0.00     0.131 A 
ATOM     76  C   UNL A   1      34.172  35.543  32.814  1.00  0.00     0.055 A 
ATOM     77  C   UNL A   1      35.287  34.307  34.519  1.00  0.00     0.041 A 
ATOM     78  F   UNL A   1      36.816  32.676  34.006  1.00  0.00    -0.206 F 
ATOM     79  C   UNL A   1      34.435  35.338  34.163  1.00  0.00     0.022 A 
BRANCH  76  80
ATOM     80  S   UNL A   1      33.221  36.990  32.285  1.00  0.00     0.124 S 
ATOM     81  O   UNL A   1      33.102  36.751  30.851  1.00  0.00    -0.237 OA
ATOM     82  O   UNL A   1      31.998  36.847  33.068  1.00  0.00    -0.237 OA
ATOM     83  O   UNL A   1      34.077  38.112  32.664  1.00  0.00    -0.744 OA
ENDBRANCH  76  80
ENDBRANCH  59  73
BRANCH  60  84
ATOM     84  C   UNL A   1      43.059  30.740  35.402  1.00  0.00     0.023 A 
ATOM     85  C   UNL A   1      43.050  29.370  35.767  1.00  0.00     0.031 A 
ATOM     86  C   UNL A   1      43.861  31.590  36.197  1.00  0.00     0.131 A 
ATOM     87  C   UNL A   1      43.822  28.911  36.869  1.00  0.00     0.055 A 
ATOM     88  C   UNL A   1      44.626  31.130  37.274  1.00  0.00     0.041 A 
ATOM     89  F   UNL A   1      44.001  32.891  35.900  1.00  0.00    -0.206 F 
ATOM     90  C   UNL A   1      44.620  29.787  37.607  1.00  0.00     0.022 A 
BRANCH  87  91
ATOM     91  S   UNL A   1      43.882  27.138  37.316  1.00  0.00     0.124 S 
ATOM     92  O   UNL A   1      44.581  27.164  38.595  1.00  0.00    -0.237 OA
ATOM     93  O   UNL A   1      42.471  26.772  37.354  1.00  0.00    -0.237 OA
ATOM     94  O   UNL A   1      44.638  26.533  36.218  1.00  0.00    -0.744 OA
ENDBRANCH  87  91
ENDBRANCH  60  84
BRANCH  72  95
ATOM     95  C   UNL A   1      42.266  34.419  30.356  1.00  0.00     0.023 A 
ATOM     96  C   UNL A   1      43.165  35.512  30.305  1.00  0.00     0.031 A 
ATOM     97  C   UNL A   1      42.628  33.254  29.657  1.00  0.00     0.131 A 
ATOM     98  C   UNL A   1      44.359  35.414  29.561  1.00  0.00     0.055 A 
ATOM     99  C   UNL A   1      43.822  33.149  28.946  1.00  0.00     0.041 A 
ATOM    100  F   UNL A   1      41.834  32.170  29.683  1.00  0.00    -0.206 F 
ATOM    101  C   UNL A   1      44.690  34.233  28.889  1.00  0.00     0.022 A 
BRANCH  98 102
ATOM    102  S   UNL A   1      45.501  36.831  29.430  1.00  0.00     0.124 S 
ATOM    103  O   UNL A   1      46.099  36.667  28.109  1.00  0.00    -0.237 OA
ATOM    104  O   UNL A   1      44.610  37.976  29.590  1.00  0.00    -0.237 OA
ATOM    105  O   UNL A   1      46.429  36.624  30.545  1.00  0.00    -0.744 OA
ENDBRANCH  98 102
ENDBRANCH  72  95
ENDBRANCH  46  47
ENDBRANCH  38  41
ENDBRANCH  36  37
ENDBRANCH  35  36
ENDBRANCH  34  35
ENDBRANCH   1  34
TORSDOF 19
ENDMDL
MODEL 3
REMARK VINA RESULT:     -12.7      4.033     11.221
REMARK SMILES O=C1NC(=S)S/C1=C\c1ccc(OCc2cn(-c3ccc(C(=O)NCCCCNC(=O)c4ccc(-c5c6nc(c(-c7cc(S(=O)(=O)[O-])ccc7F)c7ccc([nH]7)c(-c7cc(S(=O)(=O)[O-])ccc7F)c7nc(c(-c8cc(S(=O)(=O)[O-])ccc8F)c8ccc5[nH]8)C=C7)C=C6)cc4)cc3)nn2)cc1
REMARK SMILES IDX 25 1 24 2 22 3 23 4 21 6 18 7 19 8 96 9 20 10 95 11 17 12
REMARK SMILES IDX 15 13 16 14 98 15 97 16 14 17 13 18 12 19 9 20 10 21 100 22
REMARK SMILES IDX 11 23 99 24 8 25 1 26 2 27 3 28 7 29 4 30 6 32 5 33 26 34
REMARK SMILES IDX 27 35 28 36 29 37 30 38 31 40 32 41 33 42 94 43 34 44 93 45
REMARK SMILES IDX 35 46 36 47 37 48 87 49 38 50 92 51 86 52 88 53 39 54 91 55
REMARK SMILES IDX 85 56 84 57 40 59 72 60 52 61 71 62 53 63 56 64 70 65 89 66
REMARK SMILES IDX 54 67 55 68 69 70 90 71 57 72 41 73 42 74 50 75 43 76 49 77
REMARK SMILES IDX 51 78 48 79 44 80 45 81 46 82 47 83 73 84 74 85 82 86 75 87
REMARK SMILES IDX 81 88 83 89 80 90 76 91 77 92 78 93 79 94 58 95 59 96 67 97
REMARK SMILES IDX 60 98 66 99 68 100 65 101 61 102 62 103 63 104 64 105
REMARK H PARENT 24 5 3 31 29 39 88 58 56 69
REMARK Flexibility Score: inf
ROOT
ATOM      1  C   UNL A   1      44.301  27.225  27.284  1.00  0.00     0.116 C 
ENDROOT
BRANCH   1   2
ATOM      2  N   UNL A   1      45.189  26.556  28.216  1.00  0.00    -0.352 N 
ATOM      3  C   UNL A   1      45.244  25.276  28.705  1.00  0.00     0.251 C 
ATOM      4  O   UNL A   1      46.119  25.028  29.536  1.00  0.00    -0.269 OA
ATOM      5  H   UNL A   1      45.897  27.142  28.570  1.00  0.00     0.163 HD
BRANCH   3   6
ATOM      6  C   UNL A   1      44.348  24.171  28.251  1.00  0.00     0.039 A 
ATOM      7  C   UNL A   1      42.734  22.154  27.153  1.00  0.00     0.066 A 
ATOM      8  C   UNL A   1      44.056  22.291  26.724  1.00  0.00     0.029 A 
ATOM      9  C   UNL A   1      42.236  22.969  28.169  1.00  0.00     0.029 A 
ATOM     10  C   UNL A   1      44.844  23.321  27.247  1.00  0.00     0.016 A 
ATOM     11  C   UNL A   1      43.067  23.926  28.752  1.00  0.00     0.016 A 
BRANCH   7  12
ATOM     12  N   UNL A   1      41.907  21.168  26.586  1.00  0.00    -0.220 N 
ATOM     13  C   UNL A   1      40.248  19.869  26.022  1.00  0.00     0.120 A 
ATOM     14  C   UNL A   1      40.537  21.052  26.668  1.00  0.00     0.144 A 
ATOM     15  N   UNL A   1      41.421  19.342  25.544  1.00  0.00    -0.131 NA
ATOM     16  N   UNL A   1      42.413  20.156  25.854  1.00  0.00    -0.062 NA
BRANCH  13  17
ATOM     17  C   UNL A   1      38.936  19.226  25.705  1.00  0.00     0.289 C 
BRANCH  17  18
ATOM     18  O   UNL A   1      38.203  19.803  24.607  1.00  0.00    -0.487 OA
BRANCH  18  19
ATOM     19  C   UNL A   1      36.979  20.360  24.856  1.00  0.00     0.119 A 
ATOM     20  C   UNL A   1      34.618  21.561  25.788  1.00  0.00    -0.024 A 
ATOM     21  C   UNL A   1      35.832  22.244  25.876  1.00  0.00     0.012 A 
ATOM     22  C   UNL A   1      34.576  20.328  25.136  1.00  0.00     0.012 A 
ATOM     23  C   UNL A   1      37.009  21.639  25.418  1.00  0.00     0.047 A 
ATOM     24  C   UNL A   1      35.746  19.750  24.641  1.00  0.00     0.047 A 
BRANCH  20  25
ATOM     25  C   UNL A   1      33.394  22.113  26.374  1.00  0.00     0.029 C 
ATOM     26  O   UNL A   1      31.051  23.329  27.598  1.00  0.00    -0.268 OA
ATOM     27  C   UNL A   1      31.435  23.619  26.484  1.00  0.00     0.263 C 
ATOM     28  N   UNL A   1      30.846  24.553  25.674  1.00  0.00    -0.307 N 
ATOM     29  C   UNL A   1      32.615  23.034  25.789  1.00  0.00     0.080 C 
ATOM     30  C   UNL A   1      31.386  24.772  24.444  1.00  0.00     0.145 C 
ATOM     31  H   UNL A   1      30.054  25.055  25.973  1.00  0.00     0.171 HD
ATOM     32  S   UNL A   1      32.778  23.740  24.219  1.00  0.00    -0.055 SA
ATOM     33  S   UNL A   1      30.769  25.861  23.361  1.00  0.00    -0.052 S 
ENDBRANCH  20  25
ENDBRANCH  18  19
ENDBRANCH  17  18
ENDBRANCH  13  17
ENDBRANCH   7  12
ENDBRANCH   3   6
ENDBRANCH   1   2
BRANCH   1  34
ATOM     34  C   UNL A   1      44.510  26.699  25.857  1.00  0.00     0.023 C 
BRANCH  34  35
ATOM     35  C   UNL A   1      43.304  25.950  25.270  1.00  0.00     0.023 C 
BRANCH  35  36
ATOM     36  C   UNL A   1      41.966  26.658  25.452  1.00  0.00     0.116 C 
BRANCH  36  37
ATOM     37  N   UNL A   1      40.828  25.737  25.426  1.00  0.00    -0.352 N 
ATOM     38  C   UNL A   1      39.982  25.410  26.473  1.00  0.00     0.251 C 
ATOM     39  H   UNL A   1      40.643  25.300  24.564  1.00  0.00     0.163 HD
ATOM     40  O   UNL A   1      39.376  24.346  26.476  1.00  0.00    -0.269 OA
BRANCH  38  41
ATOM     41  C   UNL A   1      39.811  26.387  27.565  1.00  0.00     0.039 A 
ATOM     42  C   UNL A   1      39.788  26.010  28.908  1.00  0.00     0.014 A 
ATOM     43  C   UNL A   1      39.715  27.727  27.198  1.00  0.00     0.014 A 
ATOM     44  C   UNL A   1      39.750  27.011  29.880  1.00  0.00     0.010 A 
ATOM     45  C   UNL A   1      39.847  28.707  28.148  1.00  0.00     0.010 A 
ATOM     46  C   UNL A   1      39.803  28.363  29.491  1.00  0.00    -0.014 A 
BRANCH  46  47
ATOM     47  C   UNL A   1      39.972  29.438  30.464  1.00  0.00     0.031 A 
ATOM     48  C   UNL A   1      38.730  30.218  30.709  1.00  0.00     0.074 A 
ATOM     49  C   UNL A   1      41.072  29.584  31.239  1.00  0.00     0.049 A 
ATOM     50  N   UNL A   1      38.479  31.415  30.297  1.00  0.00    -0.248 NA
ATOM     51  C   UNL A   1      37.561  29.543  31.297  1.00  0.00     0.031 C 
ATOM     52  C   UNL A   1      42.269  28.739  31.300  1.00  0.00     0.029 A 
ATOM     53  N   UNL A   1      41.314  30.492  32.225  1.00  0.00    -0.354 N 
ATOM     54  C   UNL A   1      37.234  31.747  30.815  1.00  0.00     0.074 A 
ATOM     55  C   UNL A   1      36.633  30.500  31.206  1.00  0.00     0.031 C 
ATOM     56  C   UNL A   1      42.984  29.033  32.412  1.00  0.00     0.029 A 
ATOM     57  C   UNL A   1      42.391  30.190  33.060  1.00  0.00     0.049 A 
ATOM     58  H   UNL A   1      40.768  31.304  32.339  1.00  0.00     0.167 HD
ATOM     59  C   UNL A   1      36.933  33.042  31.113  1.00  0.00     0.034 A 
ATOM     60  C   UNL A   1      42.768  30.845  34.197  1.00  0.00     0.034 A 
ATOM     61  C   UNL A   1      37.903  33.940  30.514  1.00  0.00     0.049 A 
ATOM     62  C   UNL A   1      42.210  32.217  34.086  1.00  0.00     0.074 A 
ATOM     63  C   UNL A   1      38.339  34.161  29.221  1.00  0.00     0.029 A 
ATOM     64  N   UNL A   1      38.886  34.464  31.327  1.00  0.00    -0.354 N 
ATOM     65  N   UNL A   1      42.606  33.065  33.176  1.00  0.00    -0.248 NA
ATOM     66  C   UNL A   1      40.868  32.450  34.604  1.00  0.00     0.031 C 
ATOM     67  C   UNL A   1      39.756  34.293  29.336  1.00  0.00     0.029 A 
ATOM     68  C   UNL A   1      40.091  34.268  30.691  1.00  0.00     0.049 A 
ATOM     69  H   UNL A   1      38.752  34.899  32.200  1.00  0.00     0.167 HD
ATOM     70  C   UNL A   1      41.440  33.628  32.681  1.00  0.00     0.074 A 
ATOM     71  C   UNL A   1      40.407  33.281  33.661  1.00  0.00     0.031 C 
ATOM     72  C   UNL A   1      41.348  34.058  31.385  1.00  0.00     0.034 A 
BRANCH  59  73
ATOM     73  C   UNL A   1      36.031  33.494  32.242  1.00  0.00     0.023 A 
ATOM     74  C   UNL A   1      34.886  34.231  31.880  1.00  0.00     0.031 A 
ATOM     75  C   UNL A   1      36.362  33.515  33.615  1.00  0.00     0.131 A 
ATOM     76  C   UNL A   1      34.220  35.040  32.815  1.00  0.00     0.055 A 
ATOM     77  C   UNL A   1      35.651  34.266  34.556  1.00  0.00     0.041 A 
ATOM     78  F   UNL A   1      37.433  32.891  34.115  1.00  0.00    -0.206 F 
ATOM     79  C   UNL A   1      34.597  35.067  34.152  1.00  0.00     0.022 A 
BRANCH  76  80
ATOM     80  S   UNL A   1      32.979  36.206  32.199  1.00  0.00     0.124 S 
ATOM     81  O   UNL A   1      31.740  35.500  32.507  1.00  0.00    -0.237 OA
ATOM     82  O   UNL A   1      33.262  37.394  32.997  1.00  0.00    -0.237 OA
ATOM     83  O   UNL A   1      33.299  36.319  30.777  1.00  0.00    -0.744 OA
ENDBRANCH  76  80
ENDBRANCH  59  73
BRANCH  60  84
ATOM     84  C   UNL A   1      43.302  30.274  35.475  1.00  0.00     0.023 A 
ATOM     85  C   UNL A   1      43.058  28.944  35.903  1.00  0.00     0.031 A 
ATOM     86  C   UNL A   1      44.304  30.980  36.179  1.00  0.00     0.131 A 
ATOM     87  C   UNL A   1      43.802  28.384  36.978  1.00  0.00     0.055 A 
ATOM     88  C   UNL A   1      45.039  30.420  37.228  1.00  0.00     0.041 A 
ATOM     89  F   UNL A   1      44.667  32.218  35.813  1.00  0.00    -0.206 F 
ATOM     90  C   UNL A   1      44.799  29.115  37.625  1.00  0.00     0.022 A 
BRANCH  87  91
ATOM     91  S   UNL A   1      43.554  26.650  37.504  1.00  0.00     0.124 S 
ATOM     92  O   UNL A   1      42.106  26.501  37.410  1.00  0.00    -0.237 OA
ATOM     93  O   UNL A   1      44.348  25.905  36.534  1.00  0.00    -0.237 OA
ATOM     94  O   UNL A   1      44.083  26.627  38.870  1.00  0.00    -0.744 OA
ENDBRANCH  87  91
ENDBRANCH  60  84
BRANCH  72  95
ATOM     95  C   UNL A   1      42.618  34.138  30.553  1.00  0.00     0.023 A 
ATOM     96  C   UNL A   1      43.043  33.168  29.612  1.00  0.00     0.031 A 
ATOM     97  C   UNL A   1      43.367  35.325  30.638  1.00  0.00     0.131 A 
ATOM     98  C   UNL A   1      44.185  33.404  28.818  1.00  0.00     0.055 A 
ATOM     99  C   UNL A   1      44.479  35.567  29.833  1.00  0.00     0.041 A 
ATOM    100  F   UNL A   1      43.006  36.297  31.493  1.00  0.00    -0.206 F 
ATOM    101  C   UNL A   1      44.897  34.603  28.923  1.00  0.00     0.022 A 
BRANCH  98 102
ATOM    102  S   UNL A   1      44.788  32.143  27.645  1.00  0.00     0.124 S 
ATOM    103  O   UNL A   1      44.777  32.837  26.361  1.00  0.00    -0.237 OA
ATOM    104  O   UNL A   1      46.105  31.811  28.179  1.00  0.00    -0.237 OA
ATOM    105  O   UNL A   1      43.798  31.069  27.762  1.00  0.00    -0.744 OA
ENDBRANCH  98 102
ENDBRANCH  72  95
ENDBRANCH  46  47
ENDBRANCH  38  41
ENDBRANCH  36  37
ENDBRANCH  35  36
ENDBRANCH  34  35
ENDBRANCH   1  34
TORSDOF 19
ENDMDL
