MODEL 1
REMARK VINA RESULT:     -11.9      0.000      0.000
REMARK SMILES CN(Cc1ccc(C(=O)NCCCCNC(=O)c2ccc(-c3c4nc(c(-c5cc(S(=O)(=O)[O-])ccc5F)c5ccc([nH]5)c(-c5cc(S(=O)(=O)[O-])ccc5F)c5nc(c(-c6cc(S(=O)(=O)[O-])ccc6F)c6ccc3[nH]6)C=C5)C=C4)cc2)cc1)c1ccccc1N
REMARK SMILES IDX 12 1 11 2 10 3 8 4 9 5 7 7 4 8 5 9 82 10 6 11 81 12 3 13
REMARK SMILES IDX 2 14 1 15 83 16 84 17 88 18 85 19 87 20 86 21 89 22 13 25
REMARK SMILES IDX 14 26 15 27 16 28 17 30 18 31 19 32 80 33 20 34 79 35 21 36
REMARK SMILES IDX 22 37 23 38 73 39 24 40 78 41 72 42 74 43 25 44 77 45 71 46
REMARK SMILES IDX 70 47 26 49 58 50 38 51 57 52 39 53 42 54 56 55 75 56 40 57
REMARK SMILES IDX 41 58 55 60 76 61 43 62 27 63 28 64 36 65 29 66 35 67 37 68
REMARK SMILES IDX 34 69 30 70 31 71 32 72 33 73 59 74 60 75 68 76 61 77 67 78
REMARK SMILES IDX 69 79 66 80 62 81 63 82 64 83 65 84 44 85 45 86 53 87 46 88
REMARK SMILES IDX 52 89 54 90 51 91 47 92 48 93 49 94 50 95
REMARK H PARENT 10 6 89 23 89 24 15 29 74 48 42 59
REMARK Flexibility Score: inf
ROOT
ATOM      1  C   UNL A   1      32.092  28.997  24.671  1.00  0.00     0.023 C 
ENDROOT
BRANCH   1   2
ATOM      2  C   UNL A   1      31.473  28.653  23.315  1.00  0.00     0.116 C 
BRANCH   2   3
ATOM      3  N   UNL A   1      30.109  28.209  23.490  1.00  0.00    -0.352 N 
ATOM      4  C   UNL A   1      29.563  26.997  23.828  1.00  0.00     0.251 C 
ATOM      5  O   UNL A   1      28.333  26.920  23.805  1.00  0.00    -0.269 OA
ATOM      6  H   UNL A   1      29.440  28.915  23.336  1.00  0.00     0.163 HD
BRANCH   4   7
ATOM      7  C   UNL A   1      30.351  25.814  24.295  1.00  0.00     0.039 A 
ATOM      8  C   UNL A   1      31.431  23.299  25.052  1.00  0.00    -0.029 A 
ATOM      9  C   UNL A   1      31.108  23.568  23.718  1.00  0.00     0.006 A 
ATOM     10  C   UNL A   1      31.366  24.361  25.962  1.00  0.00     0.006 A 
ATOM     11  C   UNL A   1      30.550  24.796  23.352  1.00  0.00     0.014 A 
ATOM     12  C   UNL A   1      30.859  25.609  25.579  1.00  0.00     0.014 A 
BRANCH   8  13
ATOM     13  C   UNL A   1      31.723  21.910  25.597  1.00  0.00     0.151 C 
BRANCH  13  14
ATOM     14  N   UNL A   1      32.947  21.262  25.123  1.00  0.00    -0.369 N 
ATOM     15  C   UNL A   1      32.988  19.800  25.194  1.00  0.00     0.144 C 
BRANCH  14  16
ATOM     16  C   UNL A   1      34.167  21.948  25.031  1.00  0.00     0.060 A 
ATOM     17  C   UNL A   1      34.685  22.371  23.791  1.00  0.00     0.028 A 
ATOM     18  C   UNL A   1      34.938  22.277  26.176  1.00  0.00     0.055 A 
ATOM     19  C   UNL A   1      35.779  23.237  23.694  1.00  0.00     0.002 A 
ATOM     20  C   UNL A   1      36.006  23.183  26.078  1.00  0.00     0.027 A 
ATOM     21  C   UNL A   1      36.419  23.672  24.842  1.00  0.00     0.002 A 
BRANCH  18  22
ATOM     22  N   UNL A   1      34.610  21.772  27.442  1.00  0.00    -0.397 N 
ATOM     23  H   UNL A   1      33.739  21.337  27.589  1.00  0.00     0.156 HD
ATOM     24  H   UNL A   1      35.251  21.851  28.185  1.00  0.00     0.156 HD
ENDBRANCH  18  22
ENDBRANCH  14  16
ENDBRANCH  13  14
ENDBRANCH   8  13
ENDBRANCH   4   7
ENDBRANCH   2   3
ENDBRANCH   1   2
BRANCH   1  25
ATOM     25  C   UNL A   1      31.398  30.158  25.388  1.00  0.00     0.023 C 
BRANCH  25  26
ATOM     26  C   UNL A   1      32.063  30.589  26.690  1.00  0.00     0.116 C 
BRANCH  26  27
ATOM     27  N   UNL A   1      32.024  32.028  26.900  1.00  0.00    -0.352 N 
ATOM     28  C   UNL A   1      32.950  32.818  27.535  1.00  0.00     0.251 C 
ATOM     29  H   UNL A   1      31.234  32.493  26.542  1.00  0.00     0.163 HD
ATOM     30  O   UNL A   1      32.715  34.007  27.731  1.00  0.00    -0.269 OA
BRANCH  28  31
ATOM     31  C   UNL A   1      34.202  32.204  28.018  1.00  0.00     0.039 A 
ATOM     32  C   UNL A   1      35.305  33.026  28.256  1.00  0.00     0.014 A 
ATOM     33  C   UNL A   1      34.263  30.834  28.288  1.00  0.00     0.014 A 
ATOM     34  C   UNL A   1      36.453  32.482  28.833  1.00  0.00     0.010 A 
ATOM     35  C   UNL A   1      35.384  30.308  28.921  1.00  0.00     0.010 A 
ATOM     36  C   UNL A   1      36.487  31.128  29.205  1.00  0.00    -0.014 A 
BRANCH  36  37
ATOM     37  C   UNL A   1      37.667  30.551  29.897  1.00  0.00     0.031 A 
ATOM     38  C   UNL A   1      37.972  30.946  31.315  1.00  0.00     0.074 A 
ATOM     39  C   UNL A   1      38.495  29.726  29.224  1.00  0.00     0.049 A 
ATOM     40  N   UNL A   1      38.995  30.623  32.062  1.00  0.00    -0.248 NA
ATOM     41  C   UNL A   1      37.009  31.846  31.968  1.00  0.00     0.031 C 
ATOM     42  C   UNL A   1      38.322  29.306  27.831  1.00  0.00     0.029 A 
ATOM     43  N   UNL A   1      39.654  29.103  29.615  1.00  0.00    -0.354 N 
ATOM     44  C   UNL A   1      38.806  31.286  33.270  1.00  0.00     0.074 A 
ATOM     45  C   UNL A   1      37.601  32.076  33.131  1.00  0.00     0.031 C 
ATOM     46  C   UNL A   1      39.325  28.480  27.492  1.00  0.00     0.029 A 
ATOM     47  C   UNL A   1      40.236  28.346  28.624  1.00  0.00     0.049 A 
ATOM     48  H   UNL A   1      40.031  29.189  30.519  1.00  0.00     0.167 HD
ATOM     49  C   UNL A   1      39.557  31.222  34.397  1.00  0.00     0.034 A 
ATOM     50  C   UNL A   1      41.382  27.636  28.625  1.00  0.00     0.034 A 
ATOM     51  C   UNL A   1      40.749  30.420  34.521  1.00  0.00     0.049 A 
ATOM     52  C   UNL A   1      42.210  27.600  29.886  1.00  0.00     0.074 A 
ATOM     53  C   UNL A   1      41.560  30.247  35.629  1.00  0.00     0.029 A 
ATOM     54  N   UNL A   1      41.304  29.657  33.501  1.00  0.00    -0.354 N 
ATOM     55  N   UNL A   1      41.993  28.197  31.035  1.00  0.00    -0.248 NA
ATOM     56  C   UNL A   1      43.432  26.785  29.853  1.00  0.00     0.031 C 
ATOM     57  C   UNL A   1      42.635  29.429  35.263  1.00  0.00     0.029 A 
ATOM     58  C   UNL A   1      42.458  29.034  33.947  1.00  0.00     0.049 A 
ATOM     59  H   UNL A   1      40.932  29.574  32.594  1.00  0.00     0.167 HD
ATOM     60  C   UNL A   1      43.033  27.801  31.870  1.00  0.00     0.074 A 
ATOM     61  C   UNL A   1      43.867  26.904  31.098  1.00  0.00     0.031 C 
ATOM     62  C   UNL A   1      43.279  28.144  33.160  1.00  0.00     0.034 A 
BRANCH  49  63
ATOM     63  C   UNL A   1      39.115  32.057  35.573  1.00  0.00     0.023 A 
ATOM     64  C   UNL A   1      38.478  31.480  36.688  1.00  0.00     0.031 A 
ATOM     65  C   UNL A   1      39.316  33.448  35.578  1.00  0.00     0.131 A 
ATOM     66  C   UNL A   1      38.007  32.296  37.725  1.00  0.00     0.055 A 
ATOM     67  C   UNL A   1      38.914  34.246  36.650  1.00  0.00     0.041 A 
ATOM     68  F   UNL A   1      39.900  34.057  34.534  1.00  0.00    -0.206 F 
ATOM     69  C   UNL A   1      38.243  33.673  37.727  1.00  0.00     0.022 A 
BRANCH  66  70
ATOM     70  S   UNL A   1      36.970  31.549  39.012  1.00  0.00     0.124 S 
ATOM     71  O   UNL A   1      37.850  31.621  40.177  1.00  0.00    -0.237 OA
ATOM     72  O   UNL A   1      35.809  32.430  39.034  1.00  0.00    -0.237 OA
ATOM     73  O   UNL A   1      36.720  30.199  38.511  1.00  0.00    -0.744 OA
ENDBRANCH  66  70
ENDBRANCH  49  63
BRANCH  50  74
ATOM     74  C   UNL A   1      41.831  26.912  27.401  1.00  0.00     0.023 A 
ATOM     75  C   UNL A   1      41.689  25.520  27.294  1.00  0.00     0.031 A 
ATOM     76  C   UNL A   1      42.466  27.593  26.347  1.00  0.00     0.131 A 
ATOM     77  C   UNL A   1      42.225  24.844  26.187  1.00  0.00     0.055 A 
ATOM     78  C   UNL A   1      42.947  26.923  25.221  1.00  0.00     0.041 A 
ATOM     79  F   UNL A   1      42.623  28.926  26.396  1.00  0.00    -0.206 F 
ATOM     80  C   UNL A   1      42.843  25.538  25.144  1.00  0.00     0.022 A 
BRANCH  77  81
ATOM     81  S   UNL A   1      42.196  23.031  26.179  1.00  0.00     0.124 S 
ATOM     82  O   UNL A   1      42.923  22.717  27.404  1.00  0.00    -0.237 OA
ATOM     83  O   UNL A   1      40.763  22.752  26.195  1.00  0.00    -0.237 OA
ATOM     84  O   UNL A   1      42.883  22.684  24.937  1.00  0.00    -0.744 OA
ENDBRANCH  77  81
ENDBRANCH  50  74
BRANCH  62  85
ATOM     85  C   UNL A   1      44.473  27.503  33.823  1.00  0.00     0.023 A 
ATOM     86  C   UNL A   1      44.342  26.369  34.645  1.00  0.00     0.031 A 
ATOM     87  C   UNL A   1      45.757  28.044  33.639  1.00  0.00     0.131 A 
ATOM     88  C   UNL A   1      45.469  25.847  35.295  1.00  0.00     0.055 A 
ATOM     89  C   UNL A   1      46.883  27.484  34.242  1.00  0.00     0.041 A 
ATOM     90  F   UNL A   1      45.938  29.127  32.865  1.00  0.00    -0.206 F 
ATOM     91  C   UNL A   1      46.741  26.386  35.087  1.00  0.00     0.022 A 
BRANCH  88  92
ATOM     92  S   UNL A   1      45.239  24.500  36.488  1.00  0.00     0.124 S 
ATOM     93  O   UNL A   1      44.095  24.971  37.262  1.00  0.00    -0.237 OA
ATOM     94  O   UNL A   1      44.991  23.353  35.620  1.00  0.00    -0.237 OA
ATOM     95  O   UNL A   1      46.507  24.463  37.214  1.00  0.00    -0.744 OA
ENDBRANCH  88  92
ENDBRANCH  62  85
ENDBRANCH  36  37
ENDBRANCH  28  31
ENDBRANCH  26  27
ENDBRANCH  25  26
ENDBRANCH   1  25
TORSDOF 18
ENDMDL
MODEL 2
REMARK VINA RESULT:     -11.9      2.172      8.059
REMARK SMILES CN(Cc1ccc(C(=O)NCCCCNC(=O)c2ccc(-c3c4nc(c(-c5cc(S(=O)(=O)[O-])ccc5F)c5ccc([nH]5)c(-c5cc(S(=O)(=O)[O-])ccc5F)c5nc(c(-c6cc(S(=O)(=O)[O-])ccc6F)c6ccc3[nH]6)C=C5)C=C4)cc2)cc1)c1ccccc1N
REMARK SMILES IDX 12 1 11 2 10 3 8 4 9 5 7 7 4 8 5 9 82 10 6 11 81 12 3 13
REMARK SMILES IDX 2 14 1 15 83 16 84 17 88 18 85 19 87 20 86 21 89 22 13 25
REMARK SMILES IDX 14 26 15 27 16 28 17 30 18 31 19 32 80 33 20 34 79 35 21 36
REMARK SMILES IDX 22 37 23 38 73 39 24 40 78 41 72 42 74 43 25 44 77 45 71 46
REMARK SMILES IDX 70 47 26 49 58 50 38 51 57 52 39 53 42 54 56 55 75 56 40 57
REMARK SMILES IDX 41 58 55 60 76 61 43 62 27 63 28 64 36 65 29 66 35 67 37 68
REMARK SMILES IDX 34 69 30 70 31 71 32 72 33 73 59 74 60 75 68 76 61 77 67 78
REMARK SMILES IDX 69 79 66 80 62 81 63 82 64 83 65 84 44 85 45 86 53 87 46 88
REMARK SMILES IDX 52 89 54 90 51 91 47 92 48 93 49 94 50 95
REMARK H PARENT 10 6 89 23 89 24 15 29 74 48 42 59
REMARK Flexibility Score: inf
ROOT
ATOM      1  C   UNL A   1      32.351  30.127  26.232  1.00  0.00     0.023 C 
ENDROOT
BRANCH   1   2
ATOM      2  C   UNL A   1      31.347  29.509  25.257  1.00  0.00     0.116 C 
BRANCH   2   3
ATOM      3  N   UNL A   1      32.042  28.937  24.125  1.00  0.00    -0.352 N 
ATOM      4  C   UNL A   1      32.712  27.755  23.947  1.00  0.00     0.251 C 
ATOM      5  O   UNL A   1      33.285  27.602  22.867  1.00  0.00    -0.269 OA
ATOM      6  H   UNL A   1      32.032  29.510  23.324  1.00  0.00     0.163 HD
BRANCH   4   7
ATOM      7  C   UNL A   1      32.719  26.629  24.934  1.00  0.00     0.039 A 
ATOM      8  C   UNL A   1      32.966  24.230  26.433  1.00  0.00    -0.029 A 
ATOM      9  C   UNL A   1      34.100  24.936  26.018  1.00  0.00     0.006 A 
ATOM     10  C   UNL A   1      31.717  24.833  26.233  1.00  0.00     0.006 A 
ATOM     11  C   UNL A   1      33.976  26.101  25.257  1.00  0.00     0.014 A 
ATOM     12  C   UNL A   1      31.601  26.031  25.517  1.00  0.00     0.014 A 
BRANCH   8  13
ATOM     13  C   UNL A   1      32.993  22.806  26.965  1.00  0.00     0.151 C 
BRANCH  13  14
ATOM     14  N   UNL A   1      33.659  21.805  26.130  1.00  0.00    -0.369 N 
ATOM     15  C   UNL A   1      35.119  21.747  26.211  1.00  0.00     0.144 C 
BRANCH  14  16
ATOM     16  C   UNL A   1      33.042  21.247  25.000  1.00  0.00     0.060 A 
ATOM     17  C   UNL A   1      32.708  22.029  23.878  1.00  0.00     0.028 A 
ATOM     18  C   UNL A   1      32.739  19.863  24.911  1.00  0.00     0.055 A 
ATOM     19  C   UNL A   1      32.296  21.464  22.667  1.00  0.00     0.002 A 
ATOM     20  C   UNL A   1      32.371  19.294  23.681  1.00  0.00     0.027 A 
ATOM     21  C   UNL A   1      32.161  20.089  22.558  1.00  0.00     0.002 A 
BRANCH  18  22
ATOM     22  N   UNL A   1      32.875  19.016  26.020  1.00  0.00    -0.397 N 
ATOM     23  H   UNL A   1      33.567  19.197  26.696  1.00  0.00     0.156 HD
ATOM     24  H   UNL A   1      32.277  18.240  26.122  1.00  0.00     0.156 HD
ENDBRANCH  18  22
ENDBRANCH  14  16
ENDBRANCH  13  14
ENDBRANCH   8  13
ENDBRANCH   4   7
ENDBRANCH   2   3
ENDBRANCH   1   2
BRANCH   1  25
ATOM     25  C   UNL A   1      31.913  31.484  26.790  1.00  0.00     0.023 C 
BRANCH  25  26
ATOM     26  C   UNL A   1      33.050  32.349  27.321  1.00  0.00     0.116 C 
BRANCH  26  27
ATOM     27  N   UNL A   1      32.646  33.721  27.585  1.00  0.00    -0.352 N 
ATOM     28  C   UNL A   1      33.150  34.589  28.521  1.00  0.00     0.251 C 
ATOM     29  H   UNL A   1      31.919  34.071  27.020  1.00  0.00     0.163 HD
ATOM     30  O   UNL A   1      32.622  35.683  28.697  1.00  0.00    -0.269 OA
BRANCH  28  31
ATOM     31  C   UNL A   1      34.301  34.164  29.342  1.00  0.00     0.039 A 
ATOM     32  C   UNL A   1      34.064  33.407  30.490  1.00  0.00     0.014 A 
ATOM     33  C   UNL A   1      35.607  34.463  28.943  1.00  0.00     0.014 A 
ATOM     34  C   UNL A   1      35.144  32.889  31.206  1.00  0.00     0.010 A 
ATOM     35  C   UNL A   1      36.680  33.893  29.621  1.00  0.00     0.010 A 
ATOM     36  C   UNL A   1      36.458  33.096  30.755  1.00  0.00    -0.014 A 
BRANCH  36  37
ATOM     37  C   UNL A   1      37.615  32.483  31.454  1.00  0.00     0.031 A 
ATOM     38  C   UNL A   1      38.346  31.330  30.825  1.00  0.00     0.074 A 
ATOM     39  C   UNL A   1      37.960  32.923  32.681  1.00  0.00     0.049 A 
ATOM     40  N   UNL A   1      39.322  30.605  31.308  1.00  0.00    -0.248 NA
ATOM     41  C   UNL A   1      37.902  30.923  29.483  1.00  0.00     0.031 C 
ATOM     42  C   UNL A   1      37.296  34.008  33.408  1.00  0.00     0.029 A 
ATOM     43  N   UNL A   1      38.946  32.506  33.540  1.00  0.00    -0.354 N 
ATOM     44  C   UNL A   1      39.602  29.651  30.337  1.00  0.00     0.074 A 
ATOM     45  C   UNL A   1      38.653  29.854  29.263  1.00  0.00     0.031 C 
ATOM     46  C   UNL A   1      37.906  34.183  34.592  1.00  0.00     0.029 A 
ATOM     47  C   UNL A   1      38.972  33.197  34.729  1.00  0.00     0.049 A 
ATOM     48  H   UNL A   1      39.575  31.782  33.324  1.00  0.00     0.167 HD
ATOM     49  C   UNL A   1      40.577  28.709  30.332  1.00  0.00     0.034 A 
ATOM     50  C   UNL A   1      39.759  33.044  35.814  1.00  0.00     0.034 A 
ATOM     51  C   UNL A   1      41.522  28.529  31.407  1.00  0.00     0.049 A 
ATOM     52  C   UNL A   1      40.822  31.973  35.791  1.00  0.00     0.074 A 
ATOM     53  C   UNL A   1      42.576  27.636  31.487  1.00  0.00     0.029 A 
ATOM     54  N   UNL A   1      41.526  29.253  32.592  1.00  0.00    -0.354 N 
ATOM     55  N   UNL A   1      41.103  31.108  34.844  1.00  0.00    -0.248 NA
ATOM     56  C   UNL A   1      41.679  31.866  36.979  1.00  0.00     0.031 C 
ATOM     57  C   UNL A   1      43.180  27.780  32.741  1.00  0.00     0.029 A 
ATOM     58  C   UNL A   1      42.547  28.811  33.417  1.00  0.00     0.049 A 
ATOM     59  H   UNL A   1      40.895  29.975  32.813  1.00  0.00     0.167 HD
ATOM     60  C   UNL A   1      42.193  30.377  35.310  1.00  0.00     0.074 A 
ATOM     61  C   UNL A   1      42.525  30.913  36.614  1.00  0.00     0.031 C 
ATOM     62  C   UNL A   1      42.861  29.356  34.717  1.00  0.00     0.034 A 
BRANCH  49  63
ATOM     63  C   UNL A   1      40.653  27.794  29.135  1.00  0.00     0.023 A 
ATOM     64  C   UNL A   1      41.586  28.007  28.104  1.00  0.00     0.031 A 
ATOM     65  C   UNL A   1      39.772  26.705  29.011  1.00  0.00     0.131 A 
ATOM     66  C   UNL A   1      41.574  27.187  26.967  1.00  0.00     0.055 A 
ATOM     67  C   UNL A   1      39.816  25.845  27.912  1.00  0.00     0.041 A 
ATOM     68  F   UNL A   1      38.846  26.465  29.952  1.00  0.00    -0.206 F 
ATOM     69  C   UNL A   1      40.712  26.091  26.875  1.00  0.00     0.022 A 
BRANCH  66  70
ATOM     70  S   UNL A   1      42.613  27.647  25.555  1.00  0.00     0.124 S 
ATOM     71  O   UNL A   1      43.894  27.913  26.206  1.00  0.00    -0.237 OA
ATOM     72  O   UNL A   1      42.557  26.455  24.718  1.00  0.00    -0.237 OA
ATOM     73  O   UNL A   1      41.944  28.826  25.007  1.00  0.00    -0.744 OA
ENDBRANCH  66  70
ENDBRANCH  49  63
BRANCH  50  74
ATOM     74  C   UNL A   1      39.575  33.905  37.017  1.00  0.00     0.023 A 
ATOM     75  C   UNL A   1      38.962  33.404  38.176  1.00  0.00     0.031 A 
ATOM     76  C   UNL A   1      39.951  35.260  37.002  1.00  0.00     0.131 A 
ATOM     77  C   UNL A   1      38.692  34.263  39.252  1.00  0.00     0.055 A 
ATOM     78  C   UNL A   1      39.731  36.098  38.098  1.00  0.00     0.041 A 
ATOM     79  F   UNL A   1      40.545  35.789  35.921  1.00  0.00    -0.206 F 
ATOM     80  C   UNL A   1      39.082  35.604  39.225  1.00  0.00     0.022 A 
BRANCH  77  81
ATOM     81  S   UNL A   1      37.725  33.627  40.649  1.00  0.00     0.124 S 
ATOM     82  O   UNL A   1      36.585  33.022  39.970  1.00  0.00    -0.237 OA
ATOM     83  O   UNL A   1      38.667  32.701  41.270  1.00  0.00    -0.237 OA
ATOM     84  O   UNL A   1      37.425  34.825  41.429  1.00  0.00    -0.744 OA
ENDBRANCH  77  81
ENDBRANCH  50  74
BRANCH  62  85
ATOM     85  C   UNL A   1      44.049  28.793  35.458  1.00  0.00     0.023 A 
ATOM     86  C   UNL A   1      43.924  27.700  36.332  1.00  0.00     0.031 A 
ATOM     87  C   UNL A   1      45.320  29.370  35.294  1.00  0.00     0.131 A 
ATOM     88  C   UNL A   1      45.041  27.252  37.051  1.00  0.00     0.055 A 
ATOM     89  C   UNL A   1      46.440  28.883  35.968  1.00  0.00     0.041 A 
ATOM     90  F   UNL A   1      45.495  30.418  34.471  1.00  0.00    -0.206 F 
ATOM     91  C   UNL A   1      46.301  27.825  36.864  1.00  0.00     0.022 A 
BRANCH  88  92
ATOM     92  S   UNL A   1      44.809  25.961  38.305  1.00  0.00     0.124 S 
ATOM     93  O   UNL A   1      46.162  25.434  38.452  1.00  0.00    -0.237 OA
ATOM     94  O   UNL A   1      44.294  26.719  39.441  1.00  0.00    -0.237 OA
ATOM     95  O   UNL A   1      43.851  25.048  37.685  1.00  0.00    -0.744 OA
ENDBRANCH  88  92
ENDBRANCH  62  85
ENDBRANCH  36  37
ENDBRANCH  28  31
ENDBRANCH  26  27
ENDBRANCH  25  26
ENDBRANCH   1  25
TORSDOF 18
ENDMDL
MODEL 3
REMARK VINA RESULT:     -11.9      5.681      9.233
REMARK SMILES CN(Cc1ccc(C(=O)NCCCCNC(=O)c2ccc(-c3c4nc(c(-c5cc(S(=O)(=O)[O-])ccc5F)c5ccc([nH]5)c(-c5cc(S(=O)(=O)[O-])ccc5F)c5nc(c(-c6cc(S(=O)(=O)[O-])ccc6F)c6ccc3[nH]6)C=C5)C=C4)cc2)cc1)c1ccccc1N
REMARK SMILES IDX 12 1 11 2 10 3 8 4 9 5 7 7 4 8 5 9 82 10 6 11 81 12 3 13
REMARK SMILES IDX 2 14 1 15 83 16 84 17 88 18 85 19 87 20 86 21 89 22 13 25
REMARK SMILES IDX 14 26 15 27 16 28 17 30 18 31 19 32 80 33 20 34 79 35 21 36
REMARK SMILES IDX 22 37 23 38 73 39 24 40 78 41 72 42 74 43 25 44 77 45 71 46
REMARK SMILES IDX 70 47 26 49 58 50 38 51 57 52 39 53 42 54 56 55 75 56 40 57
REMARK SMILES IDX 41 58 55 60 76 61 43 62 27 63 28 64 36 65 29 66 35 67 37 68
REMARK SMILES IDX 34 69 30 70 31 71 32 72 33 73 59 74 60 75 68 76 61 77 67 78
REMARK SMILES IDX 69 79 66 80 62 81 63 82 64 83 65 84 44 85 45 86 53 87 46 88
REMARK SMILES IDX 52 89 54 90 51 91 47 92 48 93 49 94 50 95
REMARK H PARENT 10 6 89 23 89 24 15 29 74 48 42 59
REMARK Flexibility Score: inf
ROOT
ATOM      1  C   UNL A   1      37.198  21.291  25.036  1.00  0.00     0.023 C 
ENDROOT
BRANCH   1   2
ATOM      2  C   UNL A   1      35.766  20.792  25.238  1.00  0.00     0.116 C 
BRANCH   2   3
ATOM      3  N   UNL A   1      35.214  21.343  26.456  1.00  0.00    -0.352 N 
ATOM      4  C   UNL A   1      34.407  22.423  26.704  1.00  0.00     0.251 C 
ATOM      5  O   UNL A   1      34.185  22.686  27.888  1.00  0.00    -0.269 OA
ATOM      6  H   UNL A   1      35.469  20.846  27.266  1.00  0.00     0.163 HD
BRANCH   4   7
ATOM      7  C   UNL A   1      33.727  23.233  25.645  1.00  0.00     0.039 A 
ATOM      8  C   UNL A   1      32.449  25.147  23.982  1.00  0.00    -0.029 A 
ATOM      9  C   UNL A   1      33.768  25.334  24.407  1.00  0.00     0.006 A 
ATOM     10  C   UNL A   1      31.846  23.914  24.260  1.00  0.00     0.006 A 
ATOM     11  C   UNL A   1      34.385  24.405  25.248  1.00  0.00     0.014 A 
ATOM     12  C   UNL A   1      32.491  22.960  25.058  1.00  0.00     0.014 A 
BRANCH   8  13
ATOM     13  C   UNL A   1      31.590  26.234  23.355  1.00  0.00     0.151 C 
BRANCH  13  14
ATOM     14  N   UNL A   1      30.640  26.912  24.238  1.00  0.00    -0.369 N 
ATOM     15  C   UNL A   1      29.258  27.013  23.764  1.00  0.00     0.144 C 
BRANCH  14  16
ATOM     16  C   UNL A   1      31.056  27.800  25.241  1.00  0.00     0.060 A 
ATOM     17  C   UNL A   1      31.163  27.398  26.586  1.00  0.00     0.028 A 
ATOM     18  C   UNL A   1      31.415  29.144  24.959  1.00  0.00     0.055 A 
ATOM     19  C   UNL A   1      31.777  28.194  27.559  1.00  0.00     0.002 A 
ATOM     20  C   UNL A   1      32.073  29.922  25.926  1.00  0.00     0.027 A 
ATOM     21  C   UNL A   1      32.265  29.445  27.219  1.00  0.00     0.002 A 
BRANCH  18  22
ATOM     22  N   UNL A   1      31.197  29.704  23.692  1.00  0.00    -0.397 N 
ATOM     23  H   UNL A   1      31.954  29.853  23.082  1.00  0.00     0.156 HD
ATOM     24  H   UNL A   1      30.285  29.948  23.413  1.00  0.00     0.156 HD
ENDBRANCH  18  22
ENDBRANCH  14  16
ENDBRANCH  13  14
ENDBRANCH   8  13
ENDBRANCH   4   7
ENDBRANCH   2   3
ENDBRANCH   1   2
BRANCH   1  25
ATOM     25  C   UNL A   1      38.242  20.172  25.012  1.00  0.00     0.023 C 
BRANCH  25  26
ATOM     26  C   UNL A   1      39.464  20.424  25.888  1.00  0.00     0.116 C 
BRANCH  26  27
ATOM     27  N   UNL A   1      40.371  19.288  25.942  1.00  0.00    -0.352 N 
ATOM     28  C   UNL A   1      41.729  19.295  26.143  1.00  0.00     0.251 C 
ATOM     29  H   UNL A   1      39.958  18.403  25.818  1.00  0.00     0.163 HD
ATOM     30  O   UNL A   1      42.372  18.255  26.047  1.00  0.00    -0.269 OA
BRANCH  28  31
ATOM     31  C   UNL A   1      42.402  20.578  26.425  1.00  0.00     0.039 A 
ATOM     32  C   UNL A   1      42.833  21.360  25.352  1.00  0.00     0.014 A 
ATOM     33  C   UNL A   1      42.551  21.029  27.739  1.00  0.00     0.014 A 
ATOM     34  C   UNL A   1      43.355  22.631  25.595  1.00  0.00     0.010 A 
ATOM     35  C   UNL A   1      43.012  22.320  27.975  1.00  0.00     0.010 A 
ATOM     36  C   UNL A   1      43.412  23.135  26.905  1.00  0.00    -0.014 A 
BRANCH  36  37
ATOM     37  C   UNL A   1      43.884  24.517  27.176  1.00  0.00     0.031 A 
ATOM     38  C   UNL A   1      42.921  25.552  27.685  1.00  0.00     0.074 A 
ATOM     39  C   UNL A   1      45.161  24.848  26.900  1.00  0.00     0.049 A 
ATOM     40  N   UNL A   1      43.114  26.827  27.902  1.00  0.00    -0.248 NA
ATOM     41  C   UNL A   1      41.550  25.095  27.962  1.00  0.00     0.031 C 
ATOM     42  C   UNL A   1      46.176  23.936  26.364  1.00  0.00     0.029 A 
ATOM     43  N   UNL A   1      45.824  26.045  27.020  1.00  0.00    -0.354 N 
ATOM     44  C   UNL A   1      41.890  27.328  28.331  1.00  0.00     0.074 A 
ATOM     45  C   UNL A   1      40.948  26.230  28.285  1.00  0.00     0.031 C 
ATOM     46  C   UNL A   1      47.334  24.601  26.221  1.00  0.00     0.029 A 
ATOM     47  C   UNL A   1      47.137  25.993  26.611  1.00  0.00     0.049 A 
ATOM     48  H   UNL A   1      45.400  26.861  27.367  1.00  0.00     0.167 HD
ATOM     49  C   UNL A   1      41.587  28.583  28.745  1.00  0.00     0.034 A 
ATOM     50  C   UNL A   1      48.071  26.963  26.545  1.00  0.00     0.034 A 
ATOM     51  C   UNL A   1      42.543  29.662  28.794  1.00  0.00     0.049 A 
ATOM     52  C   UNL A   1      47.702  28.356  26.992  1.00  0.00     0.074 A 
ATOM     53  C   UNL A   1      42.355  30.960  29.239  1.00  0.00     0.029 A 
ATOM     54  N   UNL A   1      43.866  29.573  28.382  1.00  0.00    -0.354 N 
ATOM     55  N   UNL A   1      46.551  28.802  27.438  1.00  0.00    -0.248 NA
ATOM     56  C   UNL A   1      48.761  29.372  26.937  1.00  0.00     0.031 C 
ATOM     57  C   UNL A   1      43.546  31.668  29.041  1.00  0.00     0.029 A 
ATOM     58  C   UNL A   1      44.498  30.795  28.539  1.00  0.00     0.049 A 
ATOM     59  H   UNL A   1      44.292  28.758  28.030  1.00  0.00     0.167 HD
ATOM     60  C   UNL A   1      46.759  30.143  27.749  1.00  0.00     0.074 A 
ATOM     61  C   UNL A   1      48.148  30.427  27.453  1.00  0.00     0.031 C 
ATOM     62  C   UNL A   1      45.885  31.060  28.235  1.00  0.00     0.034 A 
BRANCH  49  63
ATOM     63  C   UNL A   1      40.162  28.852  29.159  1.00  0.00     0.023 A 
ATOM     64  C   UNL A   1      39.788  28.912  30.514  1.00  0.00     0.031 A 
ATOM     65  C   UNL A   1      39.159  29.036  28.191  1.00  0.00     0.131 A 
ATOM     66  C   UNL A   1      38.440  29.082  30.862  1.00  0.00     0.055 A 
ATOM     67  C   UNL A   1      37.832  29.282  28.544  1.00  0.00     0.041 A 
ATOM     68  F   UNL A   1      39.453  28.969  26.883  1.00  0.00    -0.206 F 
ATOM     69  C   UNL A   1      37.463  29.293  29.887  1.00  0.00     0.022 A 
BRANCH  66  70
ATOM     70  S   UNL A   1      37.965  28.897  32.602  1.00  0.00     0.124 S 
ATOM     71  O   UNL A   1      39.046  29.610  33.280  1.00  0.00    -0.237 OA
ATOM     72  O   UNL A   1      36.655  29.536  32.642  1.00  0.00    -0.237 OA
ATOM     73  O   UNL A   1      37.959  27.449  32.804  1.00  0.00    -0.744 OA
ENDBRANCH  66  70
ENDBRANCH  49  63
BRANCH  50  74
ATOM     74  C   UNL A   1      49.438  26.669  26.028  1.00  0.00     0.023 A 
ATOM     75  C   UNL A   1      49.831  27.088  24.746  1.00  0.00     0.031 A 
ATOM     76  C   UNL A   1      50.351  25.910  26.782  1.00  0.00     0.131 A 
ATOM     77  C   UNL A   1      51.078  26.699  24.234  1.00  0.00     0.055 A 
ATOM     78  C   UNL A   1      51.614  25.573  26.289  1.00  0.00     0.041 A 
ATOM     79  F   UNL A   1      50.029  25.489  28.015  1.00  0.00    -0.206 F 
ATOM     80  C   UNL A   1      51.977  25.954  25.001  1.00  0.00     0.022 A 
BRANCH  77  81
ATOM     81  S   UNL A   1      51.467  27.091  22.506  1.00  0.00     0.124 S 
ATOM     82  O   UNL A   1      52.619  26.233  22.259  1.00  0.00    -0.237 OA
ATOM     83  O   UNL A   1      50.231  26.718  21.826  1.00  0.00    -0.237 OA
ATOM     84  O   UNL A   1      51.750  28.524  22.538  1.00  0.00    -0.744 OA
ENDBRANCH  77  81
ENDBRANCH  50  74
BRANCH  62  85
ATOM     85  C   UNL A   1      46.427  32.438  28.523  1.00  0.00     0.023 A 
ATOM     86  C   UNL A   1      46.383  33.465  27.564  1.00  0.00     0.031 A 
ATOM     87  C   UNL A   1      47.007  32.720  29.772  1.00  0.00     0.131 A 
ATOM     88  C   UNL A   1      46.959  34.711  27.851  1.00  0.00     0.055 A 
ATOM     89  C   UNL A   1      47.526  33.979  30.072  1.00  0.00     0.041 A 
ATOM     90  F   UNL A   1      47.075  31.775  30.724  1.00  0.00    -0.206 F 
ATOM     91  C   UNL A   1      47.516  34.980  29.103  1.00  0.00     0.022 A 
BRANCH  88  92
ATOM     92  S   UNL A   1      47.049  35.953  26.531  1.00  0.00     0.124 S 
ATOM     93  O   UNL A   1      48.084  36.852  27.030  1.00  0.00    -0.237 OA
ATOM     94  O   UNL A   1      47.410  35.147  25.369  1.00  0.00    -0.237 OA
ATOM     95  O   UNL A   1      45.700  36.517  26.498  1.00  0.00    -0.744 OA
ENDBRANCH  88  92
ENDBRANCH  62  85
ENDBRANCH  36  37
ENDBRANCH  28  31
ENDBRANCH  26  27
ENDBRANCH  25  26
ENDBRANCH   1  25
TORSDOF 18
ENDMDL
