MODEL 1
REMARK VINA RESULT:     -11.7      0.000      0.000
REMARK SMILES CCCCOC(=O)c1ccc(N2C[C@H](C(=O)NCCCCNC(=O)c3ccc(-c4c5nc(c(-c6cc(S(=O)(=O)[O-])ccc6F)c6ccc([nH]6)c(-c6cc(S(=O)(=O)[O-])ccc6F)c6nc(c(-c7cc(S(=O)(=O)[O-])ccc7F)c7ccc4[nH]7)C=C6)C=C5)cc3)CC2=O)cc1
REMARK SMILES IDX 18 1 17 2 15 3 16 4 14 6 12 7 13 8 89 9 88 10 90 11 11 12
REMARK SMILES IDX 8 13 9 14 92 15 10 16 91 17 6 18 7 19 5 20 4 21 3 22 2 23
REMARK SMILES IDX 1 24 19 25 20 26 21 27 22 28 23 29 24 31 25 32 26 33 87 34
REMARK SMILES IDX 27 35 86 36 28 37 29 38 30 39 80 40 31 41 85 42 79 43 81 44
REMARK SMILES IDX 32 45 84 46 78 47 77 48 33 50 65 51 45 52 64 53 46 54 49 55
REMARK SMILES IDX 63 56 82 57 47 58 48 59 62 61 83 62 50 63 34 64 35 65 43 66
REMARK SMILES IDX 36 67 42 68 44 69 41 70 37 71 38 72 39 73 40 74 66 75 67 76
REMARK SMILES IDX 75 77 68 78 74 79 76 80 73 81 69 82 70 83 71 84 72 85 51 86
REMARK SMILES IDX 52 87 60 88 53 89 59 90 61 91 58 92 54 93 55 94 56 95 57 96
REMARK H PARENT 17 5 22 30 81 49 49 60
REMARK Flexibility Score: inf
ROOT
ATOM      1  C   UNL A   1      32.184  29.006  26.277  1.00  0.00     0.116 C 
ENDROOT
BRANCH   1   2
ATOM      2  N   UNL A   1      31.635  29.206  24.948  1.00  0.00    -0.356 N 
ATOM      3  C   UNL A   1      31.987  28.778  23.714  1.00  0.00     0.225 C 
ATOM      4  O   UNL A   1      31.214  29.073  22.794  1.00  0.00    -0.275 OA
ATOM      5  H   UNL A   1      30.834  29.777  24.943  1.00  0.00     0.163 HD
BRANCH   3   6
ATOM      6  C   UNL A   1      33.293  28.091  23.350  1.00  0.00     0.107 C 
ATOM      7  N   UNL A   1      33.263  25.753  23.060  1.00  0.00    -0.312 N 
ATOM      8  C   UNL A   1      33.406  26.768  24.076  1.00  0.00     0.139 C 
ATOM      9  C   UNL A   1      33.371  26.302  21.777  1.00  0.00     0.227 C 
ATOM     10  C   UNL A   1      33.625  27.786  21.908  1.00  0.00     0.116 C 
ATOM     11  O   UNL A   1      33.291  25.747  20.691  1.00  0.00    -0.274 OA
BRANCH   7  12
ATOM     12  C   UNL A   1      33.104  24.374  23.376  1.00  0.00     0.044 A 
ATOM     13  C   UNL A   1      32.791  21.656  24.049  1.00  0.00     0.060 A 
ATOM     14  C   UNL A   1      34.046  22.248  24.147  1.00  0.00     0.018 A 
ATOM     15  C   UNL A   1      31.695  22.394  23.612  1.00  0.00     0.018 A 
ATOM     16  C   UNL A   1      34.200  23.597  23.799  1.00  0.00     0.027 A 
ATOM     17  C   UNL A   1      31.855  23.744  23.281  1.00  0.00     0.027 A 
BRANCH  13  18
ATOM     18  C   UNL A   1      32.582  20.268  24.469  1.00  0.00     0.338 C 
ATOM     19  O   UNL A   1      31.831  19.948  25.378  1.00  0.00    -0.246 OA
BRANCH  18  20
ATOM     20  O   UNL A   1      33.292  19.460  23.651  1.00  0.00    -0.462 OA
BRANCH  20  21
ATOM     21  C   UNL A   1      34.008  18.392  24.293  1.00  0.00     0.233 C 
BRANCH  21  22
ATOM     22  C   UNL A   1      33.746  17.065  23.582  1.00  0.00     0.041 C 
BRANCH  22  23
ATOM     23  C   UNL A   1      33.663  15.850  24.509  1.00  0.00     0.000 C 
ATOM     24  C   UNL A   1      32.740  16.063  25.700  1.00  0.00     0.004 C 
ENDBRANCH  22  23
ENDBRANCH  21  22
ENDBRANCH  20  21
ENDBRANCH  18  20
ENDBRANCH  13  18
ENDBRANCH   7  12
ENDBRANCH   3   6
ENDBRANCH   1   2
BRANCH   1  25
ATOM     25  C   UNL A   1      31.806  30.112  27.256  1.00  0.00     0.023 C 
BRANCH  25  26
ATOM     26  C   UNL A   1      31.909  31.538  26.710  1.00  0.00     0.023 C 
BRANCH  26  27
ATOM     27  C   UNL A   1      33.022  32.409  27.289  1.00  0.00     0.116 C 
BRANCH  27  28
ATOM     28  N   UNL A   1      32.604  33.763  27.619  1.00  0.00    -0.352 N 
ATOM     29  C   UNL A   1      33.139  34.630  28.544  1.00  0.00     0.251 C 
ATOM     30  H   UNL A   1      31.832  34.105  27.111  1.00  0.00     0.163 HD
ATOM     31  O   UNL A   1      32.612  35.722  28.735  1.00  0.00    -0.269 OA
BRANCH  29  32
ATOM     32  C   UNL A   1      34.318  34.221  29.340  1.00  0.00     0.039 A 
ATOM     33  C   UNL A   1      34.115  33.478  30.506  1.00  0.00     0.014 A 
ATOM     34  C   UNL A   1      35.614  34.536  28.924  1.00  0.00     0.014 A 
ATOM     35  C   UNL A   1      35.213  32.976  31.209  1.00  0.00     0.010 A 
ATOM     36  C   UNL A   1      36.706  33.987  29.593  1.00  0.00     0.010 A 
ATOM     37  C   UNL A   1      36.517  33.189  30.732  1.00  0.00    -0.014 A 
BRANCH  37  38
ATOM     38  C   UNL A   1      37.693  32.562  31.392  1.00  0.00     0.031 A 
ATOM     39  C   UNL A   1      38.426  31.436  30.717  1.00  0.00     0.074 A 
ATOM     40  C   UNL A   1      38.039  32.947  32.637  1.00  0.00     0.049 A 
ATOM     41  N   UNL A   1      39.395  30.687  31.176  1.00  0.00    -0.248 NA
ATOM     42  C   UNL A   1      37.987  31.087  29.358  1.00  0.00     0.031 C 
ATOM     43  C   UNL A   1      37.372  33.994  33.415  1.00  0.00     0.029 A 
ATOM     44  N   UNL A   1      39.024  32.490  33.478  1.00  0.00    -0.354 N 
ATOM     45  C   UNL A   1      39.666  29.761  30.174  1.00  0.00     0.074 A 
ATOM     46  C   UNL A   1      38.730  30.020  29.101  1.00  0.00     0.031 C 
ATOM     47  C   UNL A   1      37.968  34.101  34.614  1.00  0.00     0.029 A 
ATOM     48  C   UNL A   1      39.032  33.107  34.708  1.00  0.00     0.049 A 
ATOM     49  H   UNL A   1      39.664  31.787  33.224  1.00  0.00     0.167 HD
ATOM     50  C   UNL A   1      40.617  28.793  30.149  1.00  0.00     0.034 A 
ATOM     51  C   UNL A   1      39.797  32.885  35.796  1.00  0.00     0.034 A 
ATOM     52  C   UNL A   1      41.563  28.569  31.215  1.00  0.00     0.049 A 
ATOM     53  C   UNL A   1      40.859  31.817  35.735  1.00  0.00     0.074 A 
ATOM     54  C   UNL A   1      42.619  27.674  31.254  1.00  0.00     0.029 A 
ATOM     55  N   UNL A   1      41.567  29.240  32.430  1.00  0.00    -0.354 N 
ATOM     56  N   UNL A   1      41.143  30.993  34.753  1.00  0.00    -0.248 NA
ATOM     57  C   UNL A   1      41.711  31.659  36.921  1.00  0.00     0.031 C 
ATOM     58  C   UNL A   1      43.224  27.764  32.513  1.00  0.00     0.029 A 
ATOM     59  C   UNL A   1      42.588  28.759  33.236  1.00  0.00     0.049 A 
ATOM     60  H   UNL A   1      40.936  29.952  32.683  1.00  0.00     0.167 HD
ATOM     61  C   UNL A   1      42.225  30.236  35.196  1.00  0.00     0.074 A 
ATOM     62  C   UNL A   1      42.550  30.712  36.526  1.00  0.00     0.031 C 
ATOM     63  C   UNL A   1      42.894  29.241  34.562  1.00  0.00     0.034 A 
BRANCH  50  64
ATOM     64  C   UNL A   1      40.661  27.892  28.942  1.00  0.00     0.023 A 
ATOM     65  C   UNL A   1      41.599  28.081  27.910  1.00  0.00     0.031 A 
ATOM     66  C   UNL A   1      39.746  26.833  28.815  1.00  0.00     0.131 A 
ATOM     67  C   UNL A   1      41.556  27.267  26.768  1.00  0.00     0.055 A 
ATOM     68  C   UNL A   1      39.756  25.978  27.709  1.00  0.00     0.041 A 
ATOM     69  F   UNL A   1      38.817  26.615  29.759  1.00  0.00    -0.206 F 
ATOM     70  C   UNL A   1      40.656  26.202  26.672  1.00  0.00     0.022 A 
BRANCH  67  71
ATOM     71  S   UNL A   1      42.614  27.694  25.360  1.00  0.00     0.124 S 
ATOM     72  O   UNL A   1      43.857  28.069  26.030  1.00  0.00    -0.237 OA
ATOM     73  O   UNL A   1      42.647  26.450  24.600  1.00  0.00    -0.237 OA
ATOM     74  O   UNL A   1      41.902  28.798  24.719  1.00  0.00    -0.744 OA
ENDBRANCH  67  71
ENDBRANCH  50  64
BRANCH  51  75
ATOM     75  C   UNL A   1      39.581  33.667  37.047  1.00  0.00     0.023 A 
ATOM     76  C   UNL A   1      38.937  33.097  38.156  1.00  0.00     0.031 A 
ATOM     77  C   UNL A   1      39.970  35.016  37.131  1.00  0.00     0.131 A 
ATOM     78  C   UNL A   1      38.654  33.885  39.283  1.00  0.00     0.055 A 
ATOM     79  C   UNL A   1      39.733  35.782  38.274  1.00  0.00     0.041 A 
ATOM     80  F   UNL A   1      40.597  35.607  36.102  1.00  0.00    -0.206 F 
ATOM     81  C   UNL A   1      39.057  35.221  39.353  1.00  0.00     0.022 A 
BRANCH  78  82
ATOM     82  S   UNL A   1      37.667  33.162  40.621  1.00  0.00     0.124 S 
ATOM     83  O   UNL A   1      37.796  34.170  41.666  1.00  0.00    -0.237 OA
ATOM     84  O   UNL A   1      36.352  33.048  39.998  1.00  0.00    -0.237 OA
ATOM     85  O   UNL A   1      38.340  31.893  40.891  1.00  0.00    -0.744 OA
ENDBRANCH  78  82
ENDBRANCH  51  75
BRANCH  63  86
ATOM     86  C   UNL A   1      44.069  28.637  35.286  1.00  0.00     0.023 A 
ATOM     87  C   UNL A   1      43.912  27.568  36.185  1.00  0.00     0.031 A 
ATOM     88  C   UNL A   1      45.362  29.149  35.080  1.00  0.00     0.131 A 
ATOM     89  C   UNL A   1      45.026  27.076  36.883  1.00  0.00     0.055 A 
ATOM     90  C   UNL A   1      46.474  28.621  35.738  1.00  0.00     0.041 A 
ATOM     91  F   UNL A   1      45.565  30.170  34.233  1.00  0.00    -0.206 F 
ATOM     92  C   UNL A   1      46.307  27.586  36.654  1.00  0.00     0.022 A 
BRANCH  89  93
ATOM     93  S   UNL A   1      44.767  25.807  38.152  1.00  0.00     0.124 S 
ATOM     94  O   UNL A   1      46.134  25.510  38.568  1.00  0.00    -0.237 OA
ATOM     95  O   UNL A   1      43.941  26.505  39.130  1.00  0.00    -0.237 OA
ATOM     96  O   UNL A   1      44.092  24.730  37.428  1.00  0.00    -0.744 OA
ENDBRANCH  89  93
ENDBRANCH  63  86
ENDBRANCH  37  38
ENDBRANCH  29  32
ENDBRANCH  27  28
ENDBRANCH  26  27
ENDBRANCH  25  26
ENDBRANCH   1  25
TORSDOF 20
ENDMDL
MODEL 2
REMARK VINA RESULT:     -11.5      1.974      2.507
REMARK SMILES CCCCOC(=O)c1ccc(N2C[C@H](C(=O)NCCCCNC(=O)c3ccc(-c4c5nc(c(-c6cc(S(=O)(=O)[O-])ccc6F)c6ccc([nH]6)c(-c6cc(S(=O)(=O)[O-])ccc6F)c6nc(c(-c7cc(S(=O)(=O)[O-])ccc7F)c7ccc4[nH]7)C=C6)C=C5)cc3)CC2=O)cc1
REMARK SMILES IDX 18 1 17 2 15 3 16 4 14 6 12 7 13 8 89 9 88 10 90 11 11 12
REMARK SMILES IDX 8 13 9 14 92 15 10 16 91 17 6 18 7 19 5 20 4 21 3 22 2 23
REMARK SMILES IDX 1 24 19 25 20 26 21 27 22 28 23 29 24 31 25 32 26 33 87 34
REMARK SMILES IDX 27 35 86 36 28 37 29 38 30 39 80 40 31 41 85 42 79 43 81 44
REMARK SMILES IDX 32 45 84 46 78 47 77 48 33 50 65 51 45 52 64 53 46 54 49 55
REMARK SMILES IDX 63 56 82 57 47 58 48 59 62 61 83 62 50 63 34 64 35 65 43 66
REMARK SMILES IDX 36 67 42 68 44 69 41 70 37 71 38 72 39 73 40 74 66 75 67 76
REMARK SMILES IDX 75 77 68 78 74 79 76 80 73 81 69 82 70 83 71 84 72 85 51 86
REMARK SMILES IDX 52 87 60 88 53 89 59 90 61 91 58 92 54 93 55 94 56 95 57 96
REMARK H PARENT 17 5 22 30 81 49 49 60
REMARK Flexibility Score: inf
ROOT
ATOM      1  C   UNL A   1      31.785  29.016  25.136  1.00  0.00     0.116 C 
ENDROOT
BRANCH   1   2
ATOM      2  N   UNL A   1      31.016  29.818  24.203  1.00  0.00    -0.356 N 
ATOM      3  C   UNL A   1      30.065  29.534  23.284  1.00  0.00     0.225 C 
ATOM      4  O   UNL A   1      29.545  30.505  22.719  1.00  0.00    -0.275 OA
ATOM      5  H   UNL A   1      31.232  30.777  24.249  1.00  0.00     0.163 HD
BRANCH   3   6
ATOM      6  C   UNL A   1      29.683  28.145  22.801  1.00  0.00     0.107 C 
ATOM      7  N   UNL A   1      31.116  26.356  23.350  1.00  0.00    -0.312 N 
ATOM      8  C   UNL A   1      30.918  27.388  22.360  1.00  0.00     0.139 C 
ATOM      9  C   UNL A   1      29.988  26.216  24.167  1.00  0.00     0.227 C 
ATOM     10  C   UNL A   1      28.934  27.195  23.707  1.00  0.00     0.116 C 
ATOM     11  O   UNL A   1      29.808  25.456  25.107  1.00  0.00    -0.274 OA
BRANCH   7  12
ATOM     12  C   UNL A   1      32.298  25.564  23.399  1.00  0.00     0.044 A 
ATOM     13  C   UNL A   1      34.618  23.971  23.535  1.00  0.00     0.060 A 
ATOM     14  C   UNL A   1      34.445  25.012  24.442  1.00  0.00     0.018 A 
ATOM     15  C   UNL A   1      33.659  23.720  22.558  1.00  0.00     0.018 A 
ATOM     16  C   UNL A   1      33.295  25.810  24.362  1.00  0.00     0.027 A 
ATOM     17  C   UNL A   1      32.508  24.512  22.496  1.00  0.00     0.027 A 
BRANCH  13  18
ATOM     18  C   UNL A   1      35.774  23.077  23.633  1.00  0.00     0.338 C 
ATOM     19  O   UNL A   1      36.614  22.967  22.754  1.00  0.00    -0.246 OA
BRANCH  18  20
ATOM     20  O   UNL A   1      35.759  22.488  24.850  1.00  0.00    -0.462 OA
BRANCH  20  21
ATOM     21  C   UNL A   1      35.563  21.065  24.854  1.00  0.00     0.233 C 
BRANCH  21  22
ATOM     22  C   UNL A   1      34.118  20.722  25.214  1.00  0.00     0.041 C 
BRANCH  22  23
ATOM     23  C   UNL A   1      33.474  21.666  26.232  1.00  0.00     0.000 C 
ATOM     24  C   UNL A   1      32.184  22.300  25.733  1.00  0.00     0.004 C 
ENDBRANCH  22  23
ENDBRANCH  21  22
ENDBRANCH  20  21
ENDBRANCH  18  20
ENDBRANCH  13  18
ENDBRANCH   7  12
ENDBRANCH   3   6
ENDBRANCH   1   2
BRANCH   1  25
ATOM     25  C   UNL A   1      31.974  29.687  26.493  1.00  0.00     0.023 C 
BRANCH  25  26
ATOM     26  C   UNL A   1      31.723  31.197  26.521  1.00  0.00     0.023 C 
BRANCH  26  27
ATOM     27  C   UNL A   1      32.889  32.071  26.980  1.00  0.00     0.116 C 
BRANCH  27  28
ATOM     28  N   UNL A   1      32.509  33.435  27.315  1.00  0.00    -0.352 N 
ATOM     29  C   UNL A   1      33.070  34.282  28.244  1.00  0.00     0.251 C 
ATOM     30  H   UNL A   1      31.748  33.801  26.810  1.00  0.00     0.163 HD
ATOM     31  O   UNL A   1      32.575  35.388  28.439  1.00  0.00    -0.269 OA
BRANCH  29  32
ATOM     32  C   UNL A   1      34.237  33.837  29.037  1.00  0.00     0.039 A 
ATOM     33  C   UNL A   1      34.022  32.992  30.130  1.00  0.00     0.014 A 
ATOM     34  C   UNL A   1      35.535  34.217  28.688  1.00  0.00     0.014 A 
ATOM     35  C   UNL A   1      35.113  32.459  30.820  1.00  0.00     0.010 A 
ATOM     36  C   UNL A   1      36.623  33.641  29.341  1.00  0.00     0.010 A 
ATOM     37  C   UNL A   1      36.424  32.744  30.403  1.00  0.00    -0.014 A 
BRANCH  37  38
ATOM     38  C   UNL A   1      37.598  32.093  31.042  1.00  0.00     0.031 A 
ATOM     39  C   UNL A   1      38.407  31.080  30.280  1.00  0.00     0.074 A 
ATOM     40  C   UNL A   1      37.875  32.348  32.337  1.00  0.00     0.049 A 
ATOM     41  N   UNL A   1      39.388  30.322  30.698  1.00  0.00    -0.248 NA
ATOM     42  C   UNL A   1      38.041  30.871  28.872  1.00  0.00     0.031 C 
ATOM     43  C   UNL A   1      37.130  33.274  33.195  1.00  0.00     0.029 A 
ATOM     44  N   UNL A   1      38.843  31.837  33.166  1.00  0.00    -0.354 N 
ATOM     45  C   UNL A   1      39.741  29.527  29.612  1.00  0.00     0.074 A 
ATOM     46  C   UNL A   1      38.840  29.869  28.532  1.00  0.00     0.031 C 
ATOM     47  C   UNL A   1      37.671  33.267  34.425  1.00  0.00     0.029 A 
ATOM     48  C   UNL A   1      38.773  32.310  34.457  1.00  0.00     0.049 A 
ATOM     49  H   UNL A   1      39.524  31.193  32.866  1.00  0.00     0.167 HD
ATOM     50  C   UNL A   1      40.734  28.607  29.524  1.00  0.00     0.034 A 
ATOM     51  C   UNL A   1      39.500  31.997  35.548  1.00  0.00     0.034 A 
ATOM     52  C   UNL A   1      41.644  28.300  30.600  1.00  0.00     0.049 A 
ATOM     53  C   UNL A   1      40.610  30.984  35.417  1.00  0.00     0.074 A 
ATOM     54  C   UNL A   1      42.735  27.448  30.588  1.00  0.00     0.029 A 
ATOM     55  N   UNL A   1      41.568  28.828  31.882  1.00  0.00    -0.354 N 
ATOM     56  N   UNL A   1      40.971  30.289  34.363  1.00  0.00    -0.248 NA
ATOM     57  C   UNL A   1      41.418  30.726  36.616  1.00  0.00     0.031 C 
ATOM     58  C   UNL A   1      43.283  27.418  31.876  1.00  0.00     0.029 A 
ATOM     59  C   UNL A   1      42.575  28.300  32.675  1.00  0.00     0.049 A 
ATOM     60  H   UNL A   1      40.896  29.482  32.183  1.00  0.00     0.167 HD
ATOM     61  C   UNL A   1      42.066  29.530  34.769  1.00  0.00     0.074 A 
ATOM     62  C   UNL A   1      42.314  29.864  36.157  1.00  0.00     0.031 C 
ATOM     63  C   UNL A   1      42.803  28.640  34.059  1.00  0.00     0.034 A 
BRANCH  50  64
ATOM     64  C   UNL A   1      40.868  27.850  28.226  1.00  0.00     0.023 A 
ATOM     65  C   UNL A   1      40.379  26.540  28.079  1.00  0.00     0.031 A 
ATOM     66  C   UNL A   1      41.503  28.445  27.122  1.00  0.00     0.131 A 
ATOM     67  C   UNL A   1      40.592  25.844  26.879  1.00  0.00     0.055 A 
ATOM     68  C   UNL A   1      41.646  27.774  25.905  1.00  0.00     0.041 A 
ATOM     69  F   UNL A   1      42.004  29.687  27.209  1.00  0.00    -0.206 F 
ATOM     70  C   UNL A   1      41.201  26.461  25.783  1.00  0.00     0.022 A 
BRANCH  67  71
ATOM     71  S   UNL A   1      40.168  24.084  26.811  1.00  0.00     0.124 S 
ATOM     72  O   UNL A   1      41.282  23.543  26.035  1.00  0.00    -0.237 OA
ATOM     73  O   UNL A   1      40.131  23.712  28.220  1.00  0.00    -0.237 OA
ATOM     74  O   UNL A   1      38.876  24.069  26.128  1.00  0.00    -0.744 OA
ENDBRANCH  67  71
ENDBRANCH  50  64
BRANCH  51  75
ATOM     75  C   UNL A   1      39.199  32.623  36.866  1.00  0.00     0.023 A 
ATOM     76  C   UNL A   1      38.279  32.040  37.752  1.00  0.00     0.031 A 
ATOM     77  C   UNL A   1      39.789  33.844  37.237  1.00  0.00     0.131 A 
ATOM     78  C   UNL A   1      37.936  32.703  38.941  1.00  0.00     0.055 A 
ATOM     79  C   UNL A   1      39.483  34.474  38.445  1.00  0.00     0.041 A 
ATOM     80  F   UNL A   1      40.682  34.440  36.431  1.00  0.00    -0.206 F 
ATOM     81  C   UNL A   1      38.539  33.911  39.298  1.00  0.00     0.022 A 
BRANCH  78  82
ATOM     82  S   UNL A   1      36.616  32.007  39.971  1.00  0.00     0.124 S 
ATOM     83  O   UNL A   1      35.635  33.085  39.969  1.00  0.00    -0.237 OA
ATOM     84  O   UNL A   1      36.253  30.806  39.226  1.00  0.00    -0.237 OA
ATOM     85  O   UNL A   1      37.277  31.767  41.253  1.00  0.00    -0.744 OA
ENDBRANCH  78  82
ENDBRANCH  51  75
BRANCH  63  86
ATOM     86  C   UNL A   1      43.972  28.004  34.765  1.00  0.00     0.023 A 
ATOM     87  C   UNL A   1      43.907  26.694  35.271  1.00  0.00     0.031 A 
ATOM     88  C   UNL A   1      45.166  28.727  34.943  1.00  0.00     0.131 A 
ATOM     89  C   UNL A   1      44.999  26.163  35.974  1.00  0.00     0.055 A 
ATOM     90  C   UNL A   1      46.267  28.174  35.598  1.00  0.00     0.041 A 
ATOM     91  F   UNL A   1      45.279  29.981  34.480  1.00  0.00    -0.206 F 
ATOM     92  C   UNL A   1      46.184  26.890  36.128  1.00  0.00     0.022 A 
BRANCH  89  93
ATOM     93  S   UNL A   1      44.826  24.534  36.751  1.00  0.00     0.124 S 
ATOM     94  O   UNL A   1      43.469  24.157  36.368  1.00  0.00    -0.237 OA
ATOM     95  O   UNL A   1      45.900  23.772  36.125  1.00  0.00    -0.237 OA
ATOM     96  O   UNL A   1      45.013  24.812  38.175  1.00  0.00    -0.744 OA
ENDBRANCH  89  93
ENDBRANCH  63  86
ENDBRANCH  37  38
ENDBRANCH  29  32
ENDBRANCH  27  28
ENDBRANCH  26  27
ENDBRANCH  25  26
ENDBRANCH   1  25
TORSDOF 20
ENDMDL
MODEL 3
REMARK VINA RESULT:     -11.5      1.806      2.340
REMARK SMILES CCCCOC(=O)c1ccc(N2C[C@H](C(=O)NCCCCNC(=O)c3ccc(-c4c5nc(c(-c6cc(S(=O)(=O)[O-])ccc6F)c6ccc([nH]6)c(-c6cc(S(=O)(=O)[O-])ccc6F)c6nc(c(-c7cc(S(=O)(=O)[O-])ccc7F)c7ccc4[nH]7)C=C6)C=C5)cc3)CC2=O)cc1
REMARK SMILES IDX 18 1 17 2 15 3 16 4 14 6 12 7 13 8 89 9 88 10 90 11 11 12
REMARK SMILES IDX 8 13 9 14 92 15 10 16 91 17 6 18 7 19 5 20 4 21 3 22 2 23
REMARK SMILES IDX 1 24 19 25 20 26 21 27 22 28 23 29 24 31 25 32 26 33 87 34
REMARK SMILES IDX 27 35 86 36 28 37 29 38 30 39 80 40 31 41 85 42 79 43 81 44
REMARK SMILES IDX 32 45 84 46 78 47 77 48 33 50 65 51 45 52 64 53 46 54 49 55
REMARK SMILES IDX 63 56 82 57 47 58 48 59 62 61 83 62 50 63 34 64 35 65 43 66
REMARK SMILES IDX 36 67 42 68 44 69 41 70 37 71 38 72 39 73 40 74 66 75 67 76
REMARK SMILES IDX 75 77 68 78 74 79 76 80 73 81 69 82 70 83 71 84 72 85 51 86
REMARK SMILES IDX 52 87 60 88 53 89 59 90 61 91 58 92 54 93 55 94 56 95 57 96
REMARK H PARENT 17 5 22 30 81 49 49 60
REMARK Flexibility Score: inf
ROOT
ATOM      1  C   UNL A   1      32.332  30.468  26.621  1.00  0.00     0.116 C 
ENDROOT
BRANCH   1   2
ATOM      2  N   UNL A   1      31.831  29.203  27.128  1.00  0.00    -0.356 N 
ATOM      3  C   UNL A   1      31.657  27.977  26.583  1.00  0.00     0.225 C 
ATOM      4  O   UNL A   1      31.287  27.084  27.357  1.00  0.00    -0.275 OA
ATOM      5  H   UNL A   1      31.560  29.246  28.073  1.00  0.00     0.163 HD
BRANCH   3   6
ATOM      6  C   UNL A   1      31.748  27.641  25.103  1.00  0.00     0.107 C 
ATOM      7  N   UNL A   1      31.459  25.390  24.468  1.00  0.00    -0.312 N 
ATOM      8  C   UNL A   1      32.467  26.322  24.913  1.00  0.00     0.139 C 
ATOM      9  C   UNL A   1      30.287  26.055  24.088  1.00  0.00     0.227 C 
ATOM     10  C   UNL A   1      30.499  27.541  24.260  1.00  0.00     0.116 C 
ATOM     11  O   UNL A   1      29.235  25.589  23.676  1.00  0.00    -0.274 OA
BRANCH   7  12
ATOM     12  C   UNL A   1      31.701  23.990  24.378  1.00  0.00     0.044 A 
ATOM     13  C   UNL A   1      32.226  21.227  24.208  1.00  0.00     0.060 A 
ATOM     14  C   UNL A   1      32.465  22.042  23.105  1.00  0.00     0.018 A 
ATOM     15  C   UNL A   1      31.722  21.767  25.388  1.00  0.00     0.018 A 
ATOM     16  C   UNL A   1      32.189  23.413  23.191  1.00  0.00     0.027 A 
ATOM     17  C   UNL A   1      31.464  23.140  25.469  1.00  0.00     0.027 A 
BRANCH  13  18
ATOM     18  C   UNL A   1      32.567  19.803  24.175  1.00  0.00     0.338 C 
ATOM     19  O   UNL A   1      32.102  19.020  23.361  1.00  0.00    -0.246 OA
BRANCH  18  20
ATOM     20  O   UNL A   1      33.497  19.561  25.125  1.00  0.00    -0.462 OA
BRANCH  20  21
ATOM     21  C   UNL A   1      34.863  19.559  24.679  1.00  0.00     0.233 C 
BRANCH  21  22
ATOM     22  C   UNL A   1      35.650  20.683  25.350  1.00  0.00     0.041 C 
BRANCH  22  23
ATOM     23  C   UNL A   1      35.644  22.010  24.587  1.00  0.00     0.000 C 
ATOM     24  C   UNL A   1      37.031  22.466  24.161  1.00  0.00     0.004 C 
ENDBRANCH  22  23
ENDBRANCH  21  22
ENDBRANCH  20  21
ENDBRANCH  18  20
ENDBRANCH  13  18
ENDBRANCH   7  12
ENDBRANCH   3   6
ENDBRANCH   1   2
BRANCH   1  25
ATOM     25  C   UNL A   1      31.226  31.405  26.145  1.00  0.00     0.023 C 
BRANCH  25  26
ATOM     26  C   UNL A   1      31.404  32.878  26.525  1.00  0.00     0.023 C 
BRANCH  26  27
ATOM     27  C   UNL A   1      32.624  33.216  27.380  1.00  0.00     0.116 C 
BRANCH  27  28
ATOM     28  N   UNL A   1      32.527  34.496  28.067  1.00  0.00    -0.352 N 
ATOM     29  C   UNL A   1      33.318  34.993  29.078  1.00  0.00     0.251 C 
ATOM     30  H   UNL A   1      31.797  35.085  27.768  1.00  0.00     0.163 HD
ATOM     31  O   UNL A   1      33.048  36.077  29.586  1.00  0.00    -0.269 OA
BRANCH  29  32
ATOM     32  C   UNL A   1      34.458  34.196  29.580  1.00  0.00     0.039 A 
ATOM     33  C   UNL A   1      35.740  34.483  29.102  1.00  0.00     0.014 A 
ATOM     34  C   UNL A   1      34.274  33.198  30.540  1.00  0.00     0.014 A 
ATOM     35  C   UNL A   1      36.847  33.830  29.648  1.00  0.00     0.010 A 
ATOM     36  C   UNL A   1      35.383  32.588  31.124  1.00  0.00     0.010 A 
ATOM     37  C   UNL A   1      36.681  32.910  30.696  1.00  0.00    -0.014 A 
BRANCH  37  38
ATOM     38  C   UNL A   1      37.851  32.294  31.377  1.00  0.00     0.031 A 
ATOM     39  C   UNL A   1      38.602  31.169  30.719  1.00  0.00     0.074 A 
ATOM     40  C   UNL A   1      38.175  32.687  32.625  1.00  0.00     0.049 A 
ATOM     41  N   UNL A   1      39.569  30.429  31.198  1.00  0.00    -0.248 NA
ATOM     42  C   UNL A   1      38.187  30.811  29.355  1.00  0.00     0.031 C 
ATOM     43  C   UNL A   1      37.488  33.734  33.388  1.00  0.00     0.029 A 
ATOM     44  N   UNL A   1      39.149  32.240  33.484  1.00  0.00    -0.354 N 
ATOM     45  C   UNL A   1      39.861  29.500  30.204  1.00  0.00     0.074 A 
ATOM     46  C   UNL A   1      38.940  29.748  29.115  1.00  0.00     0.031 C 
ATOM     47  C   UNL A   1      38.065  33.850  34.596  1.00  0.00     0.029 A 
ATOM     48  C   UNL A   1      39.134  32.863  34.712  1.00  0.00     0.049 A 
ATOM     49  H   UNL A   1      39.798  31.540  33.244  1.00  0.00     0.167 HD
ATOM     50  C   UNL A   1      40.819  28.539  30.199  1.00  0.00     0.034 A 
ATOM     51  C   UNL A   1      39.882  32.651  35.813  1.00  0.00     0.034 A 
ATOM     52  C   UNL A   1      41.749  28.326  31.281  1.00  0.00     0.049 A 
ATOM     53  C   UNL A   1      40.952  31.590  35.774  1.00  0.00     0.074 A 
ATOM     54  C   UNL A   1      42.810  27.438  31.341  1.00  0.00     0.029 A 
ATOM     55  N   UNL A   1      41.730  29.002  32.493  1.00  0.00    -0.354 N 
ATOM     56  N   UNL A   1      41.258  30.763  34.800  1.00  0.00    -0.248 NA
ATOM     57  C   UNL A   1      41.786  31.443  36.974  1.00  0.00     0.031 C 
ATOM     58  C   UNL A   1      43.394  27.537  32.609  1.00  0.00     0.029 A 
ATOM     59  C   UNL A   1      42.741  28.532  33.317  1.00  0.00     0.049 A 
ATOM     60  H   UNL A   1      41.090  29.712  32.732  1.00  0.00     0.167 HD
ATOM     61  C   UNL A   1      42.337  30.016  35.264  1.00  0.00     0.074 A 
ATOM     62  C   UNL A   1      42.638  30.500  36.596  1.00  0.00     0.031 C 
ATOM     63  C   UNL A   1      43.022  29.022  34.645  1.00  0.00     0.034 A 
BRANCH  50  64
ATOM     64  C   UNL A   1      40.888  27.632  28.997  1.00  0.00     0.023 A 
ATOM     65  C   UNL A   1      41.841  27.822  27.980  1.00  0.00     0.031 A 
ATOM     66  C   UNL A   1      39.981  26.567  28.860  1.00  0.00     0.131 A 
ATOM     67  C   UNL A   1      41.822  27.002  26.841  1.00  0.00     0.055 A 
ATOM     68  C   UNL A   1      40.014  25.707  27.759  1.00  0.00     0.041 A 
ATOM     69  F   UNL A   1      39.039  26.348  29.790  1.00  0.00    -0.206 F 
ATOM     70  C   UNL A   1      40.930  25.931  26.735  1.00  0.00     0.022 A 
BRANCH  67  71
ATOM     71  S   UNL A   1      42.900  27.428  25.448  1.00  0.00     0.124 S 
ATOM     72  O   UNL A   1      42.122  28.471  24.783  1.00  0.00    -0.237 OA
ATOM     73  O   UNL A   1      44.120  27.868  26.115  1.00  0.00    -0.237 OA
ATOM     74  O   UNL A   1      43.013  26.174  24.705  1.00  0.00    -0.744 OA
ENDBRANCH  67  71
ENDBRANCH  50  64
BRANCH  51  75
ATOM     75  C   UNL A   1      39.641  33.438  37.056  1.00  0.00     0.023 A 
ATOM     76  C   UNL A   1      40.441  34.545  37.380  1.00  0.00     0.031 A 
ATOM     77  C   UNL A   1      38.638  33.060  37.966  1.00  0.00     0.131 A 
ATOM     78  C   UNL A   1      40.260  35.205  38.605  1.00  0.00     0.055 A 
ATOM     79  C   UNL A   1      38.428  33.751  39.161  1.00  0.00     0.041 A 
ATOM     80  F   UNL A   1      37.839  32.013  37.701  1.00  0.00    -0.206 F 
ATOM     81  C   UNL A   1      39.253  34.822  39.494  1.00  0.00     0.022 A 
BRANCH  78  82
ATOM     82  S   UNL A   1      41.426  36.516  39.065  1.00  0.00     0.124 S 
ATOM     83  O   UNL A   1      42.474  36.346  38.065  1.00  0.00    -0.237 OA
ATOM     84  O   UNL A   1      40.601  37.712  38.934  1.00  0.00    -0.237 OA
ATOM     85  O   UNL A   1      41.806  36.168  40.433  1.00  0.00    -0.744 OA
ENDBRANCH  78  82
ENDBRANCH  51  75
BRANCH  63  86
ATOM     86  C   UNL A   1      44.190  28.430  35.391  1.00  0.00     0.023 A 
ATOM     87  C   UNL A   1      44.020  27.394  36.326  1.00  0.00     0.031 A 
ATOM     88  C   UNL A   1      45.489  28.918  35.167  1.00  0.00     0.131 A 
ATOM     89  C   UNL A   1      45.127  26.913  37.041  1.00  0.00     0.055 A 
ATOM     90  C   UNL A   1      46.594  28.400  35.845  1.00  0.00     0.041 A 
ATOM     91  F   UNL A   1      45.705  29.906  34.286  1.00  0.00    -0.206 F 
ATOM     92  C   UNL A   1      46.415  27.399  36.796  1.00  0.00     0.022 A 
BRANCH  89  93
ATOM     93  S   UNL A   1      44.852  25.692  38.353  1.00  0.00     0.124 S 
ATOM     94  O   UNL A   1      46.213  25.266  38.662  1.00  0.00    -0.237 OA
ATOM     95  O   UNL A   1      44.182  26.481  39.381  1.00  0.00    -0.237 OA
ATOM     96  O   UNL A   1      44.018  24.678  37.709  1.00  0.00    -0.744 OA
ENDBRANCH  89  93
ENDBRANCH  63  86
ENDBRANCH  37  38
ENDBRANCH  29  32
ENDBRANCH  27  28
ENDBRANCH  26  27
ENDBRANCH  25  26
ENDBRANCH   1  25
TORSDOF 20
ENDMDL
