MODEL 1
REMARK VINA RESULT:     -10.8      0.000      0.000
REMARK SMILES O=C(NCCCCNC(=O)c1ccc(S(=O)(=O)[O-])cc1N1C(=O)/C(=C\c2ccccc2S)[NH+]=C1c1ccccc1)c1ccc(-c2c3nc(c(-c4cc(S(=O)(=O)[O-])ccc4F)c4ccc([nH]4)c(-c4cc(S(=O)(=O)[O-])ccc4F)c4nc(c(-c5cc(S(=O)(=O)[O-])ccc5F)c5ccc2[nH]5)C=C4)C=C3)cc1
REMARK SMILES IDX 5 1 4 2 3 3 1 4 2 5 41 7 42 8 103 9 43 10 102 11 44 12 45 13
REMARK SMILES IDX 46 14 96 15 47 16 101 17 95 18 97 19 48 20 100 21 94 22
REMARK SMILES IDX 93 23 49 25 81 26 61 27 80 28 62 29 65 30 79 31 98 32 63 33
REMARK SMILES IDX 64 34 78 36 99 37 66 38 50 39 51 40 59 41 52 42 58 43 60 44
REMARK SMILES IDX 57 45 53 46 54 47 55 48 56 49 82 50 83 51 91 52 84 53 90 54
REMARK SMILES IDX 92 55 89 56 85 57 86 58 87 59 88 60 67 61 68 62 76 63 69 64
REMARK SMILES IDX 75 65 77 66 74 67 70 68 71 69 72 70 73 71 6 72 7 73 8 74
REMARK SMILES IDX 9 75 10 77 11 78 12 79 20 80 13 81 19 82 14 83 21 84 22 85
REMARK SMILES IDX 34 86 23 87 24 88 33 89 25 90 35 92 36 93 40 94 37 95 39 96
REMARK SMILES IDX 38 97 26 98 27 99 31 100 28 101 30 102 29 103 32 104 15 106
REMARK SMILES IDX 16 107 17 108 18 109
REMARK H PARENT 3 6 97 24 65 35 8 76 33 91 32 105
REMARK Flexibility Score: inf
ROOT
ATOM      1  C   UNL A   1      43.753  38.780  30.983  1.00  0.00     0.023 C 
ENDROOT
BRANCH   1   2
ATOM      2  C   UNL A   1      44.439  37.535  30.433  1.00  0.00     0.116 C 
BRANCH   2   3
ATOM      3  N   UNL A   1      45.896  37.615  30.418  1.00  0.00    -0.352 N 
ATOM      4  O   UNL A   1      48.021  36.840  30.317  1.00  0.00    -0.269 OA
ATOM      5  C   UNL A   1      46.821  36.618  30.187  1.00  0.00     0.251 C 
ATOM      6  H   UNL A   1      46.272  38.508  30.596  1.00  0.00     0.163 HD
BRANCH   5   7
ATOM      7  C   UNL A   1      46.348  35.268  29.815  1.00  0.00     0.039 A 
ATOM      8  C   UNL A   1      45.923  35.017  28.510  1.00  0.00     0.014 A 
ATOM      9  C   UNL A   1      46.267  34.268  30.786  1.00  0.00     0.014 A 
ATOM     10  C   UNL A   1      45.228  33.850  28.230  1.00  0.00     0.010 A 
ATOM     11  C   UNL A   1      45.672  33.042  30.468  1.00  0.00     0.010 A 
ATOM     12  C   UNL A   1      45.106  32.839  29.199  1.00  0.00    -0.014 A 
BRANCH  12  13
ATOM     13  C   UNL A   1      44.432  31.566  28.830  1.00  0.00     0.031 A 
ATOM     14  C   UNL A   1      45.118  30.530  27.980  1.00  0.00     0.074 A 
ATOM     15  C   UNL A   1      43.195  31.334  29.315  1.00  0.00     0.049 A 
ATOM     16  N   UNL A   1      44.668  29.371  27.572  1.00  0.00    -0.248 NA
ATOM     17  C   UNL A   1      46.481  30.838  27.522  1.00  0.00     0.031 C 
ATOM     18  C   UNL A   1      42.437  32.266  30.155  1.00  0.00     0.029 A 
ATOM     19  N   UNL A   1      42.368  30.250  29.197  1.00  0.00    -0.354 N 
ATOM     20  C   UNL A   1      45.679  28.816  26.793  1.00  0.00     0.074 A 
ATOM     21  C   UNL A   1      46.755  29.786  26.762  1.00  0.00     0.031 C 
ATOM     22  C   UNL A   1      41.284  31.692  30.521  1.00  0.00     0.029 A 
ATOM     23  C   UNL A   1      41.176  30.393  29.870  1.00  0.00     0.049 A 
ATOM     24  H   UNL A   1      42.602  29.444  28.681  1.00  0.00     0.167 HD
ATOM     25  C   UNL A   1      45.704  27.610  26.170  1.00  0.00     0.034 A 
ATOM     26  C   UNL A   1      40.098  29.589  29.932  1.00  0.00     0.034 A 
ATOM     27  C   UNL A   1      44.617  26.659  26.217  1.00  0.00     0.049 A 
ATOM     28  C   UNL A   1      40.131  28.284  29.186  1.00  0.00     0.074 A 
ATOM     29  C   UNL A   1      44.549  25.399  25.645  1.00  0.00     0.029 A 
ATOM     30  N   UNL A   1      43.403  26.863  26.863  1.00  0.00    -0.354 N 
ATOM     31  N   UNL A   1      41.100  27.775  28.460  1.00  0.00    -0.248 NA
ATOM     32  C   UNL A   1      38.930  27.447  29.269  1.00  0.00     0.031 C 
ATOM     33  C   UNL A   1      43.271  24.876  25.880  1.00  0.00     0.029 A 
ATOM     34  C   UNL A   1      42.569  25.770  26.673  1.00  0.00     0.049 A 
ATOM     35  H   UNL A   1      43.169  27.667  27.381  1.00  0.00     0.167 HD
ATOM     36  C   UNL A   1      40.629  26.544  28.017  1.00  0.00     0.074 A 
ATOM     37  C   UNL A   1      39.302  26.381  28.576  1.00  0.00     0.031 C 
ATOM     38  C   UNL A   1      41.239  25.629  27.220  1.00  0.00     0.034 A 
BRANCH  25  39
ATOM     39  C   UNL A   1      46.925  27.274  25.341  1.00  0.00     0.023 A 
ATOM     40  C   UNL A   1      47.109  27.783  24.043  1.00  0.00     0.031 A 
ATOM     41  C   UNL A   1      47.919  26.423  25.857  1.00  0.00     0.131 A 
ATOM     42  C   UNL A   1      48.221  27.385  23.284  1.00  0.00     0.055 A 
ATOM     43  C   UNL A   1      49.064  26.095  25.127  1.00  0.00     0.041 A 
ATOM     44  F   UNL A   1      47.793  25.889  27.082  1.00  0.00    -0.206 F 
ATOM     45  C   UNL A   1      49.213  26.564  23.827  1.00  0.00     0.022 A 
BRANCH  42  46
ATOM     46  S   UNL A   1      48.283  27.840  21.529  1.00  0.00     0.124 S 
ATOM     47  O   UNL A   1      48.657  26.571  20.907  1.00  0.00    -0.237 OA
ATOM     48  O   UNL A   1      46.922  28.298  21.274  1.00  0.00    -0.237 OA
ATOM     49  O   UNL A   1      49.312  28.876  21.478  1.00  0.00    -0.744 OA
ENDBRANCH  42  46
ENDBRANCH  25  39
BRANCH  26  50
ATOM     50  C   UNL A   1      38.888  30.018  30.688  1.00  0.00     0.023 A 
ATOM     51  C   UNL A   1      37.868  30.752  30.067  1.00  0.00     0.031 A 
ATOM     52  C   UNL A   1      38.746  29.713  32.054  1.00  0.00     0.131 A 
ATOM     53  C   UNL A   1      36.769  31.194  30.820  1.00  0.00     0.055 A 
ATOM     54  C   UNL A   1      37.622  30.102  32.783  1.00  0.00     0.041 A 
ATOM     55  F   UNL A   1      39.692  29.010  32.696  1.00  0.00    -0.206 F 
ATOM     56  C   UNL A   1      36.631  30.858  32.169  1.00  0.00     0.022 A 
BRANCH  53  57
ATOM     57  S   UNL A   1      35.561  32.291  30.029  1.00  0.00     0.124 S 
ATOM     58  O   UNL A   1      36.369  33.475  29.760  1.00  0.00    -0.237 OA
ATOM     59  O   UNL A   1      35.160  31.509  28.864  1.00  0.00    -0.237 OA
ATOM     60  O   UNL A   1      34.532  32.455  31.052  1.00  0.00    -0.744 OA
ENDBRANCH  53  57
ENDBRANCH  26  50
BRANCH  38  61
ATOM     61  C   UNL A   1      40.481  24.352  26.948  1.00  0.00     0.023 A 
ATOM     62  C   UNL A   1      39.283  24.346  26.212  1.00  0.00     0.031 A 
ATOM     63  C   UNL A   1      40.950  23.129  27.459  1.00  0.00     0.131 A 
ATOM     64  C   UNL A   1      38.563  23.151  26.059  1.00  0.00     0.055 A 
ATOM     65  C   UNL A   1      40.263  21.933  27.249  1.00  0.00     0.041 A 
ATOM     66  F   UNL A   1      42.085  23.078  28.175  1.00  0.00    -0.206 F 
ATOM     67  C   UNL A   1      39.054  21.942  26.559  1.00  0.00     0.022 A 
BRANCH  64  68
ATOM     68  S   UNL A   1      36.921  23.215  25.290  1.00  0.00     0.124 S 
ATOM     69  O   UNL A   1      36.330  21.957  25.733  1.00  0.00    -0.237 OA
ATOM     70  O   UNL A   1      36.352  24.427  25.872  1.00  0.00    -0.237 OA
ATOM     71  O   UNL A   1      37.215  23.294  23.861  1.00  0.00    -0.744 OA
ENDBRANCH  64  68
ENDBRANCH  38  61
ENDBRANCH  12  13
ENDBRANCH   5   7
ENDBRANCH   2   3
ENDBRANCH   1   2
BRANCH   1  72
ATOM     72  C   UNL A   1      42.948  39.589  29.980  1.00  0.00     0.023 C 
BRANCH  72  73
ATOM     73  C   UNL A   1      42.603  38.874  28.688  1.00  0.00     0.116 C 
BRANCH  73  74
ATOM     74  N   UNL A   1      42.252  39.684  27.554  1.00  0.00    -0.352 N 
ATOM     75  C   UNL A   1      43.072  40.050  26.504  1.00  0.00     0.255 C 
ATOM     76  H   UNL A   1      41.325  40.015  27.522  1.00  0.00     0.163 HD
ATOM     77  O   UNL A   1      42.660  40.852  25.670  1.00  0.00    -0.269 OA
BRANCH  75  78
ATOM     78  C   UNL A   1      44.499  39.595  26.429  1.00  0.00     0.087 A 
ATOM     79  C   UNL A   1      44.682  38.229  26.727  1.00  0.00     0.019 A 
ATOM     80  C   UNL A   1      45.618  40.381  26.051  1.00  0.00     0.150 A 
ATOM     81  C   UNL A   1      45.941  37.635  26.644  1.00  0.00     0.020 A 
ATOM     82  C   UNL A   1      46.881  39.766  25.968  1.00  0.00     0.072 A 
ATOM     83  C   UNL A   1      47.034  38.409  26.261  1.00  0.00     0.059 A 
BRANCH  80  84
ATOM     84  N   UNL A   1      45.556  41.779  25.840  1.00  0.00    -0.153 N 
ATOM     85  C   UNL A   1      45.403  42.315  24.581  1.00  0.00     0.386 C 
ATOM     86  C   UNL A   1      45.442  42.806  26.751  1.00  0.00     0.295 C 
ATOM     87  O   UNL A   1      45.341  41.752  23.505  1.00  0.00    -0.236 OA
ATOM     88  C   UNL A   1      45.188  43.766  24.865  1.00  0.00     0.216 C 
ATOM     89  N   UNL A   1      45.237  43.982  26.226  1.00  0.00    -0.233 N 
ATOM     90  C   UNL A   1      44.910  44.724  23.968  1.00  0.00     0.069 C 
ATOM     91  H   UNL A   1      45.139  44.839  26.699  1.00  0.00     0.312 HD
BRANCH  86  92
ATOM     92  C   UNL A   1      45.602  42.656  28.224  1.00  0.00     0.065 A 
ATOM     93  C   UNL A   1      44.474  42.821  29.035  1.00  0.00     0.017 A 
ATOM     94  C   UNL A   1      46.844  42.459  28.838  1.00  0.00     0.017 A 
ATOM     95  C   UNL A   1      44.592  42.770  30.428  1.00  0.00     0.001 A 
ATOM     96  C   UNL A   1      46.966  42.428  30.228  1.00  0.00     0.001 A 
ATOM     97  C   UNL A   1      45.838  42.580  31.023  1.00  0.00     0.000 A 
ENDBRANCH  86  92
BRANCH  90  98
ATOM     98  C   UNL A   1      44.732  44.512  22.522  1.00  0.00    -0.008 A 
ATOM     99  C   UNL A   1      45.798  44.880  21.683  1.00  0.00     0.009 A 
ATOM    100  C   UNL A   1      43.563  43.969  21.947  1.00  0.00     0.011 A 
ATOM    101  C   UNL A   1      45.723  44.680  20.303  1.00  0.00     0.001 A 
ATOM    102  C   UNL A   1      43.512  43.755  20.561  1.00  0.00     0.015 A 
ATOM    103  C   UNL A   1      44.587  44.104  19.744  1.00  0.00     0.001 A 
BRANCH 100 104
ATOM    104  S   UNL A   1      42.071  43.566  22.863  1.00  0.00    -0.143 SA
ATOM    105  H   UNL A   1      42.271  42.426  23.577  1.00  0.00     0.108 HD
ENDBRANCH 100 104
ENDBRANCH  90  98
ENDBRANCH  80  84
BRANCH  83 106
ATOM    106  S   UNL A   1      48.634  37.657  26.198  1.00  0.00     0.124 S 
ATOM    107  O   UNL A   1      48.606  36.472  27.025  1.00  0.00    -0.237 OA
ATOM    108  O   UNL A   1      49.043  37.609  24.813  1.00  0.00    -0.237 OA
ATOM    109  O   UNL A   1      49.634  38.693  26.927  1.00  0.00    -0.744 OA
ENDBRANCH  83 106
ENDBRANCH  75  78
ENDBRANCH  73  74
ENDBRANCH  72  73
ENDBRANCH   1  72
TORSDOF 19
ENDMDL
MODEL 2
REMARK VINA RESULT:     -10.7     10.596     14.766
REMARK SMILES O=C(NCCCCNC(=O)c1ccc(S(=O)(=O)[O-])cc1N1C(=O)/C(=C\c2ccccc2S)[NH+]=C1c1ccccc1)c1ccc(-c2c3nc(c(-c4cc(S(=O)(=O)[O-])ccc4F)c4ccc([nH]4)c(-c4cc(S(=O)(=O)[O-])ccc4F)c4nc(c(-c5cc(S(=O)(=O)[O-])ccc5F)c5ccc2[nH]5)C=C4)C=C3)cc1
REMARK SMILES IDX 5 1 4 2 3 3 1 4 2 5 41 7 42 8 103 9 43 10 102 11 44 12 45 13
REMARK SMILES IDX 46 14 96 15 47 16 101 17 95 18 97 19 48 20 100 21 94 22
REMARK SMILES IDX 93 23 49 25 81 26 61 27 80 28 62 29 65 30 79 31 98 32 63 33
REMARK SMILES IDX 64 34 78 36 99 37 66 38 50 39 51 40 59 41 52 42 58 43 60 44
REMARK SMILES IDX 57 45 53 46 54 47 55 48 56 49 82 50 83 51 91 52 84 53 90 54
REMARK SMILES IDX 92 55 89 56 85 57 86 58 87 59 88 60 67 61 68 62 76 63 69 64
REMARK SMILES IDX 75 65 77 66 74 67 70 68 71 69 72 70 73 71 6 72 7 73 8 74
REMARK SMILES IDX 9 75 10 77 11 78 12 79 20 80 13 81 19 82 14 83 21 84 22 85
REMARK SMILES IDX 34 86 23 87 24 88 33 89 25 90 35 92 36 93 40 94 37 95 39 96
REMARK SMILES IDX 38 97 26 98 27 99 31 100 28 101 30 102 29 103 32 104 15 106
REMARK SMILES IDX 16 107 17 108 18 109
REMARK H PARENT 3 6 97 24 65 35 8 76 33 91 32 105
REMARK Flexibility Score: inf
ROOT
ATOM      1  C   UNL A   1      52.440  27.684  39.669  1.00  0.00     0.023 C 
ENDROOT
BRANCH   1   2
ATOM      2  C   UNL A   1      52.062  28.894  38.823  1.00  0.00     0.116 C 
BRANCH   2   3
ATOM      3  N   UNL A   1      53.186  29.498  38.112  1.00  0.00    -0.352 N 
ATOM      4  O   UNL A   1      54.503  29.987  36.337  1.00  0.00    -0.269 OA
ATOM      5  C   UNL A   1      53.449  29.521  36.759  1.00  0.00     0.251 C 
ATOM      6  H   UNL A   1      53.849  29.954  38.680  1.00  0.00     0.163 HD
BRANCH   5   7
ATOM      7  C   UNL A   1      52.460  28.947  35.822  1.00  0.00     0.039 A 
ATOM      8  C   UNL A   1      52.541  27.600  35.465  1.00  0.00     0.014 A 
ATOM      9  C   UNL A   1      51.487  29.769  35.249  1.00  0.00     0.014 A 
ATOM     10  C   UNL A   1      51.799  27.132  34.391  1.00  0.00     0.010 A 
ATOM     11  C   UNL A   1      50.655  29.259  34.247  1.00  0.00     0.010 A 
ATOM     12  C   UNL A   1      50.834  27.948  33.777  1.00  0.00    -0.014 A 
BRANCH  12  13
ATOM     13  C   UNL A   1      49.997  27.378  32.688  1.00  0.00     0.031 A 
ATOM     14  C   UNL A   1      50.482  27.336  31.264  1.00  0.00     0.074 A 
ATOM     15  C   UNL A   1      48.798  26.853  33.012  1.00  0.00     0.049 A 
ATOM     16  N   UNL A   1      49.874  26.873  30.201  1.00  0.00    -0.248 NA
ATOM     17  C   UNL A   1      51.816  27.892  30.995  1.00  0.00     0.031 C 
ATOM     18  C   UNL A   1      48.230  26.834  34.364  1.00  0.00     0.029 A 
ATOM     19  N   UNL A   1      47.854  26.219  32.250  1.00  0.00    -0.354 N 
ATOM     20  C   UNL A   1      50.738  27.097  29.133  1.00  0.00     0.074 A 
ATOM     21  C   UNL A   1      51.900  27.768  29.677  1.00  0.00     0.031 C 
ATOM     22  C   UNL A   1      47.066  26.172  34.344  1.00  0.00     0.029 A 
ATOM     23  C   UNL A   1      46.758  25.801  32.969  1.00  0.00     0.049 A 
ATOM     24  H   UNL A   1      47.949  26.075  31.280  1.00  0.00     0.167 HD
ATOM     25  C   UNL A   1      50.573  26.768  27.826  1.00  0.00     0.034 A 
ATOM     26  C   UNL A   1      45.614  25.216  32.569  1.00  0.00     0.034 A 
ATOM     27  C   UNL A   1      49.403  26.097  27.308  1.00  0.00     0.049 A 
ATOM     28  C   UNL A   1      45.435  24.913  31.107  1.00  0.00     0.074 A 
ATOM     29  C   UNL A   1      49.146  25.692  26.008  1.00  0.00     0.029 A 
ATOM     30  N   UNL A   1      48.289  25.738  28.058  1.00  0.00    -0.354 N 
ATOM     31  N   UNL A   1      46.267  25.127  30.114  1.00  0.00    -0.248 NA
ATOM     32  C   UNL A   1      44.167  24.289  30.714  1.00  0.00     0.031 C 
ATOM     33  C   UNL A   1      47.851  25.161  25.959  1.00  0.00     0.029 A 
ATOM     34  C   UNL A   1      47.329  25.153  27.243  1.00  0.00     0.049 A 
ATOM     35  H   UNL A   1      48.193  25.880  29.028  1.00  0.00     0.167 HD
ATOM     36  C   UNL A   1      45.627  24.643  28.977  1.00  0.00     0.074 A 
ATOM     37  C   UNL A   1      44.354  24.107  29.415  1.00  0.00     0.031 C 
ATOM     38  C   UNL A   1      46.054  24.640  27.689  1.00  0.00     0.034 A 
BRANCH  25  39
ATOM     39  C   UNL A   1      51.662  27.176  26.857  1.00  0.00     0.023 A 
ATOM     40  C   UNL A   1      52.681  26.291  26.465  1.00  0.00     0.031 A 
ATOM     41  C   UNL A   1      51.683  28.477  26.322  1.00  0.00     0.131 A 
ATOM     42  C   UNL A   1      53.712  26.736  25.621  1.00  0.00     0.055 A 
ATOM     43  C   UNL A   1      52.666  28.890  25.420  1.00  0.00     0.041 A 
ATOM     44  F   UNL A   1      50.749  29.376  26.673  1.00  0.00    -0.206 F 
ATOM     45  C   UNL A   1      53.696  28.022  25.075  1.00  0.00     0.022 A 
BRANCH  42  46
ATOM     46  S   UNL A   1      55.146  25.658  25.358  1.00  0.00     0.124 S 
ATOM     47  O   UNL A   1      55.838  25.767  26.641  1.00  0.00    -0.237 OA
ATOM     48  O   UNL A   1      54.525  24.369  25.076  1.00  0.00    -0.237 OA
ATOM     49  O   UNL A   1      55.841  26.278  24.231  1.00  0.00    -0.744 OA
ENDBRANCH  42  46
ENDBRANCH  25  39
BRANCH  26  50
ATOM     50  C   UNL A   1      44.538  24.924  33.557  1.00  0.00     0.023 A 
ATOM     51  C   UNL A   1      43.659  25.927  33.990  1.00  0.00     0.031 A 
ATOM     52  C   UNL A   1      44.386  23.634  34.099  1.00  0.00     0.131 A 
ATOM     53  C   UNL A   1      42.695  25.636  34.967  1.00  0.00     0.055 A 
ATOM     54  C   UNL A   1      43.386  23.335  35.024  1.00  0.00     0.041 A 
ATOM     55  F   UNL A   1      45.199  22.636  33.716  1.00  0.00    -0.206 F 
ATOM     56  C   UNL A   1      42.541  24.343  35.473  1.00  0.00     0.022 A 
BRANCH  53  57
ATOM     57  S   UNL A   1      41.698  26.996  35.633  1.00  0.00     0.124 S 
ATOM     58  O   UNL A   1      42.728  27.933  36.066  1.00  0.00    -0.237 OA
ATOM     59  O   UNL A   1      40.915  27.395  34.467  1.00  0.00    -0.237 OA
ATOM     60  O   UNL A   1      40.936  26.364  36.707  1.00  0.00    -0.744 OA
ENDBRANCH  53  57
ENDBRANCH  26  50
BRANCH  38  61
ATOM     61  C   UNL A   1      45.143  23.995  26.673  1.00  0.00     0.023 A 
ATOM     62  C   UNL A   1      45.214  22.622  26.382  1.00  0.00     0.031 A 
ATOM     63  C   UNL A   1      44.210  24.775  25.966  1.00  0.00     0.131 A 
ATOM     64  C   UNL A   1      44.411  22.081  25.365  1.00  0.00     0.055 A 
ATOM     65  C   UNL A   1      43.369  24.219  25.002  1.00  0.00     0.041 A 
ATOM     66  F   UNL A   1      44.104  26.093  26.200  1.00  0.00    -0.206 F 
ATOM     67  C   UNL A   1      43.477  22.868  24.686  1.00  0.00     0.022 A 
BRANCH  64  68
ATOM     68  S   UNL A   1      44.677  20.357  24.869  1.00  0.00     0.124 S 
ATOM     69  O   UNL A   1      44.492  20.426  23.423  1.00  0.00    -0.237 OA
ATOM     70  O   UNL A   1      46.040  20.108  25.326  1.00  0.00    -0.237 OA
ATOM     71  O   UNL A   1      43.639  19.628  25.593  1.00  0.00    -0.744 OA
ENDBRANCH  64  68
ENDBRANCH  38  61
ENDBRANCH  12  13
ENDBRANCH   5   7
ENDBRANCH   2   3
ENDBRANCH   1   2
BRANCH   1  72
ATOM     72  C   UNL A   1      52.986  26.489  38.907  1.00  0.00     0.023 C 
BRANCH  72  73
ATOM     73  C   UNL A   1      51.949  25.503  38.405  1.00  0.00     0.116 C 
BRANCH  73  74
ATOM     74  N   UNL A   1      51.966  24.178  38.965  1.00  0.00    -0.352 N 
ATOM     75  C   UNL A   1      50.879  23.362  39.211  1.00  0.00     0.255 C 
ATOM     76  H   UNL A   1      52.851  23.813  39.198  1.00  0.00     0.163 HD
ATOM     77  O   UNL A   1      51.046  22.303  39.811  1.00  0.00    -0.269 OA
BRANCH  75  78
ATOM     78  C   UNL A   1      49.482  23.798  38.884  1.00  0.00     0.087 A 
ATOM     79  C   UNL A   1      48.872  24.574  39.891  1.00  0.00     0.019 A 
ATOM     80  C   UNL A   1      48.778  23.547  37.679  1.00  0.00     0.150 A 
ATOM     81  C   UNL A   1      47.597  25.110  39.717  1.00  0.00     0.020 A 
ATOM     82  C   UNL A   1      47.493  24.097  37.516  1.00  0.00     0.072 A 
ATOM     83  C   UNL A   1      46.916  24.869  38.527  1.00  0.00     0.059 A 
BRANCH  80  84
ATOM     84  N   UNL A   1      49.258  22.692  36.657  1.00  0.00    -0.153 N 
ATOM     85  C   UNL A   1      50.188  23.117  35.735  1.00  0.00     0.386 C 
ATOM     86  C   UNL A   1      49.085  21.336  36.486  1.00  0.00     0.295 C 
ATOM     87  O   UNL A   1      50.697  24.212  35.601  1.00  0.00    -0.236 OA
ATOM     88  C   UNL A   1      50.533  21.856  35.012  1.00  0.00     0.216 C 
ATOM     89  N   UNL A   1      49.801  20.810  35.531  1.00  0.00    -0.233 N 
ATOM     90  C   UNL A   1      51.461  21.712  34.054  1.00  0.00     0.069 C 
ATOM     91  H   UNL A   1      49.816  19.869  35.245  1.00  0.00     0.312 HD
BRANCH  86  92
ATOM     92  C   UNL A   1      48.120  20.500  37.253  1.00  0.00     0.065 A 
ATOM     93  C   UNL A   1      48.485  20.068  38.532  1.00  0.00     0.017 A 
ATOM     94  C   UNL A   1      46.912  20.044  36.711  1.00  0.00     0.017 A 
ATOM     95  C   UNL A   1      47.645  19.215  39.256  1.00  0.00     0.001 A 
ATOM     96  C   UNL A   1      46.084  19.176  37.425  1.00  0.00     0.001 A 
ATOM     97  C   UNL A   1      46.449  18.763  38.699  1.00  0.00     0.000 A 
ENDBRANCH  86  92
BRANCH  90  98
ATOM     98  C   UNL A   1      52.345  22.779  33.556  1.00  0.00    -0.008 A 
ATOM     99  C   UNL A   1      51.867  23.564  32.492  1.00  0.00     0.009 A 
ATOM    100  C   UNL A   1      53.627  23.045  34.083  1.00  0.00     0.011 A 
ATOM    101  C   UNL A   1      52.630  24.618  31.984  1.00  0.00     0.001 A 
ATOM    102  C   UNL A   1      54.370  24.122  33.576  1.00  0.00     0.015 A 
ATOM    103  C   UNL A   1      53.873  24.907  32.536  1.00  0.00     0.001 A 
BRANCH 100 104
ATOM    104  S   UNL A   1      54.430  22.060  35.353  1.00  0.00    -0.143 SA
ATOM    105  H   UNL A   1      53.749  20.896  35.522  1.00  0.00     0.108 HD
ENDBRANCH 100 104
ENDBRANCH  90  98
ENDBRANCH  80  84
BRANCH  83 106
ATOM    106  S   UNL A   1      45.281  25.516  38.331  1.00  0.00     0.124 S 
ATOM    107  O   UNL A   1      45.304  26.474  37.249  1.00  0.00    -0.237 OA
ATOM    108  O   UNL A   1      44.362  24.400  38.340  1.00  0.00    -0.237 OA
ATOM    109  O   UNL A   1      44.978  26.358  39.674  1.00  0.00    -0.744 OA
ENDBRANCH  83 106
ENDBRANCH  75  78
ENDBRANCH  73  74
ENDBRANCH  72  73
ENDBRANCH   1  72
TORSDOF 19
ENDMDL
MODEL 3
REMARK VINA RESULT:     -10.5      5.481     13.514
REMARK SMILES O=C(NCCCCNC(=O)c1ccc(S(=O)(=O)[O-])cc1N1C(=O)/C(=C\c2ccccc2S)[NH+]=C1c1ccccc1)c1ccc(-c2c3nc(c(-c4cc(S(=O)(=O)[O-])ccc4F)c4ccc([nH]4)c(-c4cc(S(=O)(=O)[O-])ccc4F)c4nc(c(-c5cc(S(=O)(=O)[O-])ccc5F)c5ccc2[nH]5)C=C4)C=C3)cc1
REMARK SMILES IDX 5 1 4 2 3 3 1 4 2 5 41 7 42 8 103 9 43 10 102 11 44 12 45 13
REMARK SMILES IDX 46 14 96 15 47 16 101 17 95 18 97 19 48 20 100 21 94 22
REMARK SMILES IDX 93 23 49 25 81 26 61 27 80 28 62 29 65 30 79 31 98 32 63 33
REMARK SMILES IDX 64 34 78 36 99 37 66 38 50 39 51 40 59 41 52 42 58 43 60 44
REMARK SMILES IDX 57 45 53 46 54 47 55 48 56 49 82 50 83 51 91 52 84 53 90 54
REMARK SMILES IDX 92 55 89 56 85 57 86 58 87 59 88 60 67 61 68 62 76 63 69 64
REMARK SMILES IDX 75 65 77 66 74 67 70 68 71 69 72 70 73 71 6 72 7 73 8 74
REMARK SMILES IDX 9 75 10 77 11 78 12 79 20 80 13 81 19 82 14 83 21 84 22 85
REMARK SMILES IDX 34 86 23 87 24 88 33 89 25 90 35 92 36 93 40 94 37 95 39 96
REMARK SMILES IDX 38 97 26 98 27 99 31 100 28 101 30 102 29 103 32 104 15 106
REMARK SMILES IDX 16 107 17 108 18 109
REMARK H PARENT 3 6 97 24 65 35 8 76 33 91 32 105
REMARK Flexibility Score: inf
ROOT
ATOM      1  C   UNL A   1      34.768  23.743  24.647  1.00  0.00     0.023 C 
ENDROOT
BRANCH   1   2
ATOM      2  C   UNL A   1      36.238  23.507  24.321  1.00  0.00     0.116 C 
BRANCH   2   3
ATOM      3  N   UNL A   1      36.719  22.174  24.674  1.00  0.00    -0.352 N 
ATOM      4  O   UNL A   1      38.132  20.637  25.551  1.00  0.00    -0.269 OA
ATOM      5  C   UNL A   1      37.808  21.816  25.441  1.00  0.00     0.251 C 
ATOM      6  H   UNL A   1      36.191  21.425  24.314  1.00  0.00     0.163 HD
BRANCH   5   7
ATOM      7  C   UNL A   1      38.602  22.873  26.103  1.00  0.00     0.039 A 
ATOM      8  C   UNL A   1      38.123  24.183  26.138  1.00  0.00     0.014 A 
ATOM      9  C   UNL A   1      39.858  22.569  26.633  1.00  0.00     0.014 A 
ATOM     10  C   UNL A   1      38.976  25.213  26.505  1.00  0.00     0.010 A 
ATOM     11  C   UNL A   1      40.672  23.599  27.115  1.00  0.00     0.010 A 
ATOM     12  C   UNL A   1      40.256  24.936  27.013  1.00  0.00    -0.014 A 
BRANCH  12  13
ATOM     13  C   UNL A   1      41.105  26.065  27.480  1.00  0.00     0.031 A 
ATOM     14  C   UNL A   1      42.479  26.301  26.913  1.00  0.00     0.074 A 
ATOM     15  C   UNL A   1      40.596  26.909  28.400  1.00  0.00     0.049 A 
ATOM     16  N   UNL A   1      43.342  27.238  27.212  1.00  0.00    -0.248 NA
ATOM     17  C   UNL A   1      42.948  25.361  25.885  1.00  0.00     0.031 C 
ATOM     18  C   UNL A   1      39.271  26.779  29.014  1.00  0.00     0.029 A 
ATOM     19  N   UNL A   1      41.110  28.046  28.963  1.00  0.00    -0.354 N 
ATOM     20  C   UNL A   1      44.466  26.994  26.427  1.00  0.00     0.074 A 
ATOM     21  C   UNL A   1      44.181  25.797  25.662  1.00  0.00     0.031 C 
ATOM     22  C   UNL A   1      39.056  27.824  29.824  1.00  0.00     0.029 A 
ATOM     23  C   UNL A   1      40.257  28.647  29.860  1.00  0.00     0.049 A 
ATOM     24  H   UNL A   1      42.003  28.401  28.748  1.00  0.00     0.167 HD
ATOM     25  C   UNL A   1      45.619  27.706  26.353  1.00  0.00     0.034 A 
ATOM     26  C   UNL A   1      40.429  29.722  30.653  1.00  0.00     0.034 A 
ATOM     27  C   UNL A   1      45.878  28.898  27.128  1.00  0.00     0.049 A 
ATOM     28  C   UNL A   1      41.738  30.459  30.591  1.00  0.00     0.074 A 
ATOM     29  C   UNL A   1      47.000  29.711  27.110  1.00  0.00     0.029 A 
ATOM     30  N   UNL A   1      45.012  29.446  28.067  1.00  0.00    -0.354 N 
ATOM     31  N   UNL A   1      42.785  30.215  29.838  1.00  0.00    -0.248 NA
ATOM     32  C   UNL A   1      41.887  31.613  31.483  1.00  0.00     0.031 C 
ATOM     33  C   UNL A   1      46.844  30.700  28.089  1.00  0.00     0.029 A 
ATOM     34  C   UNL A   1      45.589  30.561  28.659  1.00  0.00     0.049 A 
ATOM     35  H   UNL A   1      44.118  29.093  28.281  1.00  0.00     0.167 HD
ATOM     36  C   UNL A   1      43.712  31.203  30.152  1.00  0.00     0.074 A 
ATOM     37  C   UNL A   1      43.088  32.055  31.145  1.00  0.00     0.031 C 
ATOM     38  C   UNL A   1      44.964  31.391  29.663  1.00  0.00     0.034 A 
BRANCH  25  39
ATOM     39  C   UNL A   1      46.708  27.184  25.441  1.00  0.00     0.023 A 
ATOM     40  C   UNL A   1      46.990  27.781  24.200  1.00  0.00     0.031 A 
ATOM     41  C   UNL A   1      47.473  26.065  25.818  1.00  0.00     0.131 A 
ATOM     42  C   UNL A   1      47.961  27.218  23.354  1.00  0.00     0.055 A 
ATOM     43  C   UNL A   1      48.492  25.558  25.007  1.00  0.00     0.041 A 
ATOM     44  F   UNL A   1      47.239  25.438  26.982  1.00  0.00    -0.206 F 
ATOM     45  C   UNL A   1      48.731  26.126  23.761  1.00  0.00     0.022 A 
BRANCH  42  46
ATOM     46  S   UNL A   1      48.104  27.846  21.658  1.00  0.00     0.124 S 
ATOM     47  O   UNL A   1      48.337  26.615  20.905  1.00  0.00    -0.237 OA
ATOM     48  O   UNL A   1      46.812  28.487  21.449  1.00  0.00    -0.237 OA
ATOM     49  O   UNL A   1      49.249  28.752  21.723  1.00  0.00    -0.744 OA
ENDBRANCH  42  46
ENDBRANCH  25  39
BRANCH  26  50
ATOM     50  C   UNL A   1      39.354  30.131  31.601  1.00  0.00     0.023 A 
ATOM     51  C   UNL A   1      38.480  31.183  31.295  1.00  0.00     0.031 A 
ATOM     52  C   UNL A   1      39.200  29.481  32.840  1.00  0.00     0.131 A 
ATOM     53  C   UNL A   1      37.517  31.585  32.234  1.00  0.00     0.055 A 
ATOM     54  C   UNL A   1      38.201  29.844  33.743  1.00  0.00     0.041 A 
ATOM     55  F   UNL A   1      40.008  28.465  33.180  1.00  0.00    -0.206 F 
ATOM     56  C   UNL A   1      37.361  30.911  33.448  1.00  0.00     0.022 A 
BRANCH  53  57
ATOM     57  S   UNL A   1      36.526  33.061  31.881  1.00  0.00     0.124 S 
ATOM     58  O   UNL A   1      35.323  32.478  31.299  1.00  0.00    -0.237 OA
ATOM     59  O   UNL A   1      36.377  33.650  33.208  1.00  0.00    -0.237 OA
ATOM     60  O   UNL A   1      37.365  33.820  30.956  1.00  0.00    -0.744 OA
ENDBRANCH  53  57
ENDBRANCH  26  50
BRANCH  38  61
ATOM     61  C   UNL A   1      45.719  32.594  30.174  1.00  0.00     0.023 A 
ATOM     62  C   UNL A   1      45.651  33.840  29.526  1.00  0.00     0.031 A 
ATOM     63  C   UNL A   1      46.542  32.482  31.309  1.00  0.00     0.131 A 
ATOM     64  C   UNL A   1      46.440  34.908  29.981  1.00  0.00     0.055 A 
ATOM     65  C   UNL A   1      47.274  33.566  31.795  1.00  0.00     0.041 A 
ATOM     66  F   UNL A   1      46.649  31.314  31.963  1.00  0.00    -0.206 F 
ATOM     67  C   UNL A   1      47.238  34.783  31.122  1.00  0.00     0.022 A 
BRANCH  64  68
ATOM     68  S   UNL A   1      46.492  36.433  29.000  1.00  0.00     0.124 S 
ATOM     69  O   UNL A   1      47.755  36.289  28.283  1.00  0.00    -0.237 OA
ATOM     70  O   UNL A   1      45.283  36.323  28.190  1.00  0.00    -0.237 OA
ATOM     71  O   UNL A   1      46.468  37.490  30.009  1.00  0.00    -0.744 OA
ENDBRANCH  64  68
ENDBRANCH  38  61
ENDBRANCH  12  13
ENDBRANCH   5   7
ENDBRANCH   2   3
ENDBRANCH   1   2
BRANCH   1  72
ATOM     72  C   UNL A   1      33.857  23.979  23.454  1.00  0.00     0.023 C 
BRANCH  72  73
ATOM     73  C   UNL A   1      33.265  25.370  23.347  1.00  0.00     0.116 C 
BRANCH  73  74
ATOM     74  N   UNL A   1      34.168  26.457  23.082  1.00  0.00    -0.352 N 
ATOM     75  C   UNL A   1      33.849  27.795  22.952  1.00  0.00     0.255 C 
ATOM     76  H   UNL A   1      35.119  26.222  22.983  1.00  0.00     0.163 HD
ATOM     77  O   UNL A   1      34.717  28.590  22.601  1.00  0.00    -0.269 OA
BRANCH  75  78
ATOM     78  C   UNL A   1      32.438  28.282  23.099  1.00  0.00     0.087 A 
ATOM     79  C   UNL A   1      31.754  28.436  21.875  1.00  0.00     0.019 A 
ATOM     80  C   UNL A   1      31.753  28.537  24.314  1.00  0.00     0.150 A 
ATOM     81  C   UNL A   1      30.415  28.822  21.840  1.00  0.00     0.020 A 
ATOM     82  C   UNL A   1      30.401  28.922  24.263  1.00  0.00     0.072 A 
ATOM     83  C   UNL A   1      29.745  29.060  23.037  1.00  0.00     0.059 A 
BRANCH  80  84
ATOM     84  N   UNL A   1      32.380  28.517  25.583  1.00  0.00    -0.153 N 
ATOM     85  C   UNL A   1      33.093  29.596  26.057  1.00  0.00     0.386 C 
ATOM     86  C   UNL A   1      32.271  27.603  26.608  1.00  0.00     0.295 C 
ATOM     87  O   UNL A   1      33.336  30.657  25.516  1.00  0.00    -0.236 OA
ATOM     88  C   UNL A   1      33.383  29.204  27.469  1.00  0.00     0.216 C 
ATOM     89  N   UNL A   1      32.849  27.959  27.722  1.00  0.00    -0.233 N 
ATOM     90  C   UNL A   1      33.996  29.954  28.397  1.00  0.00     0.069 C 
ATOM     91  H   UNL A   1      32.894  27.447  28.561  1.00  0.00     0.312 HD
BRANCH  86  92
ATOM     92  C   UNL A   1      31.618  26.269  26.490  1.00  0.00     0.065 A 
ATOM     93  C   UNL A   1      32.372  25.131  26.793  1.00  0.00     0.017 A 
ATOM     94  C   UNL A   1      30.320  26.100  25.995  1.00  0.00     0.017 A 
ATOM     95  C   UNL A   1      31.826  23.855  26.620  1.00  0.00     0.001 A 
ATOM     96  C   UNL A   1      29.781  24.827  25.803  1.00  0.00     0.001 A 
ATOM     97  C   UNL A   1      30.534  23.703  26.119  1.00  0.00     0.000 A 
ENDBRANCH  86  92
BRANCH  90  98
ATOM     98  C   UNL A   1      34.474  31.332  28.200  1.00  0.00    -0.008 A 
ATOM     99  C   UNL A   1      33.510  32.356  28.224  1.00  0.00     0.009 A 
ATOM    100  C   UNL A   1      35.828  31.670  27.991  1.00  0.00     0.011 A 
ATOM    101  C   UNL A   1      33.885  33.693  28.079  1.00  0.00     0.001 A 
ATOM    102  C   UNL A   1      36.191  33.021  27.870  1.00  0.00     0.015 A 
ATOM    103  C   UNL A   1      35.226  34.027  27.918  1.00  0.00     0.001 A 
BRANCH 100 104
ATOM    104  S   UNL A   1      37.159  30.477  27.811  1.00  0.00    -0.143 SA
ATOM    105  H   UNL A   1      36.643  29.276  27.436  1.00  0.00     0.108 HD
ENDBRANCH 100 104
ENDBRANCH  90  98
ENDBRANCH  80  84
BRANCH  83 106
ATOM    106  S   UNL A   1      28.058  29.590  22.983  1.00  0.00     0.124 S 
ATOM    107  O   UNL A   1      27.218  28.439  23.223  1.00  0.00    -0.237 OA
ATOM    108  O   UNL A   1      27.949  30.792  23.779  1.00  0.00    -0.237 OA
ATOM    109  O   UNL A   1      27.788  30.037  21.456  1.00  0.00    -0.744 OA
ENDBRANCH  83 106
ENDBRANCH  75  78
ENDBRANCH  73  74
ENDBRANCH  72  73
ENDBRANCH   1  72
TORSDOF 19
ENDMDL
