MODEL 1
REMARK VINA RESULT:     -11.5      0.000      0.000
REMARK SMILES COC(=O)C[C@H](c1ccc(C(=O)NCCCCNC(=O)c2ccc(-c3c4nc(c(-c5cc(S(=O)(=O)[O-])ccc5F)c5ccc([nH]5)c(-c5cc(S(=O)(=O)[O-])ccc5F)c5nc(c(-c6cc(S(=O)(=O)[O-])ccc6F)c6ccc3[nH]6)C=C5)C=C4)cc2)cc1)c1c(O)n[nH]c1C
REMARK SMILES IDX 15 1 14 2 13 3 11 4 12 5 10 7 7 8 8 9 85 10 9 11 84 12 6 13
REMARK SMILES IDX 5 14 3 15 4 16 2 17 1 18 86 19 87 20 91 21 89 22 90 23 92 24
REMARK SMILES IDX 88 26 16 28 17 29 18 30 19 31 20 33 21 34 22 35 83 36 23 37
REMARK SMILES IDX 82 38 24 39 25 40 26 41 76 42 27 43 81 44 75 45 77 46 28 47
REMARK SMILES IDX 80 48 74 49 73 50 29 52 61 53 41 54 60 55 42 56 45 57 59 58
REMARK SMILES IDX 78 59 43 60 44 61 58 63 79 64 46 65 30 66 31 67 39 68 32 69
REMARK SMILES IDX 38 70 40 71 37 72 33 73 34 74 35 75 36 76 62 77 63 78 71 79
REMARK SMILES IDX 64 80 70 81 72 82 69 83 65 84 66 85 67 86 68 87 47 88 48 89
REMARK SMILES IDX 56 90 49 91 55 92 57 93 54 94 50 95 51 96 52 97 53 98
REMARK H PARENT 13 6 90 25 88 27 18 32 77 51 45 62
REMARK Flexibility Score: inf
ROOT
ATOM      1  C   UNL A   1      37.218  21.633  24.436  1.00  0.00     0.023 C 
ENDROOT
BRANCH   1   2
ATOM      2  C   UNL A   1      35.695  21.730  24.538  1.00  0.00     0.116 C 
BRANCH   2   3
ATOM      3  N   UNL A   1      35.253  21.481  25.895  1.00  0.00    -0.352 N 
ATOM      4  C   UNL A   1      34.390  22.174  26.704  1.00  0.00     0.251 C 
ATOM      5  O   UNL A   1      34.129  21.707  27.812  1.00  0.00    -0.269 OA
ATOM      6  H   UNL A   1      35.641  20.676  26.308  1.00  0.00     0.163 HD
BRANCH   4   7
ATOM      7  C   UNL A   1      33.745  23.451  26.295  1.00  0.00     0.039 A 
ATOM      8  C   UNL A   1      32.653  25.834  25.221  1.00  0.00    -0.040 A 
ATOM      9  C   UNL A   1      34.041  25.621  25.236  1.00  0.00     0.005 A 
ATOM     10  C   UNL A   1      31.828  24.857  25.801  1.00  0.00     0.005 A 
ATOM     11  C   UNL A   1      34.577  24.443  25.765  1.00  0.00     0.014 A 
ATOM     12  C   UNL A   1      32.366  23.669  26.303  1.00  0.00     0.014 A 
BRANCH   8  13
ATOM     13  C   UNL A   1      32.007  27.030  24.539  1.00  0.00     0.068 C 
BRANCH  13  14
ATOM     14  C   UNL A   1      30.529  26.839  24.173  1.00  0.00     0.136 C 
BRANCH  14  15
ATOM     15  C   UNL A   1      30.194  27.546  22.885  1.00  0.00     0.306 C 
ATOM     16  O   UNL A   1      30.759  27.341  21.820  1.00  0.00    -0.252 OA
BRANCH  15  17
ATOM     17  O   UNL A   1      29.144  28.395  23.066  1.00  0.00    -0.469 OA
ATOM     18  C   UNL A   1      29.518  29.754  23.303  1.00  0.00     0.282 C 
ENDBRANCH  15  17
ENDBRANCH  14  15
ENDBRANCH  13  14
BRANCH  13  19
ATOM     19  C   UNL A   1      32.254  28.257  25.403  1.00  0.00     0.044 A 
ATOM     20  C   UNL A   1      32.955  29.396  24.951  1.00  0.00     0.234 A 
ATOM     21  C   UNL A   1      31.993  28.599  26.731  1.00  0.00     0.040 A 
ATOM     22  N   UNL A   1      33.109  30.368  25.831  1.00  0.00    -0.137 NA
ATOM     23  N   UNL A   1      32.511  29.858  26.917  1.00  0.00    -0.279 N 
ATOM     24  C   UNL A   1      31.347  27.913  27.882  1.00  0.00     0.066 C 
ATOM     25  H   UNL A   1      32.450  30.344  27.771  1.00  0.00     0.190 HD
BRANCH  20  26
ATOM     26  O   UNL A   1      33.499  29.639  23.763  1.00  0.00    -0.492 OA
ATOM     27  H   UNL A   1      33.788  28.928  23.225  1.00  0.00     0.295 HD
ENDBRANCH  20  26
ENDBRANCH  13  19
ENDBRANCH   8  13
ENDBRANCH   4   7
ENDBRANCH   2   3
ENDBRANCH   1   2
BRANCH   1  28
ATOM     28  C   UNL A   1      37.843  20.532  25.298  1.00  0.00     0.023 C 
BRANCH  28  29
ATOM     29  C   UNL A   1      39.218  20.862  25.864  1.00  0.00     0.116 C 
BRANCH  29  30
ATOM     30  N   UNL A   1      40.122  19.724  25.868  1.00  0.00    -0.352 N 
ATOM     31  C   UNL A   1      41.488  19.723  26.037  1.00  0.00     0.251 C 
ATOM     32  H   UNL A   1      39.704  18.843  25.735  1.00  0.00     0.163 HD
ATOM     33  O   UNL A   1      42.124  18.689  25.900  1.00  0.00    -0.269 OA
BRANCH  31  34
ATOM     34  C   UNL A   1      42.170  21.000  26.335  1.00  0.00     0.039 A 
ATOM     35  C   UNL A   1      42.542  21.826  25.273  1.00  0.00     0.014 A 
ATOM     36  C   UNL A   1      42.394  21.397  27.656  1.00  0.00     0.014 A 
ATOM     37  C   UNL A   1      43.082  23.085  25.539  1.00  0.00     0.010 A 
ATOM     38  C   UNL A   1      42.870  22.678  27.918  1.00  0.00     0.010 A 
ATOM     39  C   UNL A   1      43.216  23.536  26.863  1.00  0.00    -0.014 A 
BRANCH  39  40
ATOM     40  C   UNL A   1      43.719  24.899  27.163  1.00  0.00     0.031 A 
ATOM     41  C   UNL A   1      42.781  25.940  27.709  1.00  0.00     0.074 A 
ATOM     42  C   UNL A   1      44.997  25.215  26.879  1.00  0.00     0.049 A 
ATOM     43  N   UNL A   1      43.003  27.204  27.961  1.00  0.00    -0.248 NA
ATOM     44  C   UNL A   1      41.401  25.505  27.975  1.00  0.00     0.031 C 
ATOM     45  C   UNL A   1      45.986  24.299  26.303  1.00  0.00     0.029 A 
ATOM     46  N   UNL A   1      45.684  26.393  27.024  1.00  0.00    -0.354 N 
ATOM     47  C   UNL A   1      41.789  27.720  28.403  1.00  0.00     0.074 A 
ATOM     48  C   UNL A   1      40.823  26.644  28.323  1.00  0.00     0.031 C 
ATOM     49  C   UNL A   1      47.154  24.946  26.163  1.00  0.00     0.029 A 
ATOM     50  C   UNL A   1      46.990  26.329  26.599  1.00  0.00     0.049 A 
ATOM     51  H   UNL A   1      45.279  27.209  27.396  1.00  0.00     0.167 HD
ATOM     52  C   UNL A   1      41.513  28.969  28.853  1.00  0.00     0.034 A 
ATOM     53  C   UNL A   1      47.945  27.280  26.555  1.00  0.00     0.034 A 
ATOM     54  C   UNL A   1      42.494  30.024  28.938  1.00  0.00     0.049 A 
ATOM     55  C   UNL A   1      47.612  28.664  27.053  1.00  0.00     0.074 A 
ATOM     56  C   UNL A   1      42.341  31.307  29.431  1.00  0.00     0.029 A 
ATOM     57  N   UNL A   1      43.813  29.919  28.511  1.00  0.00    -0.354 N 
ATOM     58  N   UNL A   1      46.474  29.123  27.518  1.00  0.00    -0.248 NA
ATOM     59  C   UNL A   1      48.697  29.653  27.032  1.00  0.00     0.031 C 
ATOM     60  C   UNL A   1      43.546  31.996  29.247  1.00  0.00     0.029 A 
ATOM     61  C   UNL A   1      44.475  31.121  28.705  1.00  0.00     0.049 A 
ATOM     62  H   UNL A   1      44.218  29.108  28.127  1.00  0.00     0.167 HD
ATOM     63  C   UNL A   1      46.715  30.447  27.873  1.00  0.00     0.074 A 
ATOM     64  C   UNL A   1      48.110  30.705  27.580  1.00  0.00     0.031 C 
ATOM     65  C   UNL A   1      45.865  31.365  28.398  1.00  0.00     0.034 A 
BRANCH  52  66
ATOM     66  C   UNL A   1      40.089  29.257  29.265  1.00  0.00     0.023 A 
ATOM     67  C   UNL A   1      39.707  29.305  30.617  1.00  0.00     0.031 A 
ATOM     68  C   UNL A   1      39.092  29.451  28.293  1.00  0.00     0.131 A 
ATOM     69  C   UNL A   1      38.355  29.459  30.959  1.00  0.00     0.055 A 
ATOM     70  C   UNL A   1      37.761  29.688  28.642  1.00  0.00     0.041 A 
ATOM     71  F   UNL A   1      39.391  29.398  26.986  1.00  0.00    -0.206 F 
ATOM     72  C   UNL A   1      37.382  29.677  29.982  1.00  0.00     0.022 A 
BRANCH  69  73
ATOM     73  S   UNL A   1      37.869  29.223  32.690  1.00  0.00     0.124 S 
ATOM     74  O   UNL A   1      37.758  27.768  32.769  1.00  0.00    -0.237 OA
ATOM     75  O   UNL A   1      38.985  29.818  33.416  1.00  0.00    -0.237 OA
ATOM     76  O   UNL A   1      36.602  29.944  32.792  1.00  0.00    -0.744 OA
ENDBRANCH  69  73
ENDBRANCH  52  66
BRANCH  53  77
ATOM     77  C   UNL A   1      49.300  26.968  26.019  1.00  0.00     0.023 A 
ATOM     78  C   UNL A   1      49.730  27.496  24.792  1.00  0.00     0.031 A 
ATOM     79  C   UNL A   1      50.170  26.106  26.709  1.00  0.00     0.131 A 
ATOM     80  C   UNL A   1      50.977  27.120  24.268  1.00  0.00     0.055 A 
ATOM     81  C   UNL A   1      51.429  25.773  26.208  1.00  0.00     0.041 A 
ATOM     82  F   UNL A   1      49.810  25.580  27.891  1.00  0.00    -0.206 F 
ATOM     83  C   UNL A   1      51.835  26.271  24.973  1.00  0.00     0.022 A 
BRANCH  80  84
ATOM     84  S   UNL A   1      51.430  27.696  22.609  1.00  0.00     0.124 S 
ATOM     85  O   UNL A   1      52.880  27.803  22.717  1.00  0.00    -0.237 OA
ATOM     86  O   UNL A   1      50.927  26.618  21.766  1.00  0.00    -0.237 OA
ATOM     87  O   UNL A   1      50.718  28.967  22.484  1.00  0.00    -0.744 OA
ENDBRANCH  80  84
ENDBRANCH  53  77
BRANCH  65  88
ATOM     88  C   UNL A   1      46.441  32.720  28.727  1.00  0.00     0.023 A 
ATOM     89  C   UNL A   1      46.479  33.758  27.781  1.00  0.00     0.031 A 
ATOM     90  C   UNL A   1      46.971  32.967  30.006  1.00  0.00     0.131 A 
ATOM     91  C   UNL A   1      47.085  34.980  28.111  1.00  0.00     0.055 A 
ATOM     92  C   UNL A   1      47.519  34.204  30.347  1.00  0.00     0.041 A 
ATOM     93  F   UNL A   1      46.961  32.009  30.948  1.00  0.00    -0.206 F 
ATOM     94  C   UNL A   1      47.591  35.215  29.393  1.00  0.00     0.022 A 
BRANCH  91  95
ATOM     95  S   UNL A   1      47.282  36.233  26.814  1.00  0.00     0.124 S 
ATOM     96  O   UNL A   1      45.907  36.421  26.362  1.00  0.00    -0.237 OA
ATOM     97  O   UNL A   1      47.870  37.350  27.547  1.00  0.00    -0.237 OA
ATOM     98  O   UNL A   1      48.170  35.590  25.848  1.00  0.00    -0.744 OA
ENDBRANCH  91  95
ENDBRANCH  65  88
ENDBRANCH  39  40
ENDBRANCH  31  34
ENDBRANCH  29  30
ENDBRANCH  28  29
ENDBRANCH   1  28
TORSDOF 20
ENDMDL
MODEL 2
REMARK VINA RESULT:     -11.4      3.678      8.312
REMARK SMILES COC(=O)C[C@H](c1ccc(C(=O)NCCCCNC(=O)c2ccc(-c3c4nc(c(-c5cc(S(=O)(=O)[O-])ccc5F)c5ccc([nH]5)c(-c5cc(S(=O)(=O)[O-])ccc5F)c5nc(c(-c6cc(S(=O)(=O)[O-])ccc6F)c6ccc3[nH]6)C=C5)C=C4)cc2)cc1)c1c(O)n[nH]c1C
REMARK SMILES IDX 15 1 14 2 13 3 11 4 12 5 10 7 7 8 8 9 85 10 9 11 84 12 6 13
REMARK SMILES IDX 5 14 3 15 4 16 2 17 1 18 86 19 87 20 91 21 89 22 90 23 92 24
REMARK SMILES IDX 88 26 16 28 17 29 18 30 19 31 20 33 21 34 22 35 83 36 23 37
REMARK SMILES IDX 82 38 24 39 25 40 26 41 76 42 27 43 81 44 75 45 77 46 28 47
REMARK SMILES IDX 80 48 74 49 73 50 29 52 61 53 41 54 60 55 42 56 45 57 59 58
REMARK SMILES IDX 78 59 43 60 44 61 58 63 79 64 46 65 30 66 31 67 39 68 32 69
REMARK SMILES IDX 38 70 40 71 37 72 33 73 34 74 35 75 36 76 62 77 63 78 71 79
REMARK SMILES IDX 64 80 70 81 72 82 69 83 65 84 66 85 67 86 68 87 47 88 48 89
REMARK SMILES IDX 56 90 49 91 55 92 57 93 54 94 50 95 51 96 52 97 53 98
REMARK H PARENT 13 6 90 25 88 27 18 32 77 51 45 62
REMARK Flexibility Score: inf
ROOT
ATOM      1  C   UNL A   1      35.147  21.860  26.000  1.00  0.00     0.023 C 
ENDROOT
BRANCH   1   2
ATOM      2  C   UNL A   1      34.150  21.414  24.928  1.00  0.00     0.116 C 
BRANCH   2   3
ATOM      3  N   UNL A   1      32.836  21.205  25.501  1.00  0.00    -0.352 N 
ATOM      4  C   UNL A   1      31.710  21.986  25.484  1.00  0.00     0.251 C 
ATOM      5  O   UNL A   1      30.684  21.541  26.001  1.00  0.00    -0.269 OA
ATOM      6  H   UNL A   1      32.735  20.356  25.989  1.00  0.00     0.163 HD
BRANCH   4   7
ATOM      7  C   UNL A   1      31.667  23.334  24.856  1.00  0.00     0.039 A 
ATOM      8  C   UNL A   1      31.272  25.834  23.585  1.00  0.00    -0.040 A 
ATOM      9  C   UNL A   1      31.071  24.633  22.887  1.00  0.00     0.005 A 
ATOM     10  C   UNL A   1      31.725  25.761  24.912  1.00  0.00     0.005 A 
ATOM     11  C   UNL A   1      31.265  23.400  23.517  1.00  0.00     0.014 A 
ATOM     12  C   UNL A   1      31.891  24.526  25.547  1.00  0.00     0.014 A 
BRANCH   8  13
ATOM     13  C   UNL A   1      30.948  27.198  22.995  1.00  0.00     0.068 C 
BRANCH  13  14
ATOM     14  C   UNL A   1      29.640  27.822  23.501  1.00  0.00     0.136 C 
BRANCH  14  15
ATOM     15  C   UNL A   1      29.105  28.830  22.517  1.00  0.00     0.306 C 
ATOM     16  O   UNL A   1      29.758  29.317  21.606  1.00  0.00    -0.252 OA
BRANCH  15  17
ATOM     17  O   UNL A   1      27.786  29.075  22.756  1.00  0.00    -0.469 OA
ATOM     18  C   UNL A   1      27.493  30.423  23.132  1.00  0.00     0.282 C 
ENDBRANCH  15  17
ENDBRANCH  14  15
ENDBRANCH  13  14
BRANCH  13  19
ATOM     19  C   UNL A   1      32.155  28.101  23.197  1.00  0.00     0.044 A 
ATOM     20  C   UNL A   1      33.312  28.040  22.392  1.00  0.00     0.234 A 
ATOM     21  C   UNL A   1      32.515  29.076  24.130  1.00  0.00     0.040 A 
ATOM     22  N   UNL A   1      34.285  28.873  22.713  1.00  0.00    -0.137 NA
ATOM     23  N   UNL A   1      33.775  29.499  23.783  1.00  0.00    -0.279 N 
ATOM     24  C   UNL A   1      31.866  29.668  25.331  1.00  0.00     0.066 C 
ATOM     25  H   UNL A   1      34.261  30.200  24.275  1.00  0.00     0.190 HD
BRANCH  20  26
ATOM     26  O   UNL A   1      33.580  27.256  21.352  1.00  0.00    -0.492 OA
ATOM     27  H   UNL A   1      32.886  26.802  20.916  1.00  0.00     0.295 HD
ENDBRANCH  20  26
ENDBRANCH  13  19
ENDBRANCH   8  13
ENDBRANCH   4   7
ENDBRANCH   2   3
ENDBRANCH   1   2
BRANCH   1  28
ATOM     28  C   UNL A   1      35.702  23.273  25.800  1.00  0.00     0.023 C 
BRANCH  28  29
ATOM     29  C   UNL A   1      37.064  23.338  25.120  1.00  0.00     0.116 C 
BRANCH  29  30
ATOM     30  N   UNL A   1      38.020  22.388  25.664  1.00  0.00    -0.352 N 
ATOM     31  C   UNL A   1      39.139  22.646  26.422  1.00  0.00     0.251 C 
ATOM     32  H   UNL A   1      37.844  21.440  25.466  1.00  0.00     0.163 HD
ATOM     33  O   UNL A   1      39.909  21.743  26.708  1.00  0.00    -0.269 OA
BRANCH  31  34
ATOM     34  C   UNL A   1      39.412  24.039  26.836  1.00  0.00     0.039 A 
ATOM     35  C   UNL A   1      39.067  24.434  28.130  1.00  0.00     0.014 A 
ATOM     36  C   UNL A   1      40.047  24.929  25.967  1.00  0.00     0.014 A 
ATOM     37  C   UNL A   1      39.420  25.709  28.576  1.00  0.00     0.010 A 
ATOM     38  C   UNL A   1      40.457  26.174  26.435  1.00  0.00     0.010 A 
ATOM     39  C   UNL A   1      40.150  26.575  27.745  1.00  0.00    -0.014 A 
BRANCH  39  40
ATOM     40  C   UNL A   1      40.598  27.905  28.226  1.00  0.00     0.031 A 
ATOM     41  C   UNL A   1      42.067  28.203  28.345  1.00  0.00     0.074 A 
ATOM     42  C   UNL A   1      39.684  28.813  28.620  1.00  0.00     0.049 A 
ATOM     43  N   UNL A   1      42.660  29.268  28.817  1.00  0.00    -0.248 NA
ATOM     44  C   UNL A   1      42.989  27.145  27.903  1.00  0.00     0.031 C 
ATOM     45  C   UNL A   1      38.232  28.617  28.594  1.00  0.00     0.029 A 
ATOM     46  N   UNL A   1      39.838  30.077  29.129  1.00  0.00    -0.354 N 
ATOM     47  C   UNL A   1      44.024  29.006  28.741  1.00  0.00     0.074 A 
ATOM     48  C   UNL A   1      44.163  27.656  28.237  1.00  0.00     0.031 C 
ATOM     49  C   UNL A   1      37.631  29.729  29.047  1.00  0.00     0.029 A 
ATOM     50  C   UNL A   1      38.649  30.699  29.434  1.00  0.00     0.049 A 
ATOM     51  H   UNL A   1      40.716  30.500  29.265  1.00  0.00     0.167 HD
ATOM     52  C   UNL A   1      45.063  29.824  29.044  1.00  0.00     0.034 A 
ATOM     53  C   UNL A   1      38.409  31.911  29.975  1.00  0.00     0.034 A 
ATOM     54  C   UNL A   1      44.903  31.172  29.534  1.00  0.00     0.049 A 
ATOM     55  C   UNL A   1      39.580  32.799  30.313  1.00  0.00     0.074 A 
ATOM     56  C   UNL A   1      45.881  32.108  29.819  1.00  0.00     0.029 A 
ATOM     57  N   UNL A   1      43.683  31.774  29.818  1.00  0.00    -0.354 N 
ATOM     58  N   UNL A   1      40.863  32.557  30.186  1.00  0.00    -0.248 NA
ATOM     59  C   UNL A   1      39.267  34.128  30.853  1.00  0.00     0.031 C 
ATOM     60  C   UNL A   1      45.258  33.252  30.331  1.00  0.00     0.029 A 
ATOM     61  C   UNL A   1      43.886  33.058  30.300  1.00  0.00     0.049 A 
ATOM     62  H   UNL A   1      42.803  31.351  29.695  1.00  0.00     0.167 HD
ATOM     63  C   UNL A   1      41.511  33.716  30.604  1.00  0.00     0.074 A 
ATOM     64  C   UNL A   1      40.474  34.659  30.972  1.00  0.00     0.031 C 
ATOM     65  C   UNL A   1      42.840  33.982  30.672  1.00  0.00     0.034 A 
BRANCH  52  66
ATOM     66  C   UNL A   1      46.456  29.266  28.874  1.00  0.00     0.023 A 
ATOM     67  C   UNL A   1      47.117  28.600  29.922  1.00  0.00     0.031 A 
ATOM     68  C   UNL A   1      47.147  29.432  27.661  1.00  0.00     0.131 A 
ATOM     69  C   UNL A   1      48.452  28.199  29.765  1.00  0.00     0.055 A 
ATOM     70  C   UNL A   1      48.448  28.956  27.484  1.00  0.00     0.041 A 
ATOM     71  F   UNL A   1      46.576  30.076  26.632  1.00  0.00    -0.206 F 
ATOM     72  C   UNL A   1      49.114  28.349  28.546  1.00  0.00     0.022 A 
BRANCH  69  73
ATOM     73  S   UNL A   1      49.355  27.614  31.225  1.00  0.00     0.124 S 
ATOM     74  O   UNL A   1      48.807  26.270  31.392  1.00  0.00    -0.237 OA
ATOM     75  O   UNL A   1      50.745  27.688  30.789  1.00  0.00    -0.237 OA
ATOM     76  O   UNL A   1      48.977  28.567  32.267  1.00  0.00    -0.744 OA
ENDBRANCH  69  73
ENDBRANCH  52  66
BRANCH  53  77
ATOM     77  C   UNL A   1      37.011  32.358  30.238  1.00  0.00     0.023 A 
ATOM     78  C   UNL A   1      36.287  33.068  29.269  1.00  0.00     0.031 A 
ATOM     79  C   UNL A   1      36.395  32.113  31.477  1.00  0.00     0.131 A 
ATOM     80  C   UNL A   1      35.004  33.551  29.571  1.00  0.00     0.055 A 
ATOM     81  C   UNL A   1      35.100  32.553  31.756  1.00  0.00     0.041 A 
ATOM     82  F   UNL A   1      37.042  31.431  32.436  1.00  0.00    -0.206 F 
ATOM     83  C   UNL A   1      34.401  33.289  30.804  1.00  0.00     0.022 A 
BRANCH  80  84
ATOM     84  S   UNL A   1      34.163  34.600  28.353  1.00  0.00     0.124 S 
ATOM     85  O   UNL A   1      35.079  34.532  27.220  1.00  0.00    -0.237 OA
ATOM     86  O   UNL A   1      32.888  33.911  28.190  1.00  0.00    -0.237 OA
ATOM     87  O   UNL A   1      34.086  35.899  29.018  1.00  0.00    -0.744 OA
ENDBRANCH  80  84
ENDBRANCH  53  77
BRANCH  65  88
ATOM     88  C   UNL A   1      43.238  35.365  31.124  1.00  0.00     0.023 A 
ATOM     89  C   UNL A   1      43.457  36.408  30.208  1.00  0.00     0.031 A 
ATOM     90  C   UNL A   1      43.413  35.636  32.492  1.00  0.00     0.131 A 
ATOM     91  C   UNL A   1      43.892  37.660  30.668  1.00  0.00     0.055 A 
ATOM     92  C   UNL A   1      43.788  36.900  32.949  1.00  0.00     0.041 A 
ATOM     93  F   UNL A   1      43.218  34.674  33.410  1.00  0.00    -0.206 F 
ATOM     94  C   UNL A   1      44.043  37.917  32.034  1.00  0.00     0.022 A 
BRANCH  91  95
ATOM     95  S   UNL A   1      44.341  38.928  29.451  1.00  0.00     0.124 S 
ATOM     96  O   UNL A   1      45.753  39.146  29.747  1.00  0.00    -0.237 OA
ATOM     97  O   UNL A   1      44.050  38.263  28.186  1.00  0.00    -0.237 OA
ATOM     98  O   UNL A   1      43.459  40.047  29.780  1.00  0.00    -0.744 OA
ENDBRANCH  91  95
ENDBRANCH  65  88
ENDBRANCH  39  40
ENDBRANCH  31  34
ENDBRANCH  29  30
ENDBRANCH  28  29
ENDBRANCH   1  28
TORSDOF 20
ENDMDL
MODEL 3
REMARK VINA RESULT:     -11.4      1.827      2.463
REMARK SMILES COC(=O)C[C@H](c1ccc(C(=O)NCCCCNC(=O)c2ccc(-c3c4nc(c(-c5cc(S(=O)(=O)[O-])ccc5F)c5ccc([nH]5)c(-c5cc(S(=O)(=O)[O-])ccc5F)c5nc(c(-c6cc(S(=O)(=O)[O-])ccc6F)c6ccc3[nH]6)C=C5)C=C4)cc2)cc1)c1c(O)n[nH]c1C
REMARK SMILES IDX 15 1 14 2 13 3 11 4 12 5 10 7 7 8 8 9 85 10 9 11 84 12 6 13
REMARK SMILES IDX 5 14 3 15 4 16 2 17 1 18 86 19 87 20 91 21 89 22 90 23 92 24
REMARK SMILES IDX 88 26 16 28 17 29 18 30 19 31 20 33 21 34 22 35 83 36 23 37
REMARK SMILES IDX 82 38 24 39 25 40 26 41 76 42 27 43 81 44 75 45 77 46 28 47
REMARK SMILES IDX 80 48 74 49 73 50 29 52 61 53 41 54 60 55 42 56 45 57 59 58
REMARK SMILES IDX 78 59 43 60 44 61 58 63 79 64 46 65 30 66 31 67 39 68 32 69
REMARK SMILES IDX 38 70 40 71 37 72 33 73 34 74 35 75 36 76 62 77 63 78 71 79
REMARK SMILES IDX 64 80 70 81 72 82 69 83 65 84 66 85 67 86 68 87 47 88 48 89
REMARK SMILES IDX 56 90 49 91 55 92 57 93 54 94 50 95 51 96 52 97 53 98
REMARK H PARENT 13 6 90 25 88 27 18 32 77 51 45 62
REMARK Flexibility Score: inf
ROOT
ATOM      1  C   UNL A   1      36.861  21.488  24.719  1.00  0.00     0.023 C 
ENDROOT
BRANCH   1   2
ATOM      2  C   UNL A   1      35.432  20.978  24.921  1.00  0.00     0.116 C 
BRANCH   2   3
ATOM      3  N   UNL A   1      35.060  21.031  26.320  1.00  0.00    -0.352 N 
ATOM      4  C   UNL A   1      34.315  21.943  27.021  1.00  0.00     0.251 C 
ATOM      5  O   UNL A   1      34.086  21.719  28.210  1.00  0.00    -0.269 OA
ATOM      6  H   UNL A   1      35.402  20.283  26.861  1.00  0.00     0.163 HD
BRANCH   4   7
ATOM      7  C   UNL A   1      33.759  23.179  26.406  1.00  0.00     0.039 A 
ATOM      8  C   UNL A   1      32.913  25.480  24.988  1.00  0.00    -0.040 A 
ATOM      9  C   UNL A   1      34.253  25.327  25.376  1.00  0.00     0.005 A 
ATOM     10  C   UNL A   1      31.996  24.488  25.369  1.00  0.00     0.005 A 
ATOM     11  C   UNL A   1      34.669  24.189  26.074  1.00  0.00     0.014 A 
ATOM     12  C   UNL A   1      32.421  23.339  26.043  1.00  0.00     0.014 A 
BRANCH   8  13
ATOM     13  C   UNL A   1      32.431  26.627  24.113  1.00  0.00     0.068 C 
BRANCH  13  14
ATOM     14  C   UNL A   1      33.233  27.927  24.259  1.00  0.00     0.136 C 
BRANCH  14  15
ATOM     15  C   UNL A   1      32.341  29.071  24.667  1.00  0.00     0.306 C 
ATOM     16  O   UNL A   1      31.166  29.178  24.345  1.00  0.00    -0.252 OA
BRANCH  15  17
ATOM     17  O   UNL A   1      33.012  29.931  25.484  1.00  0.00    -0.469 OA
ATOM     18  C   UNL A   1      32.327  30.251  26.696  1.00  0.00     0.282 C 
ENDBRANCH  15  17
ENDBRANCH  14  15
ENDBRANCH  13  14
BRANCH  13  19
ATOM     19  C   UNL A   1      32.359  26.129  22.678  1.00  0.00     0.044 A 
ATOM     20  C   UNL A   1      31.548  26.727  21.689  1.00  0.00     0.234 A 
ATOM     21  C   UNL A   1      32.907  25.053  21.977  1.00  0.00     0.040 A 
ATOM     22  N   UNL A   1      31.576  26.159  20.497  1.00  0.00    -0.137 NA
ATOM     23  N   UNL A   1      32.416  25.133  20.696  1.00  0.00    -0.279 N 
ATOM     24  C   UNL A   1      33.812  23.926  22.328  1.00  0.00     0.066 C 
ATOM     25  H   UNL A   1      32.658  24.495  19.987  1.00  0.00     0.190 HD
BRANCH  20  26
ATOM     26  O   UNL A   1      30.744  27.781  21.777  1.00  0.00    -0.492 OA
ATOM     27  H   UNL A   1      29.831  27.693  21.581  1.00  0.00     0.295 HD
ENDBRANCH  20  26
ENDBRANCH  13  19
ENDBRANCH   8  13
ENDBRANCH   4   7
ENDBRANCH   2   3
ENDBRANCH   1   2
BRANCH   1  28
ATOM     28  C   UNL A   1      37.936  20.397  24.763  1.00  0.00     0.023 C 
BRANCH  28  29
ATOM     29  C   UNL A   1      39.005  20.592  25.831  1.00  0.00     0.116 C 
BRANCH  29  30
ATOM     30  N   UNL A   1      39.938  19.481  25.914  1.00  0.00    -0.352 N 
ATOM     31  C   UNL A   1      41.293  19.523  26.154  1.00  0.00     0.251 C 
ATOM     32  H   UNL A   1      39.552  18.585  25.783  1.00  0.00     0.163 HD
ATOM     33  O   UNL A   1      41.962  18.505  26.079  1.00  0.00    -0.269 OA
BRANCH  31  34
ATOM     34  C   UNL A   1      41.922  20.827  26.453  1.00  0.00     0.039 A 
ATOM     35  C   UNL A   1      42.134  21.726  25.406  1.00  0.00     0.014 A 
ATOM     36  C   UNL A   1      42.255  21.174  27.765  1.00  0.00     0.014 A 
ATOM     37  C   UNL A   1      42.620  23.004  25.685  1.00  0.00     0.010 A 
ATOM     38  C   UNL A   1      42.676  22.469  28.048  1.00  0.00     0.010 A 
ATOM     39  C   UNL A   1      42.861  23.398  27.012  1.00  0.00    -0.014 A 
BRANCH  39  40
ATOM     40  C   UNL A   1      43.308  24.775  27.335  1.00  0.00     0.031 A 
ATOM     41  C   UNL A   1      42.342  25.752  27.946  1.00  0.00     0.074 A 
ATOM     42  C   UNL A   1      44.558  25.162  27.014  1.00  0.00     0.049 A 
ATOM     43  N   UNL A   1      42.512  27.018  28.228  1.00  0.00    -0.248 NA
ATOM     44  C   UNL A   1      40.996  25.242  28.249  1.00  0.00     0.031 C 
ATOM     45  C   UNL A   1      45.567  24.313  26.375  1.00  0.00     0.029 A 
ATOM     46  N   UNL A   1      45.191  26.368  27.170  1.00  0.00    -0.354 N 
ATOM     47  C   UNL A   1      41.292  27.461  28.729  1.00  0.00     0.074 A 
ATOM     48  C   UNL A   1      40.377  26.341  28.652  1.00  0.00     0.031 C 
ATOM     49  C   UNL A   1      46.697  25.021  26.213  1.00  0.00     0.029 A 
ATOM     50  C   UNL A   1      46.482  26.381  26.696  1.00  0.00     0.049 A 
ATOM     51  H   UNL A   1      44.761  27.152  27.582  1.00  0.00     0.167 HD
ATOM     52  C   UNL A   1      40.973  28.681  29.227  1.00  0.00     0.034 A 
ATOM     53  C   UNL A   1      47.387  27.379  26.647  1.00  0.00     0.034 A 
ATOM     54  C   UNL A   1      41.904  29.780  29.308  1.00  0.00     0.049 A 
ATOM     55  C   UNL A   1      47.007  28.730  27.198  1.00  0.00     0.074 A 
ATOM     56  C   UNL A   1      41.707  31.040  29.845  1.00  0.00     0.029 A 
ATOM     57  N   UNL A   1      43.209  29.753  28.831  1.00  0.00    -0.354 N 
ATOM     58  N   UNL A   1      45.866  29.118  27.718  1.00  0.00    -0.248 NA
ATOM     59  C   UNL A   1      48.042  29.772  27.167  1.00  0.00     0.031 C 
ATOM     60  C   UNL A   1      42.870  31.793  29.639  1.00  0.00     0.029 A 
ATOM     61  C   UNL A   1      43.819  30.981  29.037  1.00  0.00     0.049 A 
ATOM     62  H   UNL A   1      43.639  28.975  28.408  1.00  0.00     0.167 HD
ATOM     63  C   UNL A   1      46.056  30.442  28.103  1.00  0.00     0.074 A 
ATOM     64  C   UNL A   1      47.425  30.778  27.768  1.00  0.00     0.031 C 
ATOM     65  C   UNL A   1      45.183  31.301  28.686  1.00  0.00     0.034 A 
BRANCH  52  66
ATOM     66  C   UNL A   1      39.553  28.887  29.699  1.00  0.00     0.023 A 
ATOM     67  C   UNL A   1      38.592  29.520  28.890  1.00  0.00     0.031 A 
ATOM     68  C   UNL A   1      39.162  28.477  30.986  1.00  0.00     0.131 A 
ATOM     69  C   UNL A   1      37.317  29.798  29.405  1.00  0.00     0.055 A 
ATOM     70  C   UNL A   1      37.866  28.682  31.461  1.00  0.00     0.041 A 
ATOM     71  F   UNL A   1      40.040  27.885  31.810  1.00  0.00    -0.206 F 
ATOM     72  C   UNL A   1      36.938  29.362  30.675  1.00  0.00     0.022 A 
BRANCH  69  73
ATOM     73  S   UNL A   1      36.213  30.869  28.443  1.00  0.00     0.124 S 
ATOM     74  O   UNL A   1      35.835  29.988  27.341  1.00  0.00    -0.237 OA
ATOM     75  O   UNL A   1      35.159  31.180  29.402  1.00  0.00    -0.237 OA
ATOM     76  O   UNL A   1      37.067  31.994  28.068  1.00  0.00    -0.744 OA
ENDBRANCH  69  73
ENDBRANCH  52  66
BRANCH  53  77
ATOM     77  C   UNL A   1      48.735  27.150  26.052  1.00  0.00     0.023 A 
ATOM     78  C   UNL A   1      48.987  27.439  24.703  1.00  0.00     0.031 A 
ATOM     79  C   UNL A   1      49.779  26.603  26.817  1.00  0.00     0.131 A 
ATOM     80  C   UNL A   1      50.239  27.136  24.145  1.00  0.00     0.055 A 
ATOM     81  C   UNL A   1      51.038  26.348  26.271  1.00  0.00     0.041 A 
ATOM     82  F   UNL A   1      49.593  26.316  28.115  1.00  0.00    -0.206 F 
ATOM     83  C   UNL A   1      51.270  26.603  24.923  1.00  0.00     0.022 A 
BRANCH  80  84
ATOM     84  S   UNL A   1      50.476  27.375  22.363  1.00  0.00     0.124 S 
ATOM     85  O   UNL A   1      50.360  28.824  22.240  1.00  0.00    -0.237 OA
ATOM     86  O   UNL A   1      51.808  26.818  22.157  1.00  0.00    -0.237 OA
ATOM     87  O   UNL A   1      49.382  26.609  21.768  1.00  0.00    -0.744 OA
ENDBRANCH  80  84
ENDBRANCH  53  77
BRANCH  65  88
ATOM     88  C   UNL A   1      45.704  32.673  29.036  1.00  0.00     0.023 A 
ATOM     89  C   UNL A   1      45.719  33.721  28.099  1.00  0.00     0.031 A 
ATOM     90  C   UNL A   1      46.207  32.928  30.324  1.00  0.00     0.131 A 
ATOM     91  C   UNL A   1      46.275  34.961  28.448  1.00  0.00     0.055 A 
ATOM     92  C   UNL A   1      46.705  34.181  30.684  1.00  0.00     0.041 A 
ATOM     93  F   UNL A   1      46.218  31.962  31.258  1.00  0.00    -0.206 F 
ATOM     94  C   UNL A   1      46.753  35.202  29.739  1.00  0.00     0.022 A 
BRANCH  91  95
ATOM     95  S   UNL A   1      46.444  36.232  27.165  1.00  0.00     0.124 S 
ATOM     96  O   UNL A   1      47.878  36.503  27.194  1.00  0.00    -0.237 OA
ATOM     97  O   UNL A   1      45.950  35.544  25.977  1.00  0.00    -0.237 OA
ATOM     98  O   UNL A   1      45.598  37.321  27.647  1.00  0.00    -0.744 OA
ENDBRANCH  91  95
ENDBRANCH  65  88
ENDBRANCH  39  40
ENDBRANCH  31  34
ENDBRANCH  29  30
ENDBRANCH  28  29
ENDBRANCH   1  28
TORSDOF 20
ENDMDL
