MODEL 1
REMARK VINA RESULT:     -11.7      0.000      0.000
REMARK SMILES C[C@@H](C(=O)NCCCCNC(=O)c1ccc(-c2c3nc(c(-c4cc(S(=O)(=O)[O-])ccc4F)c4ccc([nH]4)c(-c4cc(S(=O)(=O)[O-])ccc4F)c4nc(c(-c5cc(S(=O)(=O)[O-])ccc5F)c5ccc2[nH]5)C=C4)C=C3)cc1)c1ccc(C[C@H]2CCC[C@@H]2O)cc1Br
REMARK SMILES IDX 7 1 6 2 5 3 3 4 4 5 2 7 1 8 76 9 77 10 88 11 78 12 87 13
REMARK SMILES IDX 89 14 79 15 80 16 81 17 82 18 85 19 83 20 84 21 86 22 8 24
REMARK SMILES IDX 9 25 10 26 11 27 12 29 13 30 14 31 75 32 15 33 74 34 16 35
REMARK SMILES IDX 17 36 18 37 68 38 19 39 73 40 67 41 69 42 20 43 72 44 66 45
REMARK SMILES IDX 65 46 21 48 53 49 33 50 52 51 34 52 37 53 51 54 70 55 35 56
REMARK SMILES IDX 36 57 50 59 71 60 38 61 22 62 23 63 31 64 24 65 30 66 32 67
REMARK SMILES IDX 29 68 25 69 26 70 27 71 28 72 54 73 55 74 63 75 56 76 62 77
REMARK SMILES IDX 64 78 61 79 57 80 58 81 59 82 60 83 39 84 40 85 48 86 41 87
REMARK SMILES IDX 47 88 49 89 46 90 42 91 43 92 44 93 45 94
REMARK H PARENT 5 6 86 23 10 28 69 47 37 58
REMARK Flexibility Score: inf
ROOT
ATOM      1  C   UNL A   1      33.126  29.316  24.457  1.00  0.00     0.023 C 
ENDROOT
BRANCH   1   2
ATOM      2  C   UNL A   1      32.757  28.471  23.235  1.00  0.00     0.116 C 
BRANCH   2   3
ATOM      3  N   UNL A   1      31.735  27.503  23.577  1.00  0.00    -0.356 N 
ATOM      4  C   UNL A   1      31.614  26.196  23.200  1.00  0.00     0.227 C 
ATOM      5  O   UNL A   1      30.544  25.637  23.453  1.00  0.00    -0.274 OA
ATOM      6  H   UNL A   1      31.023  27.838  24.170  1.00  0.00     0.163 HD
BRANCH   4   7
ATOM      7  C   UNL A   1      32.795  25.476  22.515  1.00  0.00     0.106 C 
ATOM      8  C   UNL A   1      32.691  25.627  20.989  1.00  0.00     0.023 C 
BRANCH   7   9
ATOM      9  C   UNL A   1      32.887  24.014  22.973  1.00  0.00    -0.022 A 
ATOM     10  C   UNL A   1      32.337  22.983  22.190  1.00  0.00     0.006 A 
ATOM     11  C   UNL A   1      33.462  23.647  24.204  1.00  0.00     0.022 A 
ATOM     12  C   UNL A   1      32.323  21.661  22.625  1.00  0.00     0.004 A 
ATOM     13  C   UNL A   1      33.390  22.324  24.666  1.00  0.00     0.019 A 
ATOM     14  Br  UNL A   1      34.355  24.895  25.331  1.00  0.00    -0.051 Br
ATOM     15  C   UNL A   1      32.779  21.327  23.897  1.00  0.00    -0.047 A 
BRANCH  15  16
ATOM     16  C   UNL A   1      32.566  19.937  24.445  1.00  0.00     0.041 C 
BRANCH  16  17
ATOM     17  C   UNL A   1      33.432  18.828  23.811  1.00  0.00     0.022 C 
ATOM     18  C   UNL A   1      34.623  18.348  24.659  1.00  0.00     0.007 C 
ATOM     19  C   UNL A   1      32.706  17.538  23.409  1.00  0.00     0.117 C 
ATOM     20  C   UNL A   1      34.743  16.841  24.410  1.00  0.00     0.003 C 
ATOM     21  C   UNL A   1      33.844  16.549  23.220  1.00  0.00     0.032 C 
BRANCH  19  22
ATOM     22  O   UNL A   1      31.970  17.696  22.209  1.00  0.00    -0.393 OA
ATOM     23  H   UNL A   1      31.827  16.828  21.801  1.00  0.00     0.210 HD
ENDBRANCH  19  22
ENDBRANCH  16  17
ENDBRANCH  15  16
ENDBRANCH   7   9
ENDBRANCH   4   7
ENDBRANCH   2   3
ENDBRANCH   1   2
BRANCH   1  24
ATOM     24  C   UNL A   1      33.801  28.535  25.586  1.00  0.00     0.023 C 
BRANCH  24  25
ATOM     25  C   UNL A   1      33.393  28.958  26.991  1.00  0.00     0.116 C 
BRANCH  25  26
ATOM     26  N   UNL A   1      33.486  30.394  27.192  1.00  0.00    -0.352 N 
ATOM     27  C   UNL A   1      34.467  31.114  27.831  1.00  0.00     0.251 C 
ATOM     28  H   UNL A   1      32.746  30.925  26.820  1.00  0.00     0.163 HD
ATOM     29  O   UNL A   1      34.300  32.312  28.043  1.00  0.00    -0.269 OA
BRANCH  27  30
ATOM     30  C   UNL A   1      35.694  30.430  28.291  1.00  0.00     0.039 A 
ATOM     31  C   UNL A   1      36.826  30.457  27.474  1.00  0.00     0.014 A 
ATOM     32  C   UNL A   1      35.736  29.783  29.530  1.00  0.00     0.014 A 
ATOM     33  C   UNL A   1      38.017  29.889  27.928  1.00  0.00     0.010 A 
ATOM     34  C   UNL A   1      36.944  29.289  30.014  1.00  0.00     0.010 A 
ATOM     35  C   UNL A   1      38.098  29.333  29.216  1.00  0.00    -0.014 A 
BRANCH  35  36
ATOM     36  C   UNL A   1      39.380  28.788  29.735  1.00  0.00     0.031 A 
ATOM     37  C   UNL A   1      40.032  29.406  30.942  1.00  0.00     0.074 A 
ATOM     38  C   UNL A   1      39.973  27.759  29.096  1.00  0.00     0.049 A 
ATOM     39  N   UNL A   1      41.165  29.096  31.520  1.00  0.00    -0.248 NA
ATOM     40  C   UNL A   1      39.332  30.540  31.563  1.00  0.00     0.031 C 
ATOM     41  C   UNL A   1      39.459  27.105  27.890  1.00  0.00     0.029 A 
ATOM     42  N   UNL A   1      41.135  27.082  29.367  1.00  0.00    -0.354 N 
ATOM     43  C   UNL A   1      41.309  29.992  32.574  1.00  0.00     0.074 A 
ATOM     44  C   UNL A   1      40.190  30.906  32.503  1.00  0.00     0.031 C 
ATOM     45  C   UNL A   1      40.283  26.104  27.546  1.00  0.00     0.029 A 
ATOM     46  C   UNL A   1      41.409  26.071  28.474  1.00  0.00     0.049 A 
ATOM     47  H   UNL A   1      41.718  27.298  30.129  1.00  0.00     0.167 HD
ATOM     48  C   UNL A   1      42.267  30.028  33.534  1.00  0.00     0.034 A 
ATOM     49  C   UNL A   1      42.453  25.221  28.405  1.00  0.00     0.034 A 
ATOM     50  C   UNL A   1      43.380  29.111  33.590  1.00  0.00     0.049 A 
ATOM     51  C   UNL A   1      43.530  25.309  29.459  1.00  0.00     0.074 A 
ATOM     52  C   UNL A   1      44.394  29.041  34.528  1.00  0.00     0.029 A 
ATOM     53  N   UNL A   1      43.629  28.103  32.666  1.00  0.00    -0.354 N 
ATOM     54  N   UNL A   1      43.626  26.133  30.478  1.00  0.00    -0.248 NA
ATOM     55  C   UNL A   1      44.630  24.342  29.363  1.00  0.00     0.031 C 
ATOM     56  C   UNL A   1      45.291  28.041  34.136  1.00  0.00     0.029 A 
ATOM     57  C   UNL A   1      44.793  27.427  32.999  1.00  0.00     0.049 A 
ATOM     58  H   UNL A   1      43.061  27.900  31.887  1.00  0.00     0.167 HD
ATOM     59  C   UNL A   1      44.778  25.756  31.163  1.00  0.00     0.074 A 
ATOM     60  C   UNL A   1      45.329  24.620  30.452  1.00  0.00     0.031 C 
ATOM     61  C   UNL A   1      45.334  26.298  32.277  1.00  0.00     0.034 A 
BRANCH  48  62
ATOM     62  C   UNL A   1      42.154  31.106  34.587  1.00  0.00     0.023 A 
ATOM     63  C   UNL A   1      42.790  32.350  34.434  1.00  0.00     0.031 A 
ATOM     64  C   UNL A   1      41.423  30.883  35.767  1.00  0.00     0.131 A 
ATOM     65  C   UNL A   1      42.750  33.293  35.473  1.00  0.00     0.055 A 
ATOM     66  C   UNL A   1      41.314  31.860  36.761  1.00  0.00     0.041 A 
ATOM     67  F   UNL A   1      40.812  29.707  35.982  1.00  0.00    -0.206 F 
ATOM     68  C   UNL A   1      41.993  33.067  36.624  1.00  0.00     0.022 A 
BRANCH  65  69
ATOM     69  S   UNL A   1      43.822  34.750  35.359  1.00  0.00     0.124 S 
ATOM     70  O   UNL A   1      42.884  35.829  35.664  1.00  0.00    -0.237 OA
ATOM     71  O   UNL A   1      44.835  34.479  36.371  1.00  0.00    -0.237 OA
ATOM     72  O   UNL A   1      44.294  34.720  33.977  1.00  0.00    -0.744 OA
ENDBRANCH  65  69
ENDBRANCH  48  62
BRANCH  49  73
ATOM     73  C   UNL A   1      42.551  24.221  27.301  1.00  0.00     0.023 A 
ATOM     74  C   UNL A   1      41.907  22.976  27.391  1.00  0.00     0.031 A 
ATOM     75  C   UNL A   1      43.346  24.468  26.167  1.00  0.00     0.131 A 
ATOM     76  C   UNL A   1      42.120  22.003  26.402  1.00  0.00     0.055 A 
ATOM     77  C   UNL A   1      43.502  23.521  25.153  1.00  0.00     0.041 A 
ATOM     78  F   UNL A   1      43.983  25.641  26.027  1.00  0.00    -0.206 F 
ATOM     79  C   UNL A   1      42.903  22.273  25.277  1.00  0.00     0.022 A 
BRANCH  76  80
ATOM     80  S   UNL A   1      41.458  20.335  26.669  1.00  0.00     0.124 S 
ATOM     81  O   UNL A   1      40.032  20.603  26.819  1.00  0.00    -0.237 OA
ATOM     82  O   UNL A   1      41.858  19.652  25.444  1.00  0.00    -0.237 OA
ATOM     83  O   UNL A   1      42.141  19.889  27.882  1.00  0.00    -0.744 OA
ENDBRANCH  76  80
ENDBRANCH  49  73
BRANCH  61  84
ATOM     84  C   UNL A   1      46.574  25.628  32.820  1.00  0.00     0.023 A 
ATOM     85  C   UNL A   1      47.856  25.929  32.329  1.00  0.00     0.031 A 
ATOM     86  C   UNL A   1      46.466  24.653  33.828  1.00  0.00     0.131 A 
ATOM     87  C   UNL A   1      48.969  25.214  32.796  1.00  0.00     0.055 A 
ATOM     88  C   UNL A   1      47.585  23.994  34.339  1.00  0.00     0.041 A 
ATOM     89  F   UNL A   1      45.267  24.322  34.334  1.00  0.00    -0.206 F 
ATOM     90  C   UNL A   1      48.845  24.262  33.811  1.00  0.00     0.022 A 
BRANCH  87  91
ATOM     91  S   UNL A   1      50.569  25.462  31.977  1.00  0.00     0.124 S 
ATOM     92  O   UNL A   1      50.766  24.184  31.303  1.00  0.00    -0.237 OA
ATOM     93  O   UNL A   1      50.300  26.605  31.109  1.00  0.00    -0.237 OA
ATOM     94  O   UNL A   1      51.484  25.729  33.084  1.00  0.00    -0.744 OA
ENDBRANCH  87  91
ENDBRANCH  61  84
ENDBRANCH  35  36
ENDBRANCH  27  30
ENDBRANCH  25  26
ENDBRANCH  24  25
ENDBRANCH   1  24
TORSDOF 18
ENDMDL
MODEL 2
REMARK VINA RESULT:     -11.6      2.511      2.860
REMARK SMILES C[C@@H](C(=O)NCCCCNC(=O)c1ccc(-c2c3nc(c(-c4cc(S(=O)(=O)[O-])ccc4F)c4ccc([nH]4)c(-c4cc(S(=O)(=O)[O-])ccc4F)c4nc(c(-c5cc(S(=O)(=O)[O-])ccc5F)c5ccc2[nH]5)C=C4)C=C3)cc1)c1ccc(C[C@H]2CCC[C@@H]2O)cc1Br
REMARK SMILES IDX 7 1 6 2 5 3 3 4 4 5 2 7 1 8 76 9 77 10 88 11 78 12 87 13
REMARK SMILES IDX 89 14 79 15 80 16 81 17 82 18 85 19 83 20 84 21 86 22 8 24
REMARK SMILES IDX 9 25 10 26 11 27 12 29 13 30 14 31 75 32 15 33 74 34 16 35
REMARK SMILES IDX 17 36 18 37 68 38 19 39 73 40 67 41 69 42 20 43 72 44 66 45
REMARK SMILES IDX 65 46 21 48 53 49 33 50 52 51 34 52 37 53 51 54 70 55 35 56
REMARK SMILES IDX 36 57 50 59 71 60 38 61 22 62 23 63 31 64 24 65 30 66 32 67
REMARK SMILES IDX 29 68 25 69 26 70 27 71 28 72 54 73 55 74 63 75 56 76 62 77
REMARK SMILES IDX 64 78 61 79 57 80 58 81 59 82 60 83 39 84 40 85 48 86 41 87
REMARK SMILES IDX 47 88 49 89 46 90 42 91 43 92 44 93 45 94
REMARK H PARENT 5 6 86 23 10 28 69 47 37 58
REMARK Flexibility Score: inf
ROOT
ATOM      1  C   UNL A   1      31.302  28.536  25.418  1.00  0.00     0.023 C 
ENDROOT
BRANCH   1   2
ATOM      2  C   UNL A   1      30.944  27.048  25.454  1.00  0.00     0.116 C 
BRANCH   2   3
ATOM      3  N   UNL A   1      31.358  26.395  24.229  1.00  0.00    -0.356 N 
ATOM      4  C   UNL A   1      32.341  25.469  24.027  1.00  0.00     0.227 C 
ATOM      5  O   UNL A   1      32.644  25.218  22.859  1.00  0.00    -0.274 OA
ATOM      6  H   UNL A   1      30.857  26.659  23.424  1.00  0.00     0.163 HD
BRANCH   4   7
ATOM      7  C   UNL A   1      33.003  24.768  25.234  1.00  0.00     0.106 C 
ATOM      8  C   UNL A   1      34.412  25.337  25.466  1.00  0.00     0.023 C 
BRANCH   7   9
ATOM      9  C   UNL A   1      32.989  23.244  25.058  1.00  0.00    -0.022 A 
ATOM     10  C   UNL A   1      34.020  22.594  24.355  1.00  0.00     0.006 A 
ATOM     11  C   UNL A   1      31.932  22.443  25.531  1.00  0.00     0.022 A 
ATOM     12  C   UNL A   1      33.984  21.226  24.101  1.00  0.00     0.004 A 
ATOM     13  C   UNL A   1      31.868  21.076  25.219  1.00  0.00     0.019 A 
ATOM     14  Br  UNL A   1      30.519  23.138  26.601  1.00  0.00    -0.051 Br
ATOM     15  C   UNL A   1      32.875  20.465  24.461  1.00  0.00    -0.047 A 
BRANCH  15  16
ATOM     16  C   UNL A   1      32.744  19.035  23.996  1.00  0.00     0.041 C 
BRANCH  16  17
ATOM     17  C   UNL A   1      33.342  17.969  24.938  1.00  0.00     0.022 C 
ATOM     18  C   UNL A   1      32.413  16.793  25.285  1.00  0.00     0.007 C 
ATOM     19  C   UNL A   1      34.644  17.302  24.478  1.00  0.00     0.117 C 
ATOM     20  C   UNL A   1      33.307  15.551  25.364  1.00  0.00     0.003 C 
ATOM     21  C   UNL A   1      34.734  16.074  25.369  1.00  0.00     0.032 C 
BRANCH  19  22
ATOM     22  O   UNL A   1      35.767  18.145  24.666  1.00  0.00    -0.393 OA
ATOM     23  H   UNL A   1      36.264  17.852  25.446  1.00  0.00     0.210 HD
ENDBRANCH  19  22
ENDBRANCH  16  17
ENDBRANCH  15  16
ENDBRANCH   7   9
ENDBRANCH   4   7
ENDBRANCH   2   3
ENDBRANCH   1   2
BRANCH   1  24
ATOM     24  C   UNL A   1      31.955  29.061  26.698  1.00  0.00     0.023 C 
BRANCH  24  25
ATOM     25  C   UNL A   1      33.248  29.837  26.486  1.00  0.00     0.116 C 
BRANCH  25  26
ATOM     26  N   UNL A   1      33.147  31.222  26.916  1.00  0.00    -0.352 N 
ATOM     27  C   UNL A   1      33.982  31.930  27.744  1.00  0.00     0.251 C 
ATOM     28  H   UNL A   1      32.374  31.720  26.566  1.00  0.00     0.163 HD
ATOM     29  O   UNL A   1      33.654  33.050  28.125  1.00  0.00    -0.269 OA
BRANCH  27  30
ATOM     30  C   UNL A   1      35.250  31.321  28.200  1.00  0.00     0.039 A 
ATOM     31  C   UNL A   1      36.414  32.092  28.176  1.00  0.00     0.014 A 
ATOM     32  C   UNL A   1      35.288  30.004  28.668  1.00  0.00     0.014 A 
ATOM     33  C   UNL A   1      37.602  31.561  28.679  1.00  0.00     0.010 A 
ATOM     34  C   UNL A   1      36.454  29.506  29.243  1.00  0.00     0.010 A 
ATOM     35  C   UNL A   1      37.625  30.278  29.252  1.00  0.00    -0.014 A 
BRANCH  35  36
ATOM     36  C   UNL A   1      38.871  29.731  29.853  1.00  0.00     0.031 A 
ATOM     37  C   UNL A   1      39.366  30.254  31.174  1.00  0.00     0.074 A 
ATOM     38  C   UNL A   1      39.572  28.789  29.190  1.00  0.00     0.049 A 
ATOM     39  N   UNL A   1      40.445  29.931  31.841  1.00  0.00    -0.248 NA
ATOM     40  C   UNL A   1      38.554  31.298  31.818  1.00  0.00     0.031 C 
ATOM     41  C   UNL A   1      39.216  28.236  27.881  1.00  0.00     0.029 A 
ATOM     42  N   UNL A   1      40.729  28.131  29.521  1.00  0.00    -0.354 N 
ATOM     43  C   UNL A   1      40.439  30.726  32.981  1.00  0.00     0.074 A 
ATOM     44  C   UNL A   1      39.293  31.603  32.874  1.00  0.00     0.031 C 
ATOM     45  C   UNL A   1      40.117  27.303  27.538  1.00  0.00     0.029 A 
ATOM     46  C   UNL A   1      41.140  27.221  28.575  1.00  0.00     0.049 A 
ATOM     47  H   UNL A   1      41.221  28.295  30.359  1.00  0.00     0.167 HD
ATOM     48  C   UNL A   1      41.290  30.705  34.037  1.00  0.00     0.034 A 
ATOM     49  C   UNL A   1      42.223  26.419  28.541  1.00  0.00     0.034 A 
ATOM     50  C   UNL A   1      42.431  29.826  34.129  1.00  0.00     0.049 A 
ATOM     51  C   UNL A   1      43.180  26.444  29.709  1.00  0.00     0.074 A 
ATOM     52  C   UNL A   1      43.345  29.704  35.160  1.00  0.00     0.029 A 
ATOM     53  N   UNL A   1      42.820  28.921  33.148  1.00  0.00    -0.354 N 
ATOM     54  N   UNL A   1      43.133  27.170  30.803  1.00  0.00    -0.248 NA
ATOM     55  C   UNL A   1      44.327  25.530  29.643  1.00  0.00     0.031 C 
ATOM     56  C   UNL A   1      44.322  28.778  34.777  1.00  0.00     0.029 A 
ATOM     57  C   UNL A   1      43.973  28.258  33.541  1.00  0.00     0.049 A 
ATOM     58  H   UNL A   1      42.345  28.773  32.298  1.00  0.00     0.167 HD
ATOM     59  C   UNL A   1      44.224  26.771  31.570  1.00  0.00     0.074 A 
ATOM     60  C   UNL A   1      44.896  25.727  30.822  1.00  0.00     0.031 C 
ATOM     61  C   UNL A   1      44.636  27.223  32.782  1.00  0.00     0.034 A 
BRANCH  48  62
ATOM     62  C   UNL A   1      41.019  31.672  35.166  1.00  0.00     0.023 A 
ATOM     63  C   UNL A   1      39.959  31.468  36.067  1.00  0.00     0.031 A 
ATOM     64  C   UNL A   1      41.809  32.822  35.332  1.00  0.00     0.131 A 
ATOM     65  C   UNL A   1      39.670  32.435  37.043  1.00  0.00     0.055 A 
ATOM     66  C   UNL A   1      41.571  33.737  36.362  1.00  0.00     0.041 A 
ATOM     67  F   UNL A   1      42.822  33.085  34.491  1.00  0.00    -0.206 F 
ATOM     68  C   UNL A   1      40.486  33.554  37.214  1.00  0.00     0.022 A 
BRANCH  65  69
ATOM     69  S   UNL A   1      38.128  32.279  37.984  1.00  0.00     0.124 S 
ATOM     70  O   UNL A   1      38.618  32.312  39.360  1.00  0.00    -0.237 OA
ATOM     71  O   UNL A   1      37.371  33.445  37.546  1.00  0.00    -0.237 OA
ATOM     72  O   UNL A   1      37.594  30.988  37.554  1.00  0.00    -0.744 OA
ENDBRANCH  65  69
ENDBRANCH  48  62
BRANCH  49  73
ATOM     73  C   UNL A   1      42.480  25.533  27.367  1.00  0.00     0.023 A 
ATOM     74  C   UNL A   1      42.006  24.212  27.339  1.00  0.00     0.031 A 
ATOM     75  C   UNL A   1      43.263  25.973  26.284  1.00  0.00     0.131 A 
ATOM     76  C   UNL A   1      42.370  23.358  26.285  1.00  0.00     0.055 A 
ATOM     77  C   UNL A   1      43.569  25.140  25.207  1.00  0.00     0.041 A 
ATOM     78  F   UNL A   1      43.742  27.227  26.257  1.00  0.00    -0.206 F 
ATOM     79  C   UNL A   1      43.137  23.818  25.213  1.00  0.00     0.022 A 
BRANCH  76  80
ATOM     80  S   UNL A   1      41.928  21.602  26.400  1.00  0.00     0.124 S 
ATOM     81  O   UNL A   1      40.501  21.635  26.105  1.00  0.00    -0.237 OA
ATOM     82  O   UNL A   1      42.783  21.009  25.376  1.00  0.00    -0.237 OA
ATOM     83  O   UNL A   1      42.275  21.254  27.777  1.00  0.00    -0.744 OA
ENDBRANCH  76  80
ENDBRANCH  49  73
BRANCH  61  84
ATOM     84  C   UNL A   1      45.842  26.548  33.392  1.00  0.00     0.023 A 
ATOM     85  C   UNL A   1      45.738  25.332  34.090  1.00  0.00     0.031 A 
ATOM     86  C   UNL A   1      47.112  27.145  33.292  1.00  0.00     0.131 A 
ATOM     87  C   UNL A   1      46.867  24.789  34.721  1.00  0.00     0.055 A 
ATOM     88  C   UNL A   1      48.245  26.563  33.861  1.00  0.00     0.041 A 
ATOM     89  F   UNL A   1      47.272  28.306  32.638  1.00  0.00    -0.206 F 
ATOM     90  C   UNL A   1      48.124  25.387  34.595  1.00  0.00     0.022 A 
BRANCH  87  91
ATOM     91  S   UNL A   1      46.651  23.351  35.806  1.00  0.00     0.124 S 
ATOM     92  O   UNL A   1      46.953  22.244  34.904  1.00  0.00    -0.237 OA
ATOM     93  O   UNL A   1      47.632  23.603  36.856  1.00  0.00    -0.237 OA
ATOM     94  O   UNL A   1      45.255  23.446  36.228  1.00  0.00    -0.744 OA
ENDBRANCH  87  91
ENDBRANCH  61  84
ENDBRANCH  35  36
ENDBRANCH  27  30
ENDBRANCH  25  26
ENDBRANCH  24  25
ENDBRANCH   1  24
TORSDOF 18
ENDMDL
MODEL 3
REMARK VINA RESULT:     -11.6      3.871      8.473
REMARK SMILES C[C@@H](C(=O)NCCCCNC(=O)c1ccc(-c2c3nc(c(-c4cc(S(=O)(=O)[O-])ccc4F)c4ccc([nH]4)c(-c4cc(S(=O)(=O)[O-])ccc4F)c4nc(c(-c5cc(S(=O)(=O)[O-])ccc5F)c5ccc2[nH]5)C=C4)C=C3)cc1)c1ccc(C[C@H]2CCC[C@@H]2O)cc1Br
REMARK SMILES IDX 7 1 6 2 5 3 3 4 4 5 2 7 1 8 76 9 77 10 88 11 78 12 87 13
REMARK SMILES IDX 89 14 79 15 80 16 81 17 82 18 85 19 83 20 84 21 86 22 8 24
REMARK SMILES IDX 9 25 10 26 11 27 12 29 13 30 14 31 75 32 15 33 74 34 16 35
REMARK SMILES IDX 17 36 18 37 68 38 19 39 73 40 67 41 69 42 20 43 72 44 66 45
REMARK SMILES IDX 65 46 21 48 53 49 33 50 52 51 34 52 37 53 51 54 70 55 35 56
REMARK SMILES IDX 36 57 50 59 71 60 38 61 22 62 23 63 31 64 24 65 30 66 32 67
REMARK SMILES IDX 29 68 25 69 26 70 27 71 28 72 54 73 55 74 63 75 56 76 62 77
REMARK SMILES IDX 64 78 61 79 57 80 58 81 59 82 60 83 39 84 40 85 48 86 41 87
REMARK SMILES IDX 47 88 49 89 46 90 42 91 43 92 44 93 45 94
REMARK H PARENT 5 6 86 23 10 28 69 47 37 58
REMARK Flexibility Score: inf
ROOT
ATOM      1  C   UNL A   1      31.527  30.480  25.597  1.00  0.00     0.023 C 
ENDROOT
BRANCH   1   2
ATOM      2  C   UNL A   1      32.241  29.154  25.321  1.00  0.00     0.116 C 
BRANCH   2   3
ATOM      3  N   UNL A   1      31.776  28.128  26.231  1.00  0.00    -0.356 N 
ATOM      4  C   UNL A   1      31.076  26.985  25.968  1.00  0.00     0.227 C 
ATOM      5  O   UNL A   1      30.614  26.375  26.935  1.00  0.00    -0.274 OA
ATOM      6  H   UNL A   1      31.997  28.277  27.179  1.00  0.00     0.163 HD
BRANCH   4   7
ATOM      7  C   UNL A   1      30.915  26.495  24.513  1.00  0.00     0.106 C 
ATOM      8  C   UNL A   1      29.435  26.543  24.101  1.00  0.00     0.023 C 
BRANCH   7   9
ATOM      9  C   UNL A   1      31.549  25.109  24.327  1.00  0.00    -0.022 A 
ATOM     10  C   UNL A   1      30.977  23.974  24.930  1.00  0.00     0.006 A 
ATOM     11  C   UNL A   1      32.744  24.919  23.607  1.00  0.00     0.022 A 
ATOM     12  C   UNL A   1      31.582  22.722  24.856  1.00  0.00     0.004 A 
ATOM     13  C   UNL A   1      33.382  23.670  23.588  1.00  0.00     0.019 A 
ATOM     14  Br  UNL A   1      33.585  26.321  22.632  1.00  0.00    -0.051 Br
ATOM     15  C   UNL A   1      32.827  22.570  24.252  1.00  0.00    -0.047 A 
BRANCH  15  16
ATOM     16  C   UNL A   1      33.575  21.263  24.360  1.00  0.00     0.041 C 
BRANCH  16  17
ATOM     17  C   UNL A   1      32.702  19.991  24.364  1.00  0.00     0.022 C 
ATOM     18  C   UNL A   1      32.432  19.366  22.984  1.00  0.00     0.007 C 
ATOM     19  C   UNL A   1      33.200  18.821  25.222  1.00  0.00     0.117 C 
ATOM     20  C   UNL A   1      32.431  17.848  23.197  1.00  0.00     0.003 C 
ATOM     21  C   UNL A   1      32.389  17.646  24.702  1.00  0.00     0.032 C 
BRANCH  19  22
ATOM     22  O   UNL A   1      32.956  19.033  26.601  1.00  0.00    -0.393 OA
ATOM     23  H   UNL A   1      33.741  19.429  27.011  1.00  0.00     0.210 HD
ENDBRANCH  19  22
ENDBRANCH  16  17
ENDBRANCH  15  16
ENDBRANCH   7   9
ENDBRANCH   4   7
ENDBRANCH   2   3
ENDBRANCH   1   2
BRANCH   1  24
ATOM     24  C   UNL A   1      31.809  31.076  26.977  1.00  0.00     0.023 C 
BRANCH  24  25
ATOM     25  C   UNL A   1      33.057  31.947  27.055  1.00  0.00     0.116 C 
BRANCH  25  26
ATOM     26  N   UNL A   1      32.752  33.336  27.353  1.00  0.00    -0.352 N 
ATOM     27  C   UNL A   1      33.286  34.147  28.324  1.00  0.00     0.251 C 
ATOM     28  H   UNL A   1      32.070  33.754  26.779  1.00  0.00     0.163 HD
ATOM     29  O   UNL A   1      32.794  35.252  28.531  1.00  0.00    -0.269 OA
BRANCH  27  30
ATOM     30  C   UNL A   1      34.423  33.664  29.136  1.00  0.00     0.039 A 
ATOM     31  C   UNL A   1      34.170  32.795  30.199  1.00  0.00     0.014 A 
ATOM     32  C   UNL A   1      35.734  34.050  28.840  1.00  0.00     0.014 A 
ATOM     33  C   UNL A   1      35.238  32.265  30.924  1.00  0.00     0.010 A 
ATOM     34  C   UNL A   1      36.800  33.457  29.512  1.00  0.00     0.010 A 
ATOM     35  C   UNL A   1      36.563  32.561  30.565  1.00  0.00    -0.014 A 
BRANCH  35  36
ATOM     36  C   UNL A   1      37.708  31.946  31.288  1.00  0.00     0.031 A 
ATOM     37  C   UNL A   1      38.497  30.835  30.650  1.00  0.00     0.074 A 
ATOM     38  C   UNL A   1      38.012  32.367  32.533  1.00  0.00     0.049 A 
ATOM     39  N   UNL A   1      39.501  30.150  31.134  1.00  0.00    -0.248 NA
ATOM     40  C   UNL A   1      38.082  30.420  29.302  1.00  0.00     0.031 C 
ATOM     41  C   UNL A   1      37.291  33.406  33.273  1.00  0.00     0.029 A 
ATOM     42  N   UNL A   1      39.002  31.974  33.397  1.00  0.00    -0.354 N 
ATOM     43  C   UNL A   1      39.842  29.230  30.149  1.00  0.00     0.074 A 
ATOM     44  C   UNL A   1      38.884  29.390  29.077  1.00  0.00     0.031 C 
ATOM     45  C   UNL A   1      37.883  33.589  34.463  1.00  0.00     0.029 A 
ATOM     46  C   UNL A   1      38.993  32.651  34.595  1.00  0.00     0.049 A 
ATOM     47  H   UNL A   1      39.658  31.272  33.181  1.00  0.00     0.167 HD
ATOM     48  C   UNL A   1      40.878  28.355  30.125  1.00  0.00     0.034 A 
ATOM     49  C   UNL A   1      39.783  32.525  35.680  1.00  0.00     0.034 A 
ATOM     50  C   UNL A   1      41.824  28.203  31.204  1.00  0.00     0.049 A 
ATOM     51  C   UNL A   1      40.903  31.513  35.647  1.00  0.00     0.074 A 
ATOM     52  C   UNL A   1      42.923  27.366  31.277  1.00  0.00     0.029 A 
ATOM     53  N   UNL A   1      41.781  28.902  32.405  1.00  0.00    -0.354 N 
ATOM     54  N   UNL A   1      41.241  30.683  34.686  1.00  0.00    -0.248 NA
ATOM     55  C   UNL A   1      41.758  31.434  36.838  1.00  0.00     0.031 C 
ATOM     56  C   UNL A   1      43.503  27.508  32.543  1.00  0.00     0.029 A 
ATOM     57  C   UNL A   1      42.818  28.496  33.231  1.00  0.00     0.049 A 
ATOM     58  H   UNL A   1      41.111  29.586  32.635  1.00  0.00     0.167 HD
ATOM     59  C   UNL A   1      42.370  30.010  35.146  1.00  0.00     0.074 A 
ATOM     60  C   UNL A   1      42.666  30.548  36.459  1.00  0.00     0.031 C 
ATOM     61  C   UNL A   1      43.098  29.036  34.541  1.00  0.00     0.034 A 
BRANCH  48  62
ATOM     62  C   UNL A   1      41.026  27.488  28.896  1.00  0.00     0.023 A 
ATOM     63  C   UNL A   1      42.034  27.730  27.946  1.00  0.00     0.031 A 
ATOM     64  C   UNL A   1      40.139  26.425  28.655  1.00  0.00     0.131 A 
ATOM     65  C   UNL A   1      42.084  26.973  26.766  1.00  0.00     0.055 A 
ATOM     66  C   UNL A   1      40.249  25.617  27.520  1.00  0.00     0.041 A 
ATOM     67  F   UNL A   1      39.142  26.157  29.513  1.00  0.00    -0.206 F 
ATOM     68  C   UNL A   1      41.215  25.899  26.559  1.00  0.00     0.022 A 
BRANCH  65  69
ATOM     69  S   UNL A   1      43.203  27.506  25.443  1.00  0.00     0.124 S 
ATOM     70  O   UNL A   1      42.283  28.193  24.538  1.00  0.00    -0.237 OA
ATOM     71  O   UNL A   1      44.152  28.354  26.154  1.00  0.00    -0.237 OA
ATOM     72  O   UNL A   1      43.748  26.252  24.928  1.00  0.00    -0.744 OA
ENDBRANCH  65  69
ENDBRANCH  48  62
BRANCH  49  73
ATOM     73  C   UNL A   1      39.548  33.359  36.896  1.00  0.00     0.023 A 
ATOM     74  C   UNL A   1      38.920  32.824  38.032  1.00  0.00     0.031 A 
ATOM     75  C   UNL A   1      39.888  34.724  36.916  1.00  0.00     0.131 A 
ATOM     76  C   UNL A   1      38.592  33.659  39.111  1.00  0.00     0.055 A 
ATOM     77  C   UNL A   1      39.619  35.537  38.018  1.00  0.00     0.041 A 
ATOM     78  F   UNL A   1      40.493  35.289  35.858  1.00  0.00    -0.206 F 
ATOM     79  C   UNL A   1      38.950  35.009  39.117  1.00  0.00     0.022 A 
BRANCH  76  80
ATOM     80  S   UNL A   1      37.581  32.982  40.456  1.00  0.00     0.124 S 
ATOM     81  O   UNL A   1      37.803  33.958  41.516  1.00  0.00    -0.237 OA
ATOM     82  O   UNL A   1      36.250  32.974  39.859  1.00  0.00    -0.237 OA
ATOM     83  O   UNL A   1      38.166  31.662  40.689  1.00  0.00    -0.744 OA
ENDBRANCH  76  80
ENDBRANCH  49  73
BRANCH  61  84
ATOM     84  C   UNL A   1      44.316  28.533  35.280  1.00  0.00     0.023 A 
ATOM     85  C   UNL A   1      44.232  27.510  36.241  1.00  0.00     0.031 A 
ATOM     86  C   UNL A   1      45.577  29.105  35.034  1.00  0.00     0.131 A 
ATOM     87  C   UNL A   1      45.372  27.140  36.970  1.00  0.00     0.055 A 
ATOM     88  C   UNL A   1      46.722  28.684  35.713  1.00  0.00     0.041 A 
ATOM     89  F   UNL A   1      45.719  30.087  34.129  1.00  0.00    -0.206 F 
ATOM     90  C   UNL A   1      46.620  27.707  36.699  1.00  0.00     0.022 A 
BRANCH  87  91
ATOM     91  S   UNL A   1      45.180  25.989  38.359  1.00  0.00     0.124 S 
ATOM     92  O   UNL A   1      46.551  25.866  38.841  1.00  0.00    -0.237 OA
ATOM     93  O   UNL A   1      44.259  26.707  39.234  1.00  0.00    -0.237 OA
ATOM     94  O   UNL A   1      44.631  24.787  37.735  1.00  0.00    -0.744 OA
ENDBRANCH  87  91
ENDBRANCH  61  84
ENDBRANCH  35  36
ENDBRANCH  27  30
ENDBRANCH  25  26
ENDBRANCH  24  25
ENDBRANCH   1  24
TORSDOF 18
ENDMDL
