MODEL 1
REMARK VINA RESULT:     -14.8      0.000      0.000
REMARK SMILES Cc1cccc(N2C(=O)/C(=C/c3ccc(C(=O)NCCCCNC(=O)c4ccc(-c5c6nc(c(-c7cc(S(=O)(=O)[O-])ccc7F)c7ccc([nH]7)c(-c7cc(S(=O)(=O)[O-])ccc7F)c7nc(c(-c8cc(S(=O)(=O)[O-])ccc8F)c8ccc5[nH]8)C=C7)C=C6)cc4)cc3)c3ccccc3C2=O)c1
REMARK SMILES IDX 21 1 20 2 19 3 18 4 16 5 17 6 15 8 12 9 13 10 90 11 14 12
REMARK SMILES IDX 89 13 11 14 7 15 8 16 97 17 9 18 10 19 96 20 98 21 91 22
REMARK SMILES IDX 95 23 92 24 94 25 93 26 6 27 1 28 2 29 3 30 99 31 4 32 5 33
REMARK SMILES IDX 22 34 23 35 24 36 25 38 26 39 27 40 88 41 28 42 87 43 29 44
REMARK SMILES IDX 30 45 31 46 81 47 32 48 86 49 80 50 82 51 33 52 85 53 79 54
REMARK SMILES IDX 78 55 34 57 66 58 46 59 65 60 47 61 50 62 64 63 83 64 48 65
REMARK SMILES IDX 49 66 63 68 84 69 51 70 35 71 36 72 44 73 37 74 43 75 45 76
REMARK SMILES IDX 42 77 38 78 39 79 40 80 41 81 67 82 68 83 76 84 69 85 75 86
REMARK SMILES IDX 77 87 74 88 70 89 71 90 72 91 73 92 52 93 53 94 61 95 54 96
REMARK SMILES IDX 60 97 62 98 59 99 55 100 56 101 57 102 58 103
REMARK H PARENT 18 7 23 37 82 56 50 67
REMARK Flexibility Score: inf
ROOT
ATOM      1  C   UNL A   1      32.902  30.627  27.310  1.00  0.00     0.023 C 
ENDROOT
BRANCH   1   2
ATOM      2  C   UNL A   1      32.266  29.319  26.846  1.00  0.00     0.023 C 
BRANCH   2   3
ATOM      3  C   UNL A   1      32.465  28.967  25.367  1.00  0.00     0.116 C 
BRANCH   3   4
ATOM      4  N   UNL A   1      31.455  29.565  24.489  1.00  0.00    -0.352 N 
ATOM      5  C   UNL A   1      30.611  28.994  23.567  1.00  0.00     0.251 C 
ATOM      6  O   UNL A   1      29.914  29.704  22.847  1.00  0.00    -0.269 OA
ATOM      7  H   UNL A   1      31.366  30.541  24.575  1.00  0.00     0.163 HD
BRANCH   5   8
ATOM      8  C   UNL A   1      30.585  27.527  23.377  1.00  0.00     0.039 A 
ATOM      9  C   UNL A   1      30.884  24.763  23.126  1.00  0.00    -0.025 A 
ATOM     10  C   UNL A   1      31.391  25.613  22.137  1.00  0.00     0.009 A 
ATOM     11  C   UNL A   1      30.097  25.295  24.155  1.00  0.00     0.009 A 
ATOM     12  C   UNL A   1      31.241  26.995  22.260  1.00  0.00     0.014 A 
ATOM     13  C   UNL A   1      29.942  26.678  24.277  1.00  0.00     0.014 A 
BRANCH   9  14
ATOM     14  C   UNL A   1      31.245  23.340  23.096  1.00  0.00     0.022 C 
ATOM     15  N   UNL A   1      32.990  20.609  24.670  1.00  0.00    -0.242 N 
ATOM     16  C   UNL A   1      32.379  21.264  23.582  1.00  0.00     0.265 C 
ATOM     17  C   UNL A   1      33.490  21.324  25.783  1.00  0.00     0.265 C 
ATOM     18  O   UNL A   1      31.834  20.722  22.617  1.00  0.00    -0.268 OA
ATOM     19  C   UNL A   1      32.324  22.764  23.678  1.00  0.00     0.049 C 
ATOM     20  C   UNL A   1      33.857  22.745  25.570  1.00  0.00     0.048 A 
ATOM     21  O   UNL A   1      33.709  20.875  26.906  1.00  0.00    -0.268 OA
ATOM     22  C   UNL A   1      33.356  23.440  24.472  1.00  0.00    -0.000 A 
ATOM     23  C   UNL A   1      34.743  23.366  26.463  1.00  0.00     0.014 A 
ATOM     24  C   UNL A   1      33.852  24.727  24.210  1.00  0.00     0.010 A 
ATOM     25  C   UNL A   1      35.167  24.671  26.232  1.00  0.00     0.001 A 
ATOM     26  C   UNL A   1      34.736  25.345  25.095  1.00  0.00     0.001 A 
BRANCH  15  27
ATOM     27  C   UNL A   1      33.034  19.147  24.679  1.00  0.00     0.053 A 
ATOM     28  C   UNL A   1      34.675  16.298  22.695  1.00  0.00     0.044 C 
ATOM     29  C   UNL A   1      33.866  17.023  23.729  1.00  0.00    -0.049 A 
ATOM     30  C   UNL A   1      33.176  16.303  24.702  1.00  0.00     0.003 A 
ATOM     31  C   UNL A   1      33.803  18.431  23.740  1.00  0.00     0.030 A 
ATOM     32  C   UNL A   1      32.422  16.978  25.652  1.00  0.00     0.002 A 
ATOM     33  C   UNL A   1      32.348  18.377  25.632  1.00  0.00     0.027 A 
ENDBRANCH  15  27
ENDBRANCH   9  14
ENDBRANCH   5   8
ENDBRANCH   3   4
ENDBRANCH   2   3
ENDBRANCH   1   2
BRANCH   1  34
ATOM     34  C   UNL A   1      34.426  30.622  27.352  1.00  0.00     0.116 C 
BRANCH  34  35
ATOM     35  N   UNL A   1      35.015  31.460  28.389  1.00  0.00    -0.352 N 
ATOM     36  C   UNL A   1      36.057  31.155  29.253  1.00  0.00     0.251 C 
ATOM     37  H   UNL A   1      34.623  32.357  28.490  1.00  0.00     0.163 HD
ATOM     38  O   UNL A   1      36.401  31.923  30.141  1.00  0.00    -0.269 OA
BRANCH  36  39
ATOM     39  C   UNL A   1      36.847  29.924  29.000  1.00  0.00     0.039 A 
ATOM     40  C   UNL A   1      37.095  29.088  30.095  1.00  0.00     0.014 A 
ATOM     41  C   UNL A   1      37.530  29.738  27.802  1.00  0.00     0.014 A 
ATOM     42  C   UNL A   1      38.197  28.236  30.067  1.00  0.00     0.010 A 
ATOM     43  C   UNL A   1      38.678  28.966  27.806  1.00  0.00     0.010 A 
ATOM     44  C   UNL A   1      39.050  28.273  28.964  1.00  0.00    -0.014 A 
BRANCH  44  45
ATOM     45  C   UNL A   1      40.412  27.750  29.000  1.00  0.00     0.031 A 
ATOM     46  C   UNL A   1      40.706  26.359  28.605  1.00  0.00     0.074 A 
ATOM     47  C   UNL A   1      41.428  28.560  29.371  1.00  0.00     0.049 A 
ATOM     48  N   UNL A   1      41.750  25.697  28.978  1.00  0.00    -0.248 NA
ATOM     49  C   UNL A   1      39.779  25.565  27.812  1.00  0.00     0.031 C 
ATOM     50  C   UNL A   1      42.861  28.312  29.239  1.00  0.00     0.029 A 
ATOM     51  N   UNL A   1      41.343  29.674  30.199  1.00  0.00    -0.354 N 
ATOM     52  C   UNL A   1      41.793  24.529  28.251  1.00  0.00     0.074 A 
ATOM     53  C   UNL A   1      40.487  24.445  27.643  1.00  0.00     0.031 C 
ATOM     54  C   UNL A   1      43.513  29.056  30.147  1.00  0.00     0.029 A 
ATOM     55  C   UNL A   1      42.513  29.702  30.977  1.00  0.00     0.049 A 
ATOM     56  H   UNL A   1      40.602  30.322  30.235  1.00  0.00     0.167 HD
ATOM     57  C   UNL A   1      42.980  23.862  28.140  1.00  0.00     0.034 A 
ATOM     58  C   UNL A   1      42.453  29.638  32.339  1.00  0.00     0.034 A 
ATOM     59  C   UNL A   1      43.985  24.414  29.061  1.00  0.00     0.049 A 
ATOM     60  C   UNL A   1      43.177  28.442  32.918  1.00  0.00     0.074 A 
ATOM     61  C   UNL A   1      45.097  25.222  28.882  1.00  0.00     0.029 A 
ATOM     62  N   UNL A   1      43.766  24.355  30.436  1.00  0.00    -0.354 N 
ATOM     63  N   UNL A   1      43.553  27.405  32.220  1.00  0.00    -0.248 NA
ATOM     64  C   UNL A   1      43.524  28.315  34.330  1.00  0.00     0.031 C 
ATOM     65  C   UNL A   1      45.496  25.708  30.157  1.00  0.00     0.029 A 
ATOM     66  C   UNL A   1      44.653  25.169  31.114  1.00  0.00     0.049 A 
ATOM     67  H   UNL A   1      43.070  23.807  30.867  1.00  0.00     0.167 HD
ATOM     68  C   UNL A   1      44.155  26.484  33.042  1.00  0.00     0.074 A 
ATOM     69  C   UNL A   1      44.136  27.118  34.351  1.00  0.00     0.031 C 
ATOM     70  C   UNL A   1      44.605  25.279  32.570  1.00  0.00     0.034 A 
BRANCH  57  71
ATOM     71  C   UNL A   1      43.342  22.904  27.007  1.00  0.00     0.023 A 
ATOM     72  C   UNL A   1      42.782  21.603  27.006  1.00  0.00     0.031 A 
ATOM     73  C   UNL A   1      44.270  23.137  25.972  1.00  0.00     0.131 A 
ATOM     74  C   UNL A   1      43.205  20.610  26.096  1.00  0.00     0.055 A 
ATOM     75  C   UNL A   1      44.711  22.146  25.083  1.00  0.00     0.041 A 
ATOM     76  F   UNL A   1      44.785  24.341  25.721  1.00  0.00    -0.206 F 
ATOM     77  C   UNL A   1      44.189  20.870  25.149  1.00  0.00     0.022 A 
BRANCH  74  78
ATOM     78  S   UNL A   1      42.470  18.953  26.172  1.00  0.00     0.124 S 
ATOM     79  O   UNL A   1      43.275  18.213  25.206  1.00  0.00    -0.237 OA
ATOM     80  O   UNL A   1      42.650  18.598  27.575  1.00  0.00    -0.237 OA
ATOM     81  O   UNL A   1      41.082  19.179  25.770  1.00  0.00    -0.744 OA
ENDBRANCH  74  78
ENDBRANCH  57  71
BRANCH  58  82
ATOM     82  C   UNL A   1      41.228  30.283  32.899  1.00  0.00     0.023 A 
ATOM     83  C   UNL A   1      41.173  31.696  32.842  1.00  0.00     0.031 A 
ATOM     84  C   UNL A   1      40.026  29.589  33.078  1.00  0.00     0.131 A 
ATOM     85  C   UNL A   1      39.939  32.353  32.758  1.00  0.00     0.055 A 
ATOM     86  C   UNL A   1      38.795  30.260  33.088  1.00  0.00     0.041 A 
ATOM     87  F   UNL A   1      40.009  28.248  33.114  1.00  0.00    -0.206 F 
ATOM     88  C   UNL A   1      38.746  31.641  32.877  1.00  0.00     0.022 A 
BRANCH  85  89
ATOM     89  S   UNL A   1      39.908  34.085  32.198  1.00  0.00     0.124 S 
ATOM     90  O   UNL A   1      39.369  34.776  33.362  1.00  0.00    -0.237 OA
ATOM     91  O   UNL A   1      41.308  34.366  31.884  1.00  0.00    -0.237 OA
ATOM     92  O   UNL A   1      39.040  34.054  31.024  1.00  0.00    -0.744 OA
ENDBRANCH  85  89
ENDBRANCH  58  82
BRANCH  70  93
ATOM     93  C   UNL A   1      45.119  24.127  33.414  1.00  0.00     0.023 A 
ATOM     94  C   UNL A   1      46.416  24.063  33.944  1.00  0.00     0.031 A 
ATOM     95  C   UNL A   1      44.262  23.057  33.780  1.00  0.00     0.131 A 
ATOM     96  C   UNL A   1      46.844  22.958  34.708  1.00  0.00     0.055 A 
ATOM     97  C   UNL A   1      44.665  21.999  34.603  1.00  0.00     0.041 A 
ATOM     98  F   UNL A   1      42.990  22.994  33.363  1.00  0.00    -0.206 F 
ATOM     99  C   UNL A   1      45.971  21.935  35.060  1.00  0.00     0.022 A 
BRANCH  96 100
ATOM    100  S   UNL A   1      48.592  22.863  35.181  1.00  0.00     0.124 S 
ATOM    101  O   UNL A   1      48.909  21.469  34.881  1.00  0.00    -0.237 OA
ATOM    102  O   UNL A   1      49.209  23.854  34.305  1.00  0.00    -0.237 OA
ATOM    103  O   UNL A   1      48.586  23.206  36.601  1.00  0.00    -0.744 OA
ENDBRANCH  96 100
ENDBRANCH  70  93
ENDBRANCH  44  45
ENDBRANCH  36  39
ENDBRANCH  34  35
ENDBRANCH   1  34
TORSDOF 16
ENDMDL
MODEL 2
REMARK VINA RESULT:     -14.0      3.878     10.008
REMARK SMILES Cc1cccc(N2C(=O)/C(=C/c3ccc(C(=O)NCCCCNC(=O)c4ccc(-c5c6nc(c(-c7cc(S(=O)(=O)[O-])ccc7F)c7ccc([nH]7)c(-c7cc(S(=O)(=O)[O-])ccc7F)c7nc(c(-c8cc(S(=O)(=O)[O-])ccc8F)c8ccc5[nH]8)C=C7)C=C6)cc4)cc3)c3ccccc3C2=O)c1
REMARK SMILES IDX 21 1 20 2 19 3 18 4 16 5 17 6 15 8 12 9 13 10 90 11 14 12
REMARK SMILES IDX 89 13 11 14 7 15 8 16 97 17 9 18 10 19 96 20 98 21 91 22
REMARK SMILES IDX 95 23 92 24 94 25 93 26 6 27 1 28 2 29 3 30 99 31 4 32 5 33
REMARK SMILES IDX 22 34 23 35 24 36 25 38 26 39 27 40 88 41 28 42 87 43 29 44
REMARK SMILES IDX 30 45 31 46 81 47 32 48 86 49 80 50 82 51 33 52 85 53 79 54
REMARK SMILES IDX 78 55 34 57 66 58 46 59 65 60 47 61 50 62 64 63 83 64 48 65
REMARK SMILES IDX 49 66 63 68 84 69 51 70 35 71 36 72 44 73 37 74 43 75 45 76
REMARK SMILES IDX 42 77 38 78 39 79 40 80 41 81 67 82 68 83 76 84 69 85 75 86
REMARK SMILES IDX 77 87 74 88 70 89 71 90 72 91 73 92 52 93 53 94 61 95 54 96
REMARK SMILES IDX 60 97 62 98 59 99 55 100 56 101 57 102 58 103
REMARK H PARENT 18 7 23 37 82 56 50 67
REMARK Flexibility Score: inf
ROOT
ATOM      1  C   UNL A   1      37.524  23.214  25.664  1.00  0.00     0.023 C 
ENDROOT
BRANCH   1   2
ATOM      2  C   UNL A   1      36.842  21.926  25.203  1.00  0.00     0.023 C 
BRANCH   2   3
ATOM      3  C   UNL A   1      35.348  21.808  25.531  1.00  0.00     0.116 C 
BRANCH   3   4
ATOM      4  N   UNL A   1      34.766  20.527  25.119  1.00  0.00    -0.352 N 
ATOM      5  C   UNL A   1      33.540  20.229  24.576  1.00  0.00     0.251 C 
ATOM      6  O   UNL A   1      33.208  19.058  24.411  1.00  0.00    -0.269 OA
ATOM      7  H   UNL A   1      35.354  19.750  25.255  1.00  0.00     0.163 HD
BRANCH   5   8
ATOM      8  C   UNL A   1      32.577  21.304  24.254  1.00  0.00     0.039 A 
ATOM      9  C   UNL A   1      30.958  23.546  23.866  1.00  0.00    -0.025 A 
ATOM     10  C   UNL A   1      30.834  22.789  25.036  1.00  0.00     0.009 A 
ATOM     11  C   UNL A   1      31.784  23.087  22.832  1.00  0.00     0.009 A 
ATOM     12  C   UNL A   1      31.641  21.667  25.231  1.00  0.00     0.014 A 
ATOM     13  C   UNL A   1      32.589  21.961  23.023  1.00  0.00     0.014 A 
BRANCH   9  14
ATOM     14  C   UNL A   1      30.270  24.840  23.778  1.00  0.00     0.022 C 
ATOM     15  N   UNL A   1      30.544  28.425  23.554  1.00  0.00    -0.242 N 
ATOM     16  C   UNL A   1      29.871  27.221  23.842  1.00  0.00     0.265 C 
ATOM     17  C   UNL A   1      31.956  28.503  23.540  1.00  0.00     0.265 C 
ATOM     18  O   UNL A   1      28.653  27.035  23.787  1.00  0.00    -0.268 OA
ATOM     19  C   UNL A   1      30.756  26.046  24.158  1.00  0.00     0.049 C 
ATOM     20  C   UNL A   1      32.701  27.499  24.336  1.00  0.00     0.048 A 
ATOM     21  O   UNL A   1      32.639  29.358  22.978  1.00  0.00    -0.268 OA
ATOM     22  C   UNL A   1      32.080  26.316  24.728  1.00  0.00    -0.000 A 
ATOM     23  C   UNL A   1      34.022  27.772  24.722  1.00  0.00     0.014 A 
ATOM     24  C   UNL A   1      32.757  25.466  25.617  1.00  0.00     0.010 A 
ATOM     25  C   UNL A   1      34.709  26.882  25.542  1.00  0.00     0.001 A 
ATOM     26  C   UNL A   1      34.070  25.738  26.005  1.00  0.00     0.001 A 
BRANCH  15  27
ATOM     27  C   UNL A   1      29.758  29.601  23.182  1.00  0.00     0.053 A 
ATOM     28  C   UNL A   1      27.884  30.967  20.121  1.00  0.00     0.044 C 
ATOM     29  C   UNL A   1      28.436  30.852  21.510  1.00  0.00    -0.049 A 
ATOM     30  C   UNL A   1      28.183  31.856  22.443  1.00  0.00     0.003 A 
ATOM     31  C   UNL A   1      29.200  29.732  21.893  1.00  0.00     0.030 A 
ATOM     32  C   UNL A   1      28.702  31.750  23.726  1.00  0.00     0.002 A 
ATOM     33  C   UNL A   1      29.484  30.643  24.083  1.00  0.00     0.027 A 
ENDBRANCH  15  27
ENDBRANCH   9  14
ENDBRANCH   5   8
ENDBRANCH   3   4
ENDBRANCH   2   3
ENDBRANCH   1   2
BRANCH   1  34
ATOM     34  C   UNL A   1      38.848  23.014  26.393  1.00  0.00     0.116 C 
BRANCH  34  35
ATOM     35  N   UNL A   1      39.571  21.801  26.034  1.00  0.00    -0.352 N 
ATOM     36  C   UNL A   1      40.936  21.565  26.089  1.00  0.00     0.251 C 
ATOM     37  H   UNL A   1      39.019  21.052  25.711  1.00  0.00     0.163 HD
ATOM     38  O   UNL A   1      41.426  20.523  25.674  1.00  0.00    -0.269 OA
BRANCH  36  39
ATOM     39  C   UNL A   1      41.797  22.553  26.786  1.00  0.00     0.039 A 
ATOM     40  C   UNL A   1      41.902  22.441  28.178  1.00  0.00     0.014 A 
ATOM     41  C   UNL A   1      42.267  23.689  26.134  1.00  0.00     0.014 A 
ATOM     42  C   UNL A   1      42.243  23.562  28.929  1.00  0.00     0.010 A 
ATOM     43  C   UNL A   1      42.513  24.827  26.880  1.00  0.00     0.010 A 
ATOM     44  C   UNL A   1      42.428  24.781  28.276  1.00  0.00    -0.014 A 
BRANCH  44  45
ATOM     45  C   UNL A   1      42.382  26.065  28.969  1.00  0.00     0.031 A 
ATOM     46  C   UNL A   1      41.237  26.981  28.801  1.00  0.00     0.074 A 
ATOM     47  C   UNL A   1      43.388  26.410  29.801  1.00  0.00     0.049 A 
ATOM     48  N   UNL A   1      41.281  28.253  29.018  1.00  0.00    -0.248 NA
ATOM     49  C   UNL A   1      39.954  26.532  28.283  1.00  0.00     0.031 C 
ATOM     50  C   UNL A   1      43.416  27.512  30.758  1.00  0.00     0.029 A 
ATOM     51  N   UNL A   1      44.706  25.970  29.741  1.00  0.00    -0.354 N 
ATOM     52  C   UNL A   1      39.992  28.734  28.968  1.00  0.00     0.074 A 
ATOM     53  C   UNL A   1      39.234  27.654  28.386  1.00  0.00     0.031 C 
ATOM     54  C   UNL A   1      44.695  27.842  31.000  1.00  0.00     0.029 A 
ATOM     55  C   UNL A   1      45.522  27.053  30.105  1.00  0.00     0.049 A 
ATOM     56  H   UNL A   1      45.010  25.067  29.488  1.00  0.00     0.167 HD
ATOM     57  C   UNL A   1      39.709  29.931  29.563  1.00  0.00     0.034 A 
ATOM     58  C   UNL A   1      46.455  27.553  29.243  1.00  0.00     0.034 A 
ATOM     59  C   UNL A   1      40.942  30.631  29.956  1.00  0.00     0.049 A 
ATOM     60  C   UNL A   1      46.231  29.007  28.889  1.00  0.00     0.074 A 
ATOM     61  C   UNL A   1      41.567  30.842  31.175  1.00  0.00     0.029 A 
ATOM     62  N   UNL A   1      41.855  31.020  28.979  1.00  0.00    -0.354 N 
ATOM     63  N   UNL A   1      45.116  29.651  29.108  1.00  0.00    -0.248 NA
ATOM     64  C   UNL A   1      47.240  29.846  28.251  1.00  0.00     0.031 C 
ATOM     65  C   UNL A   1      42.892  31.289  30.917  1.00  0.00     0.029 A 
ATOM     66  C   UNL A   1      43.061  31.387  29.546  1.00  0.00     0.049 A 
ATOM     67  H   UNL A   1      41.667  31.031  28.012  1.00  0.00     0.167 HD
ATOM     68  C   UNL A   1      45.226  30.939  28.647  1.00  0.00     0.074 A 
ATOM     69  C   UNL A   1      46.588  31.017  28.144  1.00  0.00     0.031 C 
ATOM     70  C   UNL A   1      44.179  31.821  28.712  1.00  0.00     0.034 A 
BRANCH  57  71
ATOM     71  C   UNL A   1      38.329  30.357  30.059  1.00  0.00     0.023 A 
ATOM     72  C   UNL A   1      37.415  30.923  29.137  1.00  0.00     0.031 A 
ATOM     73  C   UNL A   1      37.870  30.334  31.392  1.00  0.00     0.131 A 
ATOM     74  C   UNL A   1      36.195  31.499  29.555  1.00  0.00     0.055 A 
ATOM     75  C   UNL A   1      36.671  30.928  31.813  1.00  0.00     0.041 A 
ATOM     76  F   UNL A   1      38.524  29.707  32.370  1.00  0.00    -0.206 F 
ATOM     77  C   UNL A   1      35.831  31.527  30.896  1.00  0.00     0.022 A 
BRANCH  74  78
ATOM     78  S   UNL A   1      35.086  32.238  28.324  1.00  0.00     0.124 S 
ATOM     79  O   UNL A   1      34.656  31.075  27.556  1.00  0.00    -0.237 OA
ATOM     80  O   UNL A   1      34.074  32.874  29.161  1.00  0.00    -0.237 OA
ATOM     81  O   UNL A   1      35.954  33.167  27.600  1.00  0.00    -0.744 OA
ENDBRANCH  74  78
ENDBRANCH  57  71
BRANCH  58  82
ATOM     82  C   UNL A   1      47.041  26.508  28.351  1.00  0.00     0.023 A 
ATOM     83  C   UNL A   1      46.816  26.660  26.963  1.00  0.00     0.031 A 
ATOM     84  C   UNL A   1      48.089  25.674  28.756  1.00  0.00     0.131 A 
ATOM     85  C   UNL A   1      47.741  26.161  26.037  1.00  0.00     0.055 A 
ATOM     86  C   UNL A   1      48.960  25.097  27.820  1.00  0.00     0.041 A 
ATOM     87  F   UNL A   1      48.370  25.509  30.057  1.00  0.00    -0.206 F 
ATOM     88  C   UNL A   1      48.818  25.381  26.459  1.00  0.00     0.022 A 
BRANCH  85  89
ATOM     89  S   UNL A   1      47.690  26.785  24.328  1.00  0.00     0.124 S 
ATOM     90  O   UNL A   1      47.961  25.582  23.552  1.00  0.00    -0.237 OA
ATOM     91  O   UNL A   1      46.339  27.330  24.204  1.00  0.00    -0.237 OA
ATOM     92  O   UNL A   1      48.737  27.803  24.300  1.00  0.00    -0.744 OA
ENDBRANCH  85  89
ENDBRANCH  58  82
BRANCH  70  93
ATOM     93  C   UNL A   1      44.134  33.199  28.077  1.00  0.00     0.023 A 
ATOM     94  C   UNL A   1      44.163  34.398  28.806  1.00  0.00     0.031 A 
ATOM     95  C   UNL A   1      44.132  33.349  26.667  1.00  0.00     0.131 A 
ATOM     96  C   UNL A   1      44.100  35.651  28.163  1.00  0.00     0.055 A 
ATOM     97  C   UNL A   1      44.149  34.594  26.028  1.00  0.00     0.041 A 
ATOM     98  F   UNL A   1      44.123  32.292  25.843  1.00  0.00    -0.206 F 
ATOM     99  C   UNL A   1      44.116  35.758  26.777  1.00  0.00     0.022 A 
BRANCH  96 100
ATOM    100  S   UNL A   1      43.938  37.138  29.188  1.00  0.00     0.124 S 
ATOM    101  O   UNL A   1      42.594  37.594  28.846  1.00  0.00    -0.237 OA
ATOM    102  O   UNL A   1      44.102  36.609  30.539  1.00  0.00    -0.237 OA
ATOM    103  O   UNL A   1      45.023  37.999  28.723  1.00  0.00    -0.744 OA
ENDBRANCH  96 100
ENDBRANCH  70  93
ENDBRANCH  44  45
ENDBRANCH  36  39
ENDBRANCH  34  35
ENDBRANCH   1  34
TORSDOF 16
ENDMDL
MODEL 3
REMARK VINA RESULT:     -13.9      1.343      2.525
REMARK SMILES Cc1cccc(N2C(=O)/C(=C/c3ccc(C(=O)NCCCCNC(=O)c4ccc(-c5c6nc(c(-c7cc(S(=O)(=O)[O-])ccc7F)c7ccc([nH]7)c(-c7cc(S(=O)(=O)[O-])ccc7F)c7nc(c(-c8cc(S(=O)(=O)[O-])ccc8F)c8ccc5[nH]8)C=C7)C=C6)cc4)cc3)c3ccccc3C2=O)c1
REMARK SMILES IDX 21 1 20 2 19 3 18 4 16 5 17 6 15 8 12 9 13 10 90 11 14 12
REMARK SMILES IDX 89 13 11 14 7 15 8 16 97 17 9 18 10 19 96 20 98 21 91 22
REMARK SMILES IDX 95 23 92 24 94 25 93 26 6 27 1 28 2 29 3 30 99 31 4 32 5 33
REMARK SMILES IDX 22 34 23 35 24 36 25 38 26 39 27 40 88 41 28 42 87 43 29 44
REMARK SMILES IDX 30 45 31 46 81 47 32 48 86 49 80 50 82 51 33 52 85 53 79 54
REMARK SMILES IDX 78 55 34 57 66 58 46 59 65 60 47 61 50 62 64 63 83 64 48 65
REMARK SMILES IDX 49 66 63 68 84 69 51 70 35 71 36 72 44 73 37 74 43 75 45 76
REMARK SMILES IDX 42 77 38 78 39 79 40 80 41 81 67 82 68 83 76 84 69 85 75 86
REMARK SMILES IDX 77 87 74 88 70 89 71 90 72 91 73 92 52 93 53 94 61 95 54 96
REMARK SMILES IDX 60 97 62 98 59 99 55 100 56 101 57 102 58 103
REMARK H PARENT 18 7 23 37 82 56 50 67
REMARK Flexibility Score: inf
ROOT
ATOM      1  C   UNL A   1      35.749  33.304  27.937  1.00  0.00     0.023 C 
ENDROOT
BRANCH   1   2
ATOM      2  C   UNL A   1      34.883  32.087  27.618  1.00  0.00     0.023 C 
BRANCH   2   3
ATOM      3  C   UNL A   1      33.478  32.087  28.234  1.00  0.00     0.116 C 
BRANCH   3   4
ATOM      4  N   UNL A   1      32.409  32.154  27.233  1.00  0.00    -0.352 N 
ATOM      5  C   UNL A   1      31.829  31.170  26.469  1.00  0.00     0.251 C 
ATOM      6  O   UNL A   1      31.016  31.467  25.596  1.00  0.00    -0.269 OA
ATOM      7  H   UNL A   1      32.044  33.056  27.086  1.00  0.00     0.163 HD
BRANCH   5   8
ATOM      8  C   UNL A   1      32.229  29.755  26.631  1.00  0.00     0.039 A 
ATOM      9  C   UNL A   1      32.720  27.008  26.693  1.00  0.00    -0.025 A 
ATOM     10  C   UNL A   1      31.636  27.539  27.400  1.00  0.00     0.009 A 
ATOM     11  C   UNL A   1      33.639  27.874  26.086  1.00  0.00     0.009 A 
ATOM     12  C   UNL A   1      31.390  28.914  27.371  1.00  0.00     0.014 A 
ATOM     13  C   UNL A   1      33.397  29.249  26.060  1.00  0.00     0.014 A 
BRANCH   9  14
ATOM     14  C   UNL A   1      32.832  25.551  26.550  1.00  0.00     0.022 C 
ATOM     15  N   UNL A   1      33.402  22.742  24.367  1.00  0.00    -0.242 N 
ATOM     16  C   UNL A   1      32.925  23.359  25.542  1.00  0.00     0.265 C 
ATOM     17  C   UNL A   1      33.605  23.472  23.174  1.00  0.00     0.265 C 
ATOM     18  O   UNL A   1      32.805  22.827  26.648  1.00  0.00    -0.268 OA
ATOM     19  C   UNL A   1      32.624  24.828  25.423  1.00  0.00     0.049 C 
ATOM     20  C   UNL A   1      32.827  24.722  22.999  1.00  0.00     0.048 A 
ATOM     21  O   UNL A   1      34.322  23.150  22.229  1.00  0.00    -0.268 OA
ATOM     22  C   UNL A   1      32.256  25.350  24.103  1.00  0.00    -0.000 A 
ATOM     23  C   UNL A   1      32.640  25.239  21.709  1.00  0.00     0.014 A 
ATOM     24  C   UNL A   1      31.390  26.434  23.885  1.00  0.00     0.010 A 
ATOM     25  C   UNL A   1      31.841  26.362  21.515  1.00  0.00     0.001 A 
ATOM     26  C   UNL A   1      31.201  26.949  22.601  1.00  0.00     0.001 A 
BRANCH  15  27
ATOM     27  C   UNL A   1      33.770  21.327  24.414  1.00  0.00     0.053 A 
ATOM     28  C   UNL A   1      32.234  17.917  23.544  1.00  0.00     0.044 C 
ATOM     29  C   UNL A   1      33.215  18.955  24.000  1.00  0.00    -0.049 A 
ATOM     30  C   UNL A   1      34.477  18.568  24.447  1.00  0.00     0.003 A 
ATOM     31  C   UNL A   1      32.884  20.324  23.970  1.00  0.00     0.030 A 
ATOM     32  C   UNL A   1      35.380  19.532  24.875  1.00  0.00     0.002 A 
ATOM     33  C   UNL A   1      35.025  20.887  24.866  1.00  0.00     0.027 A 
ENDBRANCH  15  27
ENDBRANCH   9  14
ENDBRANCH   5   8
ENDBRANCH   3   4
ENDBRANCH   2   3
ENDBRANCH   1   2
BRANCH   1  34
ATOM     34  C   UNL A   1      36.874  33.048  28.936  1.00  0.00     0.116 C 
BRANCH  34  35
ATOM     35  N   UNL A   1      36.435  32.620  30.258  1.00  0.00    -0.352 N 
ATOM     36  C   UNL A   1      36.495  31.350  30.814  1.00  0.00     0.251 C 
ATOM     37  H   UNL A   1      36.047  33.321  30.830  1.00  0.00     0.163 HD
ATOM     38  O   UNL A   1      36.010  31.106  31.910  1.00  0.00    -0.269 OA
BRANCH  36  39
ATOM     39  C   UNL A   1      37.279  30.306  30.110  1.00  0.00     0.039 A 
ATOM     40  C   UNL A   1      37.314  29.032  30.689  1.00  0.00     0.014 A 
ATOM     41  C   UNL A   1      38.148  30.633  29.073  1.00  0.00     0.014 A 
ATOM     42  C   UNL A   1      38.379  28.181  30.403  1.00  0.00     0.010 A 
ATOM     43  C   UNL A   1      39.255  29.831  28.859  1.00  0.00     0.010 A 
ATOM     44  C   UNL A   1      39.406  28.640  29.579  1.00  0.00    -0.014 A 
BRANCH  44  45
ATOM     45  C   UNL A   1      40.727  28.019  29.541  1.00  0.00     0.031 A 
ATOM     46  C   UNL A   1      40.906  26.637  29.058  1.00  0.00     0.074 A 
ATOM     47  C   UNL A   1      41.809  28.731  29.925  1.00  0.00     0.049 A 
ATOM     48  N   UNL A   1      41.909  25.881  29.359  1.00  0.00    -0.248 NA
ATOM     49  C   UNL A   1      39.902  25.961  28.251  1.00  0.00     0.031 C 
ATOM     50  C   UNL A   1      43.216  28.389  29.733  1.00  0.00     0.029 A 
ATOM     51  N   UNL A   1      41.830  29.797  30.818  1.00  0.00    -0.354 N 
ATOM     52  C   UNL A   1      41.845  24.758  28.564  1.00  0.00     0.074 A 
ATOM     53  C   UNL A   1      40.521  24.804  27.996  1.00  0.00     0.031 C 
ATOM     54  C   UNL A   1      43.946  29.029  30.660  1.00  0.00     0.029 A 
ATOM     55  C   UNL A   1      43.020  29.695  31.558  1.00  0.00     0.049 A 
ATOM     56  H   UNL A   1      41.140  30.493  30.914  1.00  0.00     0.167 HD
ATOM     57  C   UNL A   1      42.977  24.016  28.378  1.00  0.00     0.034 A 
ATOM     58  C   UNL A   1      42.993  29.554  32.915  1.00  0.00     0.034 A 
ATOM     59  C   UNL A   1      44.045  24.438  29.296  1.00  0.00     0.049 A 
ATOM     60  C   UNL A   1      43.643  28.277  33.401  1.00  0.00     0.074 A 
ATOM     61  C   UNL A   1      45.208  25.173  29.128  1.00  0.00     0.029 A 
ATOM     62  N   UNL A   1      43.860  24.313  30.671  1.00  0.00    -0.354 N 
ATOM     63  N   UNL A   1      43.923  27.259  32.633  1.00  0.00    -0.248 NA
ATOM     64  C   UNL A   1      44.020  28.042  34.791  1.00  0.00     0.031 C 
ATOM     65  C   UNL A   1      45.677  25.553  30.415  1.00  0.00     0.029 A 
ATOM     66  C   UNL A   1      44.824  25.019  31.367  1.00  0.00     0.049 A 
ATOM     67  H   UNL A   1      43.138  23.792  31.092  1.00  0.00     0.167 HD
ATOM     68  C   UNL A   1      44.478  26.251  33.382  1.00  0.00     0.074 A 
ATOM     69  C   UNL A   1      44.542  26.805  34.724  1.00  0.00     0.031 C 
ATOM     70  C   UNL A   1      44.824  25.046  32.827  1.00  0.00     0.034 A 
BRANCH  57  71
ATOM     71  C   UNL A   1      43.235  23.102  27.181  1.00  0.00     0.023 A 
ATOM     72  C   UNL A   1      42.665  21.807  27.172  1.00  0.00     0.031 A 
ATOM     73  C   UNL A   1      44.078  23.373  26.083  1.00  0.00     0.131 A 
ATOM     74  C   UNL A   1      43.003  20.849  26.191  1.00  0.00     0.055 A 
ATOM     75  C   UNL A   1      44.435  22.416  25.121  1.00  0.00     0.041 A 
ATOM     76  F   UNL A   1      44.582  24.583  25.840  1.00  0.00    -0.206 F 
ATOM     77  C   UNL A   1      43.907  21.142  25.178  1.00  0.00     0.022 A 
BRANCH  74  78
ATOM     78  S   UNL A   1      42.261  19.195  26.260  1.00  0.00     0.124 S 
ATOM     79  O   UNL A   1      42.396  18.854  27.672  1.00  0.00    -0.237 OA
ATOM     80  O   UNL A   1      40.906  19.442  25.778  1.00  0.00    -0.237 OA
ATOM     81  O   UNL A   1      43.100  18.409  25.355  1.00  0.00    -0.744 OA
ENDBRANCH  74  78
ENDBRANCH  57  71
BRANCH  58  82
ATOM     82  C   UNL A   1      41.836  30.251  33.550  1.00  0.00     0.023 A 
ATOM     83  C   UNL A   1      41.946  31.653  33.705  1.00  0.00     0.031 A 
ATOM     84  C   UNL A   1      40.556  29.686  33.608  1.00  0.00     0.131 A 
ATOM     85  C   UNL A   1      40.800  32.458  33.706  1.00  0.00     0.055 A 
ATOM     86  C   UNL A   1      39.412  30.491  33.704  1.00  0.00     0.041 A 
ATOM     87  F   UNL A   1      40.382  28.367  33.442  1.00  0.00    -0.206 F 
ATOM     88  C   UNL A   1      39.529  31.884  33.701  1.00  0.00     0.022 A 
BRANCH  85  89
ATOM     89  S   UNL A   1      40.987  34.245  33.411  1.00  0.00     0.124 S 
ATOM     90  O   UNL A   1      40.828  34.337  31.965  1.00  0.00    -0.237 OA
ATOM     91  O   UNL A   1      39.914  34.835  34.207  1.00  0.00    -0.237 OA
ATOM     92  O   UNL A   1      42.325  34.542  33.917  1.00  0.00    -0.744 OA
ENDBRANCH  85  89
ENDBRANCH  58  82
BRANCH  70  93
ATOM     93  C   UNL A   1      45.275  23.812  33.587  1.00  0.00     0.023 A 
ATOM     94  C   UNL A   1      46.599  23.583  33.992  1.00  0.00     0.031 A 
ATOM     95  C   UNL A   1      44.338  22.831  34.000  1.00  0.00     0.131 A 
ATOM     96  C   UNL A   1      46.963  22.408  34.681  1.00  0.00     0.055 A 
ATOM     97  C   UNL A   1      44.688  21.703  34.751  1.00  0.00     0.041 A 
ATOM     98  F   UNL A   1      43.035  22.927  33.700  1.00  0.00    -0.206 F 
ATOM     99  C   UNL A   1      46.013  21.476  35.083  1.00  0.00     0.022 A 
BRANCH  96 100
ATOM    100  S   UNL A   1      48.724  22.100  34.987  1.00  0.00     0.124 S 
ATOM    101  O   UNL A   1      48.716  21.674  36.384  1.00  0.00    -0.237 OA
ATOM    102  O   UNL A   1      49.036  21.061  34.011  1.00  0.00    -0.237 OA
ATOM    103  O   UNL A   1      49.351  23.396  34.737  1.00  0.00    -0.744 OA
ENDBRANCH  96 100
ENDBRANCH  70  93
ENDBRANCH  44  45
ENDBRANCH  36  39
ENDBRANCH  34  35
ENDBRANCH   1  34
TORSDOF 16
ENDMDL
