MODEL 1
REMARK VINA RESULT:     -12.6      0.000      0.000
REMARK SMILES COc1c(C(=O)NCCCCNC(=O)c2ccc(-c3c4nc(c(-c5cc(S(=O)(=O)[O-])ccc5F)c5ccc([nH]5)c(-c5cc(S(=O)(=O)[O-])ccc5F)c5nc(c(-c6cc(S(=O)(=O)[O-])ccc6F)c6ccc3[nH]6)C=C5)C=C4)cc2)cccc1-c1cc(C)ccc1C
REMARK SMILES IDX 10 1 9 2 8 3 7 4 5 5 6 6 4 8 3 9 81 10 78 11 80 12 79 13
REMARK SMILES IDX 2 14 1 15 82 16 83 17 88 18 84 19 87 20 89 21 85 22 86 23
REMARK SMILES IDX 11 24 12 25 13 26 14 28 15 29 16 30 77 31 17 32 76 33 18 34
REMARK SMILES IDX 19 35 20 36 70 37 21 38 75 39 69 40 71 41 22 42 74 43 68 44
REMARK SMILES IDX 67 45 23 47 55 48 35 49 54 50 36 51 39 52 53 53 72 54 37 55
REMARK SMILES IDX 38 56 52 58 73 59 40 60 24 61 25 62 33 63 26 64 32 65 34 66
REMARK SMILES IDX 31 67 27 68 28 69 29 70 30 71 56 72 57 73 65 74 58 75 64 76
REMARK SMILES IDX 66 77 63 78 59 79 60 80 61 81 62 82 41 83 42 84 50 85 43 86
REMARK SMILES IDX 49 87 51 88 48 89 44 90 45 91 46 92 47 93
REMARK H PARENT 7 7 12 27 71 46 39 57
REMARK Flexibility Score: inf
ROOT
ATOM      1  C   UNL A   1      36.103  21.006  25.381  1.00  0.00     0.023 C 
ENDROOT
BRANCH   1   2
ATOM      2  C   UNL A   1      35.401  21.990  26.309  1.00  0.00     0.023 C 
BRANCH   2   3
ATOM      3  C   UNL A   1      34.303  21.428  27.194  1.00  0.00     0.116 C 
BRANCH   3   4
ATOM      4  N   UNL A   1      33.251  20.672  26.579  1.00  0.00    -0.352 N 
ATOM      5  C   UNL A   1      32.589  20.960  25.405  1.00  0.00     0.255 C 
ATOM      6  O   UNL A   1      31.809  20.106  24.972  1.00  0.00    -0.269 OA
ATOM      7  H   UNL A   1      32.971  19.853  27.049  1.00  0.00     0.163 HD
BRANCH   5   8
ATOM      8  C   UNL A   1      32.662  22.281  24.691  1.00  0.00     0.082 A 
ATOM      9  C   UNL A   1      32.337  23.566  25.188  1.00  0.00     0.139 A 
ATOM     10  C   UNL A   1      32.554  24.721  24.378  1.00  0.00     0.025 A 
ATOM     11  C   UNL A   1      33.176  22.175  23.380  1.00  0.00     0.018 A 
ATOM     12  C   UNL A   1      33.064  24.554  23.076  1.00  0.00     0.012 A 
ATOM     13  C   UNL A   1      33.371  23.294  22.578  1.00  0.00     0.002 A 
BRANCH   9  14
ATOM     14  O   UNL A   1      31.929  23.697  26.498  1.00  0.00    -0.495 OA
ATOM     15  C   UNL A   1      30.542  23.400  26.735  1.00  0.00     0.278 C 
ENDBRANCH   9  14
BRANCH  10  16
ATOM     16  C   UNL A   1      32.235  26.097  24.824  1.00  0.00    -0.011 A 
ATOM     17  C   UNL A   1      33.245  26.818  25.499  1.00  0.00     0.012 A 
ATOM     18  C   UNL A   1      31.026  26.758  24.512  1.00  0.00    -0.043 A 
ATOM     19  C   UNL A   1      33.112  28.181  25.788  1.00  0.00    -0.050 A 
ATOM     20  C   UNL A   1      30.905  28.130  24.796  1.00  0.00     0.004 A 
ATOM     21  C   UNL A   1      29.903  26.094  23.758  1.00  0.00     0.045 C 
ATOM     22  C   UNL A   1      34.244  28.918  26.439  1.00  0.00     0.044 C 
ATOM     23  C   UNL A   1      31.939  28.835  25.416  1.00  0.00     0.004 A 
ENDBRANCH  10  16
ENDBRANCH   5   8
ENDBRANCH   3   4
ENDBRANCH   2   3
ENDBRANCH   1   2
BRANCH   1  24
ATOM     24  C   UNL A   1      37.534  21.339  24.970  1.00  0.00     0.116 C 
BRANCH  24  25
ATOM     25  N   UNL A   1      38.532  20.363  25.386  1.00  0.00    -0.352 N 
ATOM     26  C   UNL A   1      39.672  20.502  26.154  1.00  0.00     0.251 C 
ATOM     27  H   UNL A   1      38.367  19.447  25.065  1.00  0.00     0.163 HD
ATOM     28  O   UNL A   1      40.405  19.539  26.329  1.00  0.00    -0.269 OA
BRANCH  26  29
ATOM     29  C   UNL A   1      40.035  21.826  26.714  1.00  0.00     0.039 A 
ATOM     30  C   UNL A   1      40.987  21.890  27.735  1.00  0.00     0.014 A 
ATOM     31  C   UNL A   1      39.481  23.000  26.209  1.00  0.00     0.014 A 
ATOM     32  C   UNL A   1      41.477  23.132  28.149  1.00  0.00     0.010 A 
ATOM     33  C   UNL A   1      40.047  24.227  26.540  1.00  0.00     0.010 A 
ATOM     34  C   UNL A   1      41.065  24.309  27.503  1.00  0.00    -0.014 A 
BRANCH  34  35
ATOM     35  C   UNL A   1      41.692  25.628  27.794  1.00  0.00     0.031 A 
ATOM     36  C   UNL A   1      40.918  26.686  28.534  1.00  0.00     0.074 A 
ATOM     37  C   UNL A   1      42.920  25.910  27.308  1.00  0.00     0.049 A 
ATOM     38  N   UNL A   1      41.231  27.934  28.766  1.00  0.00    -0.248 NA
ATOM     39  C   UNL A   1      39.594  26.295  29.043  1.00  0.00     0.031 C 
ATOM     40  C   UNL A   1      43.752  24.994  26.522  1.00  0.00     0.029 A 
ATOM     41  N   UNL A   1      43.678  27.053  27.388  1.00  0.00    -0.354 N 
ATOM     42  C   UNL A   1      40.135  28.485  29.422  1.00  0.00     0.074 A 
ATOM     43  C   UNL A   1      39.124  27.450  29.488  1.00  0.00     0.031 C 
ATOM     44  C   UNL A   1      44.910  25.599  26.218  1.00  0.00     0.029 A 
ATOM     45  C   UNL A   1      44.889  26.962  26.739  1.00  0.00     0.049 A 
ATOM     46  H   UNL A   1      43.383  27.861  27.865  1.00  0.00     0.167 HD
ATOM     47  C   UNL A   1      39.992  29.729  29.947  1.00  0.00     0.034 A 
ATOM     48  C   UNL A   1      45.866  27.876  26.568  1.00  0.00     0.034 A 
ATOM     49  C   UNL A   1      41.018  30.741  29.899  1.00  0.00     0.049 A 
ATOM     50  C   UNL A   1      45.690  29.249  27.166  1.00  0.00     0.074 A 
ATOM     51  C   UNL A   1      41.005  32.011  30.450  1.00  0.00     0.029 A 
ATOM     52  N   UNL A   1      42.244  30.600  29.260  1.00  0.00    -0.354 N 
ATOM     53  N   UNL A   1      44.666  29.738  27.827  1.00  0.00    -0.248 NA
ATOM     54  C   UNL A   1      46.807  30.189  27.006  1.00  0.00     0.031 C 
ATOM     55  C   UNL A   1      42.195  32.655  30.097  1.00  0.00     0.029 A 
ATOM     56  C   UNL A   1      42.984  31.766  29.386  1.00  0.00     0.049 A 
ATOM     57  H   UNL A   1      42.544  29.790  28.788  1.00  0.00     0.167 HD
ATOM     58  C   UNL A   1      45.029  31.033  28.184  1.00  0.00     0.074 A 
ATOM     59  C   UNL A   1      46.370  31.243  27.680  1.00  0.00     0.031 C 
ATOM     60  C   UNL A   1      44.318  31.964  28.870  1.00  0.00     0.034 A 
BRANCH  47  61
ATOM     61  C   UNL A   1      38.671  30.056  30.603  1.00  0.00     0.023 A 
ATOM     62  C   UNL A   1      37.661  30.756  29.919  1.00  0.00     0.031 A 
ATOM     63  C   UNL A   1      38.429  29.698  31.941  1.00  0.00     0.131 A 
ATOM     64  C   UNL A   1      36.499  31.151  30.595  1.00  0.00     0.055 A 
ATOM     65  C   UNL A   1      37.230  30.017  32.584  1.00  0.00     0.041 A 
ATOM     66  F   UNL A   1      39.360  29.043  32.653  1.00  0.00    -0.206 F 
ATOM     67  C   UNL A   1      36.264  30.764  31.916  1.00  0.00     0.022 A 
BRANCH  64  68
ATOM     68  S   UNL A   1      35.370  32.307  29.770  1.00  0.00     0.124 S 
ATOM     69  O   UNL A   1      34.427  32.613  30.843  1.00  0.00    -0.237 OA
ATOM     70  O   UNL A   1      36.262  33.391  29.375  1.00  0.00    -0.237 OA
ATOM     71  O   UNL A   1      34.817  31.520  28.670  1.00  0.00    -0.744 OA
ENDBRANCH  64  68
ENDBRANCH  47  61
BRANCH  48  72
ATOM     72  C   UNL A   1      47.095  27.534  25.795  1.00  0.00     0.023 A 
ATOM     73  C   UNL A   1      47.198  27.839  24.428  1.00  0.00     0.031 A 
ATOM     74  C   UNL A   1      48.170  26.861  26.403  1.00  0.00     0.131 A 
ATOM     75  C   UNL A   1      48.328  27.431  23.703  1.00  0.00     0.055 A 
ATOM     76  C   UNL A   1      49.315  26.503  25.689  1.00  0.00     0.041 A 
ATOM     77  F   UNL A   1      48.126  26.554  27.709  1.00  0.00    -0.206 F 
ATOM     78  C   UNL A   1      49.393  26.777  24.327  1.00  0.00     0.022 A 
BRANCH  75  79
ATOM     79  S   UNL A   1      48.354  27.700  21.909  1.00  0.00     0.124 S 
ATOM     80  O   UNL A   1      49.474  28.622  21.762  1.00  0.00    -0.237 OA
ATOM     81  O   UNL A   1      48.565  26.347  21.404  1.00  0.00    -0.237 OA
ATOM     82  O   UNL A   1      47.037  28.267  21.630  1.00  0.00    -0.744 OA
ENDBRANCH  75  79
ENDBRANCH  48  72
BRANCH  60  83
ATOM     83  C   UNL A   1      45.005  33.276  29.155  1.00  0.00     0.023 A 
ATOM     84  C   UNL A   1      44.904  34.372  28.280  1.00  0.00     0.031 A 
ATOM     85  C   UNL A   1      45.780  33.428  30.320  1.00  0.00     0.131 A 
ATOM     86  C   UNL A   1      45.608  35.553  28.555  1.00  0.00     0.055 A 
ATOM     87  C   UNL A   1      46.432  34.625  30.617  1.00  0.00     0.041 A 
ATOM     88  F   UNL A   1      45.912  32.413  31.188  1.00  0.00    -0.206 F 
ATOM     89  C   UNL A   1      46.358  35.692  29.727  1.00  0.00     0.022 A 
BRANCH  86  90
ATOM     90  S   UNL A   1      45.603  36.880  27.319  1.00  0.00     0.124 S 
ATOM     91  O   UNL A   1      46.303  36.254  26.200  1.00  0.00    -0.237 OA
ATOM     92  O   UNL A   1      44.177  37.119  27.123  1.00  0.00    -0.237 OA
ATOM     93  O   UNL A   1      46.330  37.964  27.976  1.00  0.00    -0.744 OA
ENDBRANCH  86  90
ENDBRANCH  60  83
ENDBRANCH  34  35
ENDBRANCH  26  29
ENDBRANCH  24  25
ENDBRANCH   1  24
TORSDOF 16
ENDMDL
MODEL 2
REMARK VINA RESULT:     -12.3      1.167      7.642
REMARK SMILES COc1c(C(=O)NCCCCNC(=O)c2ccc(-c3c4nc(c(-c5cc(S(=O)(=O)[O-])ccc5F)c5ccc([nH]5)c(-c5cc(S(=O)(=O)[O-])ccc5F)c5nc(c(-c6cc(S(=O)(=O)[O-])ccc6F)c6ccc3[nH]6)C=C5)C=C4)cc2)cccc1-c1cc(C)ccc1C
REMARK SMILES IDX 10 1 9 2 8 3 7 4 5 5 6 6 4 8 3 9 81 10 78 11 80 12 79 13
REMARK SMILES IDX 2 14 1 15 82 16 83 17 88 18 84 19 87 20 89 21 85 22 86 23
REMARK SMILES IDX 11 24 12 25 13 26 14 28 15 29 16 30 77 31 17 32 76 33 18 34
REMARK SMILES IDX 19 35 20 36 70 37 21 38 75 39 69 40 71 41 22 42 74 43 68 44
REMARK SMILES IDX 67 45 23 47 55 48 35 49 54 50 36 51 39 52 53 53 72 54 37 55
REMARK SMILES IDX 38 56 52 58 73 59 40 60 24 61 25 62 33 63 26 64 32 65 34 66
REMARK SMILES IDX 31 67 27 68 28 69 29 70 30 71 56 72 57 73 65 74 58 75 64 76
REMARK SMILES IDX 66 77 63 78 59 79 60 80 61 81 62 82 41 83 42 84 50 85 43 86
REMARK SMILES IDX 49 87 51 88 48 89 44 90 45 91 46 92 47 93
REMARK H PARENT 7 7 12 27 71 46 39 57
REMARK Flexibility Score: inf
ROOT
ATOM      1  C   UNL A   1      35.513  21.301  24.848  1.00  0.00     0.023 C 
ENDROOT
BRANCH   1   2
ATOM      2  C   UNL A   1      34.289  22.206  24.906  1.00  0.00     0.023 C 
BRANCH   2   3
ATOM      3  C   UNL A   1      33.679  22.614  23.577  1.00  0.00     0.116 C 
BRANCH   3   4
ATOM      4  N   UNL A   1      32.260  22.808  23.507  1.00  0.00    -0.352 N 
ATOM      5  C   UNL A   1      31.587  23.990  23.284  1.00  0.00     0.255 C 
ATOM      6  O   UNL A   1      30.365  23.922  23.120  1.00  0.00    -0.269 OA
ATOM      7  H   UNL A   1      31.704  22.006  23.632  1.00  0.00     0.163 HD
BRANCH   5   8
ATOM      8  C   UNL A   1      32.218  25.353  23.348  1.00  0.00     0.082 A 
ATOM      9  C   UNL A   1      32.210  26.273  24.424  1.00  0.00     0.139 A 
ATOM     10  C   UNL A   1      32.944  27.494  24.326  1.00  0.00     0.025 A 
ATOM     11  C   UNL A   1      32.942  25.684  22.182  1.00  0.00     0.018 A 
ATOM     12  C   UNL A   1      33.644  27.774  23.135  1.00  0.00     0.012 A 
ATOM     13  C   UNL A   1      33.643  26.880  22.071  1.00  0.00     0.002 A 
BRANCH   9  14
ATOM     14  O   UNL A   1      31.593  25.922  25.605  1.00  0.00    -0.495 OA
ATOM     15  C   UNL A   1      32.371  25.076  26.469  1.00  0.00     0.278 C 
ENDBRANCH   9  14
BRANCH  10  16
ATOM     16  C   UNL A   1      32.981  28.508  25.404  1.00  0.00    -0.011 A 
ATOM     17  C   UNL A   1      34.093  28.499  26.275  1.00  0.00     0.012 A 
ATOM     18  C   UNL A   1      32.030  29.545  25.533  1.00  0.00    -0.043 A 
ATOM     19  C   UNL A   1      34.317  29.526  27.199  1.00  0.00    -0.050 A 
ATOM     20  C   UNL A   1      32.268  30.579  26.455  1.00  0.00     0.004 A 
ATOM     21  C   UNL A   1      30.832  29.671  24.628  1.00  0.00     0.045 C 
ATOM     22  C   UNL A   1      35.552  29.507  28.049  1.00  0.00     0.044 C 
ATOM     23  C   UNL A   1      33.403  30.576  27.270  1.00  0.00     0.004 A 
ENDBRANCH  10  16
ENDBRANCH   5   8
ENDBRANCH   3   4
ENDBRANCH   2   3
ENDBRANCH   1   2
BRANCH   1  24
ATOM     24  C   UNL A   1      36.862  21.935  25.176  1.00  0.00     0.116 C 
BRANCH  24  25
ATOM     25  N   UNL A   1      37.939  20.985  25.422  1.00  0.00    -0.352 N 
ATOM     26  C   UNL A   1      39.168  21.145  26.032  1.00  0.00     0.251 C 
ATOM     27  H   UNL A   1      37.761  20.072  25.098  1.00  0.00     0.163 HD
ATOM     28  O   UNL A   1      39.949  20.206  26.076  1.00  0.00    -0.269 OA
BRANCH  26  29
ATOM     29  C   UNL A   1      39.560  22.467  26.578  1.00  0.00     0.039 A 
ATOM     30  C   UNL A   1      40.653  22.542  27.447  1.00  0.00     0.014 A 
ATOM     31  C   UNL A   1      38.892  23.631  26.204  1.00  0.00     0.014 A 
ATOM     32  C   UNL A   1      41.151  23.791  27.827  1.00  0.00     0.010 A 
ATOM     33  C   UNL A   1      39.455  24.870  26.489  1.00  0.00     0.010 A 
ATOM     34  C   UNL A   1      40.603  24.968  27.292  1.00  0.00    -0.014 A 
BRANCH  34  35
ATOM     35  C   UNL A   1      41.216  26.303  27.533  1.00  0.00     0.031 A 
ATOM     36  C   UNL A   1      42.603  26.600  27.028  1.00  0.00     0.074 A 
ATOM     37  C   UNL A   1      40.566  27.213  28.289  1.00  0.00     0.049 A 
ATOM     38  N   UNL A   1      43.361  27.643  27.249  1.00  0.00    -0.248 NA
ATOM     39  C   UNL A   1      43.237  25.562  26.201  1.00  0.00     0.031 C 
ATOM     40  C   UNL A   1      39.242  27.027  28.890  1.00  0.00     0.029 A 
ATOM     41  N   UNL A   1      40.936  28.472  28.698  1.00  0.00    -0.354 N 
ATOM     42  C   UNL A   1      44.568  27.377  26.611  1.00  0.00     0.074 A 
ATOM     43  C   UNL A   1      44.462  26.044  26.055  1.00  0.00     0.031 C 
ATOM     44  C   UNL A   1      38.902  28.137  29.564  1.00  0.00     0.029 A 
ATOM     45  C   UNL A   1      39.999  29.096  29.490  1.00  0.00     0.049 A 
ATOM     46  H   UNL A   1      41.792  28.888  28.447  1.00  0.00     0.167 HD
ATOM     47  C   UNL A   1      45.656  28.177  26.475  1.00  0.00     0.034 A 
ATOM     48  C   UNL A   1      40.024  30.298  30.101  1.00  0.00     0.034 A 
ATOM     49  C   UNL A   1      45.737  29.514  27.010  1.00  0.00     0.049 A 
ATOM     50  C   UNL A   1      41.239  31.175  29.931  1.00  0.00     0.074 A 
ATOM     51  C   UNL A   1      46.763  30.435  26.881  1.00  0.00     0.029 A 
ATOM     52  N   UNL A   1      44.754  30.124  27.781  1.00  0.00    -0.354 N 
ATOM     53  N   UNL A   1      42.353  30.926  29.283  1.00  0.00    -0.248 NA
ATOM     54  C   UNL A   1      41.194  32.499  30.565  1.00  0.00     0.031 C 
ATOM     55  C   UNL A   1      46.425  31.575  27.618  1.00  0.00     0.029 A 
ATOM     56  C   UNL A   1      45.159  31.397  28.149  1.00  0.00     0.049 A 
ATOM     57  H   UNL A   1      43.894  29.712  28.027  1.00  0.00     0.167 HD
ATOM     58  C   UNL A   1      43.129  32.075  29.408  1.00  0.00     0.074 A 
ATOM     59  C   UNL A   1      42.350  33.021  30.180  1.00  0.00     0.031 C 
ATOM     60  C   UNL A   1      44.373  32.327  28.926  1.00  0.00     0.034 A 
BRANCH  47  61
ATOM     61  C   UNL A   1      46.842  27.614  25.730  1.00  0.00     0.023 A 
ATOM     62  C   UNL A   1      47.144  28.012  24.415  1.00  0.00     0.031 A 
ATOM     63  C   UNL A   1      47.662  26.638  26.323  1.00  0.00     0.131 A 
ATOM     64  C   UNL A   1      48.177  27.379  23.709  1.00  0.00     0.055 A 
ATOM     65  C   UNL A   1      48.746  26.074  25.645  1.00  0.00     0.041 A 
ATOM     66  F   UNL A   1      47.415  26.203  27.569  1.00  0.00    -0.206 F 
ATOM     67  C   UNL A   1      48.996  26.431  24.323  1.00  0.00     0.022 A 
BRANCH  64  68
ATOM     68  S   UNL A   1      48.332  27.704  21.931  1.00  0.00     0.124 S 
ATOM     69  O   UNL A   1      49.423  28.676  21.904  1.00  0.00    -0.237 OA
ATOM     70  O   UNL A   1      48.641  26.383  21.395  1.00  0.00    -0.237 OA
ATOM     71  O   UNL A   1      47.022  28.237  21.564  1.00  0.00    -0.744 OA
ENDBRANCH  64  68
ENDBRANCH  47  61
BRANCH  48  72
ATOM     72  C   UNL A   1      38.872  30.747  30.935  1.00  0.00     0.023 A 
ATOM     73  C   UNL A   1      37.865  31.565  30.398  1.00  0.00     0.031 A 
ATOM     74  C   UNL A   1      38.783  30.399  32.295  1.00  0.00     0.131 A 
ATOM     75  C   UNL A   1      36.837  32.045  31.224  1.00  0.00     0.055 A 
ATOM     76  C   UNL A   1      37.730  30.837  33.101  1.00  0.00     0.041 A 
ATOM     77  F   UNL A   1      39.714  29.613  32.857  1.00  0.00    -0.206 F 
ATOM     78  C   UNL A   1      36.756  31.676  32.569  1.00  0.00     0.022 A 
BRANCH  75  79
ATOM     79  S   UNL A   1      35.646  33.226  30.534  1.00  0.00     0.124 S 
ATOM     80  O   UNL A   1      36.321  33.649  29.312  1.00  0.00    -0.237 OA
ATOM     81  O   UNL A   1      34.461  32.393  30.358  1.00  0.00    -0.237 OA
ATOM     82  O   UNL A   1      35.537  34.247  31.573  1.00  0.00    -0.744 OA
ENDBRANCH  75  79
ENDBRANCH  48  72
BRANCH  60  83
ATOM     83  C   UNL A   1      44.941  33.701  29.183  1.00  0.00     0.023 A 
ATOM     84  C   UNL A   1      44.590  34.808  28.391  1.00  0.00     0.031 A 
ATOM     85  C   UNL A   1      45.855  33.900  30.233  1.00  0.00     0.131 A 
ATOM     86  C   UNL A   1      45.188  36.054  28.628  1.00  0.00     0.055 A 
ATOM     87  C   UNL A   1      46.404  35.155  30.501  1.00  0.00     0.041 A 
ATOM     88  F   UNL A   1      46.227  32.877  31.018  1.00  0.00    -0.206 F 
ATOM     89  C   UNL A   1      46.081  36.238  29.689  1.00  0.00     0.022 A 
BRANCH  86  90
ATOM     90  S   UNL A   1      44.853  37.416  27.479  1.00  0.00     0.124 S 
ATOM     91  O   UNL A   1      46.067  37.434  26.667  1.00  0.00    -0.237 OA
ATOM     92  O   UNL A   1      43.642  36.963  26.803  1.00  0.00    -0.237 OA
ATOM     93  O   UNL A   1      44.678  38.571  28.356  1.00  0.00    -0.744 OA
ENDBRANCH  86  90
ENDBRANCH  60  83
ENDBRANCH  34  35
ENDBRANCH  26  29
ENDBRANCH  24  25
ENDBRANCH   1  24
TORSDOF 16
ENDMDL
MODEL 3
REMARK VINA RESULT:     -12.2      5.188      7.871
REMARK SMILES COc1c(C(=O)NCCCCNC(=O)c2ccc(-c3c4nc(c(-c5cc(S(=O)(=O)[O-])ccc5F)c5ccc([nH]5)c(-c5cc(S(=O)(=O)[O-])ccc5F)c5nc(c(-c6cc(S(=O)(=O)[O-])ccc6F)c6ccc3[nH]6)C=C5)C=C4)cc2)cccc1-c1cc(C)ccc1C
REMARK SMILES IDX 10 1 9 2 8 3 7 4 5 5 6 6 4 8 3 9 81 10 78 11 80 12 79 13
REMARK SMILES IDX 2 14 1 15 82 16 83 17 88 18 84 19 87 20 89 21 85 22 86 23
REMARK SMILES IDX 11 24 12 25 13 26 14 28 15 29 16 30 77 31 17 32 76 33 18 34
REMARK SMILES IDX 19 35 20 36 70 37 21 38 75 39 69 40 71 41 22 42 74 43 68 44
REMARK SMILES IDX 67 45 23 47 55 48 35 49 54 50 36 51 39 52 53 53 72 54 37 55
REMARK SMILES IDX 38 56 52 58 73 59 40 60 24 61 25 62 33 63 26 64 32 65 34 66
REMARK SMILES IDX 31 67 27 68 28 69 29 70 30 71 56 72 57 73 65 74 58 75 64 76
REMARK SMILES IDX 66 77 63 78 59 79 60 80 61 81 62 82 41 83 42 84 50 85 43 86
REMARK SMILES IDX 49 87 51 88 48 89 44 90 45 91 46 92 47 93
REMARK H PARENT 7 7 12 27 71 46 39 57
REMARK Flexibility Score: inf
ROOT
ATOM      1  C   UNL A   1      31.782  28.723  26.495  1.00  0.00     0.023 C 
ENDROOT
BRANCH   1   2
ATOM      2  C   UNL A   1      31.610  27.455  25.668  1.00  0.00     0.023 C 
BRANCH   2   3
ATOM      3  C   UNL A   1      32.007  26.148  26.331  1.00  0.00     0.116 C 
BRANCH   3   4
ATOM      4  N   UNL A   1      30.969  25.296  26.835  1.00  0.00    -0.352 N 
ATOM      5  C   UNL A   1      30.815  23.945  26.613  1.00  0.00     0.255 C 
ATOM      6  O   UNL A   1      29.933  23.364  27.253  1.00  0.00    -0.269 OA
ATOM      7  H   UNL A   1      30.291  25.725  27.405  1.00  0.00     0.163 HD
BRANCH   5   8
ATOM      8  C   UNL A   1      31.560  23.165  25.565  1.00  0.00     0.082 A 
ATOM      9  C   UNL A   1      32.502  22.125  25.751  1.00  0.00     0.139 A 
ATOM     10  C   UNL A   1      33.044  21.442  24.621  1.00  0.00     0.025 A 
ATOM     11  C   UNL A   1      31.195  23.518  24.248  1.00  0.00     0.018 A 
ATOM     12  C   UNL A   1      32.649  21.841  23.329  1.00  0.00     0.012 A 
ATOM     13  C   UNL A   1      31.734  22.870  23.141  1.00  0.00     0.002 A 
BRANCH   9  14
ATOM     14  O   UNL A   1      32.793  21.702  27.030  1.00  0.00    -0.495 OA
ATOM     15  C   UNL A   1      33.688  22.555  27.763  1.00  0.00     0.278 C 
ENDBRANCH   9  14
BRANCH  10  16
ATOM     16  C   UNL A   1      34.037  20.350  24.732  1.00  0.00    -0.011 A 
ATOM     17  C   UNL A   1      33.586  19.028  24.515  1.00  0.00     0.012 A 
ATOM     18  C   UNL A   1      35.419  20.568  24.928  1.00  0.00    -0.043 A 
ATOM     19  C   UNL A   1      34.474  17.952  24.408  1.00  0.00    -0.050 A 
ATOM     20  C   UNL A   1      36.306  19.483  24.807  1.00  0.00     0.004 A 
ATOM     21  C   UNL A   1      36.009  21.940  25.125  1.00  0.00     0.045 C 
ATOM     22  C   UNL A   1      33.949  16.581  24.103  1.00  0.00     0.044 C 
ATOM     23  C   UNL A   1      35.841  18.194  24.540  1.00  0.00     0.004 A 
ENDBRANCH  10  16
ENDBRANCH   5   8
ENDBRANCH   3   4
ENDBRANCH   2   3
ENDBRANCH   1   2
BRANCH   1  24
ATOM     24  C   UNL A   1      32.962  29.626  26.146  1.00  0.00     0.116 C 
BRANCH  24  25
ATOM     25  N   UNL A   1      32.826  31.007  26.592  1.00  0.00    -0.352 N 
ATOM     26  C   UNL A   1      33.652  31.794  27.371  1.00  0.00     0.251 C 
ATOM     27  H   UNL A   1      32.005  31.456  26.286  1.00  0.00     0.163 HD
ATOM     28  O   UNL A   1      33.301  32.926  27.672  1.00  0.00    -0.269 OA
BRANCH  26  29
ATOM     29  C   UNL A   1      34.929  31.246  27.888  1.00  0.00     0.039 A 
ATOM     30  C   UNL A   1      36.009  32.114  28.078  1.00  0.00     0.014 A 
ATOM     31  C   UNL A   1      35.053  29.901  28.231  1.00  0.00     0.014 A 
ATOM     32  C   UNL A   1      37.156  31.658  28.733  1.00  0.00     0.010 A 
ATOM     33  C   UNL A   1      36.146  29.479  28.980  1.00  0.00     0.010 A 
ATOM     34  C   UNL A   1      37.207  30.356  29.256  1.00  0.00    -0.014 A 
BRANCH  34  35
ATOM     35  C   UNL A   1      38.336  29.893  30.110  1.00  0.00     0.031 A 
ATOM     36  C   UNL A   1      38.503  30.438  31.503  1.00  0.00     0.074 A 
ATOM     37  C   UNL A   1      39.266  29.059  29.597  1.00  0.00     0.049 A 
ATOM     38  N   UNL A   1      39.486  30.268  32.349  1.00  0.00    -0.248 NA
ATOM     39  C   UNL A   1      37.439  31.330  31.991  1.00  0.00     0.031 C 
ATOM     40  C   UNL A   1      39.254  28.507  28.240  1.00  0.00     0.029 A 
ATOM     41  N   UNL A   1      40.412  28.542  30.151  1.00  0.00    -0.354 N 
ATOM     42  C   UNL A   1      39.174  31.049  33.457  1.00  0.00     0.074 A 
ATOM     43  C   UNL A   1      37.944  31.746  33.142  1.00  0.00     0.031 C 
ATOM     44  C   UNL A   1      40.322  27.710  28.078  1.00  0.00     0.029 A 
ATOM     45  C   UNL A   1      41.125  27.731  29.296  1.00  0.00     0.049 A 
ATOM     46  H   UNL A   1      40.697  28.733  31.073  1.00  0.00     0.167 HD
ATOM     47  C   UNL A   1      39.834  31.157  34.637  1.00  0.00     0.034 A 
ATOM     48  C   UNL A   1      42.298  27.089  29.466  1.00  0.00     0.034 A 
ATOM     49  C   UNL A   1      41.043  30.435  34.947  1.00  0.00     0.049 A 
ATOM     50  C   UNL A   1      43.011  27.216  30.789  1.00  0.00     0.074 A 
ATOM     51  C   UNL A   1      41.761  30.420  36.131  1.00  0.00     0.029 A 
ATOM     52  N   UNL A   1      41.718  29.598  34.066  1.00  0.00    -0.354 N 
ATOM     53  N   UNL A   1      42.676  27.922  31.844  1.00  0.00    -0.248 NA
ATOM     54  C   UNL A   1      44.254  26.449  30.947  1.00  0.00     0.031 C 
ATOM     55  C   UNL A   1      42.895  29.623  35.947  1.00  0.00     0.029 A 
ATOM     56  C   UNL A   1      42.852  29.081  34.673  1.00  0.00     0.049 A 
ATOM     57  H   UNL A   1      41.431  29.400  33.145  1.00  0.00     0.167 HD
ATOM     58  C   UNL A   1      43.653  27.661  32.801  1.00  0.00     0.074 A 
ATOM     59  C   UNL A   1      44.579  26.723  32.203  1.00  0.00     0.031 C 
ATOM     60  C   UNL A   1      43.771  28.151  34.061  1.00  0.00     0.034 A 
BRANCH  47  61
ATOM     61  C   UNL A   1      39.261  32.101  35.667  1.00  0.00     0.023 A 
ATOM     62  C   UNL A   1      39.677  33.443  35.751  1.00  0.00     0.031 A 
ATOM     63  C   UNL A   1      38.314  31.649  36.604  1.00  0.00     0.131 A 
ATOM     64  C   UNL A   1      39.217  34.257  36.795  1.00  0.00     0.055 A 
ATOM     65  C   UNL A   1      37.793  32.491  37.590  1.00  0.00     0.041 A 
ATOM     66  F   UNL A   1      37.891  30.376  36.588  1.00  0.00    -0.206 F 
ATOM     67  C   UNL A   1      38.258  33.798  37.701  1.00  0.00     0.022 A 
BRANCH  64  68
ATOM     68  S   UNL A   1      40.007  35.871  37.043  1.00  0.00     0.124 S 
ATOM     69  O   UNL A   1      39.329  36.347  38.247  1.00  0.00    -0.237 OA
ATOM     70  O   UNL A   1      41.411  35.514  37.200  1.00  0.00    -0.237 OA
ATOM     71  O   UNL A   1      39.680  36.604  35.822  1.00  0.00    -0.744 OA
ENDBRANCH  64  68
ENDBRANCH  47  61
BRANCH  48  72
ATOM     72  C   UNL A   1      42.882  26.274  28.362  1.00  0.00     0.023 A 
ATOM     73  C   UNL A   1      43.963  26.752  27.604  1.00  0.00     0.031 A 
ATOM     74  C   UNL A   1      42.341  25.021  28.022  1.00  0.00     0.131 A 
ATOM     75  C   UNL A   1      44.440  26.005  26.516  1.00  0.00     0.055 A 
ATOM     76  C   UNL A   1      42.853  24.258  26.971  1.00  0.00     0.041 A 
ATOM     77  F   UNL A   1      41.313  24.514  28.720  1.00  0.00    -0.206 F 
ATOM     78  C   UNL A   1      43.900  24.755  26.202  1.00  0.00     0.022 A 
BRANCH  75  79
ATOM     79  S   UNL A   1      45.728  26.727  25.463  1.00  0.00     0.124 S 
ATOM     80  O   UNL A   1      45.029  27.864  24.874  1.00  0.00    -0.237 OA
ATOM     81  O   UNL A   1      46.769  27.046  26.434  1.00  0.00    -0.237 OA
ATOM     82  O   UNL A   1      46.056  25.647  24.535  1.00  0.00    -0.744 OA
ENDBRANCH  75  79
ENDBRANCH  48  72
BRANCH  60  83
ATOM     83  C   UNL A   1      44.922  27.637  34.890  1.00  0.00     0.023 A 
ATOM     84  C   UNL A   1      44.807  26.482  35.683  1.00  0.00     0.031 A 
ATOM     85  C   UNL A   1      46.152  28.320  34.889  1.00  0.00     0.131 A 
ATOM     86  C   UNL A   1      45.884  26.074  36.483  1.00  0.00     0.055 A 
ATOM     87  C   UNL A   1      47.238  27.877  35.643  1.00  0.00     0.041 A 
ATOM     88  F   UNL A   1      46.316  29.430  34.152  1.00  0.00    -0.206 F 
ATOM     89  C   UNL A   1      47.104  26.756  36.456  1.00  0.00     0.022 A 
BRANCH  86  90
ATOM     90  S   UNL A   1      45.643  24.690  37.630  1.00  0.00     0.124 S 
ATOM     91  O   UNL A   1      46.931  24.638  38.318  1.00  0.00    -0.237 OA
ATOM     92  O   UNL A   1      44.511  25.142  38.433  1.00  0.00    -0.237 OA
ATOM     93  O   UNL A   1      45.366  23.557  36.749  1.00  0.00    -0.744 OA
ENDBRANCH  86  90
ENDBRANCH  60  83
ENDBRANCH  34  35
ENDBRANCH  26  29
ENDBRANCH  24  25
ENDBRANCH   1  24
TORSDOF 16
ENDMDL
