MODEL 1
REMARK VINA RESULT:     -11.9      0.000      0.000
REMARK SMILES Nc1ccc(C(=O)NC[C@@H]2CC[C@@H](C(=O)NCCCCNC(=O)c3ccc(-c4c5nc(c(-c6cc(S(=O)(=O)[O-])ccc6F)c6ccc([nH]6)c(-c6cc(S(=O)(=O)[O-])ccc6F)c6nc(c(-c7cc(S(=O)(=O)[O-])ccc7F)c7ccc4[nH]7)C=C6)C=C5)cc3)O2)cc1Cl
REMARK SMILES IDX 18 1 17 2 16 3 14 4 15 5 13 7 10 8 11 9 87 10 12 11 9 12
REMARK SMILES IDX 8 13 6 14 7 15 5 17 2 18 3 19 89 20 4 21 88 22 90 23 1 24
REMARK SMILES IDX 19 27 20 28 21 29 22 30 23 32 24 33 25 34 86 35 26 36 85 37
REMARK SMILES IDX 27 38 28 39 29 40 79 41 30 42 84 43 78 44 80 45 31 46 83 47
REMARK SMILES IDX 77 48 76 49 32 51 64 52 44 53 63 54 45 55 48 56 62 57 81 58
REMARK SMILES IDX 46 59 47 60 61 62 82 63 49 64 33 65 34 66 42 67 35 68 41 69
REMARK SMILES IDX 43 70 40 71 36 72 37 73 38 74 39 75 65 76 66 77 74 78 67 79
REMARK SMILES IDX 73 80 75 81 72 82 68 83 69 84 70 85 71 86 50 87 51 88 59 89
REMARK SMILES IDX 52 90 58 91 60 92 57 93 53 94 54 95 55 96 56 97
REMARK H PARENT 16 6 8 16 1 25 1 26 21 31 80 50 48 61
REMARK Flexibility Score: inf
ROOT
ATOM      1  C   UNL A   1      31.187  28.932  23.907  1.00  0.00     0.023 C 
ENDROOT
BRANCH   1   2
ATOM      2  C   UNL A   1      31.027  27.529  23.331  1.00  0.00     0.116 C 
BRANCH   2   3
ATOM      3  N   UNL A   1      32.002  27.240  22.297  1.00  0.00    -0.354 N 
ATOM      4  C   UNL A   1      32.941  26.248  22.256  1.00  0.00     0.249 C 
ATOM      5  O   UNL A   1      33.654  26.169  21.253  1.00  0.00    -0.272 OA
ATOM      6  H   UNL A   1      31.984  27.841  21.517  1.00  0.00     0.163 HD
BRANCH   4   7
ATOM      7  C   UNL A   1      33.130  25.327  23.477  1.00  0.00     0.207 C 
ATOM      8  C   UNL A   1      35.116  24.433  24.332  1.00  0.00     0.138 C 
ATOM      9  C   UNL A   1      34.395  25.126  25.474  1.00  0.00     0.037 C 
ATOM     10  O   UNL A   1      34.130  24.309  23.296  1.00  0.00    -0.363 OA
ATOM     11  C   UNL A   1      33.533  26.111  24.724  1.00  0.00     0.045 C 
BRANCH   8  12
ATOM     12  C   UNL A   1      35.767  23.071  24.636  1.00  0.00     0.148 C 
BRANCH  12  13
ATOM     13  N   UNL A   1      35.198  22.362  25.770  1.00  0.00    -0.349 N 
ATOM     14  C   UNL A   1      34.303  21.347  25.958  1.00  0.00     0.251 C 
ATOM     15  O   UNL A   1      34.059  21.079  27.139  1.00  0.00    -0.269 OA
ATOM     16  H   UNL A   1      35.548  22.701  26.625  1.00  0.00     0.163 HD
BRANCH  14  17
ATOM     17  C   UNL A   1      33.623  20.549  24.896  1.00  0.00     0.041 A 
ATOM     18  C   UNL A   1      32.503  18.816  22.930  1.00  0.00     0.050 A 
ATOM     19  C   UNL A   1      32.158  20.169  22.988  1.00  0.00     0.028 A 
ATOM     20  C   UNL A   1      33.380  18.326  23.907  1.00  0.00     0.064 A 
ATOM     21  C   UNL A   1      32.713  21.027  23.954  1.00  0.00     0.016 A 
ATOM     22  C   UNL A   1      33.939  19.178  24.862  1.00  0.00     0.036 A 
ATOM     23  Cl  UNL A   1      33.817  16.651  23.943  1.00  0.00    -0.082 Cl
BRANCH  18  24
ATOM     24  N   UNL A   1      31.884  17.985  22.004  1.00  0.00    -0.398 N 
ATOM     25  H   UNL A   1      31.257  17.290  22.308  1.00  0.00     0.156 HD
ATOM     26  H   UNL A   1      32.074  18.091  21.043  1.00  0.00     0.156 HD
ENDBRANCH  18  24
ENDBRANCH  14  17
ENDBRANCH  12  13
ENDBRANCH   8  12
ENDBRANCH   4   7
ENDBRANCH   2   3
ENDBRANCH   1   2
BRANCH   1  27
ATOM     27  C   UNL A   1      31.494  28.995  25.403  1.00  0.00     0.023 C 
BRANCH  27  28
ATOM     28  C   UNL A   1      32.757  29.759  25.785  1.00  0.00     0.116 C 
BRANCH  28  29
ATOM     29  N   UNL A   1      32.482  31.100  26.276  1.00  0.00    -0.352 N 
ATOM     30  C   UNL A   1      33.137  31.833  27.240  1.00  0.00     0.251 C 
ATOM     31  H   UNL A   1      31.713  31.550  25.857  1.00  0.00     0.163 HD
ATOM     32  O   UNL A   1      32.657  32.891  27.623  1.00  0.00    -0.269 OA
BRANCH  30  33
ATOM     33  C   UNL A   1      34.395  31.318  27.833  1.00  0.00     0.039 A 
ATOM     34  C   UNL A   1      35.474  32.192  27.986  1.00  0.00     0.014 A 
ATOM     35  C   UNL A   1      34.507  29.989  28.248  1.00  0.00     0.014 A 
ATOM     36  C   UNL A   1      36.637  31.752  28.625  1.00  0.00     0.010 A 
ATOM     37  C   UNL A   1      35.633  29.576  28.955  1.00  0.00     0.010 A 
ATOM     38  C   UNL A   1      36.710  30.453  29.154  1.00  0.00    -0.014 A 
BRANCH  38  39
ATOM     39  C   UNL A   1      37.901  29.995  29.921  1.00  0.00     0.031 A 
ATOM     40  C   UNL A   1      38.152  30.516  31.310  1.00  0.00     0.074 A 
ATOM     41  C   UNL A   1      38.792  29.166  29.341  1.00  0.00     0.049 A 
ATOM     42  N   UNL A   1      39.172  30.307  32.103  1.00  0.00    -0.248 NA
ATOM     43  C   UNL A   1      37.134  31.419  31.864  1.00  0.00     0.031 C 
ATOM     44  C   UNL A   1      38.686  28.630  27.983  1.00  0.00     0.029 A 
ATOM     45  N   UNL A   1      39.970  28.643  29.813  1.00  0.00    -0.354 N 
ATOM     46  C   UNL A   1      38.924  31.060  33.245  1.00  0.00     0.074 A 
ATOM     47  C   UNL A   1      37.696  31.788  33.004  1.00  0.00     0.031 C 
ATOM     48  C   UNL A   1      39.745  27.840  27.739  1.00  0.00     0.029 A 
ATOM     49  C   UNL A   1      40.628  27.850  28.901  1.00  0.00     0.049 A 
ATOM     50  H   UNL A   1      40.312  28.817  30.720  1.00  0.00     0.167 HD
ATOM     51  C   UNL A   1      39.638  31.120  34.398  1.00  0.00     0.034 A 
ATOM     52  C   UNL A   1      41.816  27.218  28.980  1.00  0.00     0.034 A 
ATOM     53  C   UNL A   1      40.865  30.389  34.618  1.00  0.00     0.049 A 
ATOM     54  C   UNL A   1      42.613  27.320  30.255  1.00  0.00     0.074 A 
ATOM     55  C   UNL A   1      41.646  30.338  35.760  1.00  0.00     0.029 A 
ATOM     56  N   UNL A   1      41.500  29.592  33.672  1.00  0.00    -0.354 N 
ATOM     57  N   UNL A   1      42.340  27.995  31.348  1.00  0.00    -0.248 NA
ATOM     58  C   UNL A   1      43.871  26.565  30.310  1.00  0.00     0.031 C 
ATOM     59  C   UNL A   1      42.785  29.572  35.482  1.00  0.00     0.029 A 
ATOM     60  C   UNL A   1      42.675  29.073  34.193  1.00  0.00     0.049 A 
ATOM     61  H   UNL A   1      41.161  29.420  32.763  1.00  0.00     0.167 HD
ATOM     62  C   UNL A   1      43.382  27.724  32.232  1.00  0.00     0.074 A 
ATOM     63  C   UNL A   1      44.278  26.814  31.548  1.00  0.00     0.031 C 
ATOM     64  C   UNL A   1      43.574  28.181  33.496  1.00  0.00     0.034 A 
BRANCH  51  65
ATOM     65  C   UNL A   1      39.115  32.029  35.487  1.00  0.00     0.023 A 
ATOM     66  C   UNL A   1      39.521  33.372  35.584  1.00  0.00     0.031 A 
ATOM     67  C   UNL A   1      38.244  31.538  36.475  1.00  0.00     0.131 A 
ATOM     68  C   UNL A   1      39.146  34.142  36.694  1.00  0.00     0.055 A 
ATOM     69  C   UNL A   1      37.794  32.340  37.527  1.00  0.00     0.041 A 
ATOM     70  F   UNL A   1      37.832  30.260  36.452  1.00  0.00    -0.206 F 
ATOM     71  C   UNL A   1      38.263  33.644  37.653  1.00  0.00     0.022 A 
BRANCH  68  72
ATOM     72  S   UNL A   1      39.978  35.732  36.962  1.00  0.00     0.124 S 
ATOM     73  O   UNL A   1      39.657  36.444  35.726  1.00  0.00    -0.237 OA
ATOM     74  O   UNL A   1      39.331  36.227  38.171  1.00  0.00    -0.237 OA
ATOM     75  O   UNL A   1      41.384  35.363  37.110  1.00  0.00    -0.744 OA
ENDBRANCH  68  72
ENDBRANCH  51  65
BRANCH  52  76
ATOM     76  C   UNL A   1      42.331  26.448  27.813  1.00  0.00     0.023 A 
ATOM     77  C   UNL A   1      42.229  25.049  27.761  1.00  0.00     0.031 A 
ATOM     78  C   UNL A   1      42.946  27.106  26.731  1.00  0.00     0.131 A 
ATOM     79  C   UNL A   1      42.765  24.349  26.669  1.00  0.00     0.055 A 
ATOM     80  C   UNL A   1      43.433  26.409  25.625  1.00  0.00     0.041 A 
ATOM     81  F   UNL A   1      43.061  28.443  26.727  1.00  0.00    -0.206 F 
ATOM     82  C   UNL A   1      43.353  25.020  25.594  1.00  0.00     0.022 A 
BRANCH  79  83
ATOM     83  S   UNL A   1      42.738  22.536  26.699  1.00  0.00     0.124 S 
ATOM     84  O   UNL A   1      42.052  22.229  25.447  1.00  0.00    -0.237 OA
ATOM     85  O   UNL A   1      44.159  22.211  26.748  1.00  0.00    -0.237 OA
ATOM     86  O   UNL A   1      41.988  22.226  27.914  1.00  0.00    -0.744 OA
ENDBRANCH  79  83
ENDBRANCH  52  76
BRANCH  64  87
ATOM     87  C   UNL A   1      44.788  27.667  34.234  1.00  0.00     0.023 A 
ATOM     88  C   UNL A   1      44.743  26.498  35.013  1.00  0.00     0.031 A 
ATOM     89  C   UNL A   1      46.007  28.364  34.160  1.00  0.00     0.131 A 
ATOM     90  C   UNL A   1      45.880  26.091  35.731  1.00  0.00     0.055 A 
ATOM     91  C   UNL A   1      47.151  27.922  34.826  1.00  0.00     0.041 A 
ATOM     92  F   UNL A   1      46.107  29.490  33.435  1.00  0.00    -0.206 F 
ATOM     93  C   UNL A   1      47.087  26.786  35.627  1.00  0.00     0.022 A 
BRANCH  90  94
ATOM     94  S   UNL A   1      45.733  24.694  36.879  1.00  0.00     0.124 S 
ATOM     95  O   UNL A   1      44.397  24.893  37.429  1.00  0.00    -0.237 OA
ATOM     96  O   UNL A   1      45.895  23.545  35.994  1.00  0.00    -0.237 OA
ATOM     97  O   UNL A   1      46.830  24.908  37.821  1.00  0.00    -0.744 OA
ENDBRANCH  90  94
ENDBRANCH  64  87
ENDBRANCH  38  39
ENDBRANCH  30  33
ENDBRANCH  28  29
ENDBRANCH  27  28
ENDBRANCH   1  27
TORSDOF 18
ENDMDL
MODEL 2
REMARK VINA RESULT:     -11.9      2.305      7.935
REMARK SMILES Nc1ccc(C(=O)NC[C@@H]2CC[C@@H](C(=O)NCCCCNC(=O)c3ccc(-c4c5nc(c(-c6cc(S(=O)(=O)[O-])ccc6F)c6ccc([nH]6)c(-c6cc(S(=O)(=O)[O-])ccc6F)c6nc(c(-c7cc(S(=O)(=O)[O-])ccc7F)c7ccc4[nH]7)C=C6)C=C5)cc3)O2)cc1Cl
REMARK SMILES IDX 18 1 17 2 16 3 14 4 15 5 13 7 10 8 11 9 87 10 12 11 9 12
REMARK SMILES IDX 8 13 6 14 7 15 5 17 2 18 3 19 89 20 4 21 88 22 90 23 1 24
REMARK SMILES IDX 19 27 20 28 21 29 22 30 23 32 24 33 25 34 86 35 26 36 85 37
REMARK SMILES IDX 27 38 28 39 29 40 79 41 30 42 84 43 78 44 80 45 31 46 83 47
REMARK SMILES IDX 77 48 76 49 32 51 64 52 44 53 63 54 45 55 48 56 62 57 81 58
REMARK SMILES IDX 46 59 47 60 61 62 82 63 49 64 33 65 34 66 42 67 35 68 41 69
REMARK SMILES IDX 43 70 40 71 36 72 37 73 38 74 39 75 65 76 66 77 74 78 67 79
REMARK SMILES IDX 73 80 75 81 72 82 68 83 69 84 70 85 71 86 50 87 51 88 59 89
REMARK SMILES IDX 52 90 58 91 60 92 57 93 53 94 54 95 55 96 56 97
REMARK H PARENT 16 6 8 16 1 25 1 26 21 31 80 50 48 61
REMARK Flexibility Score: inf
ROOT
ATOM      1  C   UNL A   1      31.713  30.391  26.793  1.00  0.00     0.023 C 
ENDROOT
BRANCH   1   2
ATOM      2  C   UNL A   1      32.347  29.912  25.492  1.00  0.00     0.116 C 
BRANCH   2   3
ATOM      3  N   UNL A   1      31.401  29.873  24.394  1.00  0.00    -0.354 N 
ATOM      4  C   UNL A   1      30.974  28.798  23.666  1.00  0.00     0.249 C 
ATOM      5  O   UNL A   1      30.132  28.993  22.788  1.00  0.00    -0.272 OA
ATOM      6  H   UNL A   1      31.013  30.741  24.137  1.00  0.00     0.163 HD
BRANCH   4   7
ATOM      7  C   UNL A   1      31.607  27.413  23.910  1.00  0.00     0.207 C 
ATOM      8  C   UNL A   1      31.005  25.354  22.976  1.00  0.00     0.138 C 
ATOM      9  C   UNL A   1      32.493  25.546  22.745  1.00  0.00     0.037 C 
ATOM     10  O   UNL A   1      30.657  26.334  23.965  1.00  0.00    -0.363 OA
ATOM     11  C   UNL A   1      32.612  27.048  22.820  1.00  0.00     0.045 C 
BRANCH   8  12
ATOM     12  C   UNL A   1      30.536  23.952  23.404  1.00  0.00     0.148 C 
BRANCH  12  13
ATOM     13  N   UNL A   1      30.440  23.753  24.842  1.00  0.00    -0.349 N 
ATOM     14  C   UNL A   1      31.076  22.994  25.783  1.00  0.00     0.251 C 
ATOM     15  O   UNL A   1      30.627  23.099  26.929  1.00  0.00    -0.269 OA
ATOM     16  H   UNL A   1      29.733  24.310  25.241  1.00  0.00     0.163 HD
BRANCH  14  17
ATOM     17  C   UNL A   1      32.238  22.085  25.559  1.00  0.00     0.041 A 
ATOM     18  C   UNL A   1      34.623  20.574  25.166  1.00  0.00     0.050 A 
ATOM     19  C   UNL A   1      33.364  20.025  24.909  1.00  0.00     0.028 A 
ATOM     20  C   UNL A   1      34.672  21.879  25.676  1.00  0.00     0.064 A 
ATOM     21  C   UNL A   1      32.186  20.770  25.097  1.00  0.00     0.016 A 
ATOM     22  C   UNL A   1      33.504  22.623  25.856  1.00  0.00     0.036 A 
ATOM     23  Cl  UNL A   1      36.187  22.616  26.075  1.00  0.00    -0.082 Cl
BRANCH  18  24
ATOM     24  N   UNL A   1      35.760  19.787  25.031  1.00  0.00    -0.398 N 
ATOM     25  H   UNL A   1      36.221  19.732  24.163  1.00  0.00     0.156 HD
ATOM     26  H   UNL A   1      36.105  19.284  25.805  1.00  0.00     0.156 HD
ENDBRANCH  18  24
ENDBRANCH  14  17
ENDBRANCH  12  13
ENDBRANCH   8  12
ENDBRANCH   4   7
ENDBRANCH   2   3
ENDBRANCH   1   2
BRANCH   1  27
ATOM     27  C   UNL A   1      31.424  31.890  26.868  1.00  0.00     0.023 C 
BRANCH  27  28
ATOM     28  C   UNL A   1      32.647  32.800  26.806  1.00  0.00     0.116 C 
BRANCH  28  29
ATOM     29  N   UNL A   1      32.472  34.036  27.550  1.00  0.00    -0.352 N 
ATOM     30  C   UNL A   1      33.153  34.500  28.654  1.00  0.00     0.251 C 
ATOM     31  H   UNL A   1      31.762  34.630  27.215  1.00  0.00     0.163 HD
ATOM     32  O   UNL A   1      32.754  35.501  29.231  1.00  0.00    -0.269 OA
BRANCH  30  33
ATOM     33  C   UNL A   1      34.338  33.764  29.155  1.00  0.00     0.039 A 
ATOM     34  C   UNL A   1      35.612  34.258  28.862  1.00  0.00     0.014 A 
ATOM     35  C   UNL A   1      34.197  32.604  29.920  1.00  0.00     0.014 A 
ATOM     36  C   UNL A   1      36.739  33.631  29.401  1.00  0.00     0.010 A 
ATOM     37  C   UNL A   1      35.314  32.029  30.521  1.00  0.00     0.010 A 
ATOM     38  C   UNL A   1      36.598  32.537  30.270  1.00  0.00    -0.014 A 
BRANCH  38  39
ATOM     39  C   UNL A   1      37.778  31.915  30.930  1.00  0.00     0.031 A 
ATOM     40  C   UNL A   1      38.575  30.859  30.213  1.00  0.00     0.074 A 
ATOM     41  C   UNL A   1      38.088  32.247  32.198  1.00  0.00     0.049 A 
ATOM     42  N   UNL A   1      39.578  30.138  30.648  1.00  0.00    -0.248 NA
ATOM     43  C   UNL A   1      38.166  30.552  28.836  1.00  0.00     0.031 C 
ATOM     44  C   UNL A   1      37.363  33.221  33.017  1.00  0.00     0.029 A 
ATOM     45  N   UNL A   1      39.083  31.792  33.028  1.00  0.00    -0.354 N 
ATOM     46  C   UNL A   1      39.913  29.286  29.601  1.00  0.00     0.074 A 
ATOM     47  C   UNL A   1      38.955  29.530  28.544  1.00  0.00     0.031 C 
ATOM     48  C   UNL A   1      37.948  33.303  34.223  1.00  0.00     0.029 A 
ATOM     49  C   UNL A   1      39.057  32.356  34.283  1.00  0.00     0.049 A 
ATOM     50  H   UNL A   1      39.753  31.126  32.751  1.00  0.00     0.167 HD
ATOM     51  C   UNL A   1      40.938  28.401  29.519  1.00  0.00     0.034 A 
ATOM     52  C   UNL A   1      39.826  32.126  35.366  1.00  0.00     0.034 A 
ATOM     53  C   UNL A   1      41.883  28.167  30.587  1.00  0.00     0.049 A 
ATOM     54  C   UNL A   1      40.941  31.117  35.269  1.00  0.00     0.074 A 
ATOM     55  C   UNL A   1      42.986  27.331  30.597  1.00  0.00     0.029 A 
ATOM     56  N   UNL A   1      41.829  28.761  31.843  1.00  0.00    -0.354 N 
ATOM     57  N   UNL A   1      41.280  30.356  34.254  1.00  0.00    -0.248 NA
ATOM     58  C   UNL A   1      41.785  30.948  36.458  1.00  0.00     0.031 C 
ATOM     59  C   UNL A   1      43.553  27.364  31.876  1.00  0.00     0.029 A 
ATOM     60  C   UNL A   1      42.857  28.285  32.643  1.00  0.00     0.049 A 
ATOM     61  H   UNL A   1      41.157  29.425  32.123  1.00  0.00     0.167 HD
ATOM     62  C   UNL A   1      42.393  29.634  34.676  1.00  0.00     0.074 A 
ATOM     63  C   UNL A   1      42.675  30.063  36.031  1.00  0.00     0.031 C 
ATOM     64  C   UNL A   1      43.119  28.705  34.001  1.00  0.00     0.034 A 
BRANCH  51  65
ATOM     65  C   UNL A   1      41.063  27.608  28.237  1.00  0.00     0.023 A 
ATOM     66  C   UNL A   1      40.727  26.244  28.179  1.00  0.00     0.031 A 
ATOM     67  C   UNL A   1      41.578  28.203  27.071  1.00  0.00     0.131 A 
ATOM     68  C   UNL A   1      41.005  25.499  27.023  1.00  0.00     0.055 A 
ATOM     69  C   UNL A   1      41.761  27.478  25.891  1.00  0.00     0.041 A 
ATOM     70  F   UNL A   1      41.936  29.497  27.064  1.00  0.00    -0.206 F 
ATOM     71  C   UNL A   1      41.495  26.112  25.870  1.00  0.00     0.022 A 
BRANCH  68  72
ATOM     72  S   UNL A   1      40.895  23.690  27.116  1.00  0.00     0.124 S 
ATOM     73  O   UNL A   1      41.672  23.287  25.946  1.00  0.00    -0.237 OA
ATOM     74  O   UNL A   1      41.497  23.404  28.413  1.00  0.00    -0.237 OA
ATOM     75  O   UNL A   1      39.460  23.429  27.021  1.00  0.00    -0.744 OA
ENDBRANCH  68  72
ENDBRANCH  51  65
BRANCH  52  76
ATOM     76  C   UNL A   1      39.556  32.852  36.640  1.00  0.00     0.023 A 
ATOM     77  C   UNL A   1      38.634  32.361  37.577  1.00  0.00     0.031 A 
ATOM     78  C   UNL A   1      40.216  34.060  36.933  1.00  0.00     0.131 A 
ATOM     79  C   UNL A   1      38.368  33.092  38.745  1.00  0.00     0.055 A 
ATOM     80  C   UNL A   1      39.984  34.757  38.120  1.00  0.00     0.041 A 
ATOM     81  F   UNL A   1      41.114  34.569  36.075  1.00  0.00    -0.206 F 
ATOM     82  C   UNL A   1      39.048  34.278  39.031  1.00  0.00     0.022 A 
BRANCH  79  83
ATOM     83  S   UNL A   1      37.073  32.498  39.868  1.00  0.00     0.124 S 
ATOM     84  O   UNL A   1      37.025  33.569  40.859  1.00  0.00    -0.237 OA
ATOM     85  O   UNL A   1      35.922  32.397  38.976  1.00  0.00    -0.237 OA
ATOM     86  O   UNL A   1      37.598  31.223  40.351  1.00  0.00    -0.744 OA
ENDBRANCH  79  83
ENDBRANCH  52  76
BRANCH  64  87
ATOM     87  C   UNL A   1      44.318  28.122  34.712  1.00  0.00     0.023 A 
ATOM     88  C   UNL A   1      44.236  26.927  35.448  1.00  0.00     0.031 A 
ATOM     89  C   UNL A   1      45.560  28.779  34.655  1.00  0.00     0.131 A 
ATOM     90  C   UNL A   1      45.362  26.456  36.143  1.00  0.00     0.055 A 
ATOM     91  C   UNL A   1      46.692  28.272  35.296  1.00  0.00     0.041 A 
ATOM     92  F   UNL A   1      45.696  29.926  33.970  1.00  0.00    -0.206 F 
ATOM     93  C   UNL A   1      46.592  27.110  36.056  1.00  0.00     0.022 A 
BRANCH  90  94
ATOM     94  S   UNL A   1      45.173  25.024  37.241  1.00  0.00     0.124 S 
ATOM     95  O   UNL A   1      44.962  25.661  38.536  1.00  0.00    -0.237 OA
ATOM     96  O   UNL A   1      44.016  24.342  36.669  1.00  0.00    -0.237 OA
ATOM     97  O   UNL A   1      46.442  24.313  37.099  1.00  0.00    -0.744 OA
ENDBRANCH  90  94
ENDBRANCH  64  87
ENDBRANCH  38  39
ENDBRANCH  30  33
ENDBRANCH  28  29
ENDBRANCH  27  28
ENDBRANCH   1  27
TORSDOF 18
ENDMDL
MODEL 3
REMARK VINA RESULT:     -11.8      5.146      8.067
REMARK SMILES Nc1ccc(C(=O)NC[C@@H]2CC[C@@H](C(=O)NCCCCNC(=O)c3ccc(-c4c5nc(c(-c6cc(S(=O)(=O)[O-])ccc6F)c6ccc([nH]6)c(-c6cc(S(=O)(=O)[O-])ccc6F)c6nc(c(-c7cc(S(=O)(=O)[O-])ccc7F)c7ccc4[nH]7)C=C6)C=C5)cc3)O2)cc1Cl
REMARK SMILES IDX 18 1 17 2 16 3 14 4 15 5 13 7 10 8 11 9 87 10 12 11 9 12
REMARK SMILES IDX 8 13 6 14 7 15 5 17 2 18 3 19 89 20 4 21 88 22 90 23 1 24
REMARK SMILES IDX 19 27 20 28 21 29 22 30 23 32 24 33 25 34 86 35 26 36 85 37
REMARK SMILES IDX 27 38 28 39 29 40 79 41 30 42 84 43 78 44 80 45 31 46 83 47
REMARK SMILES IDX 77 48 76 49 32 51 64 52 44 53 63 54 45 55 48 56 62 57 81 58
REMARK SMILES IDX 46 59 47 60 61 62 82 63 49 64 33 65 34 66 42 67 35 68 41 69
REMARK SMILES IDX 43 70 40 71 36 72 37 73 38 74 39 75 65 76 66 77 74 78 67 79
REMARK SMILES IDX 73 80 75 81 72 82 68 83 69 84 70 85 71 86 50 87 51 88 59 89
REMARK SMILES IDX 52 90 58 91 60 92 57 93 53 94 54 95 55 96 56 97
REMARK H PARENT 16 6 8 16 1 25 1 26 21 31 80 50 48 61
REMARK Flexibility Score: inf
ROOT
ATOM      1  C   UNL A   1      34.773  20.580  24.647  1.00  0.00     0.023 C 
ENDROOT
BRANCH   1   2
ATOM      2  C   UNL A   1      33.338  20.724  25.146  1.00  0.00     0.116 C 
BRANCH   2   3
ATOM      3  N   UNL A   1      33.272  21.060  26.554  1.00  0.00    -0.354 N 
ATOM      4  C   UNL A   1      32.898  22.237  27.139  1.00  0.00     0.249 C 
ATOM      5  O   UNL A   1      32.886  22.292  28.371  1.00  0.00    -0.272 OA
ATOM      6  H   UNL A   1      33.531  20.341  27.175  1.00  0.00     0.163 HD
BRANCH   4   7
ATOM      7  C   UNL A   1      32.584  23.461  26.256  1.00  0.00     0.207 C 
ATOM      8  C   UNL A   1      30.913  23.695  24.635  1.00  0.00     0.138 C 
ATOM      9  C   UNL A   1      30.788  24.864  25.596  1.00  0.00     0.037 C 
ATOM     10  O   UNL A   1      32.204  23.131  24.908  1.00  0.00    -0.363 OA
ATOM     11  C   UNL A   1      31.446  24.301  26.832  1.00  0.00     0.045 C 
BRANCH   8  12
ATOM     12  C   UNL A   1      30.754  24.000  23.134  1.00  0.00     0.148 C 
BRANCH  12  13
ATOM     13  N   UNL A   1      31.964  24.466  22.474  1.00  0.00    -0.349 N 
ATOM     14  C   UNL A   1      32.662  25.637  22.395  1.00  0.00     0.251 C 
ATOM     15  O   UNL A   1      33.649  25.607  21.654  1.00  0.00    -0.269 OA
ATOM     16  H   UNL A   1      32.390  23.751  21.948  1.00  0.00     0.163 HD
BRANCH  14  17
ATOM     17  C   UNL A   1      32.354  26.909  23.112  1.00  0.00     0.041 A 
ATOM     18  C   UNL A   1      31.955  29.259  24.676  1.00  0.00     0.050 A 
ATOM     19  C   UNL A   1      31.115  28.947  23.604  1.00  0.00     0.028 A 
ATOM     20  C   UNL A   1      33.036  28.402  24.925  1.00  0.00     0.064 A 
ATOM     21  C   UNL A   1      31.307  27.787  22.834  1.00  0.00     0.016 A 
ATOM     22  C   UNL A   1      33.224  27.244  24.166  1.00  0.00     0.036 A 
ATOM     23  Cl  UNL A   1      34.159  28.743  26.198  1.00  0.00    -0.082 Cl
BRANCH  18  24
ATOM     24  N   UNL A   1      31.774  30.447  25.372  1.00  0.00    -0.398 N 
ATOM     25  H   UNL A   1      31.987  31.307  24.943  1.00  0.00     0.156 HD
ATOM     26  H   UNL A   1      31.433  30.430  26.296  1.00  0.00     0.156 HD
ENDBRANCH  18  24
ENDBRANCH  14  17
ENDBRANCH  12  13
ENDBRANCH   8  12
ENDBRANCH   4   7
ENDBRANCH   2   3
ENDBRANCH   1   2
BRANCH   1  27
ATOM     27  C   UNL A   1      35.590  21.871  24.623  1.00  0.00     0.023 C 
BRANCH  27  28
ATOM     28  C   UNL A   1      36.575  22.048  25.774  1.00  0.00     0.116 C 
BRANCH  28  29
ATOM     29  N   UNL A   1      37.588  21.006  25.819  1.00  0.00    -0.352 N 
ATOM     30  C   UNL A   1      38.932  21.101  26.105  1.00  0.00     0.251 C 
ATOM     31  H   UNL A   1      37.265  20.099  25.613  1.00  0.00     0.163 HD
ATOM     32  O   UNL A   1      39.653  20.127  25.941  1.00  0.00    -0.269 OA
BRANCH  30  33
ATOM     33  C   UNL A   1      39.499  22.388  26.572  1.00  0.00     0.039 A 
ATOM     34  C   UNL A   1      40.526  22.367  27.521  1.00  0.00     0.014 A 
ATOM     35  C   UNL A   1      39.035  23.606  26.071  1.00  0.00     0.014 A 
ATOM     36  C   UNL A   1      41.136  23.563  27.907  1.00  0.00     0.010 A 
ATOM     37  C   UNL A   1      39.698  24.787  26.396  1.00  0.00     0.010 A 
ATOM     38  C   UNL A   1      40.758  24.780  27.316  1.00  0.00    -0.014 A 
BRANCH  38  39
ATOM     39  C   UNL A   1      41.459  26.051  27.641  1.00  0.00     0.031 A 
ATOM     40  C   UNL A   1      40.731  27.152  28.365  1.00  0.00     0.074 A 
ATOM     41  C   UNL A   1      42.726  26.243  27.224  1.00  0.00     0.049 A 
ATOM     42  N   UNL A   1      41.138  28.361  28.661  1.00  0.00    -0.248 NA
ATOM     43  C   UNL A   1      39.352  26.862  28.779  1.00  0.00     0.031 C 
ATOM     44  C   UNL A   1      43.522  25.272  26.473  1.00  0.00     0.029 A 
ATOM     45  N   UNL A   1      43.561  27.324  27.358  1.00  0.00    -0.354 N 
ATOM     46  C   UNL A   1      40.061  28.979  29.287  1.00  0.00     0.074 A 
ATOM     47  C   UNL A   1      38.963  28.035  29.255  1.00  0.00     0.031 C 
ATOM     48  C   UNL A   1      44.735  25.794  26.228  1.00  0.00     0.029 A 
ATOM     49  C   UNL A   1      44.789  27.151  26.761  1.00  0.00     0.049 A 
ATOM     50  H   UNL A   1      43.307  28.146  27.837  1.00  0.00     0.167 HD
ATOM     51  C   UNL A   1      39.999  30.209  29.858  1.00  0.00     0.034 A 
ATOM     52  C   UNL A   1      45.834  27.994  26.639  1.00  0.00     0.034 A 
ATOM     53  C   UNL A   1      41.104  31.139  29.877  1.00  0.00     0.049 A 
ATOM     54  C   UNL A   1      45.738  29.368  27.251  1.00  0.00     0.074 A 
ATOM     55  C   UNL A   1      41.170  32.390  30.467  1.00  0.00     0.029 A 
ATOM     56  N   UNL A   1      42.335  30.928  29.266  1.00  0.00    -0.354 N 
ATOM     57  N   UNL A   1      44.731  29.921  27.887  1.00  0.00    -0.248 NA
ATOM     58  C   UNL A   1      46.925  30.225  27.140  1.00  0.00     0.031 C 
ATOM     59  C   UNL A   1      42.408  32.962  30.151  1.00  0.00     0.029 A 
ATOM     60  C   UNL A   1      43.152  32.036  29.437  1.00  0.00     0.049 A 
ATOM     61  H   UNL A   1      42.591  30.109  28.783  1.00  0.00     0.167 HD
ATOM     62  C   UNL A   1      45.174  31.184  28.274  1.00  0.00     0.074 A 
ATOM     63  C   UNL A   1      46.542  31.301  27.813  1.00  0.00     0.031 C 
ATOM     64  C   UNL A   1      44.510  32.153  28.955  1.00  0.00     0.034 A 
BRANCH  51  65
ATOM     65  C   UNL A   1      38.682  30.615  30.481  1.00  0.00     0.023 A 
ATOM     66  C   UNL A   1      37.661  31.211  29.720  1.00  0.00     0.031 A 
ATOM     67  C   UNL A   1      38.462  30.458  31.861  1.00  0.00     0.131 A 
ATOM     68  C   UNL A   1      36.518  31.722  30.354  1.00  0.00     0.055 A 
ATOM     69  C   UNL A   1      37.277  30.880  32.472  1.00  0.00     0.041 A 
ATOM     70  F   UNL A   1      39.403  29.913  32.647  1.00  0.00    -0.206 F 
ATOM     71  C   UNL A   1      36.307  31.537  31.721  1.00  0.00     0.022 A 
BRANCH  68  72
ATOM     72  S   UNL A   1      35.409  32.794  29.399  1.00  0.00     0.124 S 
ATOM     73  O   UNL A   1      36.231  33.989  29.226  1.00  0.00    -0.237 OA
ATOM     74  O   UNL A   1      35.167  32.005  28.196  1.00  0.00    -0.237 OA
ATOM     75  O   UNL A   1      34.254  32.964  30.278  1.00  0.00    -0.744 OA
ENDBRANCH  68  72
ENDBRANCH  51  65
BRANCH  52  76
ATOM     76  C   UNL A   1      47.052  27.569  25.892  1.00  0.00     0.023 A 
ATOM     77  C   UNL A   1      47.208  27.860  24.528  1.00  0.00     0.031 A 
ATOM     78  C   UNL A   1      48.077  26.853  26.536  1.00  0.00     0.131 A 
ATOM     79  C   UNL A   1      48.346  27.406  23.843  1.00  0.00     0.055 A 
ATOM     80  C   UNL A   1      49.230  26.447  25.862  1.00  0.00     0.041 A 
ATOM     81  F   UNL A   1      47.981  26.556  27.842  1.00  0.00    -0.206 F 
ATOM     82  C   UNL A   1      49.365  26.714  24.504  1.00  0.00     0.022 A 
BRANCH  79  83
ATOM     83  S   UNL A   1      48.452  27.682  22.053  1.00  0.00     0.124 S 
ATOM     84  O   UNL A   1      47.152  28.280  21.768  1.00  0.00    -0.237 OA
ATOM     85  O   UNL A   1      49.605  28.570  21.951  1.00  0.00    -0.237 OA
ATOM     86  O   UNL A   1      48.654  26.339  21.513  1.00  0.00    -0.744 OA
ENDBRANCH  79  83
ENDBRANCH  52  76
BRANCH  64  87
ATOM     87  C   UNL A   1      45.277  33.414  29.276  1.00  0.00     0.023 A 
ATOM     88  C   UNL A   1      45.273  34.526  28.416  1.00  0.00     0.031 A 
ATOM     89  C   UNL A   1      46.029  33.500  30.461  1.00  0.00     0.131 A 
ATOM     90  C   UNL A   1      46.051  35.653  28.726  1.00  0.00     0.055 A 
ATOM     91  C   UNL A   1      46.750  34.647  30.796  1.00  0.00     0.041 A 
ATOM     92  F   UNL A   1      46.073  32.467  31.319  1.00  0.00    -0.206 F 
ATOM     93  C   UNL A   1      46.774  35.727  29.919  1.00  0.00     0.022 A 
BRANCH  90  94
ATOM     94  S   UNL A   1      46.180  36.987  27.504  1.00  0.00     0.124 S 
ATOM     95  O   UNL A   1      47.482  37.563  27.821  1.00  0.00    -0.237 OA
ATOM     96  O   UNL A   1      46.093  36.262  26.240  1.00  0.00    -0.237 OA
ATOM     97  O   UNL A   1      45.033  37.842  27.807  1.00  0.00    -0.744 OA
ENDBRANCH  90  94
ENDBRANCH  64  87
ENDBRANCH  38  39
ENDBRANCH  30  33
ENDBRANCH  28  29
ENDBRANCH  27  28
ENDBRANCH   1  27
TORSDOF 18
ENDMDL
