MODEL 1
REMARK VINA RESULT:     -13.9      0.000      0.000
REMARK SMILES Cc1c(CC(=O)NCCCCNC(=O)c2ccc(-c3c4nc(c(-c5cc(S(=O)(=O)[O-])ccc5F)c5ccc([nH]5)c(-c5cc(S(=O)(=O)[O-])ccc5F)c5nc(c(-c6cc(S(=O)(=O)[O-])ccc6F)c6ccc3[nH]6)C=C5)C=C4)cc2)cc(-c2ccc(S(C)(=O)=O)cc2)n1-c1ccccc1
REMARK SMILES IDX 9 1 8 2 7 3 5 4 6 5 4 7 3 8 1 9 2 10 90 11 78 12 79 13 91 14
REMARK SMILES IDX 92 15 96 16 93 17 95 18 94 19 80 20 81 21 89 22 82 23 88 24
REMARK SMILES IDX 83 25 84 26 85 27 86 28 87 29 10 30 11 31 12 32 13 33 14 35
REMARK SMILES IDX 15 36 16 37 77 38 17 39 76 40 18 41 19 42 20 43 70 44 21 45
REMARK SMILES IDX 75 46 69 47 71 48 22 49 74 50 68 51 67 52 23 54 55 55 35 56
REMARK SMILES IDX 54 57 36 58 39 59 53 60 72 61 37 62 38 63 52 65 73 66 40 67
REMARK SMILES IDX 24 68 25 69 33 70 26 71 32 72 34 73 31 74 27 75 28 76 29 77
REMARK SMILES IDX 30 78 56 79 57 80 65 81 58 82 64 83 66 84 63 85 59 86 60 87
REMARK SMILES IDX 61 88 62 89 41 90 42 91 50 92 43 93 49 94 51 95 48 96 44 97
REMARK SMILES IDX 45 98 46 99 47 100
REMARK H PARENT 7 6 12 34 71 53 39 64
REMARK Flexibility Score: inf
ROOT
ATOM      1  C   UNL A   1      37.842  21.064  25.106  1.00  0.00     0.023 C 
ENDROOT
BRANCH   1   2
ATOM      2  C   UNL A   1      36.655  21.437  24.217  1.00  0.00     0.116 C 
BRANCH   2   3
ATOM      3  N   UNL A   1      35.384  21.053  24.807  1.00  0.00    -0.356 N 
ATOM      4  C   UNL A   1      34.116  21.443  24.494  1.00  0.00     0.224 C 
ATOM      5  O   UNL A   1      33.182  20.955  25.136  1.00  0.00    -0.275 OA
ATOM      6  H   UNL A   1      35.448  20.408  25.548  1.00  0.00     0.163 HD
BRANCH   4   7
ATOM      7  C   UNL A   1      33.866  22.432  23.371  1.00  0.00     0.137 C 
BRANCH   7   8
ATOM      8  C   UNL A   1      33.249  23.711  23.851  1.00  0.00    -0.017 A 
ATOM      9  C   UNL A   1      34.850  24.332  25.793  1.00  0.00     0.065 C 
ATOM     10  C   UNL A   1      33.703  24.552  24.858  1.00  0.00     0.024 A 
ATOM     11  N   UNL A   1      32.867  25.664  24.910  1.00  0.00    -0.314 N 
ATOM     12  C   UNL A   1      32.063  24.290  23.336  1.00  0.00     0.033 A 
ATOM     13  C   UNL A   1      31.868  25.515  23.946  1.00  0.00     0.053 A 
BRANCH  11  14
ATOM     14  C   UNL A   1      33.009  26.787  25.772  1.00  0.00     0.046 A 
ATOM     15  C   UNL A   1      32.071  27.000  26.790  1.00  0.00     0.026 A 
ATOM     16  C   UNL A   1      34.025  27.720  25.542  1.00  0.00     0.026 A 
ATOM     17  C   UNL A   1      32.140  28.155  27.566  1.00  0.00     0.002 A 
ATOM     18  C   UNL A   1      34.079  28.880  26.316  1.00  0.00     0.002 A 
ATOM     19  C   UNL A   1      33.138  29.098  27.323  1.00  0.00     0.000 A 
ENDBRANCH  11  14
BRANCH  13  20
ATOM     20  C   UNL A   1      30.895  26.546  23.565  1.00  0.00    -0.001 A 
ATOM     21  C   UNL A   1      31.280  27.627  22.756  1.00  0.00     0.011 A 
ATOM     22  C   UNL A   1      29.564  26.451  23.989  1.00  0.00     0.011 A 
ATOM     23  C   UNL A   1      30.365  28.623  22.412  1.00  0.00     0.021 A 
ATOM     24  C   UNL A   1      28.640  27.444  23.648  1.00  0.00     0.021 A 
ATOM     25  C   UNL A   1      29.051  28.531  22.872  1.00  0.00     0.067 A 
BRANCH  25  26
ATOM     26  S   UNL A   1      27.882  29.792  22.429  1.00  0.00     0.175 S 
ATOM     27  C   UNL A   1      28.364  31.199  23.397  1.00  0.00     0.163 C 
ATOM     28  O   UNL A   1      28.116  30.112  21.025  1.00  0.00    -0.224 OA
ATOM     29  O   UNL A   1      26.579  29.377  22.889  1.00  0.00    -0.224 OA
ENDBRANCH  25  26
ENDBRANCH  13  20
ENDBRANCH   7   8
ENDBRANCH   4   7
ENDBRANCH   2   3
ENDBRANCH   1   2
BRANCH   1  30
ATOM     30  C   UNL A   1      38.489  22.211  25.911  1.00  0.00     0.023 C 
BRANCH  30  31
ATOM     31  C   UNL A   1      39.794  21.940  26.689  1.00  0.00     0.116 C 
BRANCH  31  32
ATOM     32  N   UNL A   1      41.004  22.436  26.085  1.00  0.00    -0.352 N 
ATOM     33  C   UNL A   1      41.629  23.654  26.336  1.00  0.00     0.251 C 
ATOM     34  H   UNL A   1      41.435  21.849  25.422  1.00  0.00     0.163 HD
ATOM     35  O   UNL A   1      42.633  23.911  25.675  1.00  0.00    -0.269 OA
BRANCH  33  36
ATOM     36  C   UNL A   1      41.050  24.683  27.299  1.00  0.00     0.039 A 
ATOM     37  C   UNL A   1      39.824  25.250  27.001  1.00  0.00     0.014 A 
ATOM     38  C   UNL A   1      41.738  25.281  28.374  1.00  0.00     0.014 A 
ATOM     39  C   UNL A   1      39.279  26.314  27.804  1.00  0.00     0.010 A 
ATOM     40  C   UNL A   1      41.212  26.438  29.136  1.00  0.00     0.010 A 
ATOM     41  C   UNL A   1      39.946  27.016  28.887  1.00  0.00    -0.014 A 
BRANCH  41  42
ATOM     42  C   UNL A   1      39.419  28.593  29.184  1.00  0.00     0.031 A 
ATOM     43  C   UNL A   1      40.751  29.264  29.291  1.00  0.00     0.074 A 
ATOM     44  C   UNL A   1      38.326  29.443  29.499  1.00  0.00     0.049 A 
ATOM     45  N   UNL A   1      41.599  28.795  30.166  1.00  0.00    -0.248 NA
ATOM     46  C   UNL A   1      41.371  30.054  28.224  1.00  0.00     0.031 C 
ATOM     47  C   UNL A   1      36.935  29.063  29.832  1.00  0.00     0.029 A 
ATOM     48  N   UNL A   1      38.170  30.891  29.627  1.00  0.00    -0.354 N 
ATOM     49  C   UNL A   1      42.773  29.474  29.990  1.00  0.00     0.074 A 
ATOM     50  C   UNL A   1      42.645  30.026  28.642  1.00  0.00     0.031 C 
ATOM     51  C   UNL A   1      36.094  30.145  29.934  1.00  0.00     0.029 A 
ATOM     52  C   UNL A   1      36.796  31.422  29.748  1.00  0.00     0.049 A 
ATOM     53  H   UNL A   1      38.952  31.490  29.633  1.00  0.00     0.167 HD
ATOM     54  C   UNL A   1      43.216  30.105  31.118  1.00  0.00     0.034 A 
ATOM     55  C   UNL A   1      36.279  32.746  29.795  1.00  0.00     0.034 A 
ATOM     56  C   UNL A   1      42.764  31.472  31.152  1.00  0.00     0.049 A 
ATOM     57  C   UNL A   1      37.327  33.532  30.430  1.00  0.00     0.074 A 
ATOM     58  C   UNL A   1      42.702  32.459  30.187  1.00  0.00     0.029 A 
ATOM     59  N   UNL A   1      41.834  31.800  32.114  1.00  0.00    -0.354 N 
ATOM     60  N   UNL A   1      37.560  33.473  31.703  1.00  0.00    -0.248 NA
ATOM     61  C   UNL A   1      38.149  34.449  29.656  1.00  0.00     0.031 C 
ATOM     62  C   UNL A   1      41.401  32.986  30.320  1.00  0.00     0.029 A 
ATOM     63  C   UNL A   1      40.936  32.710  31.599  1.00  0.00     0.049 A 
ATOM     64  H   UNL A   1      41.812  31.439  33.030  1.00  0.00     0.167 HD
ATOM     65  C   UNL A   1      38.860  33.870  31.761  1.00  0.00     0.074 A 
ATOM     66  C   UNL A   1      39.073  34.698  30.583  1.00  0.00     0.031 C 
ATOM     67  C   UNL A   1      39.727  33.000  32.335  1.00  0.00     0.034 A 
BRANCH  54  68
ATOM     68  C   UNL A   1      43.274  29.209  32.334  1.00  0.00     0.023 A 
ATOM     69  C   UNL A   1      42.826  29.709  33.560  1.00  0.00     0.031 A 
ATOM     70  C   UNL A   1      43.848  27.914  32.328  1.00  0.00     0.131 A 
ATOM     71  C   UNL A   1      43.024  28.962  34.734  1.00  0.00     0.055 A 
ATOM     72  C   UNL A   1      44.103  27.207  33.500  1.00  0.00     0.041 A 
ATOM     73  F   UNL A   1      44.156  27.299  31.174  1.00  0.00    -0.206 F 
ATOM     74  C   UNL A   1      43.696  27.736  34.718  1.00  0.00     0.022 A 
BRANCH  71  75
ATOM     75  S   UNL A   1      42.354  29.605  36.290  1.00  0.00     0.124 S 
ATOM     76  O   UNL A   1      41.201  28.740  36.516  1.00  0.00    -0.237 OA
ATOM     77  O   UNL A   1      43.473  29.416  37.210  1.00  0.00    -0.237 OA
ATOM     78  O   UNL A   1      42.037  30.998  35.984  1.00  0.00    -0.744 OA
ENDBRANCH  71  75
ENDBRANCH  54  68
BRANCH  55  79
ATOM     79  C   UNL A   1      35.015  33.730  29.634  1.00  0.00     0.023 A 
ATOM     80  C   UNL A   1      34.350  34.419  30.758  1.00  0.00     0.031 A 
ATOM     81  C   UNL A   1      34.763  34.342  28.398  1.00  0.00     0.131 A 
ATOM     82  C   UNL A   1      33.565  35.619  30.604  1.00  0.00     0.055 A 
ATOM     83  C   UNL A   1      33.989  35.529  28.256  1.00  0.00     0.041 A 
ATOM     84  F   UNL A   1      35.354  33.877  27.289  1.00  0.00    -0.206 F 
ATOM     85  C   UNL A   1      33.409  36.178  29.345  1.00  0.00     0.022 A 
BRANCH  82  86
ATOM     86  S   UNL A   1      32.861  36.607  32.025  1.00  0.00     0.124 S 
ATOM     87  O   UNL A   1      31.491  36.120  32.119  1.00  0.00    -0.237 OA
ATOM     88  O   UNL A   1      33.751  36.277  33.132  1.00  0.00    -0.237 OA
ATOM     89  O   UNL A   1      32.972  37.997  31.569  1.00  0.00    -0.744 OA
ENDBRANCH  82  86
ENDBRANCH  55  79
BRANCH  67  90
ATOM     90  C   UNL A   1      39.309  32.320  33.629  1.00  0.00     0.023 A 
ATOM     91  C   UNL A   1      39.170  32.913  34.911  1.00  0.00     0.031 A 
ATOM     92  C   UNL A   1      39.074  30.936  33.545  1.00  0.00     0.131 A 
ATOM     93  C   UNL A   1      38.805  32.125  36.027  1.00  0.00     0.055 A 
ATOM     94  C   UNL A   1      38.673  30.170  34.636  1.00  0.00     0.041 A 
ATOM     95  F   UNL A   1      39.227  30.299  32.372  1.00  0.00    -0.206 F 
ATOM     96  C   UNL A   1      38.543  30.761  35.884  1.00  0.00     0.022 A 
BRANCH  93  97
ATOM     97  S   UNL A   1      38.727  32.845  37.705  1.00  0.00     0.124 S 
ATOM     98  O   UNL A   1      37.482  32.311  38.245  1.00  0.00    -0.237 OA
ATOM     99  O   UNL A   1      39.954  32.350  38.323  1.00  0.00    -0.237 OA
ATOM    100  O   UNL A   1      38.708  34.287  37.458  1.00  0.00    -0.744 OA
ENDBRANCH  93  97
ENDBRANCH  67  90
ENDBRANCH  41  42
ENDBRANCH  33  36
ENDBRANCH  31  32
ENDBRANCH  30  31
ENDBRANCH   1  30
TORSDOF 18
ENDMDL
MODEL 2
REMARK VINA RESULT:     -13.0      2.328      3.394
REMARK SMILES Cc1c(CC(=O)NCCCCNC(=O)c2ccc(-c3c4nc(c(-c5cc(S(=O)(=O)[O-])ccc5F)c5ccc([nH]5)c(-c5cc(S(=O)(=O)[O-])ccc5F)c5nc(c(-c6cc(S(=O)(=O)[O-])ccc6F)c6ccc3[nH]6)C=C5)C=C4)cc2)cc(-c2ccc(S(C)(=O)=O)cc2)n1-c1ccccc1
REMARK SMILES IDX 9 1 8 2 7 3 5 4 6 5 4 7 3 8 1 9 2 10 90 11 78 12 79 13 91 14
REMARK SMILES IDX 92 15 96 16 93 17 95 18 94 19 80 20 81 21 89 22 82 23 88 24
REMARK SMILES IDX 83 25 84 26 85 27 86 28 87 29 10 30 11 31 12 32 13 33 14 35
REMARK SMILES IDX 15 36 16 37 77 38 17 39 76 40 18 41 19 42 20 43 70 44 21 45
REMARK SMILES IDX 75 46 69 47 71 48 22 49 74 50 68 51 67 52 23 54 55 55 35 56
REMARK SMILES IDX 54 57 36 58 39 59 53 60 72 61 37 62 38 63 52 65 73 66 40 67
REMARK SMILES IDX 24 68 25 69 33 70 26 71 32 72 34 73 31 74 27 75 28 76 29 77
REMARK SMILES IDX 30 78 56 79 57 80 65 81 58 82 64 83 66 84 63 85 59 86 60 87
REMARK SMILES IDX 61 88 62 89 41 90 42 91 50 92 43 93 49 94 51 95 48 96 44 97
REMARK SMILES IDX 45 98 46 99 47 100
REMARK H PARENT 7 6 12 34 71 53 39 64
REMARK Flexibility Score: inf
ROOT
ATOM      1  C   UNL A   1      36.316  21.400  25.746  1.00  0.00     0.023 C 
ENDROOT
BRANCH   1   2
ATOM      2  C   UNL A   1      35.483  20.589  24.754  1.00  0.00     0.116 C 
BRANCH   2   3
ATOM      3  N   UNL A   1      34.095  20.472  25.166  1.00  0.00    -0.356 N 
ATOM      4  C   UNL A   1      32.988  21.132  24.724  1.00  0.00     0.224 C 
ATOM      5  O   UNL A   1      31.898  20.840  25.225  1.00  0.00    -0.275 OA
ATOM      6  H   UNL A   1      33.928  19.811  25.876  1.00  0.00     0.163 HD
BRANCH   4   7
ATOM      7  C   UNL A   1      33.096  22.178  23.631  1.00  0.00     0.137 C 
BRANCH   7   8
ATOM      8  C   UNL A   1      32.610  23.527  24.069  1.00  0.00    -0.017 A 
ATOM      9  C   UNL A   1      34.150  23.967  26.107  1.00  0.00     0.065 C 
ATOM     10  C   UNL A   1      33.099  24.316  25.101  1.00  0.00     0.024 A 
ATOM     11  N   UNL A   1      32.403  25.521  25.098  1.00  0.00    -0.314 N 
ATOM     12  C   UNL A   1      31.538  24.241  23.478  1.00  0.00     0.033 A 
ATOM     13  C   UNL A   1      31.456  25.486  24.073  1.00  0.00     0.053 A 
BRANCH  11  14
ATOM     14  C   UNL A   1      32.626  26.627  25.965  1.00  0.00     0.046 A 
ATOM     15  C   UNL A   1      31.629  27.006  26.872  1.00  0.00     0.026 A 
ATOM     16  C   UNL A   1      33.796  27.384  25.845  1.00  0.00     0.026 A 
ATOM     17  C   UNL A   1      31.795  28.153  27.646  1.00  0.00     0.002 A 
ATOM     18  C   UNL A   1      33.949  28.538  26.615  1.00  0.00     0.002 A 
ATOM     19  C   UNL A   1      32.949  28.923  27.511  1.00  0.00     0.000 A 
ENDBRANCH  11  14
BRANCH  13  20
ATOM     20  C   UNL A   1      30.641  26.624  23.629  1.00  0.00    -0.001 A 
ATOM     21  C   UNL A   1      29.262  26.661  23.894  1.00  0.00     0.011 A 
ATOM     22  C   UNL A   1      31.236  27.697  22.955  1.00  0.00     0.011 A 
ATOM     23  C   UNL A   1      28.480  27.729  23.454  1.00  0.00     0.021 A 
ATOM     24  C   UNL A   1      30.459  28.771  22.511  1.00  0.00     0.021 A 
ATOM     25  C   UNL A   1      29.082  28.774  22.751  1.00  0.00     0.067 A 
BRANCH  25  26
ATOM     26  S   UNL A   1      28.090  30.137  22.196  1.00  0.00     0.175 S 
ATOM     27  C   UNL A   1      29.057  31.572  22.586  1.00  0.00     0.163 C 
ATOM     28  O   UNL A   1      28.004  30.035  20.744  1.00  0.00    -0.224 OA
ATOM     29  O   UNL A   1      26.899  30.185  23.009  1.00  0.00    -0.224 OA
ENDBRANCH  25  26
ENDBRANCH  13  20
ENDBRANCH   7   8
ENDBRANCH   4   7
ENDBRANCH   2   3
ENDBRANCH   1   2
BRANCH   1  30
ATOM     30  C   UNL A   1      37.441  22.274  25.150  1.00  0.00     0.023 C 
BRANCH  30  31
ATOM     31  C   UNL A   1      38.618  22.701  26.052  1.00  0.00     0.116 C 
BRANCH  31  32
ATOM     32  N   UNL A   1      39.782  21.852  26.017  1.00  0.00    -0.352 N 
ATOM     33  C   UNL A   1      41.086  22.203  26.349  1.00  0.00     0.251 C 
ATOM     34  H   UNL A   1      39.637  20.922  25.727  1.00  0.00     0.163 HD
ATOM     35  O   UNL A   1      41.949  21.340  26.204  1.00  0.00    -0.269 OA
BRANCH  33  36
ATOM     36  C   UNL A   1      41.468  23.618  26.768  1.00  0.00     0.039 A 
ATOM     37  C   UNL A   1      41.316  23.976  28.096  1.00  0.00     0.014 A 
ATOM     38  C   UNL A   1      41.769  24.681  25.894  1.00  0.00     0.014 A 
ATOM     39  C   UNL A   1      41.542  25.330  28.533  1.00  0.00     0.010 A 
ATOM     40  C   UNL A   1      41.908  26.088  26.338  1.00  0.00     0.010 A 
ATOM     41  C   UNL A   1      41.801  26.486  27.690  1.00  0.00    -0.014 A 
BRANCH  41  42
ATOM     42  C   UNL A   1      41.350  27.983  28.327  1.00  0.00     0.031 A 
ATOM     43  C   UNL A   1      42.568  28.767  27.957  1.00  0.00     0.074 A 
ATOM     44  C   UNL A   1      40.432  28.704  29.137  1.00  0.00     0.049 A 
ATOM     45  N   UNL A   1      43.724  28.321  28.368  1.00  0.00    -0.248 NA
ATOM     46  C   UNL A   1      42.653  29.680  26.815  1.00  0.00     0.031 C 
ATOM     47  C   UNL A   1      39.323  28.176  29.959  1.00  0.00     0.029 A 
ATOM     48  N   UNL A   1      40.258  30.120  29.458  1.00  0.00    -0.354 N 
ATOM     49  C   UNL A   1      44.684  29.117  27.804  1.00  0.00     0.074 A 
ATOM     50  C   UNL A   1      43.986  29.743  26.682  1.00  0.00     0.031 C 
ATOM     51  C   UNL A   1      38.534  29.165  30.497  1.00  0.00     0.029 A 
ATOM     52  C   UNL A   1      39.024  30.511  30.171  1.00  0.00     0.049 A 
ATOM     53  H   UNL A   1      40.938  30.787  29.209  1.00  0.00     0.167 HD
ATOM     54  C   UNL A   1      45.510  29.711  28.717  1.00  0.00     0.034 A 
ATOM     55  C   UNL A   1      38.495  31.775  30.553  1.00  0.00     0.034 A 
ATOM     56  C   UNL A   1      45.032  31.024  29.064  1.00  0.00     0.049 A 
ATOM     57  C   UNL A   1      39.663  32.612  30.788  1.00  0.00     0.074 A 
ATOM     58  C   UNL A   1      44.525  32.062  28.306  1.00  0.00     0.029 A 
ATOM     59  N   UNL A   1      44.558  31.199  30.345  1.00  0.00    -0.354 N 
ATOM     60  N   UNL A   1      40.398  32.490  31.849  1.00  0.00    -0.248 NA
ATOM     61  C   UNL A   1      40.044  33.650  29.844  1.00  0.00     0.031 C 
ATOM     62  C   UNL A   1      43.363  32.456  29.001  1.00  0.00     0.029 A 
ATOM     63  C   UNL A   1      43.476  32.054  30.325  1.00  0.00     0.049 A 
ATOM     64  H   UNL A   1      44.932  30.777  31.152  1.00  0.00     0.167 HD
ATOM     65  C   UNL A   1      41.583  33.001  31.419  1.00  0.00     0.074 A 
ATOM     66  C   UNL A   1      41.249  33.923  30.343  1.00  0.00     0.031 C 
ATOM     67  C   UNL A   1      42.657  32.180  31.509  1.00  0.00     0.034 A 
BRANCH  54  68
ATOM     68  C   UNL A   1      46.110  28.744  29.712  1.00  0.00     0.023 A 
ATOM     69  C   UNL A   1      45.275  27.807  30.327  1.00  0.00     0.031 A 
ATOM     70  C   UNL A   1      47.461  28.793  30.136  1.00  0.00     0.131 A 
ATOM     71  C   UNL A   1      45.768  27.013  31.376  1.00  0.00     0.055 A 
ATOM     72  C   UNL A   1      47.928  28.052  31.220  1.00  0.00     0.041 A 
ATOM     73  F   UNL A   1      48.363  29.549  29.491  1.00  0.00    -0.206 F 
ATOM     74  C   UNL A   1      47.075  27.159  31.854  1.00  0.00     0.022 A 
BRANCH  71  75
ATOM     75  S   UNL A   1      44.681  25.752  32.089  1.00  0.00     0.124 S 
ATOM     76  O   UNL A   1      44.731  24.692  31.087  1.00  0.00    -0.237 OA
ATOM     77  O   UNL A   1      45.345  25.452  33.356  1.00  0.00    -0.237 OA
ATOM     78  O   UNL A   1      43.393  26.430  32.214  1.00  0.00    -0.744 OA
ENDBRANCH  71  75
ENDBRANCH  54  68
BRANCH  55  79
ATOM     79  C   UNL A   1      37.220  32.646  31.010  1.00  0.00     0.023 A 
ATOM     80  C   UNL A   1      36.320  33.354  30.078  1.00  0.00     0.031 A 
ATOM     81  C   UNL A   1      36.630  32.410  32.260  1.00  0.00     0.131 A 
ATOM     82  C   UNL A   1      34.965  33.723  30.405  1.00  0.00     0.055 A 
ATOM     83  C   UNL A   1      35.289  32.775  32.573  1.00  0.00     0.041 A 
ATOM     84  F   UNL A   1      37.293  31.713  33.192  1.00  0.00    -0.206 F 
ATOM     85  C   UNL A   1      34.452  33.407  31.655  1.00  0.00     0.022 A 
BRANCH  82  86
ATOM     86  S   UNL A   1      33.751  34.460  29.192  1.00  0.00     0.124 S 
ATOM     87  O   UNL A   1      33.461  33.346  28.298  1.00  0.00    -0.237 OA
ATOM     88  O   UNL A   1      32.660  34.913  30.047  1.00  0.00    -0.237 OA
ATOM     89  O   UNL A   1      34.505  35.551  28.565  1.00  0.00    -0.744 OA
ENDBRANCH  82  86
ENDBRANCH  55  79
BRANCH  67  90
ATOM     90  C   UNL A   1      42.843  31.379  32.788  1.00  0.00     0.023 A 
ATOM     91  C   UNL A   1      42.195  30.170  33.152  1.00  0.00     0.031 A 
ATOM     92  C   UNL A   1      43.730  31.928  33.731  1.00  0.00     0.131 A 
ATOM     93  C   UNL A   1      42.456  29.568  34.404  1.00  0.00     0.055 A 
ATOM     94  C   UNL A   1      44.019  31.312  34.945  1.00  0.00     0.041 A 
ATOM     95  F   UNL A   1      44.349  33.092  33.473  1.00  0.00    -0.206 F 
ATOM     96  C   UNL A   1      43.377  30.131  35.290  1.00  0.00     0.022 A 
BRANCH  93  97
ATOM     97  S   UNL A   1      41.553  28.072  34.939  1.00  0.00     0.124 S 
ATOM     98  O   UNL A   1      40.640  27.814  33.832  1.00  0.00    -0.237 OA
ATOM     99  O   UNL A   1      42.625  27.098  35.122  1.00  0.00    -0.237 OA
ATOM    100  O   UNL A   1      40.896  28.494  36.177  1.00  0.00    -0.744 OA
ENDBRANCH  93  97
ENDBRANCH  67  90
ENDBRANCH  41  42
ENDBRANCH  33  36
ENDBRANCH  31  32
ENDBRANCH  30  31
ENDBRANCH   1  30
TORSDOF 18
ENDMDL
