MODEL 1
REMARK VINA RESULT:     -11.5      0.000      0.000
REMARK SMILES Nn1c(Cc2ccc(F)c(F)c2)nnc1SCC(=O)NCCCCNC(=O)c1ccc(-c2c3nc(c(-c4cc(S(=O)(=O)[O-])ccc4F)c4ccc([nH]4)c(-c4cc(S(=O)(=O)[O-])ccc4F)c4nc(c(-c5cc(S(=O)(=O)[O-])ccc5F)c5ccc2[nH]5)C=C4)C=C3)cc1
REMARK SMILES IDX 22 1 21 2 20 3 18 4 19 5 17 7 16 8 15 9 2 10 3 11 13 12
REMARK SMILES IDX 14 13 1 14 4 17 5 18 6 19 12 20 7 21 10 22 8 23 11 24 9 25
REMARK SMILES IDX 23 26 24 27 25 28 26 29 27 31 28 32 29 33 90 34 30 35 89 36
REMARK SMILES IDX 31 37 32 38 33 39 83 40 34 41 88 42 82 43 84 44 35 45 87 46
REMARK SMILES IDX 81 47 80 48 36 50 68 51 48 52 67 53 49 54 52 55 66 56 85 57
REMARK SMILES IDX 50 58 51 59 65 61 86 62 53 63 37 64 38 65 46 66 39 67 45 68
REMARK SMILES IDX 47 69 44 70 40 71 41 72 42 73 43 74 69 75 70 76 78 77 71 78
REMARK SMILES IDX 77 79 79 80 76 81 72 82 73 83 74 84 75 85 54 86 55 87 63 88
REMARK SMILES IDX 56 89 62 90 64 91 61 92 57 93 58 94 59 95 60 96
REMARK H PARENT 20 6 1 15 1 16 25 30 84 49 52 60
REMARK Flexibility Score: inf
ROOT
ATOM      1  C   UNL A   1      32.277  28.487  25.162  1.00  0.00     0.023 C 
ENDROOT
BRANCH   1   2
ATOM      2  C   UNL A   1      33.607  28.287  24.435  1.00  0.00     0.116 C 
BRANCH   2   3
ATOM      3  N   UNL A   1      33.490  27.293  23.383  1.00  0.00    -0.355 N 
ATOM      4  C   UNL A   1      33.848  25.981  23.395  1.00  0.00     0.230 C 
ATOM      5  O   UNL A   1      33.807  25.350  22.332  1.00  0.00    -0.274 OA
ATOM      6  H   UNL A   1      33.098  27.614  22.540  1.00  0.00     0.163 HD
BRANCH   4   7
ATOM      7  C   UNL A   1      34.240  25.290  24.683  1.00  0.00     0.178 C 
BRANCH   7   8
ATOM      8  S   UNL A   1      33.084  24.037  25.257  1.00  0.00    -0.074 SA
BRANCH   8   9
ATOM      9  C   UNL A   1      31.524  24.781  25.313  1.00  0.00     0.210 A 
ATOM     10  N   UNL A   1      30.628  24.929  24.277  1.00  0.00    -0.221 N 
ATOM     11  C   UNL A   1      29.607  25.708  24.785  1.00  0.00     0.157 A 
ATOM     12  N   UNL A   1      29.887  26.006  26.042  1.00  0.00    -0.132 NA
ATOM     13  N   UNL A   1      31.083  25.424  26.370  1.00  0.00    -0.121 NA
BRANCH  10  14
ATOM     14  N   UNL A   1      30.739  24.406  22.943  1.00  0.00    -0.336 N 
ATOM     15  H   UNL A   1      30.401  23.505  22.737  1.00  0.00     0.178 HD
ATOM     16  H   UNL A   1      31.154  24.950  22.235  1.00  0.00     0.178 HD
ENDBRANCH  10  14
BRANCH  11  17
ATOM     17  C   UNL A   1      28.436  26.207  24.004  1.00  0.00     0.115 C 
BRANCH  17  18
ATOM     18  C   UNL A   1      28.632  27.577  23.385  1.00  0.00    -0.037 A 
ATOM     19  C   UNL A   1      27.571  28.500  23.324  1.00  0.00     0.007 A 
ATOM     20  C   UNL A   1      29.885  27.957  22.879  1.00  0.00     0.046 A 
ATOM     21  C   UNL A   1      27.754  29.766  22.763  1.00  0.00     0.043 A 
ATOM     22  C   UNL A   1      30.062  29.226  22.331  1.00  0.00     0.159 A 
ATOM     23  C   UNL A   1      29.004  30.123  22.272  1.00  0.00     0.158 A 
ATOM     24  F   UNL A   1      31.272  29.577  21.873  1.00  0.00    -0.204 F 
ATOM     25  F   UNL A   1      29.180  31.345  21.750  1.00  0.00    -0.204 F 
ENDBRANCH  17  18
ENDBRANCH  11  17
ENDBRANCH   8   9
ENDBRANCH   7   8
ENDBRANCH   4   7
ENDBRANCH   2   3
ENDBRANCH   1   2
BRANCH   1  26
ATOM     26  C   UNL A   1      31.951  29.941  25.525  1.00  0.00     0.023 C 
BRANCH  26  27
ATOM     27  C   UNL A   1      32.582  30.454  26.816  1.00  0.00     0.116 C 
BRANCH  27  28
ATOM     28  N   UNL A   1      32.455  31.895  26.976  1.00  0.00    -0.352 N 
ATOM     29  C   UNL A   1      33.320  32.767  27.596  1.00  0.00     0.251 C 
ATOM     30  H   UNL A   1      31.644  32.298  26.591  1.00  0.00     0.163 HD
ATOM     31  O   UNL A   1      33.001  33.942  27.752  1.00  0.00    -0.269 OA
BRANCH  29  32
ATOM     32  C   UNL A   1      34.616  32.268  28.102  1.00  0.00     0.039 A 
ATOM     33  C   UNL A   1      35.746  33.084  28.000  1.00  0.00     0.014 A 
ATOM     34  C   UNL A   1      34.705  31.012  28.710  1.00  0.00     0.014 A 
ATOM     35  C   UNL A   1      36.952  32.675  28.577  1.00  0.00     0.010 A 
ATOM     36  C   UNL A   1      35.892  30.632  29.331  1.00  0.00     0.010 A 
ATOM     37  C   UNL A   1      37.023  31.464  29.282  1.00  0.00    -0.014 A 
BRANCH  37  38
ATOM     38  C   UNL A   1      38.261  31.029  29.981  1.00  0.00     0.031 A 
ATOM     39  C   UNL A   1      39.159  30.012  29.334  1.00  0.00     0.074 A 
ATOM     40  C   UNL A   1      38.519  31.463  31.230  1.00  0.00     0.049 A 
ATOM     41  N   UNL A   1      40.159  29.343  29.843  1.00  0.00    -0.248 NA
ATOM     42  C   UNL A   1      38.863  29.683  27.932  1.00  0.00     0.031 C 
ATOM     43  C   UNL A   1      37.721  32.443  31.968  1.00  0.00     0.029 A 
ATOM     44  N   UNL A   1      39.514  31.115  32.111  1.00  0.00    -0.354 N 
ATOM     45  C   UNL A   1      40.600  28.494  28.833  1.00  0.00     0.074 A 
ATOM     46  C   UNL A   1      39.725  28.705  27.699  1.00  0.00     0.031 C 
ATOM     47  C   UNL A   1      38.258  32.619  33.188  1.00  0.00     0.029 A 
ATOM     48  C   UNL A   1      39.403  31.725  33.340  1.00  0.00     0.049 A 
ATOM     49  H   UNL A   1      40.239  30.488  31.885  1.00  0.00     0.167 HD
ATOM     50  C   UNL A   1      41.644  27.628  28.849  1.00  0.00     0.034 A 
ATOM     51  C   UNL A   1      40.121  31.561  34.470  1.00  0.00     0.034 A 
ATOM     52  C   UNL A   1      42.515  27.443  29.983  1.00  0.00     0.049 A 
ATOM     53  C   UNL A   1      41.254  30.565  34.477  1.00  0.00     0.074 A 
ATOM     54  C   UNL A   1      43.621  26.618  30.098  1.00  0.00     0.029 A 
ATOM     55  N   UNL A   1      42.381  28.094  31.203  1.00  0.00    -0.354 N 
ATOM     56  N   UNL A   1      41.661  29.771  33.514  1.00  0.00    -0.248 NA
ATOM     57  C   UNL A   1      42.026  30.445  35.722  1.00  0.00     0.031 C 
ATOM     58  C   UNL A   1      44.121  26.729  31.400  1.00  0.00     0.029 A 
ATOM     59  C   UNL A   1      43.370  27.675  32.078  1.00  0.00     0.049 A 
ATOM     60  H   UNL A   1      41.684  28.757  31.414  1.00  0.00     0.167 HD
ATOM     61  C   UNL A   1      42.761  29.088  34.026  1.00  0.00     0.074 A 
ATOM     62  C   UNL A   1      42.952  29.560  35.382  1.00  0.00     0.031 C 
ATOM     63  C   UNL A   1      43.550  28.164  33.424  1.00  0.00     0.034 A 
BRANCH  50  64
ATOM     64  C   UNL A   1      41.872  26.798  27.610  1.00  0.00     0.023 A 
ATOM     65  C   UNL A   1      41.482  25.450  27.545  1.00  0.00     0.031 A 
ATOM     66  C   UNL A   1      42.522  27.351  26.491  1.00  0.00     0.131 A 
ATOM     67  C   UNL A   1      41.818  24.677  26.422  1.00  0.00     0.055 A 
ATOM     68  C   UNL A   1      42.778  26.599  25.343  1.00  0.00     0.041 A 
ATOM     69  F   UNL A   1      42.936  28.627  26.503  1.00  0.00    -0.206 F 
ATOM     70  C   UNL A   1      42.441  25.249  25.311  1.00  0.00     0.022 A 
BRANCH  67  71
ATOM     71  S   UNL A   1      41.564  22.884  26.501  1.00  0.00     0.124 S 
ATOM     72  O   UNL A   1      40.106  22.791  26.465  1.00  0.00    -0.237 OA
ATOM     73  O   UNL A   1      42.264  22.413  25.312  1.00  0.00    -0.237 OA
ATOM     74  O   UNL A   1      42.173  22.507  27.776  1.00  0.00    -0.744 OA
ENDBRANCH  67  71
ENDBRANCH  50  64
BRANCH  51  75
ATOM     75  C   UNL A   1      39.782  32.331  35.699  1.00  0.00     0.023 A 
ATOM     76  C   UNL A   1      38.861  31.828  36.632  1.00  0.00     0.031 A 
ATOM     77  C   UNL A   1      40.339  33.599  35.940  1.00  0.00     0.131 A 
ATOM     78  C   UNL A   1      38.489  32.608  37.738  1.00  0.00     0.055 A 
ATOM     79  C   UNL A   1      40.005  34.350  37.069  1.00  0.00     0.041 A 
ATOM     80  F   UNL A   1      41.228  34.124  35.082  1.00  0.00    -0.206 F 
ATOM     81  C   UNL A   1      39.064  33.860  37.970  1.00  0.00     0.022 A 
BRANCH  78  82
ATOM     82  S   UNL A   1      37.177  31.993  38.829  1.00  0.00     0.124 S 
ATOM     83  O   UNL A   1      37.111  30.586  38.450  1.00  0.00    -0.237 OA
ATOM     84  O   UNL A   1      37.725  32.277  40.151  1.00  0.00    -0.237 OA
ATOM     85  O   UNL A   1      36.015  32.796  38.451  1.00  0.00    -0.744 OA
ENDBRANCH  78  82
ENDBRANCH  51  75
BRANCH  63  86
ATOM     86  C   UNL A   1      44.737  27.658  34.203  1.00  0.00     0.023 A 
ATOM     87  C   UNL A   1      44.654  26.533  35.040  1.00  0.00     0.031 A 
ATOM     88  C   UNL A   1      45.977  28.310  34.083  1.00  0.00     0.131 A 
ATOM     89  C   UNL A   1      45.787  26.111  35.752  1.00  0.00     0.055 A 
ATOM     90  C   UNL A   1      47.111  27.860  34.758  1.00  0.00     0.041 A 
ATOM     91  F   UNL A   1      46.107  29.389  33.293  1.00  0.00    -0.206 F 
ATOM     92  C   UNL A   1      47.018  26.758  35.603  1.00  0.00     0.022 A 
BRANCH  89  93
ATOM     93  S   UNL A   1      45.628  24.725  36.910  1.00  0.00     0.124 S 
ATOM     94  O   UNL A   1      46.440  23.697  36.267  1.00  0.00    -0.237 OA
ATOM     95  O   UNL A   1      46.167  25.284  38.146  1.00  0.00    -0.237 OA
ATOM     96  O   UNL A   1      44.191  24.457  36.930  1.00  0.00    -0.744 OA
ENDBRANCH  89  93
ENDBRANCH  63  86
ENDBRANCH  37  38
ENDBRANCH  29  32
ENDBRANCH  27  28
ENDBRANCH  26  27
ENDBRANCH   1  26
TORSDOF 19
ENDMDL
MODEL 2
REMARK VINA RESULT:     -11.4      1.868      2.453
REMARK SMILES Nn1c(Cc2ccc(F)c(F)c2)nnc1SCC(=O)NCCCCNC(=O)c1ccc(-c2c3nc(c(-c4cc(S(=O)(=O)[O-])ccc4F)c4ccc([nH]4)c(-c4cc(S(=O)(=O)[O-])ccc4F)c4nc(c(-c5cc(S(=O)(=O)[O-])ccc5F)c5ccc2[nH]5)C=C4)C=C3)cc1
REMARK SMILES IDX 22 1 21 2 20 3 18 4 19 5 17 7 16 8 15 9 2 10 3 11 13 12
REMARK SMILES IDX 14 13 1 14 4 17 5 18 6 19 12 20 7 21 10 22 8 23 11 24 9 25
REMARK SMILES IDX 23 26 24 27 25 28 26 29 27 31 28 32 29 33 90 34 30 35 89 36
REMARK SMILES IDX 31 37 32 38 33 39 83 40 34 41 88 42 82 43 84 44 35 45 87 46
REMARK SMILES IDX 81 47 80 48 36 50 68 51 48 52 67 53 49 54 52 55 66 56 85 57
REMARK SMILES IDX 50 58 51 59 65 61 86 62 53 63 37 64 38 65 46 66 39 67 45 68
REMARK SMILES IDX 47 69 44 70 40 71 41 72 42 73 43 74 69 75 70 76 78 77 71 78
REMARK SMILES IDX 77 79 79 80 76 81 72 82 73 83 74 84 75 85 54 86 55 87 63 88
REMARK SMILES IDX 56 89 62 90 64 91 61 92 57 93 58 94 59 95 60 96
REMARK H PARENT 20 6 1 15 1 16 25 30 84 49 52 60
REMARK Flexibility Score: inf
ROOT
ATOM      1  C   UNL A   1      33.395  26.381  25.957  1.00  0.00     0.023 C 
ENDROOT
BRANCH   1   2
ATOM      2  C   UNL A   1      32.669  25.187  25.337  1.00  0.00     0.116 C 
BRANCH   2   3
ATOM      3  N   UNL A   1      33.572  24.370  24.547  1.00  0.00    -0.355 N 
ATOM      4  C   UNL A   1      34.028  24.567  23.281  1.00  0.00     0.230 C 
ATOM      5  O   UNL A   1      34.669  23.659  22.739  1.00  0.00    -0.274 OA
ATOM      6  H   UNL A   1      33.902  23.555  24.991  1.00  0.00     0.163 HD
BRANCH   4   7
ATOM      7  C   UNL A   1      33.801  25.881  22.565  1.00  0.00     0.178 C 
BRANCH   7   8
ATOM      8  S   UNL A   1      32.320  25.947  21.547  1.00  0.00    -0.074 SA
BRANCH   8   9
ATOM      9  C   UNL A   1      31.173  26.925  22.392  1.00  0.00     0.210 A 
ATOM     10  N   UNL A   1      31.227  28.285  22.608  1.00  0.00    -0.221 N 
ATOM     11  C   UNL A   1      30.167  28.565  23.449  1.00  0.00     0.157 A 
ATOM     12  N   UNL A   1      29.531  27.438  23.717  1.00  0.00    -0.132 NA
ATOM     13  N   UNL A   1      30.158  26.416  23.054  1.00  0.00    -0.121 NA
BRANCH  10  14
ATOM     14  N   UNL A   1      32.192  29.215  22.090  1.00  0.00    -0.336 N 
ATOM     15  H   UNL A   1      32.756  28.963  21.323  1.00  0.00     0.178 HD
ATOM     16  H   UNL A   1      32.290  30.104  22.502  1.00  0.00     0.178 HD
ENDBRANCH  10  14
BRANCH  11  17
ATOM     17  C   UNL A   1      29.863  29.905  24.031  1.00  0.00     0.115 C 
BRANCH  17  18
ATOM     18  C   UNL A   1      29.164  30.860  23.083  1.00  0.00    -0.037 A 
ATOM     19  C   UNL A   1      29.029  32.224  23.401  1.00  0.00     0.007 A 
ATOM     20  C   UNL A   1      28.659  30.401  21.856  1.00  0.00     0.046 A 
ATOM     21  C   UNL A   1      28.395  33.105  22.522  1.00  0.00     0.043 A 
ATOM     22  C   UNL A   1      28.038  31.289  20.980  1.00  0.00     0.159 A 
ATOM     23  C   UNL A   1      27.905  32.631  21.311  1.00  0.00     0.158 A 
ATOM     24  F   UNL A   1      27.580  30.835  19.805  1.00  0.00    -0.204 F 
ATOM     25  F   UNL A   1      27.313  33.483  20.464  1.00  0.00    -0.204 F 
ENDBRANCH  17  18
ENDBRANCH  11  17
ENDBRANCH   8   9
ENDBRANCH   7   8
ENDBRANCH   4   7
ENDBRANCH   2   3
ENDBRANCH   1   2
BRANCH   1  26
ATOM     26  C   UNL A   1      32.599  27.691  25.961  1.00  0.00     0.023 C 
BRANCH  26  27
ATOM     27  C   UNL A   1      33.370  28.932  25.525  1.00  0.00     0.116 C 
BRANCH  27  28
ATOM     28  N   UNL A   1      32.783  30.168  26.018  1.00  0.00    -0.352 N 
ATOM     29  C   UNL A   1      33.271  31.026  26.977  1.00  0.00     0.251 C 
ATOM     30  H   UNL A   1      31.922  30.423  25.614  1.00  0.00     0.163 HD
ATOM     31  O   UNL A   1      32.586  31.966  27.367  1.00  0.00    -0.269 OA
BRANCH  29  32
ATOM     32  C   UNL A   1      34.610  30.783  27.555  1.00  0.00     0.039 A 
ATOM     33  C   UNL A   1      35.501  31.852  27.681  1.00  0.00     0.014 A 
ATOM     34  C   UNL A   1      34.968  29.509  28.006  1.00  0.00     0.014 A 
ATOM     35  C   UNL A   1      36.724  31.663  28.331  1.00  0.00     0.010 A 
ATOM     36  C   UNL A   1      36.162  29.336  28.701  1.00  0.00     0.010 A 
ATOM     37  C   UNL A   1      37.046  30.413  28.881  1.00  0.00    -0.014 A 
BRANCH  37  38
ATOM     38  C   UNL A   1      38.298  30.188  29.652  1.00  0.00     0.031 A 
ATOM     39  C   UNL A   1      39.332  29.234  29.123  1.00  0.00     0.074 A 
ATOM     40  C   UNL A   1      38.455  30.753  30.865  1.00  0.00     0.049 A 
ATOM     41  N   UNL A   1      40.382  28.734  29.718  1.00  0.00    -0.248 NA
ATOM     42  C   UNL A   1      39.131  28.756  27.747  1.00  0.00     0.031 C 
ATOM     43  C   UNL A   1      37.520  31.690  31.490  1.00  0.00     0.029 A 
ATOM     44  N   UNL A   1      39.448  30.602  31.802  1.00  0.00    -0.354 N 
ATOM     45  C   UNL A   1      40.958  27.861  28.800  1.00  0.00     0.074 A 
ATOM     46  C   UNL A   1      40.109  27.871  27.627  1.00  0.00     0.031 C 
ATOM     47  C   UNL A   1      37.984  32.031  32.705  1.00  0.00     0.029 A 
ATOM     48  C   UNL A   1      39.218  31.295  32.968  1.00  0.00     0.049 A 
ATOM     49  H   UNL A   1      40.249  30.048  31.652  1.00  0.00     0.167 HD
ATOM     50  C   UNL A   1      42.094  27.130  28.923  1.00  0.00     0.034 A 
ATOM     51  C   UNL A   1      39.906  31.313  34.128  1.00  0.00     0.034 A 
ATOM     52  C   UNL A   1      42.935  27.146  30.093  1.00  0.00     0.049 A 
ATOM     53  C   UNL A   1      41.145  30.463  34.257  1.00  0.00     0.074 A 
ATOM     54  C   UNL A   1      44.124  26.470  30.312  1.00  0.00     0.029 A 
ATOM     55  N   UNL A   1      42.678  27.877  31.247  1.00  0.00    -0.354 N 
ATOM     56  N   UNL A   1      41.679  29.645  33.379  1.00  0.00    -0.248 NA
ATOM     57  C   UNL A   1      41.877  30.540  35.529  1.00  0.00     0.031 C 
ATOM     58  C   UNL A   1      44.556  26.749  31.614  1.00  0.00     0.029 A 
ATOM     59  C   UNL A   1      43.674  27.653  32.184  1.00  0.00     0.049 A 
ATOM     60  H   UNL A   1      41.902  28.467  31.378  1.00  0.00     0.167 HD
ATOM     61  C   UNL A   1      42.830  29.143  33.981  1.00  0.00     0.074 A 
ATOM     62  C   UNL A   1      42.911  29.746  35.295  1.00  0.00     0.031 C 
ATOM     63  C   UNL A   1      43.744  28.271  33.486  1.00  0.00     0.034 A 
BRANCH  50  64
ATOM     64  C   UNL A   1      42.464  26.232  27.768  1.00  0.00     0.023 A 
ATOM     65  C   UNL A   1      42.005  24.906  27.690  1.00  0.00     0.031 A 
ATOM     66  C   UNL A   1      43.319  26.694  26.752  1.00  0.00     0.131 A 
ATOM     67  C   UNL A   1      42.467  24.065  26.667  1.00  0.00     0.055 A 
ATOM     68  C   UNL A   1      43.709  25.876  25.689  1.00  0.00     0.041 A 
ATOM     69  F   UNL A   1      43.807  27.944  26.784  1.00  0.00    -0.206 F 
ATOM     70  C   UNL A   1      43.295  24.547  25.651  1.00  0.00     0.022 A 
BRANCH  67  71
ATOM     71  S   UNL A   1      42.090  22.294  26.769  1.00  0.00     0.124 S 
ATOM     72  O   UNL A   1      43.178  21.716  25.983  1.00  0.00    -0.237 OA
ATOM     73  O   UNL A   1      42.135  22.044  28.205  1.00  0.00    -0.237 OA
ATOM     74  O   UNL A   1      40.766  22.189  26.157  1.00  0.00    -0.744 OA
ENDBRANCH  67  71
ENDBRANCH  50  64
BRANCH  51  75
ATOM     75  C   UNL A   1      39.432  32.138  35.275  1.00  0.00     0.023 A 
ATOM     76  C   UNL A   1      39.905  33.446  35.464  1.00  0.00     0.031 A 
ATOM     77  C   UNL A   1      38.533  31.617  36.222  1.00  0.00     0.131 A 
ATOM     78  C   UNL A   1      39.514  34.174  36.599  1.00  0.00     0.055 A 
ATOM     79  C   UNL A   1      38.107  32.364  37.323  1.00  0.00     0.041 A 
ATOM     80  F   UNL A   1      38.047  30.373  36.086  1.00  0.00    -0.206 F 
ATOM     81  C   UNL A   1      38.609  33.646  37.523  1.00  0.00     0.022 A 
BRANCH  78  82
ATOM     82  S   UNL A   1      40.275  35.794  36.892  1.00  0.00     0.124 S 
ATOM     83  O   UNL A   1      41.691  35.493  36.712  1.00  0.00    -0.237 OA
ATOM     84  O   UNL A   1      39.654  36.611  35.855  1.00  0.00    -0.237 OA
ATOM     85  O   UNL A   1      39.874  36.116  38.261  1.00  0.00    -0.744 OA
ENDBRANCH  78  82
ENDBRANCH  51  75
BRANCH  63  86
ATOM     86  C   UNL A   1      44.949  27.977  34.341  1.00  0.00     0.023 A 
ATOM     87  C   UNL A   1      45.015  26.848  35.174  1.00  0.00     0.031 A 
ATOM     88  C   UNL A   1      46.059  28.839  34.298  1.00  0.00     0.131 A 
ATOM     89  C   UNL A   1      46.158  26.628  35.958  1.00  0.00     0.055 A 
ATOM     90  C   UNL A   1      47.210  28.592  35.046  1.00  0.00     0.041 A 
ATOM     91  F   UNL A   1      46.046  29.931  33.516  1.00  0.00    -0.206 F 
ATOM     92  C   UNL A   1      47.261  27.484  35.887  1.00  0.00     0.022 A 
BRANCH  89  93
ATOM     93  S   UNL A   1      46.173  25.225  37.108  1.00  0.00     0.124 S 
ATOM     94  O   UNL A   1      44.808  24.725  36.995  1.00  0.00    -0.237 OA
ATOM     95  O   UNL A   1      47.215  24.370  36.547  1.00  0.00    -0.237 OA
ATOM     96  O   UNL A   1      46.504  25.838  38.393  1.00  0.00    -0.744 OA
ENDBRANCH  89  93
ENDBRANCH  63  86
ENDBRANCH  37  38
ENDBRANCH  29  32
ENDBRANCH  27  28
ENDBRANCH  26  27
ENDBRANCH   1  26
TORSDOF 19
ENDMDL
MODEL 3
REMARK VINA RESULT:     -11.3      2.104      3.387
REMARK SMILES Nn1c(Cc2ccc(F)c(F)c2)nnc1SCC(=O)NCCCCNC(=O)c1ccc(-c2c3nc(c(-c4cc(S(=O)(=O)[O-])ccc4F)c4ccc([nH]4)c(-c4cc(S(=O)(=O)[O-])ccc4F)c4nc(c(-c5cc(S(=O)(=O)[O-])ccc5F)c5ccc2[nH]5)C=C4)C=C3)cc1
REMARK SMILES IDX 22 1 21 2 20 3 18 4 19 5 17 7 16 8 15 9 2 10 3 11 13 12
REMARK SMILES IDX 14 13 1 14 4 17 5 18 6 19 12 20 7 21 10 22 8 23 11 24 9 25
REMARK SMILES IDX 23 26 24 27 25 28 26 29 27 31 28 32 29 33 90 34 30 35 89 36
REMARK SMILES IDX 31 37 32 38 33 39 83 40 34 41 88 42 82 43 84 44 35 45 87 46
REMARK SMILES IDX 81 47 80 48 36 50 68 51 48 52 67 53 49 54 52 55 66 56 85 57
REMARK SMILES IDX 50 58 51 59 65 61 86 62 53 63 37 64 38 65 46 66 39 67 45 68
REMARK SMILES IDX 47 69 44 70 40 71 41 72 42 73 43 74 69 75 70 76 78 77 71 78
REMARK SMILES IDX 77 79 79 80 76 81 72 82 73 83 74 84 75 85 54 86 55 87 63 88
REMARK SMILES IDX 56 89 62 90 64 91 61 92 57 93 58 94 59 95 60 96
REMARK H PARENT 20 6 1 15 1 16 25 30 84 49 52 60
REMARK Flexibility Score: inf
ROOT
ATOM      1  C   UNL A   1      33.684  27.703  23.431  1.00  0.00     0.023 C 
ENDROOT
BRANCH   1   2
ATOM      2  C   UNL A   1      32.522  27.070  22.664  1.00  0.00     0.116 C 
BRANCH   2   3
ATOM      3  N   UNL A   1      31.698  28.081  22.026  1.00  0.00    -0.355 N 
ATOM      4  C   UNL A   1      30.488  28.572  22.406  1.00  0.00     0.230 C 
ATOM      5  O   UNL A   1      29.885  29.318  21.626  1.00  0.00    -0.274 OA
ATOM      6  H   UNL A   1      32.066  28.465  21.198  1.00  0.00     0.163 HD
BRANCH   4   7
ATOM      7  C   UNL A   1      29.910  28.255  23.768  1.00  0.00     0.178 C 
BRANCH   7   8
ATOM      8  S   UNL A   1      29.016  26.698  23.872  1.00  0.00    -0.074 SA
BRANCH   8   9
ATOM      9  C   UNL A   1      29.989  25.622  24.812  1.00  0.00     0.210 A 
ATOM     10  N   UNL A   1      30.494  24.397  24.432  1.00  0.00    -0.221 N 
ATOM     11  C   UNL A   1      31.072  23.870  25.571  1.00  0.00     0.157 A 
ATOM     12  N   UNL A   1      30.912  24.728  26.563  1.00  0.00    -0.132 NA
ATOM     13  N   UNL A   1      30.239  25.822  26.087  1.00  0.00    -0.121 NA
BRANCH  10  14
ATOM     14  N   UNL A   1      30.417  23.785  23.135  1.00  0.00    -0.336 N 
ATOM     15  H   UNL A   1      29.543  23.666  22.697  1.00  0.00     0.178 HD
ATOM     16  H   UNL A   1      31.239  23.484  22.683  1.00  0.00     0.178 HD
ENDBRANCH  10  14
BRANCH  11  17
ATOM     17  C   UNL A   1      31.683  22.512  25.674  1.00  0.00     0.115 C 
BRANCH  17  18
ATOM     18  C   UNL A   1      33.107  22.421  25.163  1.00  0.00    -0.037 A 
ATOM     19  C   UNL A   1      33.771  23.561  24.671  1.00  0.00     0.007 A 
ATOM     20  C   UNL A   1      33.797  21.199  25.191  1.00  0.00     0.046 A 
ATOM     21  C   UNL A   1      35.087  23.480  24.210  1.00  0.00     0.043 A 
ATOM     22  C   UNL A   1      35.114  21.129  24.739  1.00  0.00     0.159 A 
ATOM     23  C   UNL A   1      35.753  22.261  24.251  1.00  0.00     0.158 A 
ATOM     24  F   UNL A   1      35.761  19.957  24.793  1.00  0.00    -0.204 F 
ATOM     25  F   UNL A   1      37.021  22.191  23.823  1.00  0.00    -0.204 F 
ENDBRANCH  17  18
ENDBRANCH  11  17
ENDBRANCH   8   9
ENDBRANCH   7   8
ENDBRANCH   4   7
ENDBRANCH   2   3
ENDBRANCH   1   2
BRANCH   1  26
ATOM     26  C   UNL A   1      33.390  29.085  24.025  1.00  0.00     0.023 C 
BRANCH  26  27
ATOM     27  C   UNL A   1      33.208  29.127  25.538  1.00  0.00     0.116 C 
BRANCH  27  28
ATOM     28  N   UNL A   1      32.658  30.389  26.010  1.00  0.00    -0.352 N 
ATOM     29  C   UNL A   1      33.161  31.237  26.969  1.00  0.00     0.251 C 
ATOM     30  H   UNL A   1      31.815  30.672  25.588  1.00  0.00     0.163 HD
ATOM     31  O   UNL A   1      32.505  32.206  27.338  1.00  0.00    -0.269 OA
BRANCH  29  32
ATOM     32  C   UNL A   1      34.480  30.950  27.573  1.00  0.00     0.039 A 
ATOM     33  C   UNL A   1      35.417  31.981  27.683  1.00  0.00     0.014 A 
ATOM     34  C   UNL A   1      34.773  29.675  28.065  1.00  0.00     0.014 A 
ATOM     35  C   UNL A   1      36.621  31.755  28.356  1.00  0.00     0.010 A 
ATOM     36  C   UNL A   1      35.949  29.467  28.781  1.00  0.00     0.010 A 
ATOM     37  C   UNL A   1      36.879  30.507  28.946  1.00  0.00    -0.014 A 
BRANCH  37  38
ATOM     38  C   UNL A   1      38.108  30.248  29.740  1.00  0.00     0.031 A 
ATOM     39  C   UNL A   1      39.138  29.287  29.218  1.00  0.00     0.074 A 
ATOM     40  C   UNL A   1      38.246  30.789  30.966  1.00  0.00     0.049 A 
ATOM     41  N   UNL A   1      40.166  28.758  29.828  1.00  0.00    -0.248 NA
ATOM     42  C   UNL A   1      38.961  28.836  27.830  1.00  0.00     0.031 C 
ATOM     43  C   UNL A   1      37.313  31.731  31.587  1.00  0.00     0.029 A 
ATOM     44  N   UNL A   1      39.214  30.604  31.923  1.00  0.00    -0.354 N 
ATOM     45  C   UNL A   1      40.748  27.892  28.908  1.00  0.00     0.074 A 
ATOM     46  C   UNL A   1      39.927  27.936  27.716  1.00  0.00     0.031 C 
ATOM     47  C   UNL A   1      37.754  32.042  32.817  1.00  0.00     0.029 A 
ATOM     48  C   UNL A   1      38.969  31.281  33.096  1.00  0.00     0.049 A 
ATOM     49  H   UNL A   1      40.009  30.041  31.782  1.00  0.00     0.167 HD
ATOM     50  C   UNL A   1      41.868  27.140  29.044  1.00  0.00     0.034 A 
ATOM     51  C   UNL A   1      39.630  31.267  34.272  1.00  0.00     0.034 A 
ATOM     52  C   UNL A   1      42.683  27.120  30.233  1.00  0.00     0.049 A 
ATOM     53  C   UNL A   1      40.852  30.394  34.413  1.00  0.00     0.074 A 
ATOM     54  C   UNL A   1      43.854  26.421  30.467  1.00  0.00     0.029 A 
ATOM     55  N   UNL A   1      42.411  27.835  31.393  1.00  0.00    -0.354 N 
ATOM     56  N   UNL A   1      41.392  29.583  33.534  1.00  0.00    -0.248 NA
ATOM     57  C   UNL A   1      41.555  30.437  35.703  1.00  0.00     0.031 C 
ATOM     58  C   UNL A   1      44.261  26.670  31.783  1.00  0.00     0.029 A 
ATOM     59  C   UNL A   1      43.381  27.578  32.349  1.00  0.00     0.049 A 
ATOM     60  H   UNL A   1      41.641  28.437  31.518  1.00  0.00     0.167 HD
ATOM     61  C   UNL A   1      42.520  29.051  34.153  1.00  0.00     0.074 A 
ATOM     62  C   UNL A   1      42.581  29.629  35.479  1.00  0.00     0.031 C 
ATOM     63  C   UNL A   1      43.431  28.172  33.663  1.00  0.00     0.034 A 
BRANCH  50  64
ATOM     64  C   UNL A   1      42.251  26.255  27.882  1.00  0.00     0.023 A 
ATOM     65  C   UNL A   1      41.864  24.906  27.826  1.00  0.00     0.031 A 
ATOM     66  C   UNL A   1      43.045  26.758  26.836  1.00  0.00     0.131 A 
ATOM     67  C   UNL A   1      42.338  24.084  26.792  1.00  0.00     0.055 A 
ATOM     68  C   UNL A   1      43.444  25.955  25.765  1.00  0.00     0.041 A 
ATOM     69  F   UNL A   1      43.462  28.033  26.846  1.00  0.00    -0.206 F 
ATOM     70  C   UNL A   1      43.105  24.605  25.748  1.00  0.00     0.022 A 
BRANCH  67  71
ATOM     71  S   UNL A   1      42.065  22.296  26.916  1.00  0.00     0.124 S 
ATOM     72  O   UNL A   1      43.358  21.770  26.485  1.00  0.00    -0.237 OA
ATOM     73  O   UNL A   1      41.742  22.122  28.327  1.00  0.00    -0.237 OA
ATOM     74  O   UNL A   1      40.962  22.053  25.987  1.00  0.00    -0.744 OA
ENDBRANCH  67  71
ENDBRANCH  50  64
BRANCH  51  75
ATOM     75  C   UNL A   1      39.143  32.080  35.422  1.00  0.00     0.023 A 
ATOM     76  C   UNL A   1      38.510  31.470  36.517  1.00  0.00     0.031 A 
ATOM     77  C   UNL A   1      39.265  33.480  35.425  1.00  0.00     0.131 A 
ATOM     78  C   UNL A   1      37.981  32.261  37.548  1.00  0.00     0.055 A 
ATOM     79  C   UNL A   1      38.781  34.260  36.478  1.00  0.00     0.041 A 
ATOM     80  F   UNL A   1      39.865  34.113  34.405  1.00  0.00    -0.206 F 
ATOM     81  C   UNL A   1      38.123  33.651  37.542  1.00  0.00     0.022 A 
BRANCH  78  82
ATOM     82  S   UNL A   1      37.028  31.449  38.860  1.00  0.00     0.124 S 
ATOM     83  O   UNL A   1      35.809  32.250  38.879  1.00  0.00    -0.237 OA
ATOM     84  O   UNL A   1      36.896  30.091  38.342  1.00  0.00    -0.237 OA
ATOM     85  O   UNL A   1      37.883  31.585  40.037  1.00  0.00    -0.744 OA
ENDBRANCH  78  82
ENDBRANCH  51  75
BRANCH  63  86
ATOM     86  C   UNL A   1      44.611  27.843  34.540  1.00  0.00     0.023 A 
ATOM     87  C   UNL A   1      44.584  26.779  35.458  1.00  0.00     0.031 A 
ATOM     88  C   UNL A   1      45.790  28.602  34.433  1.00  0.00     0.131 A 
ATOM     89  C   UNL A   1      45.708  26.523  36.258  1.00  0.00     0.055 A 
ATOM     90  C   UNL A   1      46.919  28.315  35.199  1.00  0.00     0.041 A 
ATOM     91  F   UNL A   1      45.865  29.628  33.569  1.00  0.00    -0.206 F 
ATOM     92  C   UNL A   1      46.880  27.274  36.123  1.00  0.00     0.022 A 
BRANCH  89  93
ATOM     93  S   UNL A   1      45.610  25.217  37.511  1.00  0.00     0.124 S 
ATOM     94  O   UNL A   1      46.735  25.546  38.381  1.00  0.00    -0.237 OA
ATOM     95  O   UNL A   1      44.282  25.424  38.079  1.00  0.00    -0.237 OA
ATOM     96  O   UNL A   1      45.765  23.985  36.738  1.00  0.00    -0.744 OA
ENDBRANCH  89  93
ENDBRANCH  63  86
ENDBRANCH  37  38
ENDBRANCH  29  32
ENDBRANCH  27  28
ENDBRANCH  26  27
ENDBRANCH   1  26
TORSDOF 19
ENDMDL
