MODEL 1
REMARK VINA RESULT:     -12.1      0.000      0.000
REMARK SMILES CC[C@](C)(NC(=O)N1Cc2ccccc2C1)C(=O)NCCCCNC(=O)c1ccc(-c2c3nc(c(-c4cc(S(=O)(=O)[O-])ccc4F)c4ccc([nH]4)c(-c4cc(S(=O)(=O)[O-])ccc4F)c4nc(c(-c5cc(S(=O)(=O)[O-])ccc5F)c5ccc2[nH]5)C=C4)C=C3)cc1
REMARK SMILES IDX 22 1 21 2 20 3 19 4 17 5 18 6 3 8 4 9 2 10 1 11 5 12 6 13
REMARK SMILES IDX 7 15 8 16 9 17 16 18 10 19 15 20 11 21 14 22 12 23 13 24
REMARK SMILES IDX 23 25 24 26 25 27 26 29 27 30 28 31 89 32 29 33 88 34 30 35
REMARK SMILES IDX 31 36 32 37 82 38 33 39 87 40 81 41 83 42 34 43 86 44 80 45
REMARK SMILES IDX 79 46 35 48 67 49 47 50 66 51 48 52 51 53 65 54 84 55 49 56
REMARK SMILES IDX 50 57 64 59 85 60 52 61 36 62 37 63 45 64 38 65 44 66 46 67
REMARK SMILES IDX 43 68 39 69 40 70 41 71 42 72 68 73 69 74 77 75 70 76 76 77
REMARK SMILES IDX 78 78 75 79 71 80 72 81 73 82 74 83 53 84 54 85 62 86 55 87
REMARK SMILES IDX 61 88 63 89 60 90 56 91 57 92 58 93 59 94
REMARK H PARENT 19 7 5 14 24 28 83 47 51 58
REMARK Flexibility Score: inf
ROOT
ATOM      1  C   UNL A   1      31.320  32.291  26.683  1.00  0.00     0.023 C 
ENDROOT
BRANCH   1   2
ATOM      2  C   UNL A   1      31.393  31.039  25.811  1.00  0.00     0.023 C 
BRANCH   2   3
ATOM      3  C   UNL A   1      32.547  30.057  26.020  1.00  0.00     0.116 C 
BRANCH   3   4
ATOM      4  N   UNL A   1      33.307  29.638  24.853  1.00  0.00    -0.354 N 
ATOM      5  C   UNL A   1      32.982  28.880  23.758  1.00  0.00     0.245 C 
ATOM      6  O   UNL A   1      33.782  28.910  22.816  1.00  0.00    -0.272 OA
ATOM      7  H   UNL A   1      34.237  29.961  24.850  1.00  0.00     0.163 HD
BRANCH   5   8
ATOM      8  C   UNL A   1      31.631  28.118  23.643  1.00  0.00     0.117 C 
ATOM      9  C   UNL A   1      31.717  26.898  22.700  1.00  0.00     0.045 C 
BRANCH   8  10
ATOM     10  C   UNL A   1      30.694  29.170  22.949  1.00  0.00     0.035 C 
ATOM     11  C   UNL A   1      29.192  28.993  23.114  1.00  0.00     0.007 C 
ENDBRANCH   8  10
BRANCH   8  12
ATOM     12  N   UNL A   1      31.119  27.661  24.952  1.00  0.00    -0.324 N 
ATOM     13  C   UNL A   1      31.183  26.501  25.647  1.00  0.00     0.318 C 
ATOM     14  H   UNL A   1      30.617  28.361  25.428  1.00  0.00     0.166 HD
ATOM     15  O   UNL A   1      30.279  26.346  26.476  1.00  0.00    -0.249 OA
ATOM     16  N   UNL A   1      32.171  25.581  25.510  1.00  0.00    -0.316 N 
ATOM     17  C   UNL A   1      32.178  24.406  26.403  1.00  0.00     0.157 C 
ATOM     18  C   UNL A   1      33.412  25.637  24.745  1.00  0.00     0.157 C 
ATOM     19  C   UNL A   1      33.560  23.842  26.272  1.00  0.00    -0.023 A 
ATOM     20  C   UNL A   1      34.269  24.558  25.310  1.00  0.00    -0.023 A 
ATOM     21  C   UNL A   1      34.178  22.826  26.980  1.00  0.00     0.006 A 
ATOM     22  C   UNL A   1      35.609  24.317  25.049  1.00  0.00     0.006 A 
ATOM     23  C   UNL A   1      35.531  22.565  26.724  1.00  0.00     0.000 A 
ATOM     24  C   UNL A   1      36.244  23.311  25.772  1.00  0.00     0.000 A 
ENDBRANCH   8  12
ENDBRANCH   5   8
ENDBRANCH   3   4
ENDBRANCH   2   3
ENDBRANCH   1   2
BRANCH   1  25
ATOM     25  C   UNL A   1      32.634  32.809  27.243  1.00  0.00     0.116 C 
BRANCH  25  26
ATOM     26  N   UNL A   1      32.546  34.190  27.677  1.00  0.00    -0.352 N 
ATOM     27  C   UNL A   1      33.241  34.847  28.664  1.00  0.00     0.251 C 
ATOM     28  H   UNL A   1      31.889  34.740  27.192  1.00  0.00     0.163 HD
ATOM     29  O   UNL A   1      32.889  35.979  28.985  1.00  0.00    -0.269 OA
BRANCH  27  30
ATOM     30  C   UNL A   1      34.382  34.198  29.354  1.00  0.00     0.039 A 
ATOM     31  C   UNL A   1      35.676  34.460  28.896  1.00  0.00     0.014 A 
ATOM     32  C   UNL A   1      34.189  33.311  30.418  1.00  0.00     0.014 A 
ATOM     33  C   UNL A   1      36.775  33.876  29.533  1.00  0.00     0.010 A 
ATOM     34  C   UNL A   1      35.288  32.785  31.097  1.00  0.00     0.010 A 
ATOM     35  C   UNL A   1      36.593  33.053  30.656  1.00  0.00    -0.014 A 
BRANCH  35  36
ATOM     36  C   UNL A   1      37.752  32.447  31.364  1.00  0.00     0.031 A 
ATOM     37  C   UNL A   1      38.497  31.295  30.742  1.00  0.00     0.074 A 
ATOM     38  C   UNL A   1      38.100  32.894  32.587  1.00  0.00     0.049 A 
ATOM     39  N   UNL A   1      39.479  30.582  31.230  1.00  0.00    -0.248 NA
ATOM     40  C   UNL A   1      38.057  30.874  29.404  1.00  0.00     0.031 C 
ATOM     41  C   UNL A   1      37.438  33.982  33.310  1.00  0.00     0.029 A 
ATOM     42  N   UNL A   1      39.093  32.486  33.444  1.00  0.00    -0.354 N 
ATOM     43  C   UNL A   1      39.764  29.617  30.269  1.00  0.00     0.074 A 
ATOM     44  C   UNL A   1      38.810  29.805  29.196  1.00  0.00     0.031 C 
ATOM     45  C   UNL A   1      38.055  34.168  34.487  1.00  0.00     0.029 A 
ATOM     46  C   UNL A   1      39.126  33.186  34.628  1.00  0.00     0.049 A 
ATOM     47  H   UNL A   1      39.723  31.760  33.231  1.00  0.00     0.167 HD
ATOM     48  C   UNL A   1      40.743  28.678  30.270  1.00  0.00     0.034 A 
ATOM     49  C   UNL A   1      39.919  33.046  35.709  1.00  0.00     0.034 A 
ATOM     50  C   UNL A   1      41.698  28.515  31.340  1.00  0.00     0.049 A 
ATOM     51  C   UNL A   1      40.985  31.979  35.698  1.00  0.00     0.074 A 
ATOM     52  C   UNL A   1      42.763  27.636  31.419  1.00  0.00     0.029 A 
ATOM     53  N   UNL A   1      41.699  29.243  32.524  1.00  0.00    -0.354 N 
ATOM     54  N   UNL A   1      41.270  31.105  34.760  1.00  0.00    -0.248 NA
ATOM     55  C   UNL A   1      41.842  31.888  36.887  1.00  0.00     0.031 C 
ATOM     56  C   UNL A   1      43.365  27.784  32.673  1.00  0.00     0.029 A 
ATOM     57  C   UNL A   1      42.726  28.810  33.349  1.00  0.00     0.049 A 
ATOM     58  H   UNL A   1      41.063  29.961  32.744  1.00  0.00     0.167 HD
ATOM     59  C   UNL A   1      42.362  30.382  35.235  1.00  0.00     0.074 A 
ATOM     60  C   UNL A   1      42.690  30.932  36.534  1.00  0.00     0.031 C 
ATOM     61  C   UNL A   1      43.036  29.360  34.648  1.00  0.00     0.034 A 
BRANCH  48  62
ATOM     62  C   UNL A   1      40.807  27.739  29.088  1.00  0.00     0.023 A 
ATOM     63  C   UNL A   1      41.734  27.920  28.047  1.00  0.00     0.031 A 
ATOM     64  C   UNL A   1      39.911  26.659  28.987  1.00  0.00     0.131 A 
ATOM     65  C   UNL A   1      41.693  27.090  26.916  1.00  0.00     0.055 A 
ATOM     66  C   UNL A   1      39.930  25.785  27.898  1.00  0.00     0.041 A 
ATOM     67  F   UNL A   1      38.989  26.444  29.939  1.00  0.00    -0.206 F 
ATOM     68  C   UNL A   1      40.814  26.008  26.846  1.00  0.00     0.022 A 
BRANCH  65  69
ATOM     69  S   UNL A   1      42.701  27.537  25.477  1.00  0.00     0.124 S 
ATOM     70  O   UNL A   1      42.046  28.762  25.027  1.00  0.00    -0.237 OA
ATOM     71  O   UNL A   1      44.029  27.698  26.059  1.00  0.00    -0.237 OA
ATOM     72  O   UNL A   1      42.547  26.391  24.581  1.00  0.00    -0.744 OA
ENDBRANCH  65  69
ENDBRANCH  48  62
BRANCH  49  73
ATOM     73  C   UNL A   1      39.736  33.924  36.901  1.00  0.00     0.023 A 
ATOM     74  C   UNL A   1      39.143  33.435  38.074  1.00  0.00     0.031 A 
ATOM     75  C   UNL A   1      40.113  35.279  36.867  1.00  0.00     0.131 A 
ATOM     76  C   UNL A   1      38.897  34.302  39.150  1.00  0.00     0.055 A 
ATOM     77  C   UNL A   1      39.916  36.126  37.960  1.00  0.00     0.041 A 
ATOM     78  F   UNL A   1      40.689  35.798  35.770  1.00  0.00    -0.206 F 
ATOM     79  C   UNL A   1      39.293  35.641  39.105  1.00  0.00     0.022 A 
BRANCH  76  80
ATOM     80  S   UNL A   1      37.975  33.674  40.579  1.00  0.00     0.124 S 
ATOM     81  O   UNL A   1      38.918  32.716  41.144  1.00  0.00    -0.237 OA
ATOM     82  O   UNL A   1      37.752  34.890  41.354  1.00  0.00    -0.237 OA
ATOM     83  O   UNL A   1      36.776  33.091  39.980  1.00  0.00    -0.744 OA
ENDBRANCH  76  80
ENDBRANCH  49  73
BRANCH  61  84
ATOM     84  C   UNL A   1      44.225  28.807  35.394  1.00  0.00     0.023 A 
ATOM     85  C   UNL A   1      44.084  27.832  36.398  1.00  0.00     0.031 A 
ATOM     86  C   UNL A   1      45.520  29.272  35.102  1.00  0.00     0.131 A 
ATOM     87  C   UNL A   1      45.209  27.396  37.113  1.00  0.00     0.055 A 
ATOM     88  C   UNL A   1      46.644  28.790  35.775  1.00  0.00     0.041 A 
ATOM     89  F   UNL A   1      45.714  30.203  34.155  1.00  0.00    -0.206 F 
ATOM     90  C   UNL A   1      46.490  27.857  36.796  1.00  0.00     0.022 A 
BRANCH  87  91
ATOM     91  S   UNL A   1      44.969  26.283  38.524  1.00  0.00     0.124 S 
ATOM     92  O   UNL A   1      45.897  26.833  39.507  1.00  0.00    -0.237 OA
ATOM     93  O   UNL A   1      43.550  26.455  38.821  1.00  0.00    -0.237 OA
ATOM     94  O   UNL A   1      45.334  24.971  37.993  1.00  0.00    -0.744 OA
ENDBRANCH  87  91
ENDBRANCH  61  84
ENDBRANCH  35  36
ENDBRANCH  27  30
ENDBRANCH  25  26
ENDBRANCH   1  25
TORSDOF 16
ENDMDL
MODEL 2
REMARK VINA RESULT:     -12.0      5.238      8.554
REMARK SMILES CC[C@](C)(NC(=O)N1Cc2ccccc2C1)C(=O)NCCCCNC(=O)c1ccc(-c2c3nc(c(-c4cc(S(=O)(=O)[O-])ccc4F)c4ccc([nH]4)c(-c4cc(S(=O)(=O)[O-])ccc4F)c4nc(c(-c5cc(S(=O)(=O)[O-])ccc5F)c5ccc2[nH]5)C=C4)C=C3)cc1
REMARK SMILES IDX 22 1 21 2 20 3 19 4 17 5 18 6 3 8 4 9 2 10 1 11 5 12 6 13
REMARK SMILES IDX 7 15 8 16 9 17 16 18 10 19 15 20 11 21 14 22 12 23 13 24
REMARK SMILES IDX 23 25 24 26 25 27 26 29 27 30 28 31 89 32 29 33 88 34 30 35
REMARK SMILES IDX 31 36 32 37 82 38 33 39 87 40 81 41 83 42 34 43 86 44 80 45
REMARK SMILES IDX 79 46 35 48 67 49 47 50 66 51 48 52 51 53 65 54 84 55 49 56
REMARK SMILES IDX 50 57 64 59 85 60 52 61 36 62 37 63 45 64 38 65 44 66 46 67
REMARK SMILES IDX 43 68 39 69 40 70 41 71 42 72 68 73 69 74 77 75 70 76 76 77
REMARK SMILES IDX 78 78 75 79 71 80 72 81 73 82 74 83 53 84 54 85 62 86 55 87
REMARK SMILES IDX 61 88 63 89 60 90 56 91 57 92 58 93 59 94
REMARK H PARENT 19 7 5 14 24 28 83 47 51 58
REMARK Flexibility Score: inf
ROOT
ATOM      1  C   UNL A   1      35.541  23.676  25.919  1.00  0.00     0.023 C 
ENDROOT
BRANCH   1   2
ATOM      2  C   UNL A   1      34.307  24.280  25.253  1.00  0.00     0.023 C 
BRANCH   2   3
ATOM      3  C   UNL A   1      34.086  25.792  25.337  1.00  0.00     0.116 C 
BRANCH   3   4
ATOM      4  N   UNL A   1      32.978  26.276  26.146  1.00  0.00    -0.354 N 
ATOM      5  C   UNL A   1      32.551  27.536  26.475  1.00  0.00     0.245 C 
ATOM      6  O   UNL A   1      31.426  27.617  26.982  1.00  0.00    -0.272 OA
ATOM      7  H   UNL A   1      32.429  25.557  26.534  1.00  0.00     0.163 HD
BRANCH   5   8
ATOM      8  C   UNL A   1      33.370  28.811  26.126  1.00  0.00     0.117 C 
ATOM      9  C   UNL A   1      34.672  28.921  26.950  1.00  0.00     0.045 C 
BRANCH   8  10
ATOM     10  C   UNL A   1      32.427  29.973  26.601  1.00  0.00     0.035 C 
ATOM     11  C   UNL A   1      33.056  31.111  27.392  1.00  0.00     0.007 C 
ENDBRANCH   8  10
BRANCH   8  12
ATOM     12  N   UNL A   1      33.717  28.894  24.693  1.00  0.00    -0.324 N 
ATOM     13  C   UNL A   1      33.012  28.851  23.537  1.00  0.00     0.318 C 
ATOM     14  H   UNL A   1      34.683  29.008  24.542  1.00  0.00     0.166 HD
ATOM     15  O   UNL A   1      33.665  28.504  22.547  1.00  0.00    -0.249 OA
ATOM     16  N   UNL A   1      31.706  29.201  23.426  1.00  0.00    -0.316 N 
ATOM     17  C   UNL A   1      31.082  29.206  22.089  1.00  0.00     0.157 C 
ATOM     18  C   UNL A   1      30.804  29.803  24.402  1.00  0.00     0.157 C 
ATOM     19  C   UNL A   1      29.824  30.000  22.264  1.00  0.00    -0.023 A 
ATOM     20  C   UNL A   1      29.668  30.342  23.605  1.00  0.00    -0.023 A 
ATOM     21  C   UNL A   1      28.915  30.449  21.321  1.00  0.00     0.006 A 
ATOM     22  C   UNL A   1      28.639  31.162  24.044  1.00  0.00     0.006 A 
ATOM     23  C   UNL A   1      27.866  31.273  21.748  1.00  0.00     0.000 A 
ATOM     24  C   UNL A   1      27.734  31.635  23.098  1.00  0.00     0.000 A 
ENDBRANCH   8  12
ENDBRANCH   5   8
ENDBRANCH   3   4
ENDBRANCH   2   3
ENDBRANCH   1   2
BRANCH   1  25
ATOM     25  C   UNL A   1      36.839  23.737  25.133  1.00  0.00     0.116 C 
BRANCH  25  26
ATOM     26  N   UNL A   1      37.772  22.695  25.521  1.00  0.00    -0.352 N 
ATOM     27  C   UNL A   1      38.976  22.793  26.177  1.00  0.00     0.251 C 
ATOM     28  H   UNL A   1      37.502  21.781  25.277  1.00  0.00     0.163 HD
ATOM     29  O   UNL A   1      39.691  21.798  26.255  1.00  0.00    -0.269 OA
BRANCH  27  30
ATOM     30  C   UNL A   1      39.423  24.081  26.760  1.00  0.00     0.039 A 
ATOM     31  C   UNL A   1      40.137  24.968  25.949  1.00  0.00     0.014 A 
ATOM     32  C   UNL A   1      39.180  24.406  28.098  1.00  0.00     0.014 A 
ATOM     33  C   UNL A   1      40.561  26.197  26.462  1.00  0.00     0.010 A 
ATOM     34  C   UNL A   1      39.542  25.661  28.588  1.00  0.00     0.010 A 
ATOM     35  C   UNL A   1      40.245  26.567  27.779  1.00  0.00    -0.014 A 
BRANCH  35  36
ATOM     36  C   UNL A   1      40.663  27.883  28.333  1.00  0.00     0.031 A 
ATOM     37  C   UNL A   1      42.124  28.184  28.540  1.00  0.00     0.074 A 
ATOM     38  C   UNL A   1      39.730  28.784  28.699  1.00  0.00     0.049 A 
ATOM     39  N   UNL A   1      42.686  29.235  29.080  1.00  0.00    -0.248 NA
ATOM     40  C   UNL A   1      43.076  27.150  28.108  1.00  0.00     0.031 C 
ATOM     41  C   UNL A   1      38.282  28.598  28.578  1.00  0.00     0.029 A 
ATOM     42  N   UNL A   1      39.857  30.033  29.254  1.00  0.00    -0.354 N 
ATOM     43  C   UNL A   1      44.055  28.983  29.068  1.00  0.00     0.074 A 
ATOM     44  C   UNL A   1      44.229  27.654  28.520  1.00  0.00     0.031 C 
ATOM     45  C   UNL A   1      37.659  29.700  29.023  1.00  0.00     0.029 A 
ATOM     46  C   UNL A   1      38.654  30.653  29.506  1.00  0.00     0.049 A 
ATOM     47  H   UNL A   1      40.727  30.448  29.454  1.00  0.00     0.167 HD
ATOM     48  C   UNL A   1      45.072  29.792  29.457  1.00  0.00     0.034 A 
ATOM     49  C   UNL A   1      38.383  31.846  30.071  1.00  0.00     0.034 A 
ATOM     50  C   UNL A   1      44.883  31.122  29.986  1.00  0.00     0.049 A 
ATOM     51  C   UNL A   1      39.529  32.719  30.518  1.00  0.00     0.074 A 
ATOM     52  C   UNL A   1      45.842  32.047  30.357  1.00  0.00     0.029 A 
ATOM     53  N   UNL A   1      43.649  31.715  30.226  1.00  0.00    -0.354 N 
ATOM     54  N   UNL A   1      40.820  32.483  30.457  1.00  0.00    -0.248 NA
ATOM     55  C   UNL A   1      39.181  34.022  31.100  1.00  0.00     0.031 C 
ATOM     56  C   UNL A   1      45.192  33.169  30.883  1.00  0.00     0.029 A 
ATOM     57  C   UNL A   1      43.825  32.979  30.770  1.00  0.00     0.049 A 
ATOM     58  H   UNL A   1      42.777  31.298  30.038  1.00  0.00     0.167 HD
ATOM     59  C   UNL A   1      41.437  33.625  30.963  1.00  0.00     0.074 A 
ATOM     60  C   UNL A   1      40.378  34.550  31.312  1.00  0.00     0.031 C 
ATOM     61  C   UNL A   1      42.759  33.887  31.122  1.00  0.00     0.034 A 
BRANCH  48  62
ATOM     62  C   UNL A   1      46.476  29.245  29.349  1.00  0.00     0.023 A 
ATOM     63  C   UNL A   1      47.260  29.438  28.198  1.00  0.00     0.031 A 
ATOM     64  C   UNL A   1      47.032  28.496  30.403  1.00  0.00     0.131 A 
ATOM     65  C   UNL A   1      48.518  28.825  28.094  1.00  0.00     0.055 A 
ATOM     66  C   UNL A   1      48.318  27.959  30.327  1.00  0.00     0.041 A 
ATOM     67  F   UNL A   1      46.326  28.260  31.520  1.00  0.00    -0.206 F 
ATOM     68  C   UNL A   1      49.064  28.108  29.161  1.00  0.00     0.022 A 
BRANCH  65  69
ATOM     69  S   UNL A   1      49.365  28.854  26.491  1.00  0.00     0.124 S 
ATOM     70  O   UNL A   1      49.811  30.243  26.418  1.00  0.00    -0.237 OA
ATOM     71  O   UNL A   1      50.413  27.854  26.669  1.00  0.00    -0.237 OA
ATOM     72  O   UNL A   1      48.314  28.493  25.541  1.00  0.00    -0.744 OA
ENDBRANCH  65  69
ENDBRANCH  48  62
BRANCH  49  73
ATOM     73  C   UNL A   1      36.971  32.289  30.263  1.00  0.00     0.023 A 
ATOM     74  C   UNL A   1      36.311  33.043  29.280  1.00  0.00     0.031 A 
ATOM     75  C   UNL A   1      36.277  32.002  31.452  1.00  0.00     0.131 A 
ATOM     76  C   UNL A   1      35.016  33.526  29.521  1.00  0.00     0.055 A 
ATOM     77  C   UNL A   1      34.968  32.439  31.665  1.00  0.00     0.041 A 
ATOM     78  F   UNL A   1      36.860  31.281  32.423  1.00  0.00    -0.206 F 
ATOM     79  C   UNL A   1      34.335  33.218  30.701  1.00  0.00     0.022 A 
BRANCH  76  80
ATOM     80  S   UNL A   1      34.264  34.637  28.302  1.00  0.00     0.124 S 
ATOM     81  O   UNL A   1      34.571  35.948  28.864  1.00  0.00    -0.237 OA
ATOM     82  O   UNL A   1      34.979  34.278  27.082  1.00  0.00    -0.237 OA
ATOM     83  O   UNL A   1      32.851  34.262  28.326  1.00  0.00    -0.744 OA
ENDBRANCH  76  80
ENDBRANCH  49  73
BRANCH  61  84
ATOM     84  C   UNL A   1      43.128  35.251  31.654  1.00  0.00     0.023 A 
ATOM     85  C   UNL A   1      43.489  36.308  30.799  1.00  0.00     0.031 A 
ATOM     86  C   UNL A   1      43.128  35.491  33.039  1.00  0.00     0.131 A 
ATOM     87  C   UNL A   1      43.890  37.538  31.340  1.00  0.00     0.055 A 
ATOM     88  C   UNL A   1      43.470  36.736  33.570  1.00  0.00     0.041 A 
ATOM     89  F   UNL A   1      42.793  34.518  33.902  1.00  0.00    -0.206 F 
ATOM     90  C   UNL A   1      43.867  37.764  32.720  1.00  0.00     0.022 A 
BRANCH  87  91
ATOM     91  S   UNL A   1      44.530  38.815  30.223  1.00  0.00     0.124 S 
ATOM     92  O   UNL A   1      45.941  38.457  30.128  1.00  0.00    -0.237 OA
ATOM     93  O   UNL A   1      43.736  38.602  29.017  1.00  0.00    -0.237 OA
ATOM     94  O   UNL A   1      44.253  40.063  30.933  1.00  0.00    -0.744 OA
ENDBRANCH  87  91
ENDBRANCH  61  84
ENDBRANCH  35  36
ENDBRANCH  27  30
ENDBRANCH  25  26
ENDBRANCH   1  25
TORSDOF 16
ENDMDL
MODEL 3
REMARK VINA RESULT:     -12.0      5.795      8.660
REMARK SMILES CC[C@](C)(NC(=O)N1Cc2ccccc2C1)C(=O)NCCCCNC(=O)c1ccc(-c2c3nc(c(-c4cc(S(=O)(=O)[O-])ccc4F)c4ccc([nH]4)c(-c4cc(S(=O)(=O)[O-])ccc4F)c4nc(c(-c5cc(S(=O)(=O)[O-])ccc5F)c5ccc2[nH]5)C=C4)C=C3)cc1
REMARK SMILES IDX 22 1 21 2 20 3 19 4 17 5 18 6 3 8 4 9 2 10 1 11 5 12 6 13
REMARK SMILES IDX 7 15 8 16 9 17 16 18 10 19 15 20 11 21 14 22 12 23 13 24
REMARK SMILES IDX 23 25 24 26 25 27 26 29 27 30 28 31 89 32 29 33 88 34 30 35
REMARK SMILES IDX 31 36 32 37 82 38 33 39 87 40 81 41 83 42 34 43 86 44 80 45
REMARK SMILES IDX 79 46 35 48 67 49 47 50 66 51 48 52 51 53 65 54 84 55 49 56
REMARK SMILES IDX 50 57 64 59 85 60 52 61 36 62 37 63 45 64 38 65 44 66 46 67
REMARK SMILES IDX 43 68 39 69 40 70 41 71 42 72 68 73 69 74 77 75 70 76 76 77
REMARK SMILES IDX 78 78 75 79 71 80 72 81 73 82 74 83 53 84 54 85 62 86 55 87
REMARK SMILES IDX 61 88 63 89 60 90 56 91 57 92 58 93 59 94
REMARK H PARENT 19 7 5 14 24 28 83 47 51 58
REMARK Flexibility Score: inf
ROOT
ATOM      1  C   UNL A   1      36.545  21.829  24.295  1.00  0.00     0.023 C 
ENDROOT
BRANCH   1   2
ATOM      2  C   UNL A   1      36.181  23.074  23.489  1.00  0.00     0.023 C 
BRANCH   2   3
ATOM      3  C   UNL A   1      35.179  24.069  24.077  1.00  0.00     0.116 C 
BRANCH   3   4
ATOM      4  N   UNL A   1      33.835  24.095  23.521  1.00  0.00    -0.354 N 
ATOM      5  C   UNL A   1      32.599  24.264  24.088  1.00  0.00     0.245 C 
ATOM      6  O   UNL A   1      31.665  24.482  23.308  1.00  0.00    -0.272 OA
ATOM      7  H   UNL A   1      33.809  23.964  22.545  1.00  0.00     0.163 HD
BRANCH   5   8
ATOM      8  C   UNL A   1      32.388  24.302  25.628  1.00  0.00     0.117 C 
ATOM      9  C   UNL A   1      30.965  23.867  26.042  1.00  0.00     0.045 C 
BRANCH   8  10
ATOM     10  C   UNL A   1      32.514  25.832  25.960  1.00  0.00     0.035 C 
ATOM     11  C   UNL A   1      31.236  26.658  25.970  1.00  0.00     0.007 C 
ENDBRANCH   8  10
BRANCH   8  12
ATOM     12  N   UNL A   1      33.363  23.468  26.361  1.00  0.00    -0.324 N 
ATOM     13  C   UNL A   1      33.502  22.139  26.585  1.00  0.00     0.318 C 
ATOM     14  H   UNL A   1      34.076  24.000  26.782  1.00  0.00     0.166 HD
ATOM     15  O   UNL A   1      34.160  21.852  27.591  1.00  0.00    -0.249 OA
ATOM     16  N   UNL A   1      33.017  21.172  25.766  1.00  0.00    -0.316 N 
ATOM     17  C   UNL A   1      33.328  19.762  26.071  1.00  0.00     0.157 C 
ATOM     18  C   UNL A   1      32.386  21.274  24.455  1.00  0.00     0.157 C 
ATOM     19  C   UNL A   1      33.011  19.025  24.805  1.00  0.00    -0.023 A 
ATOM     20  C   UNL A   1      32.465  19.906  23.874  1.00  0.00    -0.023 A 
ATOM     21  C   UNL A   1      33.239  17.703  24.463  1.00  0.00     0.006 A 
ATOM     22  C   UNL A   1      32.167  19.518  22.577  1.00  0.00     0.006 A 
ATOM     23  C   UNL A   1      32.937  17.293  23.158  1.00  0.00     0.000 A 
ATOM     24  C   UNL A   1      32.413  18.196  22.218  1.00  0.00     0.000 A 
ENDBRANCH   8  12
ENDBRANCH   5   8
ENDBRANCH   3   4
ENDBRANCH   2   3
ENDBRANCH   1   2
BRANCH   1  25
ATOM     25  C   UNL A   1      37.076  22.056  25.699  1.00  0.00     0.116 C 
BRANCH  25  26
ATOM     26  N   UNL A   1      38.120  21.113  26.058  1.00  0.00    -0.352 N 
ATOM     27  C   UNL A   1      39.401  21.346  26.496  1.00  0.00     0.251 C 
ATOM     28  H   UNL A   1      37.873  20.164  25.973  1.00  0.00     0.163 HD
ATOM     29  O   UNL A   1      40.180  20.400  26.580  1.00  0.00    -0.269 OA
BRANCH  27  30
ATOM     30  C   UNL A   1      39.853  22.716  26.839  1.00  0.00     0.039 A 
ATOM     31  C   UNL A   1      40.821  22.870  27.835  1.00  0.00     0.014 A 
ATOM     32  C   UNL A   1      39.310  23.845  26.218  1.00  0.00     0.014 A 
ATOM     33  C   UNL A   1      41.280  24.147  28.173  1.00  0.00     0.010 A 
ATOM     34  C   UNL A   1      39.819  25.112  26.506  1.00  0.00     0.010 A 
ATOM     35  C   UNL A   1      40.802  25.278  27.493  1.00  0.00    -0.014 A 
BRANCH  35  36
ATOM     36  C   UNL A   1      41.301  26.642  27.818  1.00  0.00     0.031 A 
ATOM     37  C   UNL A   1      42.712  27.032  27.464  1.00  0.00     0.074 A 
ATOM     38  C   UNL A   1      40.507  27.507  28.478  1.00  0.00     0.049 A 
ATOM     39  N   UNL A   1      43.358  28.138  27.731  1.00  0.00    -0.248 NA
ATOM     40  C   UNL A   1      43.509  26.032  26.739  1.00  0.00     0.031 C 
ATOM     41  C   UNL A   1      39.132  27.236  28.904  1.00  0.00     0.029 A 
ATOM     42  N   UNL A   1      40.741  28.788  28.915  1.00  0.00    -0.354 N 
ATOM     43  C   UNL A   1      44.641  27.962  27.223  1.00  0.00     0.074 A 
ATOM     44  C   UNL A   1      44.695  26.619  26.684  1.00  0.00     0.031 C 
ATOM     45  C   UNL A   1      38.640  28.323  29.519  1.00  0.00     0.029 A 
ATOM     46  C   UNL A   1      39.674  29.352  29.576  1.00  0.00     0.049 A 
ATOM     47  H   UNL A   1      41.593  29.259  28.769  1.00  0.00     0.167 HD
ATOM     48  C   UNL A   1      45.671  28.844  27.188  1.00  0.00     0.034 A 
ATOM     49  C   UNL A   1      39.546  30.555  30.170  1.00  0.00     0.034 A 
ATOM     50  C   UNL A   1      45.597  30.187  27.714  1.00  0.00     0.049 A 
ATOM     51  C   UNL A   1      40.712  31.511  30.139  1.00  0.00     0.074 A 
ATOM     52  C   UNL A   1      46.559  31.181  27.681  1.00  0.00     0.029 A 
ATOM     53  N   UNL A   1      44.499  30.722  28.376  1.00  0.00    -0.354 N 
ATOM     54  N   UNL A   1      41.904  31.345  29.613  1.00  0.00    -0.248 NA
ATOM     55  C   UNL A   1      40.511  32.820  30.774  1.00  0.00     0.031 C 
ATOM     56  C   UNL A   1      46.070  32.290  28.379  1.00  0.00     0.029 A 
ATOM     57  C   UNL A   1      44.773  32.019  28.783  1.00  0.00     0.049 A 
ATOM     58  H   UNL A   1      43.650  30.249  28.534  1.00  0.00     0.167 HD
ATOM     59  C   UNL A   1      42.582  32.542  29.826  1.00  0.00     0.074 A 
ATOM     60  C   UNL A   1      41.663  33.424  30.516  1.00  0.00     0.031 C 
ATOM     61  C   UNL A   1      43.849  32.885  29.479  1.00  0.00     0.034 A 
BRANCH  48  62
ATOM     62  C   UNL A   1      46.973  28.371  26.585  1.00  0.00     0.023 A 
ATOM     63  C   UNL A   1      47.176  28.335  25.194  1.00  0.00     0.031 A 
ATOM     64  C   UNL A   1      48.020  27.923  27.411  1.00  0.00     0.131 A 
ATOM     65  C   UNL A   1      48.358  27.789  24.670  1.00  0.00     0.055 A 
ATOM     66  C   UNL A   1      49.228  27.459  26.886  1.00  0.00     0.041 A 
ATOM     67  F   UNL A   1      47.881  27.914  28.747  1.00  0.00    -0.206 F 
ATOM     68  C   UNL A   1      49.396  27.375  25.506  1.00  0.00     0.022 A 
BRANCH  65  69
ATOM     69  S   UNL A   1      48.457  27.492  22.884  1.00  0.00     0.124 S 
ATOM     70  O   UNL A   1      49.749  28.090  22.556  1.00  0.00    -0.237 OA
ATOM     71  O   UNL A   1      48.385  26.038  22.801  1.00  0.00    -0.237 OA
ATOM     72  O   UNL A   1      47.296  28.205  22.353  1.00  0.00    -0.744 OA
ENDBRANCH  65  69
ENDBRANCH  48  62
BRANCH  49  73
ATOM     73  C   UNL A   1      38.275  30.929  30.856  1.00  0.00     0.023 A 
ATOM     74  C   UNL A   1      37.263  31.622  30.175  1.00  0.00     0.031 A 
ATOM     75  C   UNL A   1      38.074  30.636  32.217  1.00  0.00     0.131 A 
ATOM     76  C   UNL A   1      36.116  32.044  30.864  1.00  0.00     0.055 A 
ATOM     77  C   UNL A   1      36.907  31.010  32.886  1.00  0.00     0.041 A 
ATOM     78  F   UNL A   1      39.008  29.971  32.915  1.00  0.00    -0.206 F 
ATOM     79  C   UNL A   1      35.925  31.730  32.213  1.00  0.00     0.022 A 
BRANCH  76  80
ATOM     80  S   UNL A   1      34.913  33.083  29.994  1.00  0.00     0.124 S 
ATOM     81  O   UNL A   1      34.033  33.495  31.083  1.00  0.00    -0.237 OA
ATOM     82  O   UNL A   1      35.764  34.124  29.428  1.00  0.00    -0.237 OA
ATOM     83  O   UNL A   1      34.316  32.171  29.020  1.00  0.00    -0.744 OA
ENDBRANCH  76  80
ENDBRANCH  49  73
BRANCH  61  84
ATOM     84  C   UNL A   1      44.291  34.291  29.801  1.00  0.00     0.023 A 
ATOM     85  C   UNL A   1      43.999  35.373  28.953  1.00  0.00     0.031 A 
ATOM     86  C   UNL A   1      45.026  34.549  30.972  1.00  0.00     0.131 A 
ATOM     87  C   UNL A   1      44.488  36.652  29.257  1.00  0.00     0.055 A 
ATOM     88  C   UNL A   1      45.459  35.835  31.302  1.00  0.00     0.041 A 
ATOM     89  F   UNL A   1      45.335  33.553  31.819  1.00  0.00    -0.206 F 
ATOM     90  C   UNL A   1      45.202  36.892  30.434  1.00  0.00     0.022 A 
BRANCH  87  91
ATOM     91  S   UNL A   1      44.257  37.985  28.049  1.00  0.00     0.124 S 
ATOM     92  O   UNL A   1      43.811  37.251  26.869  1.00  0.00    -0.237 OA
ATOM     93  O   UNL A   1      43.252  38.823  28.696  1.00  0.00    -0.237 OA
ATOM     94  O   UNL A   1      45.585  38.585  27.940  1.00  0.00    -0.744 OA
ENDBRANCH  87  91
ENDBRANCH  61  84
ENDBRANCH  35  36
ENDBRANCH  27  30
ENDBRANCH  25  26
ENDBRANCH   1  25
TORSDOF 16
ENDMDL
