MODEL 1
REMARK VINA RESULT:     -11.9      0.000      0.000
REMARK SMILES O=C(NCCCCNC(=O)c1cc2ncc(Cl)cn2n1)c1ccc(-c2c3nc(c(-c4cc(S(=O)(=O)[O-])ccc4F)c4ccc([nH]4)c(-c4cc(S(=O)(=O)[O-])ccc4F)c4nc(c(-c5cc(S(=O)(=O)[O-])ccc5F)c5ccc2[nH]5)C=C4)C=C3)cc1
REMARK SMILES IDX 4 1 3 2 1 3 2 4 21 6 22 7 83 8 23 9 82 10 24 11 25 12 26 13
REMARK SMILES IDX 76 14 27 15 81 16 75 17 77 18 28 19 80 20 74 21 73 22 29 24
REMARK SMILES IDX 61 25 41 26 60 27 42 28 45 29 59 30 78 31 43 32 44 33 58 35
REMARK SMILES IDX 79 36 46 37 30 38 31 39 39 40 32 41 38 42 40 43 37 44 33 45
REMARK SMILES IDX 34 46 35 47 36 48 62 49 63 50 71 51 64 52 70 53 72 54 69 55
REMARK SMILES IDX 65 56 66 57 67 58 68 59 47 60 48 61 56 62 49 63 55 64 57 65
REMARK SMILES IDX 54 66 50 67 51 68 52 69 53 70 5 71 6 72 7 73 8 74 9 75 10 77
REMARK SMILES IDX 11 78 12 79 20 80 13 81 19 82 14 83 18 84 15 85 16 86 17 87
REMARK H PARENT 3 5 77 23 45 34 8 76
REMARK Flexibility Score: inf
ROOT
ATOM      1  C   UNL A   1      35.181  33.819  27.949  1.00  0.00     0.116 C 
ENDROOT
BRANCH   1   2
ATOM      2  N   UNL A   1      34.534  32.545  27.716  1.00  0.00    -0.352 N 
ATOM      3  O   UNL A   1      33.916  30.436  27.870  1.00  0.00    -0.269 OA
ATOM      4  C   UNL A   1      34.846  31.241  27.991  1.00  0.00     0.251 C 
ATOM      5  H   UNL A   1      33.670  32.638  27.253  1.00  0.00     0.163 HD
BRANCH   4   6
ATOM      6  C   UNL A   1      36.199  30.725  28.347  1.00  0.00     0.039 A 
ATOM      7  C   UNL A   1      37.226  31.451  28.949  1.00  0.00     0.014 A 
ATOM      8  C   UNL A   1      36.455  29.385  27.985  1.00  0.00     0.014 A 
ATOM      9  C   UNL A   1      38.492  30.882  29.110  1.00  0.00     0.010 A 
ATOM     10  C   UNL A   1      37.715  28.813  28.144  1.00  0.00     0.010 A 
ATOM     11  C   UNL A   1      38.748  29.574  28.680  1.00  0.00    -0.014 A 
BRANCH  11  12
ATOM     12  C   UNL A   1      40.046  28.971  28.996  1.00  0.00     0.031 A 
ATOM     13  C   UNL A   1      40.314  28.865  30.457  1.00  0.00     0.074 A 
ATOM     14  C   UNL A   1      40.900  28.425  28.103  1.00  0.00     0.049 A 
ATOM     15  N   UNL A   1      41.209  29.493  31.145  1.00  0.00    -0.248 NA
ATOM     16  C   UNL A   1      39.385  28.071  31.278  1.00  0.00     0.031 C 
ATOM     17  C   UNL A   1      40.700  28.221  26.668  1.00  0.00     0.029 A 
ATOM     18  N   UNL A   1      42.127  27.857  28.320  1.00  0.00    -0.354 N 
ATOM     19  C   UNL A   1      41.107  29.011  32.447  1.00  0.00     0.074 A 
ATOM     20  C   UNL A   1      39.870  28.280  32.503  1.00  0.00     0.031 C 
ATOM     21  C   UNL A   1      41.666  27.402  26.188  1.00  0.00     0.029 A 
ATOM     22  C   UNL A   1      42.631  27.126  27.242  1.00  0.00     0.049 A 
ATOM     23  H   UNL A   1      42.616  27.957  29.169  1.00  0.00     0.167 HD
ATOM     24  C   UNL A   1      42.159  29.076  33.310  1.00  0.00     0.034 A 
ATOM     25  C   UNL A   1      43.744  26.339  27.223  1.00  0.00     0.034 A 
ATOM     26  C   UNL A   1      43.138  30.040  32.866  1.00  0.00     0.049 A 
ATOM     27  C   UNL A   1      44.630  26.839  28.301  1.00  0.00     0.074 A 
ATOM     28  C   UNL A   1      43.123  31.398  32.611  1.00  0.00     0.029 A 
ATOM     29  N   UNL A   1      44.283  29.570  32.263  1.00  0.00    -0.354 N 
ATOM     30  N   UNL A   1      45.179  28.022  28.287  1.00  0.00    -0.248 NA
ATOM     31  C   UNL A   1      44.544  26.205  29.607  1.00  0.00     0.031 C 
ATOM     32  C   UNL A   1      43.953  31.565  31.462  1.00  0.00     0.029 A 
ATOM     33  C   UNL A   1      44.478  30.316  31.129  1.00  0.00     0.049 A 
ATOM     34  H   UNL A   1      44.854  28.835  32.586  1.00  0.00     0.167 HD
ATOM     35  C   UNL A   1      45.102  28.461  29.599  1.00  0.00     0.074 A 
ATOM     36  C   UNL A   1      44.791  27.265  30.381  1.00  0.00     0.031 C 
ATOM     37  C   UNL A   1      45.027  29.791  29.896  1.00  0.00     0.034 A 
BRANCH  24  38
ATOM     38  C   UNL A   1      42.493  28.019  34.343  1.00  0.00     0.023 A 
ATOM     39  C   UNL A   1      43.247  26.908  33.912  1.00  0.00     0.031 A 
ATOM     40  C   UNL A   1      41.873  27.883  35.607  1.00  0.00     0.131 A 
ATOM     41  C   UNL A   1      43.264  25.713  34.650  1.00  0.00     0.055 A 
ATOM     42  C   UNL A   1      41.945  26.713  36.367  1.00  0.00     0.041 A 
ATOM     43  F   UNL A   1      41.093  28.831  36.137  1.00  0.00    -0.206 F 
ATOM     44  C   UNL A   1      42.612  25.605  35.875  1.00  0.00     0.022 A 
BRANCH  41  45
ATOM     45  S   UNL A   1      44.012  24.246  33.896  1.00  0.00     0.124 S 
ATOM     46  O   UNL A   1      45.287  24.173  34.601  1.00  0.00    -0.237 OA
ATOM     47  O   UNL A   1      43.036  23.211  34.219  1.00  0.00    -0.237 OA
ATOM     48  O   UNL A   1      44.098  24.599  32.480  1.00  0.00    -0.744 OA
ENDBRANCH  41  45
ENDBRANCH  24  38
BRANCH  25  49
ATOM     49  C   UNL A   1      43.963  25.019  26.552  1.00  0.00     0.023 A 
ATOM     50  C   UNL A   1      43.187  23.872  26.850  1.00  0.00     0.031 A 
ATOM     51  C   UNL A   1      44.764  24.945  25.392  1.00  0.00     0.131 A 
ATOM     52  C   UNL A   1      43.224  22.735  26.004  1.00  0.00     0.055 A 
ATOM     53  C   UNL A   1      44.796  23.821  24.560  1.00  0.00     0.041 A 
ATOM     54  F   UNL A   1      45.478  25.999  24.970  1.00  0.00    -0.206 F 
ATOM     55  C   UNL A   1      44.015  22.715  24.855  1.00  0.00     0.022 A 
BRANCH  52  56
ATOM     56  S   UNL A   1      42.141  21.295  26.309  1.00  0.00     0.124 S 
ATOM     57  O   UNL A   1      42.723  20.284  25.434  1.00  0.00    -0.237 OA
ATOM     58  O   UNL A   1      42.292  21.078  27.743  1.00  0.00    -0.237 OA
ATOM     59  O   UNL A   1      40.819  21.773  25.900  1.00  0.00    -0.744 OA
ENDBRANCH  52  56
ENDBRANCH  25  49
BRANCH  37  60
ATOM     60  C   UNL A   1      45.337  30.796  28.808  1.00  0.00     0.023 A 
ATOM     61  C   UNL A   1      46.631  31.257  28.473  1.00  0.00     0.031 A 
ATOM     62  C   UNL A   1      44.268  31.181  27.981  1.00  0.00     0.131 A 
ATOM     63  C   UNL A   1      46.813  32.073  27.337  1.00  0.00     0.055 A 
ATOM     64  C   UNL A   1      44.454  31.972  26.849  1.00  0.00     0.041 A 
ATOM     65  F   UNL A   1      43.022  30.747  28.234  1.00  0.00    -0.206 F 
ATOM     66  C   UNL A   1      45.728  32.421  26.523  1.00  0.00     0.022 A 
BRANCH  63  67
ATOM     67  S   UNL A   1      48.473  32.665  26.871  1.00  0.00     0.124 S 
ATOM     68  O   UNL A   1      48.242  33.346  25.602  1.00  0.00    -0.237 OA
ATOM     69  O   UNL A   1      48.842  33.517  27.999  1.00  0.00    -0.237 OA
ATOM     70  O   UNL A   1      49.260  31.434  26.765  1.00  0.00    -0.744 OA
ENDBRANCH  63  67
ENDBRANCH  37  60
ENDBRANCH  11  12
ENDBRANCH   4   6
ENDBRANCH   1   2
BRANCH   1  71
ATOM     71  C   UNL A   1      34.735  34.546  29.217  1.00  0.00     0.023 C 
BRANCH  71  72
ATOM     72  C   UNL A   1      33.333  35.164  29.168  1.00  0.00     0.023 C 
BRANCH  72  73
ATOM     73  C   UNL A   1      33.160  36.497  29.896  1.00  0.00     0.116 C 
BRANCH  73  74
ATOM     74  N   UNL A   1      32.196  36.419  30.982  1.00  0.00    -0.351 N 
ATOM     75  C   UNL A   1      32.298  35.761  32.191  1.00  0.00     0.271 C 
ATOM     76  H   UNL A   1      31.354  36.905  30.835  1.00  0.00     0.163 HD
ATOM     77  O   UNL A   1      31.312  35.694  32.915  1.00  0.00    -0.267 OA
BRANCH  75  78
ATOM     78  C   UNL A   1      33.573  35.128  32.561  1.00  0.00     0.152 A 
ATOM     79  C   UNL A   1      34.713  35.798  33.069  1.00  0.00     0.085 A 
ATOM     80  N   UNL A   1      33.810  33.812  32.412  1.00  0.00    -0.161 NA
ATOM     81  C   UNL A   1      35.632  34.815  33.344  1.00  0.00     0.155 A 
ATOM     82  N   UNL A   1      35.040  33.616  32.938  1.00  0.00    -0.220 N 
ATOM     83  N   UNL A   1      36.873  34.859  33.920  1.00  0.00    -0.235 NA
ATOM     84  C   UNL A   1      35.698  32.405  33.105  1.00  0.00     0.137 A 
ATOM     85  C   UNL A   1      37.456  33.707  34.088  1.00  0.00     0.135 A 
ATOM     86  C   UNL A   1      36.903  32.384  33.680  1.00  0.00     0.077 A 
ATOM     87  Cl  UNL A   1      37.813  30.970  33.959  1.00  0.00    -0.081 Cl
ENDBRANCH  75  78
ENDBRANCH  73  74
ENDBRANCH  72  73
ENDBRANCH  71  72
ENDBRANCH   1  71
TORSDOF 14
ENDMDL
MODEL 2
REMARK VINA RESULT:     -11.7      3.997      6.002
REMARK SMILES O=C(NCCCCNC(=O)c1cc2ncc(Cl)cn2n1)c1ccc(-c2c3nc(c(-c4cc(S(=O)(=O)[O-])ccc4F)c4ccc([nH]4)c(-c4cc(S(=O)(=O)[O-])ccc4F)c4nc(c(-c5cc(S(=O)(=O)[O-])ccc5F)c5ccc2[nH]5)C=C4)C=C3)cc1
REMARK SMILES IDX 4 1 3 2 1 3 2 4 21 6 22 7 83 8 23 9 82 10 24 11 25 12 26 13
REMARK SMILES IDX 76 14 27 15 81 16 75 17 77 18 28 19 80 20 74 21 73 22 29 24
REMARK SMILES IDX 61 25 41 26 60 27 42 28 45 29 59 30 78 31 43 32 44 33 58 35
REMARK SMILES IDX 79 36 46 37 30 38 31 39 39 40 32 41 38 42 40 43 37 44 33 45
REMARK SMILES IDX 34 46 35 47 36 48 62 49 63 50 71 51 64 52 70 53 72 54 69 55
REMARK SMILES IDX 65 56 66 57 67 58 68 59 47 60 48 61 56 62 49 63 55 64 57 65
REMARK SMILES IDX 54 66 50 67 51 68 52 69 53 70 5 71 6 72 7 73 8 74 9 75 10 77
REMARK SMILES IDX 11 78 12 79 20 80 13 81 19 82 14 83 18 84 15 85 16 86 17 87
REMARK H PARENT 3 5 77 23 45 34 8 76
REMARK Flexibility Score: inf
ROOT
ATOM      1  C   UNL A   1      34.313  30.823  27.252  1.00  0.00     0.116 C 
ENDROOT
BRANCH   1   2
ATOM      2  N   UNL A   1      34.562  31.813  28.278  1.00  0.00    -0.352 N 
ATOM      3  O   UNL A   1      35.551  33.241  29.634  1.00  0.00    -0.269 OA
ATOM      4  C   UNL A   1      35.644  32.160  29.041  1.00  0.00     0.251 C 
ATOM      5  H   UNL A   1      33.769  32.365  28.472  1.00  0.00     0.163 HD
BRANCH   4   6
ATOM      6  C   UNL A   1      36.860  31.326  29.259  1.00  0.00     0.039 A 
ATOM      7  C   UNL A   1      38.168  31.792  29.388  1.00  0.00     0.014 A 
ATOM      8  C   UNL A   1      36.646  29.931  29.285  1.00  0.00     0.014 A 
ATOM      9  C   UNL A   1      39.234  30.892  29.458  1.00  0.00     0.010 A 
ATOM     10  C   UNL A   1      37.706  29.030  29.355  1.00  0.00     0.010 A 
ATOM     11  C   UNL A   1      39.009  29.510  29.410  1.00  0.00    -0.014 A 
BRANCH  11  12
ATOM     12  C   UNL A   1      40.141  28.605  29.629  1.00  0.00     0.031 A 
ATOM     13  C   UNL A   1      40.515  28.455  31.063  1.00  0.00     0.074 A 
ATOM     14  C   UNL A   1      40.741  27.850  28.683  1.00  0.00     0.049 A 
ATOM     15  N   UNL A   1      41.601  28.847  31.642  1.00  0.00    -0.248 NA
ATOM     16  C   UNL A   1      39.503  27.930  31.994  1.00  0.00     0.031 C 
ATOM     17  C   UNL A   1      40.357  27.684  27.281  1.00  0.00     0.029 A 
ATOM     18  N   UNL A   1      41.803  26.995  28.808  1.00  0.00    -0.354 N 
ATOM     19  C   UNL A   1      41.510  28.423  32.965  1.00  0.00     0.074 A 
ATOM     20  C   UNL A   1      40.142  28.027  33.161  1.00  0.00     0.031 C 
ATOM     21  C   UNL A   1      41.037  26.642  26.746  1.00  0.00     0.029 A 
ATOM     22  C   UNL A   1      42.001  26.147  27.717  1.00  0.00     0.049 A 
ATOM     23  H   UNL A   1      42.381  26.981  29.605  1.00  0.00     0.167 HD
ATOM     24  C   UNL A   1      42.624  28.233  33.726  1.00  0.00     0.034 A 
ATOM     25  C   UNL A   1      42.876  25.105  27.626  1.00  0.00     0.034 A 
ATOM     26  C   UNL A   1      43.765  28.915  33.159  1.00  0.00     0.049 A 
ATOM     27  C   UNL A   1      43.960  25.380  28.599  1.00  0.00     0.074 A 
ATOM     28  C   UNL A   1      44.063  30.229  32.855  1.00  0.00     0.029 A 
ATOM     29  N   UNL A   1      44.691  28.164  32.472  1.00  0.00    -0.354 N 
ATOM     30  N   UNL A   1      44.781  26.387  28.491  1.00  0.00    -0.248 NA
ATOM     31  C   UNL A   1      43.847  24.806  29.930  1.00  0.00     0.031 C 
ATOM     32  C   UNL A   1      44.792  30.167  31.630  1.00  0.00     0.029 A 
ATOM     33  C   UNL A   1      44.955  28.822  31.297  1.00  0.00     0.049 A 
ATOM     34  H   UNL A   1      45.090  27.313  32.768  1.00  0.00     0.167 HD
ATOM     35  C   UNL A   1      44.945  26.849  29.787  1.00  0.00     0.074 A 
ATOM     36  C   UNL A   1      44.424  25.780  30.638  1.00  0.00     0.031 C 
ATOM     37  C   UNL A   1      45.233  28.159  30.040  1.00  0.00     0.034 A 
BRANCH  24  38
ATOM     38  C   UNL A   1      42.784  27.140  34.763  1.00  0.00     0.023 A 
ATOM     39  C   UNL A   1      43.533  26.003  34.395  1.00  0.00     0.031 A 
ATOM     40  C   UNL A   1      42.013  27.008  35.940  1.00  0.00     0.131 A 
ATOM     41  C   UNL A   1      43.407  24.793  35.097  1.00  0.00     0.055 A 
ATOM     42  C   UNL A   1      41.940  25.820  36.672  1.00  0.00     0.041 A 
ATOM     43  F   UNL A   1      41.219  27.981  36.399  1.00  0.00    -0.206 F 
ATOM     44  C   UNL A   1      42.610  24.692  36.233  1.00  0.00     0.022 A 
BRANCH  41  45
ATOM     45  S   UNL A   1      44.173  23.308  34.398  1.00  0.00     0.124 S 
ATOM     46  O   UNL A   1      44.567  22.587  35.603  1.00  0.00    -0.237 OA
ATOM     47  O   UNL A   1      43.071  22.734  33.633  1.00  0.00    -0.237 OA
ATOM     48  O   UNL A   1      45.275  23.840  33.598  1.00  0.00    -0.744 OA
ENDBRANCH  41  45
ENDBRANCH  24  38
BRANCH  25  49
ATOM     49  C   UNL A   1      42.693  23.764  26.987  1.00  0.00     0.023 A 
ATOM     50  C   UNL A   1      43.619  23.228  26.058  1.00  0.00     0.031 A 
ATOM     51  C   UNL A   1      41.735  22.864  27.502  1.00  0.00     0.131 A 
ATOM     52  C   UNL A   1      43.569  21.857  25.698  1.00  0.00     0.055 A 
ATOM     53  C   UNL A   1      41.692  21.512  27.144  1.00  0.00     0.041 A 
ATOM     54  F   UNL A   1      40.861  23.242  28.446  1.00  0.00    -0.206 F 
ATOM     55  C   UNL A   1      42.618  20.999  26.250  1.00  0.00     0.022 A 
BRANCH  52  56
ATOM     56  S   UNL A   1      44.828  21.124  24.595  1.00  0.00     0.124 S 
ATOM     57  O   UNL A   1      44.327  19.766  24.419  1.00  0.00    -0.237 OA
ATOM     58  O   UNL A   1      44.774  21.992  23.425  1.00  0.00    -0.237 OA
ATOM     59  O   UNL A   1      46.063  21.227  25.374  1.00  0.00    -0.744 OA
ENDBRANCH  52  56
ENDBRANCH  25  49
BRANCH  37  60
ATOM     60  C   UNL A   1      45.675  29.040  28.891  1.00  0.00     0.023 A 
ATOM     61  C   UNL A   1      44.848  29.964  28.213  1.00  0.00     0.031 A 
ATOM     62  C   UNL A   1      47.046  29.036  28.583  1.00  0.00     0.131 A 
ATOM     63  C   UNL A   1      45.410  30.844  27.265  1.00  0.00     0.055 A 
ATOM     64  C   UNL A   1      47.600  29.919  27.659  1.00  0.00     0.041 A 
ATOM     65  F   UNL A   1      47.882  28.199  29.219  1.00  0.00    -0.206 F 
ATOM     66  C   UNL A   1      46.784  30.826  26.996  1.00  0.00     0.022 A 
BRANCH  63  67
ATOM     67  S   UNL A   1      44.370  32.059  26.389  1.00  0.00     0.124 S 
ATOM     68  O   UNL A   1      43.996  32.999  27.440  1.00  0.00    -0.237 OA
ATOM     69  O   UNL A   1      45.268  32.572  25.358  1.00  0.00    -0.237 OA
ATOM     70  O   UNL A   1      43.260  31.254  25.874  1.00  0.00    -0.744 OA
ENDBRANCH  63  67
ENDBRANCH  37  60
ENDBRANCH  11  12
ENDBRANCH   4   6
ENDBRANCH   1   2
BRANCH   1  71
ATOM     71  C   UNL A   1      32.917  30.203  27.278  1.00  0.00     0.023 C 
BRANCH  71  72
ATOM     72  C   UNL A   1      32.059  30.448  26.032  1.00  0.00     0.023 C 
BRANCH  72  73
ATOM     73  C   UNL A   1      31.768  29.224  25.164  1.00  0.00     0.116 C 
BRANCH  73  74
ATOM     74  N   UNL A   1      30.971  29.547  23.991  1.00  0.00    -0.351 N 
ATOM     75  C   UNL A   1      30.792  28.818  22.833  1.00  0.00     0.271 C 
ATOM     76  H   UNL A   1      30.492  30.405  24.029  1.00  0.00     0.163 HD
ATOM     77  O   UNL A   1      30.196  29.333  21.894  1.00  0.00    -0.267 OA
BRANCH  75  78
ATOM     78  C   UNL A   1      31.350  27.461  22.742  1.00  0.00     0.152 A 
ATOM     79  C   UNL A   1      32.646  27.129  22.277  1.00  0.00     0.085 A 
ATOM     80  N   UNL A   1      30.652  26.355  23.061  1.00  0.00    -0.161 NA
ATOM     81  C   UNL A   1      32.765  25.770  22.438  1.00  0.00     0.155 A 
ATOM     82  N   UNL A   1      31.529  25.336  22.927  1.00  0.00    -0.220 N 
ATOM     83  N   UNL A   1      33.813  24.913  22.236  1.00  0.00    -0.235 NA
ATOM     84  C   UNL A   1      31.315  23.998  23.233  1.00  0.00     0.137 A 
ATOM     85  C   UNL A   1      33.591  23.670  22.555  1.00  0.00     0.135 A 
ATOM     86  C   UNL A   1      32.307  23.119  23.075  1.00  0.00     0.077 A 
ATOM     87  Cl  UNL A   1      32.186  21.456  23.425  1.00  0.00    -0.081 Cl
ENDBRANCH  75  78
ENDBRANCH  73  74
ENDBRANCH  72  73
ENDBRANCH  71  72
ENDBRANCH   1  71
TORSDOF 14
ENDMDL
MODEL 3
REMARK VINA RESULT:     -11.6      5.184     11.121
REMARK SMILES O=C(NCCCCNC(=O)c1cc2ncc(Cl)cn2n1)c1ccc(-c2c3nc(c(-c4cc(S(=O)(=O)[O-])ccc4F)c4ccc([nH]4)c(-c4cc(S(=O)(=O)[O-])ccc4F)c4nc(c(-c5cc(S(=O)(=O)[O-])ccc5F)c5ccc2[nH]5)C=C4)C=C3)cc1
REMARK SMILES IDX 4 1 3 2 1 3 2 4 21 6 22 7 83 8 23 9 82 10 24 11 25 12 26 13
REMARK SMILES IDX 76 14 27 15 81 16 75 17 77 18 28 19 80 20 74 21 73 22 29 24
REMARK SMILES IDX 61 25 41 26 60 27 42 28 45 29 59 30 78 31 43 32 44 33 58 35
REMARK SMILES IDX 79 36 46 37 30 38 31 39 39 40 32 41 38 42 40 43 37 44 33 45
REMARK SMILES IDX 34 46 35 47 36 48 62 49 63 50 71 51 64 52 70 53 72 54 69 55
REMARK SMILES IDX 65 56 66 57 67 58 68 59 47 60 48 61 56 62 49 63 55 64 57 65
REMARK SMILES IDX 54 66 50 67 51 68 52 69 53 70 5 71 6 72 7 73 8 74 9 75 10 77
REMARK SMILES IDX 11 78 12 79 20 80 13 81 19 82 14 83 18 84 15 85 16 86 17 87
REMARK H PARENT 3 5 77 23 45 34 8 76
REMARK Flexibility Score: inf
ROOT
ATOM      1  C   UNL A   1      38.510  22.428  25.691  1.00  0.00     0.116 C 
ENDROOT
BRANCH   1   2
ATOM      2  N   UNL A   1      39.713  22.093  26.423  1.00  0.00    -0.352 N 
ATOM      3  O   UNL A   1      41.272  21.983  27.975  1.00  0.00    -0.269 OA
ATOM      4  C   UNL A   1      40.439  22.701  27.412  1.00  0.00     0.251 C 
ATOM      5  H   UNL A   1      40.097  21.230  26.147  1.00  0.00     0.163 HD
BRANCH   4   6
ATOM      6  C   UNL A   1      40.351  24.138  27.800  1.00  0.00     0.039 A 
ATOM      7  C   UNL A   1      39.273  24.990  27.567  1.00  0.00     0.014 A 
ATOM      8  C   UNL A   1      41.501  24.674  28.419  1.00  0.00     0.014 A 
ATOM      9  C   UNL A   1      39.371  26.351  27.867  1.00  0.00     0.010 A 
ATOM     10  C   UNL A   1      41.603  26.030  28.720  1.00  0.00     0.010 A 
ATOM     11  C   UNL A   1      40.547  26.880  28.415  1.00  0.00    -0.014 A 
BRANCH  11  12
ATOM     12  C   UNL A   1      40.555  28.282  28.843  1.00  0.00     0.031 A 
ATOM     13  C   UNL A   1      41.690  29.069  28.286  1.00  0.00     0.074 A 
ATOM     14  C   UNL A   1      39.587  28.892  29.561  1.00  0.00     0.049 A 
ATOM     15  N   UNL A   1      42.688  29.581  28.927  1.00  0.00    -0.248 NA
ATOM     16  C   UNL A   1      41.805  29.182  26.823  1.00  0.00     0.031 C 
ATOM     17  C   UNL A   1      38.297  28.349  29.985  1.00  0.00     0.029 A 
ATOM     18  N   UNL A   1      39.530  30.186  30.006  1.00  0.00    -0.354 N 
ATOM     19  C   UNL A   1      43.443  30.271  27.983  1.00  0.00     0.074 A 
ATOM     20  C   UNL A   1      42.954  29.849  26.698  1.00  0.00     0.031 C 
ATOM     21  C   UNL A   1      37.510  29.353  30.439  1.00  0.00     0.029 A 
ATOM     22  C   UNL A   1      38.276  30.590  30.466  1.00  0.00     0.049 A 
ATOM     23  H   UNL A   1      40.313  30.783  30.002  1.00  0.00     0.167 HD
ATOM     24  C   UNL A   1      44.263  31.297  28.345  1.00  0.00     0.034 A 
ATOM     25  C   UNL A   1      37.891  31.849  30.823  1.00  0.00     0.034 A 
ATOM     26  C   UNL A   1      44.556  31.255  29.759  1.00  0.00     0.049 A 
ATOM     27  C   UNL A   1      39.126  32.573  31.206  1.00  0.00     0.074 A 
ATOM     28  C   UNL A   1      45.149  30.337  30.605  1.00  0.00     0.029 A 
ATOM     29  N   UNL A   1      43.890  32.132  30.584  1.00  0.00    -0.354 N 
ATOM     30  N   UNL A   1      39.857  32.250  32.236  1.00  0.00    -0.248 NA
ATOM     31  C   UNL A   1      39.795  33.368  30.189  1.00  0.00     0.031 C 
ATOM     32  C   UNL A   1      44.393  30.409  31.813  1.00  0.00     0.029 A 
ATOM     33  C   UNL A   1      43.434  31.411  31.658  1.00  0.00     0.049 A 
ATOM     34  H   UNL A   1      43.765  33.098  30.431  1.00  0.00     0.167 HD
ATOM     35  C   UNL A   1      41.163  32.410  31.805  1.00  0.00     0.074 A 
ATOM     36  C   UNL A   1      41.063  33.190  30.572  1.00  0.00     0.031 C 
ATOM     37  C   UNL A   1      42.179  31.668  32.334  1.00  0.00     0.034 A 
BRANCH  24  38
ATOM     38  C   UNL A   1      44.500  32.545  27.519  1.00  0.00     0.023 A 
ATOM     39  C   UNL A   1      43.852  33.727  27.933  1.00  0.00     0.031 A 
ATOM     40  C   UNL A   1      45.051  32.574  26.218  1.00  0.00     0.131 A 
ATOM     41  C   UNL A   1      43.672  34.803  27.048  1.00  0.00     0.055 A 
ATOM     42  C   UNL A   1      44.924  33.672  25.363  1.00  0.00     0.041 A 
ATOM     43  F   UNL A   1      45.662  31.520  25.666  1.00  0.00    -0.206 F 
ATOM     44  C   UNL A   1      44.200  34.781  25.760  1.00  0.00     0.022 A 
BRANCH  41  45
ATOM     45  S   UNL A   1      42.586  36.162  27.554  1.00  0.00     0.124 S 
ATOM     46  O   UNL A   1      41.290  35.495  27.612  1.00  0.00    -0.237 OA
ATOM     47  O   UNL A   1      43.170  36.551  28.834  1.00  0.00    -0.237 OA
ATOM     48  O   UNL A   1      42.741  37.138  26.478  1.00  0.00    -0.744 OA
ENDBRANCH  41  45
ENDBRANCH  24  38
BRANCH  25  49
ATOM     49  C   UNL A   1      36.592  32.551  30.576  1.00  0.00     0.023 A 
ATOM     50  C   UNL A   1      35.755  33.001  31.626  1.00  0.00     0.031 A 
ATOM     51  C   UNL A   1      36.293  33.042  29.286  1.00  0.00     0.131 A 
ATOM     52  C   UNL A   1      34.693  33.904  31.367  1.00  0.00     0.055 A 
ATOM     53  C   UNL A   1      35.245  33.934  29.037  1.00  0.00     0.041 A 
ATOM     54  F   UNL A   1      37.067  32.746  28.232  1.00  0.00    -0.206 F 
ATOM     55  C   UNL A   1      34.448  34.379  30.078  1.00  0.00     0.022 A 
BRANCH  52  56
ATOM     56  S   UNL A   1      33.679  34.585  32.726  1.00  0.00     0.124 S 
ATOM     57  O   UNL A   1      34.648  35.400  33.451  1.00  0.00    -0.237 OA
ATOM     58  O   UNL A   1      32.630  35.305  32.014  1.00  0.00    -0.237 OA
ATOM     59  O   UNL A   1      33.223  33.392  33.440  1.00  0.00    -0.744 OA
ENDBRANCH  52  56
ENDBRANCH  25  49
BRANCH  37  60
ATOM     60  C   UNL A   1      41.922  30.890  33.606  1.00  0.00     0.023 A 
ATOM     61  C   UNL A   1      41.806  29.483  33.687  1.00  0.00     0.031 A 
ATOM     62  C   UNL A   1      41.950  31.616  34.809  1.00  0.00     0.131 A 
ATOM     63  C   UNL A   1      41.725  28.857  34.949  1.00  0.00     0.055 A 
ATOM     64  C   UNL A   1      41.888  30.993  36.053  1.00  0.00     0.041 A 
ATOM     65  F   UNL A   1      42.089  32.952  34.792  1.00  0.00    -0.206 F 
ATOM     66  C   UNL A   1      41.775  29.610  36.128  1.00  0.00     0.022 A 
BRANCH  63  67
ATOM     67  S   UNL A   1      41.594  27.043  35.082  1.00  0.00     0.124 S 
ATOM     68  O   UNL A   1      42.896  26.578  34.618  1.00  0.00    -0.237 OA
ATOM     69  O   UNL A   1      41.308  26.842  36.500  1.00  0.00    -0.237 OA
ATOM     70  O   UNL A   1      40.479  26.713  34.191  1.00  0.00    -0.744 OA
ENDBRANCH  63  67
ENDBRANCH  37  60
ENDBRANCH  11  12
ENDBRANCH   4   6
ENDBRANCH   1   2
BRANCH   1  71
ATOM     71  C   UNL A   1      37.599  21.243  25.372  1.00  0.00     0.023 C 
BRANCH  71  72
ATOM     72  C   UNL A   1      36.186  21.602  24.899  1.00  0.00     0.023 C 
BRANCH  72  73
ATOM     73  C   UNL A   1      35.062  21.389  25.912  1.00  0.00     0.116 C 
BRANCH  73  74
ATOM     74  N   UNL A   1      34.166  20.307  25.534  1.00  0.00    -0.351 N 
ATOM     75  C   UNL A   1      32.807  20.346  25.297  1.00  0.00     0.271 C 
ATOM     76  H   UNL A   1      34.588  19.425  25.432  1.00  0.00     0.163 HD
ATOM     77  O   UNL A   1      32.203  19.292  25.133  1.00  0.00    -0.267 OA
BRANCH  75  78
ATOM     78  C   UNL A   1      32.114  21.643  25.285  1.00  0.00     0.152 A 
ATOM     79  C   UNL A   1      31.707  22.374  26.428  1.00  0.00     0.085 A 
ATOM     80  N   UNL A   1      31.746  22.269  24.152  1.00  0.00    -0.161 NA
ATOM     81  C   UNL A   1      31.175  23.547  25.951  1.00  0.00     0.155 A 
ATOM     82  N   UNL A   1      31.225  23.448  24.557  1.00  0.00    -0.220 N 
ATOM     83  N   UNL A   1      30.699  24.662  26.588  1.00  0.00    -0.235 NA
ATOM     84  C   UNL A   1      30.787  24.493  23.754  1.00  0.00     0.137 A 
ATOM     85  C   UNL A   1      30.319  25.634  25.810  1.00  0.00     0.135 A 
ATOM     86  C   UNL A   1      30.331  25.613  24.320  1.00  0.00     0.077 A 
ATOM     87  Cl  UNL A   1      29.778  26.973  23.454  1.00  0.00    -0.081 Cl
ENDBRANCH  75  78
ENDBRANCH  73  74
ENDBRANCH  72  73
ENDBRANCH  71  72
ENDBRANCH   1  71
TORSDOF 14
ENDMDL
