MODEL 1
REMARK VINA RESULT:     -12.1      0.000      0.000
REMARK SMILES COc1ccc2c(c1)C=C(C(=O)NCCCCNC(=O)c1ccc(-c3c4nc(c(-c5cc(S(=O)(=O)[O-])ccc5F)c5ccc([nH]5)c(-c5cc(S(=O)(=O)[O-])ccc5F)c5nc(c(-c6cc(S(=O)(=O)[O-])ccc6F)c6ccc3[nH]6)C=C5)C=C4)cc1)[C@H](C(F)(F)F)O2
REMARK SMILES IDX 16 1 15 2 14 3 13 4 11 5 12 6 10 8 3 9 4 10 8 11 5 12 7 13
REMARK SMILES IDX 6 14 9 15 89 16 84 17 2 18 1 19 85 20 86 21 87 22 88 23
REMARK SMILES IDX 17 24 18 25 19 26 20 28 21 29 22 30 83 31 23 32 82 33 24 34
REMARK SMILES IDX 25 35 26 36 76 37 27 38 81 39 75 40 77 41 28 42 80 43 74 44
REMARK SMILES IDX 73 45 29 47 61 48 41 49 60 50 42 51 45 52 59 53 78 54 43 55
REMARK SMILES IDX 44 56 58 58 79 59 46 60 30 61 31 62 39 63 32 64 38 65 40 66
REMARK SMILES IDX 37 67 33 68 34 69 35 70 36 71 62 72 63 73 71 74 64 75 70 76
REMARK SMILES IDX 72 77 69 78 65 79 66 80 67 81 68 82 47 83 48 84 56 85 49 86
REMARK SMILES IDX 55 87 57 88 54 89 50 90 51 91 52 92 53 93
REMARK H PARENT 13 7 18 27 77 46 45 57
REMARK Flexibility Score: inf
ROOT
ATOM      1  C   UNL A   1      31.527  31.725  26.828  1.00  0.00     0.023 C 
ENDROOT
BRANCH   1   2
ATOM      2  C   UNL A   1      31.740  30.254  26.462  1.00  0.00     0.023 C 
BRANCH   2   3
ATOM      3  C   UNL A   1      33.200  29.876  26.186  1.00  0.00     0.116 C 
BRANCH   3   4
ATOM      4  N   UNL A   1      33.423  29.739  24.755  1.00  0.00    -0.352 N 
ATOM      5  C   UNL A   1      33.298  28.687  23.904  1.00  0.00     0.251 C 
ATOM      6  O   UNL A   1      33.692  28.823  22.747  1.00  0.00    -0.270 OA
ATOM      7  H   UNL A   1      33.723  30.569  24.319  1.00  0.00     0.163 HD
BRANCH   5   8
ATOM      8  C   UNL A   1      32.644  27.406  24.287  1.00  0.00     0.067 C 
ATOM      9  C   UNL A   1      32.231  23.362  26.892  1.00  0.00     0.119 A 
ATOM     10  C   UNL A   1      31.006  23.085  26.288  1.00  0.00     0.050 A 
ATOM     11  C   UNL A   1      32.944  24.502  26.530  1.00  0.00     0.058 A 
ATOM     12  C   UNL A   1      30.509  23.943  25.302  1.00  0.00     0.051 A 
ATOM     13  C   UNL A   1      32.449  25.357  25.539  1.00  0.00     0.021 A 
ATOM     14  C   UNL A   1      31.232  25.076  24.928  1.00  0.00     0.128 A 
ATOM     15  C   UNL A   1      33.161  26.574  25.200  1.00  0.00     0.025 C 
ATOM     16  O   UNL A   1      30.654  25.890  24.003  1.00  0.00    -0.475 OA
ATOM     17  C   UNL A   1      31.426  27.006  23.459  1.00  0.00     0.314 C 
BRANCH   9  18
ATOM     18  O   UNL A   1      32.753  22.620  27.915  1.00  0.00    -0.497 OA
ATOM     19  C   UNL A   1      34.026  22.060  27.609  1.00  0.00     0.278 C 
ENDBRANCH   9  18
BRANCH  17  20
ATOM     20  C   UNL A   1      30.424  28.141  23.141  1.00  0.00     0.429 C 
ATOM     21  F   UNL A   1      30.774  28.862  22.054  1.00  0.00    -0.167 F 
ATOM     22  F   UNL A   1      29.193  27.635  22.857  1.00  0.00    -0.167 F 
ATOM     23  F   UNL A   1      30.263  28.992  24.180  1.00  0.00    -0.167 F 
ENDBRANCH  17  20
ENDBRANCH   5   8
ENDBRANCH   3   4
ENDBRANCH   2   3
ENDBRANCH   1   2
BRANCH   1  24
ATOM     24  C   UNL A   1      32.811  32.523  27.029  1.00  0.00     0.116 C 
BRANCH  24  25
ATOM     25  N   UNL A   1      32.585  33.821  27.641  1.00  0.00    -0.352 N 
ATOM     26  C   UNL A   1      33.280  34.412  28.671  1.00  0.00     0.251 C 
ATOM     27  H   UNL A   1      31.839  34.348  27.269  1.00  0.00     0.163 HD
ATOM     28  O   UNL A   1      32.889  35.471  29.146  1.00  0.00    -0.269 OA
BRANCH  26  29
ATOM     29  C   UNL A   1      34.466  33.726  29.225  1.00  0.00     0.039 A 
ATOM     30  C   UNL A   1      35.732  34.251  28.957  1.00  0.00     0.014 A 
ATOM     31  C   UNL A   1      34.324  32.600  30.040  1.00  0.00     0.014 A 
ATOM     32  C   UNL A   1      36.855  33.687  29.567  1.00  0.00     0.010 A 
ATOM     33  C   UNL A   1      35.435  32.080  30.695  1.00  0.00     0.010 A 
ATOM     34  C   UNL A   1      36.711  32.622  30.470  1.00  0.00    -0.014 A 
BRANCH  34  35
ATOM     35  C   UNL A   1      37.877  32.058  31.194  1.00  0.00     0.031 A 
ATOM     36  C   UNL A   1      38.670  30.940  30.578  1.00  0.00     0.074 A 
ATOM     37  C   UNL A   1      38.167  32.495  32.436  1.00  0.00     0.049 A 
ATOM     38  N   UNL A   1      39.646  30.237  31.090  1.00  0.00    -0.248 NA
ATOM     39  C   UNL A   1      38.289  30.541  29.215  1.00  0.00     0.031 C 
ATOM     40  C   UNL A   1      37.441  33.546  33.152  1.00  0.00     0.029 A 
ATOM     41  N   UNL A   1      39.136  32.099  33.321  1.00  0.00    -0.354 N 
ATOM     42  C   UNL A   1      39.986  29.298  30.120  1.00  0.00     0.074 A 
ATOM     43  C   UNL A   1      39.070  29.491  29.014  1.00  0.00     0.031 C 
ATOM     44  C   UNL A   1      37.999  33.720  34.361  1.00  0.00     0.029 A 
ATOM     45  C   UNL A   1      39.093  32.767  34.523  1.00  0.00     0.049 A 
ATOM     46  H   UNL A   1      39.801  31.403  33.116  1.00  0.00     0.167 HD
ATOM     47  C   UNL A   1      40.981  28.377  30.143  1.00  0.00     0.034 A 
ATOM     48  C   UNL A   1      39.838  32.615  35.636  1.00  0.00     0.034 A 
ATOM     49  C   UNL A   1      41.893  28.211  31.248  1.00  0.00     0.049 A 
ATOM     50  C   UNL A   1      40.932  31.578  35.644  1.00  0.00     0.074 A 
ATOM     51  C   UNL A   1      42.972  27.351  31.356  1.00  0.00     0.029 A 
ATOM     52  N   UNL A   1      41.831  28.920  32.443  1.00  0.00    -0.354 N 
ATOM     53  N   UNL A   1      41.270  30.729  34.701  1.00  0.00    -0.248 NA
ATOM     54  C   UNL A   1      41.749  31.487  36.860  1.00  0.00     0.031 C 
ATOM     55  C   UNL A   1      43.524  27.497  32.634  1.00  0.00     0.029 A 
ATOM     56  C   UNL A   1      42.834  28.496  33.301  1.00  0.00     0.049 A 
ATOM     57  H   UNL A   1      41.169  29.618  32.650  1.00  0.00     0.167 HD
ATOM     58  C   UNL A   1      42.359  30.023  35.202  1.00  0.00     0.074 A 
ATOM     59  C   UNL A   1      42.626  30.552  36.524  1.00  0.00     0.031 C 
ATOM     60  C   UNL A   1      43.080  29.030  34.620  1.00  0.00     0.034 A 
BRANCH  47  61
ATOM     61  C   UNL A   1      41.108  27.468  28.945  1.00  0.00     0.023 A 
ATOM     62  C   UNL A   1      42.115  27.654  27.982  1.00  0.00     0.031 A 
ATOM     63  C   UNL A   1      40.188  26.424  28.740  1.00  0.00     0.131 A 
ATOM     64  C   UNL A   1      42.129  26.867  26.821  1.00  0.00     0.055 A 
ATOM     65  C   UNL A   1      40.258  25.590  27.624  1.00  0.00     0.041 A 
ATOM     66  F   UNL A   1      39.193  26.209  29.615  1.00  0.00    -0.206 F 
ATOM     67  C   UNL A   1      41.222  25.820  26.646  1.00  0.00     0.022 A 
BRANCH  64  68
ATOM     68  S   UNL A   1      43.256  27.329  25.477  1.00  0.00     0.124 S 
ATOM     69  O   UNL A   1      44.263  28.109  26.193  1.00  0.00    -0.237 OA
ATOM     70  O   UNL A   1      43.692  26.034  24.970  1.00  0.00    -0.237 OA
ATOM     71  O   UNL A   1      42.410  28.103  24.571  1.00  0.00    -0.744 OA
ENDBRANCH  64  68
ENDBRANCH  47  61
BRANCH  48  72
ATOM     72  C   UNL A   1      39.575  33.453  36.840  1.00  0.00     0.023 A 
ATOM     73  C   UNL A   1      38.887  32.931  37.946  1.00  0.00     0.031 A 
ATOM     74  C   UNL A   1      39.977  34.799  36.886  1.00  0.00     0.131 A 
ATOM     75  C   UNL A   1      38.583  33.761  39.036  1.00  0.00     0.055 A 
ATOM     76  C   UNL A   1      39.714  35.609  37.993  1.00  0.00     0.041 A 
ATOM     77  F   UNL A   1      40.645  35.344  35.857  1.00  0.00    -0.206 F 
ATOM     78  C   UNL A   1      39.002  35.094  39.072  1.00  0.00     0.022 A 
BRANCH  75  79
ATOM     79  S   UNL A   1      37.567  33.092  40.380  1.00  0.00     0.124 S 
ATOM     80  O   UNL A   1      38.305  31.885  40.738  1.00  0.00    -0.237 OA
ATOM     81  O   UNL A   1      37.600  34.178  41.354  1.00  0.00    -0.237 OA
ATOM     82  O   UNL A   1      36.270  32.866  39.746  1.00  0.00    -0.744 OA
ENDBRANCH  75  79
ENDBRANCH  48  72
BRANCH  60  83
ATOM     83  C   UNL A   1      44.254  28.493  35.396  1.00  0.00     0.023 A 
ATOM     84  C   UNL A   1      44.105  27.480  36.358  1.00  0.00     0.031 A 
ATOM     85  C   UNL A   1      45.543  29.009  35.169  1.00  0.00     0.131 A 
ATOM     86  C   UNL A   1      45.219  27.046  37.093  1.00  0.00     0.055 A 
ATOM     87  C   UNL A   1      46.655  28.537  35.866  1.00  0.00     0.041 A 
ATOM     88  F   UNL A   1      45.740  29.980  34.262  1.00  0.00    -0.206 F 
ATOM     89  C   UNL A   1      46.494  27.558  36.842  1.00  0.00     0.022 A 
BRANCH  86  90
ATOM     90  S   UNL A   1      44.967  25.853  38.436  1.00  0.00     0.124 S 
ATOM     91  O   UNL A   1      44.257  26.656  39.426  1.00  0.00    -0.237 OA
ATOM     92  O   UNL A   1      44.185  24.808  37.784  1.00  0.00    -0.237 OA
ATOM     93  O   UNL A   1      46.326  25.466  38.810  1.00  0.00    -0.744 OA
ENDBRANCH  86  90
ENDBRANCH  60  83
ENDBRANCH  34  35
ENDBRANCH  26  29
ENDBRANCH  24  25
ENDBRANCH   1  24
TORSDOF 16
ENDMDL
MODEL 2
REMARK VINA RESULT:     -11.8      1.423      1.995
REMARK SMILES COc1ccc2c(c1)C=C(C(=O)NCCCCNC(=O)c1ccc(-c3c4nc(c(-c5cc(S(=O)(=O)[O-])ccc5F)c5ccc([nH]5)c(-c5cc(S(=O)(=O)[O-])ccc5F)c5nc(c(-c6cc(S(=O)(=O)[O-])ccc6F)c6ccc3[nH]6)C=C5)C=C4)cc1)[C@H](C(F)(F)F)O2
REMARK SMILES IDX 16 1 15 2 14 3 13 4 11 5 12 6 10 8 3 9 4 10 8 11 5 12 7 13
REMARK SMILES IDX 6 14 9 15 89 16 84 17 2 18 1 19 85 20 86 21 87 22 88 23
REMARK SMILES IDX 17 24 18 25 19 26 20 28 21 29 22 30 83 31 23 32 82 33 24 34
REMARK SMILES IDX 25 35 26 36 76 37 27 38 81 39 75 40 77 41 28 42 80 43 74 44
REMARK SMILES IDX 73 45 29 47 61 48 41 49 60 50 42 51 45 52 59 53 78 54 43 55
REMARK SMILES IDX 44 56 58 58 79 59 46 60 30 61 31 62 39 63 32 64 38 65 40 66
REMARK SMILES IDX 37 67 33 68 34 69 35 70 36 71 62 72 63 73 71 74 64 75 70 76
REMARK SMILES IDX 72 77 69 78 65 79 66 80 67 81 68 82 47 83 48 84 56 85 49 86
REMARK SMILES IDX 55 87 57 88 54 89 50 90 51 91 52 92 53 93
REMARK H PARENT 13 7 18 27 77 46 45 57
REMARK Flexibility Score: inf
ROOT
ATOM      1  C   UNL A   1      32.067  31.022  26.697  1.00  0.00     0.023 C 
ENDROOT
BRANCH   1   2
ATOM      2  C   UNL A   1      32.134  29.587  27.226  1.00  0.00     0.023 C 
BRANCH   2   3
ATOM      3  C   UNL A   1      32.119  28.510  26.134  1.00  0.00     0.116 C 
BRANCH   3   4
ATOM      4  N   UNL A   1      31.274  27.397  26.536  1.00  0.00    -0.352 N 
ATOM      5  C   UNL A   1      31.274  26.078  26.205  1.00  0.00     0.251 C 
ATOM      6  O   UNL A   1      30.342  25.379  26.596  1.00  0.00    -0.270 OA
ATOM      7  H   UNL A   1      30.564  27.647  27.170  1.00  0.00     0.163 HD
BRANCH   5   8
ATOM      8  C   UNL A   1      32.383  25.431  25.453  1.00  0.00     0.067 C 
ATOM      9  C   UNL A   1      36.314  22.655  25.065  1.00  0.00     0.119 A 
ATOM     10  C   UNL A   1      36.280  22.781  23.678  1.00  0.00     0.050 A 
ATOM     11  C   UNL A   1      35.357  23.297  25.847  1.00  0.00     0.058 A 
ATOM     12  C   UNL A   1      35.296  23.572  23.078  1.00  0.00     0.051 A 
ATOM     13  C   UNL A   1      34.376  24.093  25.245  1.00  0.00     0.021 A 
ATOM     14  C   UNL A   1      34.347  24.228  23.862  1.00  0.00     0.128 A 
ATOM     15  C   UNL A   1      33.344  24.716  26.052  1.00  0.00     0.025 C 
ATOM     16  O   UNL A   1      33.389  24.932  23.200  1.00  0.00    -0.475 OA
ATOM     17  C   UNL A   1      32.462  25.763  23.965  1.00  0.00     0.314 C 
BRANCH   9  18
ATOM     18  O   UNL A   1      37.193  21.843  25.729  1.00  0.00    -0.497 OA
ATOM     19  C   UNL A   1      37.411  20.598  25.073  1.00  0.00     0.278 C 
ENDBRANCH   9  18
BRANCH  17  20
ATOM     20  C   UNL A   1      31.116  25.766  23.203  1.00  0.00     0.429 C 
ATOM     21  F   UNL A   1      30.263  24.813  23.635  1.00  0.00    -0.167 F 
ATOM     22  F   UNL A   1      30.460  26.946  23.383  1.00  0.00    -0.167 F 
ATOM     23  F   UNL A   1      31.280  25.614  21.868  1.00  0.00    -0.167 F 
ENDBRANCH  17  20
ENDBRANCH   5   8
ENDBRANCH   3   4
ENDBRANCH   2   3
ENDBRANCH   1   2
BRANCH   1  24
ATOM     24  C   UNL A   1      33.206  31.924  27.159  1.00  0.00     0.116 C 
BRANCH  24  25
ATOM     25  N   UNL A   1      32.778  33.286  27.435  1.00  0.00    -0.352 N 
ATOM     26  C   UNL A   1      33.265  34.159  28.381  1.00  0.00     0.251 C 
ATOM     27  H   UNL A   1      32.047  33.629  26.871  1.00  0.00     0.163 HD
ATOM     28  O   UNL A   1      32.717  35.238  28.558  1.00  0.00    -0.269 OA
BRANCH  26  29
ATOM     29  C   UNL A   1      34.420  33.751  29.209  1.00  0.00     0.039 A 
ATOM     30  C   UNL A   1      34.206  32.883  30.281  1.00  0.00     0.014 A 
ATOM     31  C   UNL A   1      35.710  34.188  28.897  1.00  0.00     0.014 A 
ATOM     32  C   UNL A   1      35.299  32.394  31.000  1.00  0.00     0.010 A 
ATOM     33  C   UNL A   1      36.801  33.652  29.574  1.00  0.00     0.010 A 
ATOM     34  C   UNL A   1      36.606  32.745  30.628  1.00  0.00    -0.014 A 
BRANCH  34  35
ATOM     35  C   UNL A   1      37.788  32.176  31.323  1.00  0.00     0.031 A 
ATOM     36  C   UNL A   1      38.574  31.070  30.677  1.00  0.00     0.074 A 
ATOM     37  C   UNL A   1      38.098  32.596  32.566  1.00  0.00     0.049 A 
ATOM     38  N   UNL A   1      39.562  30.364  31.160  1.00  0.00    -0.248 NA
ATOM     39  C   UNL A   1      38.170  30.690  29.315  1.00  0.00     0.031 C 
ATOM     40  C   UNL A   1      37.380  33.633  33.310  1.00  0.00     0.029 A 
ATOM     41  N   UNL A   1      39.084  32.191  33.428  1.00  0.00    -0.354 N 
ATOM     42  C   UNL A   1      39.888  29.442  30.171  1.00  0.00     0.074 A 
ATOM     43  C   UNL A   1      38.953  29.646  29.084  1.00  0.00     0.031 C 
ATOM     44  C   UNL A   1      37.959  33.791  34.512  1.00  0.00     0.029 A 
ATOM     45  C   UNL A   1      39.060  32.841  34.641  1.00  0.00     0.049 A 
ATOM     46  H   UNL A   1      39.748  31.501  33.201  1.00  0.00     0.167 HD
ATOM     47  C   UNL A   1      40.888  28.525  30.162  1.00  0.00     0.034 A 
ATOM     48  C   UNL A   1      39.825  32.676  35.737  1.00  0.00     0.034 A 
ATOM     49  C   UNL A   1      41.820  28.346  31.249  1.00  0.00     0.049 A 
ATOM     50  C   UNL A   1      40.923  31.643  35.710  1.00  0.00     0.074 A 
ATOM     51  C   UNL A   1      42.904  27.490  31.324  1.00  0.00     0.029 A 
ATOM     52  N   UNL A   1      41.776  29.037  32.455  1.00  0.00    -0.354 N 
ATOM     53  N   UNL A   1      41.249  30.810  34.749  1.00  0.00    -0.248 NA
ATOM     54  C   UNL A   1      41.762  31.538  36.910  1.00  0.00     0.031 C 
ATOM     55  C   UNL A   1      43.478  27.619  32.594  1.00  0.00     0.029 A 
ATOM     56  C   UNL A   1      42.796  28.605  33.288  1.00  0.00     0.049 A 
ATOM     57  H   UNL A   1      41.115  29.730  32.684  1.00  0.00     0.167 HD
ATOM     58  C   UNL A   1      42.349  30.101  35.220  1.00  0.00     0.074 A 
ATOM     59  C   UNL A   1      42.638  30.612  36.544  1.00  0.00     0.031 C 
ATOM     60  C   UNL A   1      43.063  29.121  34.610  1.00  0.00     0.034 A 
BRANCH  47  61
ATOM     61  C   UNL A   1      40.997  27.634  28.949  1.00  0.00     0.023 A 
ATOM     62  C   UNL A   1      41.993  27.832  27.976  1.00  0.00     0.031 A 
ATOM     63  C   UNL A   1      40.071  26.596  28.740  1.00  0.00     0.131 A 
ATOM     64  C   UNL A   1      41.990  27.063  26.803  1.00  0.00     0.055 A 
ATOM     65  C   UNL A   1      40.125  25.779  27.609  1.00  0.00     0.041 A 
ATOM     66  F   UNL A   1      39.086  26.370  29.624  1.00  0.00    -0.206 F 
ATOM     67  C   UNL A   1      41.078  26.021  26.623  1.00  0.00     0.022 A 
BRANCH  64  68
ATOM     68  S   UNL A   1      43.101  27.543  25.453  1.00  0.00     0.124 S 
ATOM     69  O   UNL A   1      42.195  28.281  24.575  1.00  0.00    -0.237 OA
ATOM     70  O   UNL A   1      44.111  28.337  26.141  1.00  0.00    -0.237 OA
ATOM     71  O   UNL A   1      43.566  26.265  24.921  1.00  0.00    -0.744 OA
ENDBRANCH  64  68
ENDBRANCH  47  61
BRANCH  48  72
ATOM     72  C   UNL A   1      39.580  33.495  36.958  1.00  0.00     0.023 A 
ATOM     73  C   UNL A   1      38.896  32.959  38.060  1.00  0.00     0.031 A 
ATOM     74  C   UNL A   1      39.996  34.836  37.025  1.00  0.00     0.131 A 
ATOM     75  C   UNL A   1      38.610  33.773  39.167  1.00  0.00     0.055 A 
ATOM     76  C   UNL A   1      39.750  35.628  38.148  1.00  0.00     0.041 A 
ATOM     77  F   UNL A   1      40.661  35.393  36.000  1.00  0.00    -0.206 F 
ATOM     78  C   UNL A   1      39.042  35.101  39.223  1.00  0.00     0.022 A 
BRANCH  75  79
ATOM     79  S   UNL A   1      37.597  33.090  40.508  1.00  0.00     0.124 S 
ATOM     80  O   UNL A   1      36.378  32.717  39.798  1.00  0.00    -0.237 OA
ATOM     81  O   UNL A   1      38.427  31.988  40.982  1.00  0.00    -0.237 OA
ATOM     82  O   UNL A   1      37.462  34.210  41.437  1.00  0.00    -0.744 OA
ENDBRANCH  75  79
ENDBRANCH  48  72
BRANCH  60  83
ATOM     83  C   UNL A   1      44.254  28.578  35.357  1.00  0.00     0.023 A 
ATOM     84  C   UNL A   1      44.128  27.542  36.298  1.00  0.00     0.031 A 
ATOM     85  C   UNL A   1      45.534  29.110  35.124  1.00  0.00     0.131 A 
ATOM     86  C   UNL A   1      45.256  27.102  37.007  1.00  0.00     0.055 A 
ATOM     87  C   UNL A   1      46.661  28.634  35.794  1.00  0.00     0.041 A 
ATOM     88  F   UNL A   1      45.710  30.103  34.237  1.00  0.00    -0.206 F 
ATOM     89  C   UNL A   1      46.523  27.631  36.750  1.00  0.00     0.022 A 
BRANCH  86  90
ATOM     90  S   UNL A   1      45.035  25.877  38.326  1.00  0.00     0.124 S 
ATOM     91  O   UNL A   1      44.179  26.594  39.266  1.00  0.00    -0.237 OA
ATOM     92  O   UNL A   1      44.411  24.764  37.618  1.00  0.00    -0.237 OA
ATOM     93  O   UNL A   1      46.397  25.626  38.794  1.00  0.00    -0.744 OA
ENDBRANCH  86  90
ENDBRANCH  60  83
ENDBRANCH  34  35
ENDBRANCH  26  29
ENDBRANCH  24  25
ENDBRANCH   1  24
TORSDOF 16
ENDMDL
MODEL 3
REMARK VINA RESULT:     -11.7      5.659     10.751
REMARK SMILES COc1ccc2c(c1)C=C(C(=O)NCCCCNC(=O)c1ccc(-c3c4nc(c(-c5cc(S(=O)(=O)[O-])ccc5F)c5ccc([nH]5)c(-c5cc(S(=O)(=O)[O-])ccc5F)c5nc(c(-c6cc(S(=O)(=O)[O-])ccc6F)c6ccc3[nH]6)C=C5)C=C4)cc1)[C@H](C(F)(F)F)O2
REMARK SMILES IDX 16 1 15 2 14 3 13 4 11 5 12 6 10 8 3 9 4 10 8 11 5 12 7 13
REMARK SMILES IDX 6 14 9 15 89 16 84 17 2 18 1 19 85 20 86 21 87 22 88 23
REMARK SMILES IDX 17 24 18 25 19 26 20 28 21 29 22 30 83 31 23 32 82 33 24 34
REMARK SMILES IDX 25 35 26 36 76 37 27 38 81 39 75 40 77 41 28 42 80 43 74 44
REMARK SMILES IDX 73 45 29 47 61 48 41 49 60 50 42 51 45 52 59 53 78 54 43 55
REMARK SMILES IDX 44 56 58 58 79 59 46 60 30 61 31 62 39 63 32 64 38 65 40 66
REMARK SMILES IDX 37 67 33 68 34 69 35 70 36 71 62 72 63 73 71 74 64 75 70 76
REMARK SMILES IDX 72 77 69 78 65 79 66 80 67 81 68 82 47 83 48 84 56 85 49 86
REMARK SMILES IDX 55 87 57 88 54 89 50 90 51 91 52 92 53 93
REMARK H PARENT 13 7 18 27 77 46 45 57
REMARK Flexibility Score: inf
ROOT
ATOM      1  C   UNL A   1      35.511  21.218  25.487  1.00  0.00     0.023 C 
ENDROOT
BRANCH   1   2
ATOM      2  C   UNL A   1      34.420  22.260  25.746  1.00  0.00     0.023 C 
BRANCH   2   3
ATOM      3  C   UNL A   1      33.302  22.279  24.696  1.00  0.00     0.116 C 
BRANCH   3   4
ATOM      4  N   UNL A   1      33.711  23.056  23.538  1.00  0.00    -0.352 N 
ATOM      5  C   UNL A   1      33.559  24.367  23.211  1.00  0.00     0.251 C 
ATOM      6  O   UNL A   1      33.892  24.730  22.085  1.00  0.00    -0.270 OA
ATOM      7  H   UNL A   1      34.192  22.532  22.858  1.00  0.00     0.163 HD
BRANCH   5   8
ATOM      8  C   UNL A   1      33.075  25.393  24.176  1.00  0.00     0.067 C 
ATOM      9  C   UNL A   1      33.642  29.153  27.150  1.00  0.00     0.119 A 
ATOM     10  C   UNL A   1      32.263  29.225  27.339  1.00  0.00     0.050 A 
ATOM     11  C   UNL A   1      34.181  28.169  26.325  1.00  0.00     0.058 A 
ATOM     12  C   UNL A   1      31.427  28.294  26.715  1.00  0.00     0.051 A 
ATOM     13  C   UNL A   1      33.344  27.234  25.705  1.00  0.00     0.021 A 
ATOM     14  C   UNL A   1      31.970  27.299  25.901  1.00  0.00     0.128 A 
ATOM     15  C   UNL A   1      33.897  26.245  24.800  1.00  0.00     0.025 C 
ATOM     16  O   UNL A   1      31.087  26.466  25.285  1.00  0.00    -0.475 OA
ATOM     17  C   UNL A   1      31.596  25.314  24.545  1.00  0.00     0.314 C 
BRANCH   9  18
ATOM     18  O   UNL A   1      34.523  30.066  27.659  1.00  0.00    -0.497 OA
ATOM     19  C   UNL A   1      35.885  29.690  27.482  1.00  0.00     0.278 C 
ENDBRANCH   9  18
BRANCH  17  20
ATOM     20  C   UNL A   1      30.621  25.058  23.372  1.00  0.00     0.429 C 
ATOM     21  F   UNL A   1      31.045  25.595  22.207  1.00  0.00    -0.167 F 
ATOM     22  F   UNL A   1      30.495  23.724  23.128  1.00  0.00    -0.167 F 
ATOM     23  F   UNL A   1      29.376  25.524  23.625  1.00  0.00    -0.167 F 
ENDBRANCH  17  20
ENDBRANCH   5   8
ENDBRANCH   3   4
ENDBRANCH   2   3
ENDBRANCH   1   2
BRANCH   1  24
ATOM     24  C   UNL A   1      36.936  21.736  25.641  1.00  0.00     0.116 C 
BRANCH  24  25
ATOM     25  N   UNL A   1      37.925  20.674  25.703  1.00  0.00    -0.352 N 
ATOM     26  C   UNL A   1      39.248  20.759  26.074  1.00  0.00     0.251 C 
ATOM     27  H   UNL A   1      37.608  19.776  25.448  1.00  0.00     0.163 HD
ATOM     28  O   UNL A   1      39.979  19.784  25.965  1.00  0.00    -0.269 OA
BRANCH  26  29
ATOM     29  C   UNL A   1      39.778  22.053  26.554  1.00  0.00     0.039 A 
ATOM     30  C   UNL A   1      40.734  22.051  27.572  1.00  0.00     0.014 A 
ATOM     31  C   UNL A   1      39.365  23.253  25.971  1.00  0.00     0.014 A 
ATOM     32  C   UNL A   1      41.333  23.253  27.956  1.00  0.00     0.010 A 
ATOM     33  C   UNL A   1      40.007  24.440  26.311  1.00  0.00     0.010 A 
ATOM     34  C   UNL A   1      41.001  24.450  27.303  1.00  0.00    -0.014 A 
BRANCH  34  35
ATOM     35  C   UNL A   1      41.681  25.727  27.636  1.00  0.00     0.031 A 
ATOM     36  C   UNL A   1      40.949  26.783  28.417  1.00  0.00     0.074 A 
ATOM     37  C   UNL A   1      42.920  25.966  27.164  1.00  0.00     0.049 A 
ATOM     38  N   UNL A   1      41.319  28.001  28.711  1.00  0.00    -0.248 NA
ATOM     39  C   UNL A   1      39.607  26.425  28.902  1.00  0.00     0.031 C 
ATOM     40  C   UNL A   1      43.712  25.033  26.359  1.00  0.00     0.029 A 
ATOM     41  N   UNL A   1      43.724  27.071  27.277  1.00  0.00    -0.354 N 
ATOM     42  C   UNL A   1      40.250  28.565  29.400  1.00  0.00     0.074 A 
ATOM     43  C   UNL A   1      39.199  27.569  29.428  1.00  0.00     0.031 C 
ATOM     44  C   UNL A   1      44.892  25.601  26.062  1.00  0.00     0.029 A 
ATOM     45  C   UNL A   1      44.926  26.951  26.618  1.00  0.00     0.049 A 
ATOM     46  H   UNL A   1      43.466  27.876  27.782  1.00  0.00     0.167 HD
ATOM     47  C   UNL A   1      40.162  29.791  29.974  1.00  0.00     0.034 A 
ATOM     48  C   UNL A   1      45.932  27.834  26.464  1.00  0.00     0.034 A 
ATOM     49  C   UNL A   1      41.227  30.764  29.949  1.00  0.00     0.049 A 
ATOM     50  C   UNL A   1      45.809  29.195  27.100  1.00  0.00     0.074 A 
ATOM     51  C   UNL A   1      41.270  32.013  30.544  1.00  0.00     0.029 A 
ATOM     52  N   UNL A   1      42.439  30.599  29.288  1.00  0.00    -0.354 N 
ATOM     53  N   UNL A   1      44.811  29.697  27.788  1.00  0.00    -0.248 NA
ATOM     54  C   UNL A   1      46.954  30.102  26.948  1.00  0.00     0.031 C 
ATOM     55  C   UNL A   1      42.479  32.624  30.195  1.00  0.00     0.029 A 
ATOM     56  C   UNL A   1      43.222  31.733  29.439  1.00  0.00     0.049 A 
ATOM     57  H   UNL A   1      42.701  29.795  28.784  1.00  0.00     0.167 HD
ATOM     58  C   UNL A   1      45.219  30.969  28.175  1.00  0.00     0.074 A 
ATOM     59  C   UNL A   1      46.558  31.153  27.653  1.00  0.00     0.031 C 
ATOM     60  C   UNL A   1      44.553  31.901  28.903  1.00  0.00     0.034 A 
BRANCH  47  61
ATOM     61  C   UNL A   1      38.860  30.147  30.650  1.00  0.00     0.023 A 
ATOM     62  C   UNL A   1      37.953  31.051  30.072  1.00  0.00     0.031 A 
ATOM     63  C   UNL A   1      38.538  29.605  31.907  1.00  0.00     0.131 A 
ATOM     64  C   UNL A   1      36.812  31.450  30.783  1.00  0.00     0.055 A 
ATOM     65  C   UNL A   1      37.359  29.942  32.573  1.00  0.00     0.041 A 
ATOM     66  F   UNL A   1      39.374  28.750  32.518  1.00  0.00    -0.206 F 
ATOM     67  C   UNL A   1      36.495  30.883  32.020  1.00  0.00     0.022 A 
BRANCH  64  68
ATOM     68  S   UNL A   1      35.828  32.829  30.136  1.00  0.00     0.124 S 
ATOM     69  O   UNL A   1      34.494  32.234  30.072  1.00  0.00    -0.237 OA
ATOM     70  O   UNL A   1      36.020  33.858  31.149  1.00  0.00    -0.237 OA
ATOM     71  O   UNL A   1      36.439  33.107  28.838  1.00  0.00    -0.744 OA
ENDBRANCH  64  68
ENDBRANCH  47  61
BRANCH  48  72
ATOM     72  C   UNL A   1      47.139  27.471  25.669  1.00  0.00     0.023 A 
ATOM     73  C   UNL A   1      47.235  27.807  24.309  1.00  0.00     0.031 A 
ATOM     74  C   UNL A   1      48.199  26.753  26.249  1.00  0.00     0.131 A 
ATOM     75  C   UNL A   1      48.346  27.387  23.562  1.00  0.00     0.055 A 
ATOM     76  C   UNL A   1      49.325  26.378  25.513  1.00  0.00     0.041 A 
ATOM     77  F   UNL A   1      48.159  26.414  27.547  1.00  0.00    -0.206 F 
ATOM     78  C   UNL A   1      49.397  26.685  24.157  1.00  0.00     0.022 A 
BRANCH  75  79
ATOM     79  S   UNL A   1      48.365  27.711  21.778  1.00  0.00     0.124 S 
ATOM     80  O   UNL A   1      49.478  28.647  21.659  1.00  0.00    -0.237 OA
ATOM     81  O   UNL A   1      48.587  26.377  21.230  1.00  0.00    -0.237 OA
ATOM     82  O   UNL A   1      47.043  28.277  21.520  1.00  0.00    -0.744 OA
ENDBRANCH  75  79
ENDBRANCH  48  72
BRANCH  60  83
ATOM     83  C   UNL A   1      45.287  33.179  29.215  1.00  0.00     0.023 A 
ATOM     84  C   UNL A   1      45.254  34.283  28.345  1.00  0.00     0.031 A 
ATOM     85  C   UNL A   1      46.036  33.290  30.399  1.00  0.00     0.131 A 
ATOM     86  C   UNL A   1      45.994  35.434  28.652  1.00  0.00     0.055 A 
ATOM     87  C   UNL A   1      46.729  34.456  30.724  1.00  0.00     0.041 A 
ATOM     88  F   UNL A   1      46.103  32.264  31.264  1.00  0.00    -0.206 F 
ATOM     89  C   UNL A   1      46.719  35.534  29.842  1.00  0.00     0.022 A 
BRANCH  86  90
ATOM     90  S   UNL A   1      46.059  36.780  27.436  1.00  0.00     0.124 S 
ATOM     91  O   UNL A   1      46.291  36.053  26.192  1.00  0.00    -0.237 OA
ATOM     92  O   UNL A   1      44.743  37.394  27.579  1.00  0.00    -0.237 OA
ATOM     93  O   UNL A   1      47.178  37.601  27.892  1.00  0.00    -0.744 OA
ENDBRANCH  86  90
ENDBRANCH  60  83
ENDBRANCH  34  35
ENDBRANCH  26  29
ENDBRANCH  24  25
ENDBRANCH   1  24
TORSDOF 16
ENDMDL
