MODEL 1
REMARK VINA RESULT:     -11.9      0.000      0.000
REMARK SMILES [NH3+][C@@]1(C(=O)NCCCCNC(=O)c2ccc(-c3c4nc(c(-c5cc(S(=O)(=O)[O-])ccc5F)c5ccc([nH]5)c(-c5cc(S(=O)(=O)[O-])ccc5F)c5nc(c(-c6cc(S(=O)(=O)[O-])ccc6F)c6ccc3[nH]6)C=C5)C=C4)cc2)CC[C@H](Sc2cccs2)C1
REMARK SMILES IDX 8 1 7 2 6 3 5 4 3 5 4 6 2 8 76 9 85 10 77 11 78 12 1 13
REMARK SMILES IDX 79 17 80 18 81 19 84 20 82 21 83 22 9 23 10 24 11 25 12 27
REMARK SMILES IDX 13 28 14 29 75 30 15 31 74 32 16 33 17 34 18 35 68 36 19 37
REMARK SMILES IDX 73 38 67 39 69 40 20 41 72 42 66 43 65 44 21 46 53 47 33 48
REMARK SMILES IDX 52 49 34 50 37 51 51 52 70 53 35 54 36 55 50 57 71 58 38 59
REMARK SMILES IDX 22 60 23 61 31 62 24 63 30 64 32 65 29 66 25 67 26 68 27 69
REMARK SMILES IDX 28 70 54 71 55 72 63 73 56 74 62 75 64 76 61 77 57 78 58 79
REMARK SMILES IDX 59 80 60 81 39 82 40 83 48 84 41 85 47 86 49 87 46 88 42 89
REMARK SMILES IDX 43 90 44 91 45 92
REMARK H PARENT 5 7 1 14 1 15 1 16 10 26 69 45 37 56
REMARK Flexibility Score: inf
ROOT
ATOM      1  C   UNL A   1      31.751  29.550  26.768  1.00  0.00     0.023 C 
ENDROOT
BRANCH   1   2
ATOM      2  C   UNL A   1      32.121  28.255  27.480  1.00  0.00     0.023 C 
BRANCH   2   3
ATOM      3  C   UNL A   1      32.127  27.013  26.596  1.00  0.00     0.116 C 
BRANCH   3   4
ATOM      4  N   UNL A   1      31.014  26.133  26.870  1.00  0.00    -0.351 N 
ATOM      5  C   UNL A   1      30.025  25.661  26.068  1.00  0.00     0.281 C 
ATOM      6  O   UNL A   1      29.194  24.914  26.604  1.00  0.00    -0.268 OA
ATOM      7  H   UNL A   1      30.963  25.821  27.802  1.00  0.00     0.163 HD
BRANCH   5   8
ATOM      8  C   UNL A   1      29.916  25.968  24.529  1.00  0.00     0.175 C 
ATOM      9  C   UNL A   1      30.922  27.043  24.079  1.00  0.00     0.080 C 
ATOM     10  C   UNL A   1      28.535  26.426  24.037  1.00  0.00     0.094 C 
ATOM     11  C   UNL A   1      30.104  28.273  23.699  1.00  0.00     0.022 C 
ATOM     12  C   UNL A   1      28.773  27.707  23.217  1.00  0.00     0.059 C 
BRANCH   8  13
ATOM     13  N   UNL A   1      30.267  24.705  23.815  1.00  0.00    -0.345 N 
ATOM     14  H   UNL A   1      29.541  24.007  23.980  1.00  0.00     0.345 HD
ATOM     15  H   UNL A   1      31.161  24.355  24.163  1.00  0.00     0.345 HD
ATOM     16  H   UNL A   1      30.340  24.889  22.814  1.00  0.00     0.345 HD
ENDBRANCH   8  13
BRANCH  12  17
ATOM     17  S   UNL A   1      27.275  28.747  23.219  1.00  0.00    -0.112 SA
BRANCH  17  18
ATOM     18  C   UNL A   1      27.765  30.381  22.816  1.00  0.00     0.060 A 
ATOM     19  C   UNL A   1      28.037  31.418  23.683  1.00  0.00     0.027 A 
ATOM     20  S   UNL A   1      28.112  30.823  21.195  1.00  0.00    -0.137 S 
ATOM     21  C   UNL A   1      28.485  32.594  23.007  1.00  0.00     0.013 A 
ATOM     22  C   UNL A   1      28.564  32.408  21.646  1.00  0.00     0.066 A 
ENDBRANCH  17  18
ENDBRANCH  12  17
ENDBRANCH   5   8
ENDBRANCH   3   4
ENDBRANCH   2   3
ENDBRANCH   1   2
BRANCH   1  23
ATOM     23  C   UNL A   1      32.917  30.466  26.411  1.00  0.00     0.116 C 
BRANCH  23  24
ATOM     24  N   UNL A   1      32.825  31.811  26.963  1.00  0.00    -0.352 N 
ATOM     25  C   UNL A   1      33.759  32.487  27.721  1.00  0.00     0.251 C 
ATOM     26  H   UNL A   1      31.991  32.299  26.773  1.00  0.00     0.163 HD
ATOM     27  O   UNL A   1      33.529  33.613  28.138  1.00  0.00    -0.269 OA
BRANCH  25  28
ATOM     28  C   UNL A   1      35.021  31.794  28.063  1.00  0.00     0.039 A 
ATOM     29  C   UNL A   1      36.197  32.542  28.150  1.00  0.00     0.014 A 
ATOM     30  C   UNL A   1      35.012  30.442  28.409  1.00  0.00     0.014 A 
ATOM     31  C   UNL A   1      37.347  31.954  28.682  1.00  0.00     0.010 A 
ATOM     32  C   UNL A   1      36.134  29.883  29.013  1.00  0.00     0.010 A 
ATOM     33  C   UNL A   1      37.309  30.638  29.169  1.00  0.00    -0.014 A 
BRANCH  33  34
ATOM     34  C   UNL A   1      38.475  30.028  29.860  1.00  0.00     0.031 A 
ATOM     35  C   UNL A   1      38.840  30.478  31.248  1.00  0.00     0.074 A 
ATOM     36  C   UNL A   1      39.258  29.146  29.206  1.00  0.00     0.049 A 
ATOM     37  N   UNL A   1      39.887  30.176  31.970  1.00  0.00    -0.248 NA
ATOM     38  C   UNL A   1      37.920  31.430  31.888  1.00  0.00     0.031 C 
ATOM     39  C   UNL A   1      39.039  28.671  27.837  1.00  0.00     0.029 A 
ATOM     40  N   UNL A   1      40.405  28.501  29.598  1.00  0.00    -0.354 N 
ATOM     41  C   UNL A   1      39.768  30.921  33.138  1.00  0.00     0.074 A 
ATOM     42  C   UNL A   1      38.577  31.733  32.996  1.00  0.00     0.031 C 
ATOM     43  C   UNL A   1      40.008  27.797  27.513  1.00  0.00     0.029 A 
ATOM     44  C   UNL A   1      40.939  27.682  28.631  1.00  0.00     0.049 A 
ATOM     45  H   UNL A   1      40.808  28.616  30.489  1.00  0.00     0.167 HD
ATOM     46  C   UNL A   1      40.563  30.912  34.237  1.00  0.00     0.034 A 
ATOM     47  C   UNL A   1      42.059  26.932  28.638  1.00  0.00     0.034 A 
ATOM     48  C   UNL A   1      41.730  30.074  34.373  1.00  0.00     0.049 A 
ATOM     49  C   UNL A   1      42.922  26.926  29.874  1.00  0.00     0.074 A 
ATOM     50  C   UNL A   1      42.572  29.936  35.463  1.00  0.00     0.029 A 
ATOM     51  N   UNL A   1      42.220  29.230  33.384  1.00  0.00    -0.354 N 
ATOM     52  N   UNL A   1      42.771  27.602  30.990  1.00  0.00    -0.248 NA
ATOM     53  C   UNL A   1      44.099  26.048  29.856  1.00  0.00     0.031 C 
ATOM     54  C   UNL A   1      43.598  29.050  35.116  1.00  0.00     0.029 A 
ATOM     55  C   UNL A   1      43.362  28.585  33.831  1.00  0.00     0.049 A 
ATOM     56  H   UNL A   1      41.815  29.108  32.495  1.00  0.00     0.167 HD
ATOM     57  C   UNL A   1      43.819  27.209  31.816  1.00  0.00     0.074 A 
ATOM     58  C   UNL A   1      44.587  26.229  31.074  1.00  0.00     0.031 C 
ATOM     59  C   UNL A   1      44.119  27.616  33.075  1.00  0.00     0.034 A 
BRANCH  46  60
ATOM     60  C   UNL A   1      40.200  31.854  35.359  1.00  0.00     0.023 A 
ATOM     61  C   UNL A   1      39.313  31.473  36.382  1.00  0.00     0.031 A 
ATOM     62  C   UNL A   1      40.706  33.165  35.383  1.00  0.00     0.131 A 
ATOM     63  C   UNL A   1      38.888  32.416  37.329  1.00  0.00     0.055 A 
ATOM     64  C   UNL A   1      40.347  34.074  36.381  1.00  0.00     0.041 A 
ATOM     65  F   UNL A   1      41.541  33.593  34.424  1.00  0.00    -0.206 F 
ATOM     66  C   UNL A   1      39.418  33.708  37.351  1.00  0.00     0.022 A 
BRANCH  63  67
ATOM     67  S   UNL A   1      37.516  31.975  38.431  1.00  0.00     0.124 S 
ATOM     68  O   UNL A   1      37.225  30.609  38.002  1.00  0.00    -0.237 OA
ATOM     69  O   UNL A   1      38.114  32.116  39.752  1.00  0.00    -0.237 OA
ATOM     70  O   UNL A   1      36.485  32.956  38.103  1.00  0.00    -0.744 OA
ENDBRANCH  63  67
ENDBRANCH  46  60
BRANCH  47  71
ATOM     71  C   UNL A   1      42.439  26.127  27.443  1.00  0.00     0.023 A 
ATOM     72  C   UNL A   1      42.071  24.776  27.337  1.00  0.00     0.031 A 
ATOM     73  C   UNL A   1      43.210  26.685  26.408  1.00  0.00     0.131 A 
ATOM     74  C   UNL A   1      42.509  24.016  26.242  1.00  0.00     0.055 A 
ATOM     75  C   UNL A   1      43.605  25.936  25.297  1.00  0.00     0.041 A 
ATOM     76  F   UNL A   1      43.579  27.975  26.458  1.00  0.00    -0.206 F 
ATOM     77  C   UNL A   1      43.266  24.588  25.216  1.00  0.00     0.022 A 
BRANCH  74  78
ATOM     78  S   UNL A   1      42.139  22.240  26.214  1.00  0.00     0.124 S 
ATOM     79  O   UNL A   1      42.632  21.812  27.518  1.00  0.00    -0.237 OA
ATOM     80  O   UNL A   1      40.689  22.237  26.042  1.00  0.00    -0.237 OA
ATOM     81  O   UNL A   1      42.901  21.751  25.067  1.00  0.00    -0.744 OA
ENDBRANCH  74  78
ENDBRANCH  47  71
BRANCH  59  82
ATOM     82  C   UNL A   1      45.302  26.961  33.740  1.00  0.00     0.023 A 
ATOM     83  C   UNL A   1      45.177  25.753  34.447  1.00  0.00     0.031 A 
ATOM     84  C   UNL A   1      46.571  27.563  33.671  1.00  0.00     0.131 A 
ATOM     85  C   UNL A   1      46.293  25.209  35.100  1.00  0.00     0.055 A 
ATOM     86  C   UNL A   1      47.689  26.989  34.278  1.00  0.00     0.041 A 
ATOM     87  F   UNL A   1      46.744  28.717  33.008  1.00  0.00    -0.206 F 
ATOM     88  C   UNL A   1      47.550  25.812  35.008  1.00  0.00     0.022 A 
BRANCH  85  89
ATOM     89  S   UNL A   1      46.065  23.739  36.138  1.00  0.00     0.124 S 
ATOM     90  O   UNL A   1      44.725  23.304  35.758  1.00  0.00    -0.237 OA
ATOM     91  O   UNL A   1      47.161  22.879  35.706  1.00  0.00    -0.237 OA
ATOM     92  O   UNL A   1      46.185  24.258  37.499  1.00  0.00    -0.744 OA
ENDBRANCH  85  89
ENDBRANCH  59  82
ENDBRANCH  33  34
ENDBRANCH  25  28
ENDBRANCH  23  24
ENDBRANCH   1  23
TORSDOF 17
ENDMDL
MODEL 2
REMARK VINA RESULT:     -11.6      2.043      2.700
REMARK SMILES [NH3+][C@@]1(C(=O)NCCCCNC(=O)c2ccc(-c3c4nc(c(-c5cc(S(=O)(=O)[O-])ccc5F)c5ccc([nH]5)c(-c5cc(S(=O)(=O)[O-])ccc5F)c5nc(c(-c6cc(S(=O)(=O)[O-])ccc6F)c6ccc3[nH]6)C=C5)C=C4)cc2)CC[C@H](Sc2cccs2)C1
REMARK SMILES IDX 8 1 7 2 6 3 5 4 3 5 4 6 2 8 76 9 85 10 77 11 78 12 1 13
REMARK SMILES IDX 79 17 80 18 81 19 84 20 82 21 83 22 9 23 10 24 11 25 12 27
REMARK SMILES IDX 13 28 14 29 75 30 15 31 74 32 16 33 17 34 18 35 68 36 19 37
REMARK SMILES IDX 73 38 67 39 69 40 20 41 72 42 66 43 65 44 21 46 53 47 33 48
REMARK SMILES IDX 52 49 34 50 37 51 51 52 70 53 35 54 36 55 50 57 71 58 38 59
REMARK SMILES IDX 22 60 23 61 31 62 24 63 30 64 32 65 29 66 25 67 26 68 27 69
REMARK SMILES IDX 28 70 54 71 55 72 63 73 56 74 62 75 64 76 61 77 57 78 58 79
REMARK SMILES IDX 59 80 60 81 39 82 40 83 48 84 41 85 47 86 49 87 46 88 42 89
REMARK SMILES IDX 43 90 44 91 45 92
REMARK H PARENT 5 7 1 14 1 15 1 16 10 26 69 45 37 56
REMARK Flexibility Score: inf
ROOT
ATOM      1  C   UNL A   1      31.486  29.010  26.427  1.00  0.00     0.023 C 
ENDROOT
BRANCH   1   2
ATOM      2  C   UNL A   1      31.932  27.645  26.935  1.00  0.00     0.023 C 
BRANCH   2   3
ATOM      3  C   UNL A   1      31.616  26.477  26.009  1.00  0.00     0.116 C 
BRANCH   3   4
ATOM      4  N   UNL A   1      30.824  25.455  26.656  1.00  0.00    -0.351 N 
ATOM      5  C   UNL A   1      30.857  24.101  26.561  1.00  0.00     0.281 C 
ATOM      6  O   UNL A   1      30.031  23.484  27.250  1.00  0.00    -0.268 OA
ATOM      7  H   UNL A   1      30.142  25.802  27.275  1.00  0.00     0.163 HD
BRANCH   5   8
ATOM      8  C   UNL A   1      31.890  23.303  25.685  1.00  0.00     0.175 C 
ATOM      9  C   UNL A   1      33.344  23.708  25.990  1.00  0.00     0.080 C 
ATOM     10  C   UNL A   1      31.711  23.427  24.165  1.00  0.00     0.094 C 
ATOM     11  C   UNL A   1      33.866  24.427  24.751  1.00  0.00     0.022 C 
ATOM     12  C   UNL A   1      33.092  23.799  23.596  1.00  0.00     0.059 C 
BRANCH   8  13
ATOM     13  N   UNL A   1      31.743  21.864  26.053  1.00  0.00    -0.345 N 
ATOM     14  H   UNL A   1      30.793  21.692  26.383  1.00  0.00     0.345 HD
ATOM     15  H   UNL A   1      32.407  21.633  26.793  1.00  0.00     0.345 HD
ATOM     16  H   UNL A   1      31.929  21.283  25.235  1.00  0.00     0.345 HD
ENDBRANCH   8  13
BRANCH  12  17
ATOM     17  S   UNL A   1      32.908  24.693  22.018  1.00  0.00    -0.112 SA
BRANCH  17  18
ATOM     18  C   UNL A   1      32.637  26.384  22.395  1.00  0.00     0.060 A 
ATOM     19  C   UNL A   1      33.584  27.366  22.593  1.00  0.00     0.027 A 
ATOM     20  S   UNL A   1      31.053  27.041  22.409  1.00  0.00    -0.137 S 
ATOM     21  C   UNL A   1      33.002  28.653  22.806  1.00  0.00     0.013 A 
ATOM     22  C   UNL A   1      31.628  28.616  22.738  1.00  0.00     0.066 A 
ENDBRANCH  17  18
ENDBRANCH  12  17
ENDBRANCH   5   8
ENDBRANCH   3   4
ENDBRANCH   2   3
ENDBRANCH   1   2
BRANCH   1  23
ATOM     23  C   UNL A   1      32.606  29.984  26.077  1.00  0.00     0.116 C 
BRANCH  23  24
ATOM     24  N   UNL A   1      32.394  31.348  26.545  1.00  0.00    -0.352 N 
ATOM     25  C   UNL A   1      33.238  32.128  27.308  1.00  0.00     0.251 C 
ATOM     26  H   UNL A   1      31.541  31.765  26.284  1.00  0.00     0.163 HD
ATOM     27  O   UNL A   1      32.910  33.256  27.647  1.00  0.00    -0.269 OA
BRANCH  25  28
ATOM     28  C   UNL A   1      34.523  31.545  27.754  1.00  0.00     0.039 A 
ATOM     29  C   UNL A   1      35.600  32.400  28.001  1.00  0.00     0.014 A 
ATOM     30  C   UNL A   1      34.618  30.181  28.037  1.00  0.00     0.014 A 
ATOM     31  C   UNL A   1      36.743  31.899  28.627  1.00  0.00     0.010 A 
ATOM     32  C   UNL A   1      35.724  29.704  28.734  1.00  0.00     0.010 A 
ATOM     33  C   UNL A   1      36.792  30.560  29.049  1.00  0.00    -0.014 A 
BRANCH  33  34
ATOM     34  C   UNL A   1      37.938  30.031  29.834  1.00  0.00     0.031 A 
ATOM     35  C   UNL A   1      38.169  30.519  31.238  1.00  0.00     0.074 A 
ATOM     36  C   UNL A   1      38.818  29.190  29.255  1.00  0.00     0.049 A 
ATOM     37  N   UNL A   1      39.176  30.290  32.040  1.00  0.00    -0.248 NA
ATOM     38  C   UNL A   1      37.149  31.421  31.792  1.00  0.00     0.031 C 
ATOM     39  C   UNL A   1      38.732  28.686  27.881  1.00  0.00     0.029 A 
ATOM     40  N   UNL A   1      39.970  28.622  29.741  1.00  0.00    -0.354 N 
ATOM     41  C   UNL A   1      38.925  31.041  33.184  1.00  0.00     0.074 A 
ATOM     42  C   UNL A   1      37.701  31.777  32.940  1.00  0.00     0.031 C 
ATOM     43  C   UNL A   1      39.772  27.870  27.645  1.00  0.00     0.029 A 
ATOM     44  C   UNL A   1      40.623  27.825  28.830  1.00  0.00     0.049 A 
ATOM     45  H   UNL A   1      40.297  28.772  30.657  1.00  0.00     0.167 HD
ATOM     46  C   UNL A   1      39.635  31.094  34.338  1.00  0.00     0.034 A 
ATOM     47  C   UNL A   1      41.781  27.144  28.932  1.00  0.00     0.034 A 
ATOM     48  C   UNL A   1      40.836  30.331  34.575  1.00  0.00     0.049 A 
ATOM     49  C   UNL A   1      42.548  27.206  30.229  1.00  0.00     0.074 A 
ATOM     50  C   UNL A   1      41.601  30.258  35.725  1.00  0.00     0.029 A 
ATOM     51  N   UNL A   1      41.449  29.506  33.639  1.00  0.00    -0.354 N 
ATOM     52  N   UNL A   1      42.274  27.886  31.319  1.00  0.00    -0.248 NA
ATOM     53  C   UNL A   1      43.774  26.402  30.312  1.00  0.00     0.031 C 
ATOM     54  C   UNL A   1      42.702  29.431  35.470  1.00  0.00     0.029 A 
ATOM     55  C   UNL A   1      42.591  28.937  34.180  1.00  0.00     0.049 A 
ATOM     56  H   UNL A   1      41.119  29.348  32.724  1.00  0.00     0.167 HD
ATOM     57  C   UNL A   1      43.279  27.567  32.227  1.00  0.00     0.074 A 
ATOM     58  C   UNL A   1      44.158  26.627  31.560  1.00  0.00     0.031 C 
ATOM     59  C   UNL A   1      43.459  28.007  33.497  1.00  0.00     0.034 A 
BRANCH  46  60
ATOM     60  C   UNL A   1      39.133  32.026  35.415  1.00  0.00     0.023 A 
ATOM     61  C   UNL A   1      39.571  33.359  35.497  1.00  0.00     0.031 A 
ATOM     62  C   UNL A   1      38.244  31.564  36.401  1.00  0.00     0.131 A 
ATOM     63  C   UNL A   1      39.195  34.155  36.589  1.00  0.00     0.055 A 
ATOM     64  C   UNL A   1      37.803  32.389  37.438  1.00  0.00     0.041 A 
ATOM     65  F   UNL A   1      37.806  30.296  36.388  1.00  0.00    -0.206 F 
ATOM     66  C   UNL A   1      38.294  33.688  37.548  1.00  0.00     0.022 A 
BRANCH  63  67
ATOM     67  S   UNL A   1      40.025  35.751  36.821  1.00  0.00     0.124 S 
ATOM     68  O   UNL A   1      39.655  36.454  35.594  1.00  0.00    -0.237 OA
ATOM     69  O   UNL A   1      39.419  36.248  38.049  1.00  0.00    -0.237 OA
ATOM     70  O   UNL A   1      41.438  35.391  36.921  1.00  0.00    -0.744 OA
ENDBRANCH  63  67
ENDBRANCH  46  60
BRANCH  47  71
ATOM     71  C   UNL A   1      42.298  26.350  27.783  1.00  0.00     0.023 A 
ATOM     72  C   UNL A   1      41.900  25.017  27.590  1.00  0.00     0.031 A 
ATOM     73  C   UNL A   1      43.227  26.898  26.882  1.00  0.00     0.131 A 
ATOM     74  C   UNL A   1      42.461  24.263  26.549  1.00  0.00     0.055 A 
ATOM     75  C   UNL A   1      43.748  26.157  25.818  1.00  0.00     0.041 A 
ATOM     76  F   UNL A   1      43.633  28.171  27.016  1.00  0.00    -0.206 F 
ATOM     77  C   UNL A   1      43.375  24.826  25.655  1.00  0.00     0.022 A 
BRANCH  74  78
ATOM     78  S   UNL A   1      42.033  22.505  26.422  1.00  0.00     0.124 S 
ATOM     79  O   UNL A   1      40.575  22.551  26.435  1.00  0.00    -0.237 OA
ATOM     80  O   UNL A   1      42.653  22.134  25.153  1.00  0.00    -0.237 OA
ATOM     81  O   UNL A   1      42.650  21.917  27.610  1.00  0.00    -0.744 OA
ENDBRANCH  74  78
ENDBRANCH  47  71
BRANCH  59  82
ATOM     82  C   UNL A   1      44.626  27.434  34.259  1.00  0.00     0.023 A 
ATOM     83  C   UNL A   1      44.509  26.252  35.011  1.00  0.00     0.031 A 
ATOM     84  C   UNL A   1      45.871  28.087  34.238  1.00  0.00     0.131 A 
ATOM     85  C   UNL A   1      45.605  25.786  35.752  1.00  0.00     0.055 A 
ATOM     86  C   UNL A   1      46.973  27.590  34.934  1.00  0.00     0.041 A 
ATOM     87  F   UNL A   1      46.036  29.219  33.535  1.00  0.00    -0.206 F 
ATOM     88  C   UNL A   1      46.840  26.440  35.706  1.00  0.00     0.022 A 
BRANCH  85  89
ATOM     89  S   UNL A   1      45.376  24.353  36.840  1.00  0.00     0.124 S 
ATOM     90  O   UNL A   1      46.727  24.137  37.347  1.00  0.00    -0.237 OA
ATOM     91  O   UNL A   1      44.403  24.848  37.807  1.00  0.00    -0.237 OA
ATOM     92  O   UNL A   1      44.879  23.314  35.939  1.00  0.00    -0.744 OA
ENDBRANCH  85  89
ENDBRANCH  59  82
ENDBRANCH  33  34
ENDBRANCH  25  28
ENDBRANCH  23  24
ENDBRANCH   1  23
TORSDOF 17
ENDMDL
MODEL 3
REMARK VINA RESULT:     -11.5      2.373      8.109
REMARK SMILES [NH3+][C@@]1(C(=O)NCCCCNC(=O)c2ccc(-c3c4nc(c(-c5cc(S(=O)(=O)[O-])ccc5F)c5ccc([nH]5)c(-c5cc(S(=O)(=O)[O-])ccc5F)c5nc(c(-c6cc(S(=O)(=O)[O-])ccc6F)c6ccc3[nH]6)C=C5)C=C4)cc2)CC[C@H](Sc2cccs2)C1
REMARK SMILES IDX 8 1 7 2 6 3 5 4 3 5 4 6 2 8 76 9 85 10 77 11 78 12 1 13
REMARK SMILES IDX 79 17 80 18 81 19 84 20 82 21 83 22 9 23 10 24 11 25 12 27
REMARK SMILES IDX 13 28 14 29 75 30 15 31 74 32 16 33 17 34 18 35 68 36 19 37
REMARK SMILES IDX 73 38 67 39 69 40 20 41 72 42 66 43 65 44 21 46 53 47 33 48
REMARK SMILES IDX 52 49 34 50 37 51 51 52 70 53 35 54 36 55 50 57 71 58 38 59
REMARK SMILES IDX 22 60 23 61 31 62 24 63 30 64 32 65 29 66 25 67 26 68 27 69
REMARK SMILES IDX 28 70 54 71 55 72 63 73 56 74 62 75 64 76 61 77 57 78 58 79
REMARK SMILES IDX 59 80 60 81 39 82 40 83 48 84 41 85 47 86 49 87 46 88 42 89
REMARK SMILES IDX 43 90 44 91 45 92
REMARK H PARENT 5 7 1 14 1 15 1 16 10 26 69 45 37 56
REMARK Flexibility Score: inf
ROOT
ATOM      1  C   UNL A   1      31.501  29.407  26.796  1.00  0.00     0.023 C 
ENDROOT
BRANCH   1   2
ATOM      2  C   UNL A   1      32.149  28.061  27.094  1.00  0.00     0.023 C 
BRANCH   2   3
ATOM      3  C   UNL A   1      31.780  26.940  26.130  1.00  0.00     0.116 C 
BRANCH   3   4
ATOM      4  N   UNL A   1      32.932  26.182  25.696  1.00  0.00    -0.351 N 
ATOM      5  C   UNL A   1      33.449  25.966  24.459  1.00  0.00     0.281 C 
ATOM      6  O   UNL A   1      34.462  25.253  24.406  1.00  0.00    -0.268 OA
ATOM      7  H   UNL A   1      33.428  25.745  26.425  1.00  0.00     0.163 HD
BRANCH   5   8
ATOM      8  C   UNL A   1      32.873  26.598  23.139  1.00  0.00     0.175 C 
ATOM      9  C   UNL A   1      33.297  28.068  22.967  1.00  0.00     0.080 C 
ATOM     10  C   UNL A   1      31.344  26.563  22.996  1.00  0.00     0.094 C 
ATOM     11  C   UNL A   1      32.033  28.908  23.124  1.00  0.00     0.022 C 
ATOM     12  C   UNL A   1      30.912  27.996  22.637  1.00  0.00     0.059 C 
BRANCH   8  13
ATOM     13  N   UNL A   1      33.463  25.830  22.003  1.00  0.00    -0.345 N 
ATOM     14  H   UNL A   1      32.812  25.100  21.712  1.00  0.00     0.345 HD
ATOM     15  H   UNL A   1      34.341  25.403  22.301  1.00  0.00     0.345 HD
ATOM     16  H   UNL A   1      33.639  26.460  21.221  1.00  0.00     0.345 HD
ENDBRANCH   8  13
BRANCH  12  17
ATOM     17  S   UNL A   1      29.192  28.290  23.166  1.00  0.00    -0.112 SA
BRANCH  17  18
ATOM     18  C   UNL A   1      28.828  29.979  22.872  1.00  0.00     0.060 A 
ATOM     19  C   UNL A   1      29.052  31.049  23.711  1.00  0.00     0.027 A 
ATOM     20  S   UNL A   1      28.251  30.502  21.343  1.00  0.00    -0.137 S 
ATOM     21  C   UNL A   1      28.702  32.298  23.113  1.00  0.00     0.013 A 
ATOM     22  C   UNL A   1      28.245  32.142  21.824  1.00  0.00     0.066 A 
ENDBRANCH  17  18
ENDBRANCH  12  17
ENDBRANCH   5   8
ENDBRANCH   3   4
ENDBRANCH   2   3
ENDBRANCH   1   2
BRANCH   1  23
ATOM     23  C   UNL A   1      32.432  30.484  26.247  1.00  0.00     0.116 C 
BRANCH  23  24
ATOM     24  N   UNL A   1      32.149  31.832  26.722  1.00  0.00    -0.352 N 
ATOM     25  C   UNL A   1      32.965  32.664  27.460  1.00  0.00     0.251 C 
ATOM     26  H   UNL A   1      31.265  32.195  26.486  1.00  0.00     0.163 HD
ATOM     27  O   UNL A   1      32.578  33.770  27.809  1.00  0.00    -0.269 OA
BRANCH  25  28
ATOM     28  C   UNL A   1      34.296  32.163  27.868  1.00  0.00     0.039 A 
ATOM     29  C   UNL A   1      35.362  33.063  27.938  1.00  0.00     0.014 A 
ATOM     30  C   UNL A   1      34.454  30.841  28.289  1.00  0.00     0.014 A 
ATOM     31  C   UNL A   1      36.563  32.660  28.526  1.00  0.00     0.010 A 
ATOM     32  C   UNL A   1      35.621  30.468  28.948  1.00  0.00     0.010 A 
ATOM     33  C   UNL A   1      36.682  31.378  29.086  1.00  0.00    -0.014 A 
BRANCH  33  34
ATOM     34  C   UNL A   1      37.898  30.964  29.835  1.00  0.00     0.031 A 
ATOM     35  C   UNL A   1      38.847  29.970  29.226  1.00  0.00     0.074 A 
ATOM     36  C   UNL A   1      38.096  31.407  31.093  1.00  0.00     0.049 A 
ATOM     37  N   UNL A   1      39.885  29.378  29.759  1.00  0.00    -0.248 NA
ATOM     38  C   UNL A   1      38.560  29.555  27.845  1.00  0.00     0.031 C 
ATOM     39  C   UNL A   1      37.218  32.333  31.814  1.00  0.00     0.029 A 
ATOM     40  N   UNL A   1      39.090  31.127  31.997  1.00  0.00    -0.354 N 
ATOM     41  C   UNL A   1      40.359  28.501  28.789  1.00  0.00     0.074 A 
ATOM     42  C   UNL A   1      39.455  28.598  27.661  1.00  0.00     0.031 C 
ATOM     43  C   UNL A   1      37.724  32.558  33.038  1.00  0.00     0.029 A 
ATOM     44  C   UNL A   1      38.936  31.763  33.207  1.00  0.00     0.049 A 
ATOM     45  H   UNL A   1      39.844  30.526  31.797  1.00  0.00     0.167 HD
ATOM     46  C   UNL A   1      41.457  27.707  28.826  1.00  0.00     0.034 A 
ATOM     47  C   UNL A   1      39.678  31.703  34.330  1.00  0.00     0.034 A 
ATOM     48  C   UNL A   1      42.363  27.645  29.947  1.00  0.00     0.049 A 
ATOM     49  C   UNL A   1      40.903  30.824  34.346  1.00  0.00     0.074 A 
ATOM     50  C   UNL A   1      43.539  26.926  30.070  1.00  0.00     0.029 A 
ATOM     51  N   UNL A   1      42.192  28.331  31.144  1.00  0.00    -0.354 N 
ATOM     52  N   UNL A   1      41.365  30.034  33.403  1.00  0.00    -0.248 NA
ATOM     53  C   UNL A   1      41.712  30.836  35.571  1.00  0.00     0.031 C 
ATOM     54  C   UNL A   1      44.051  27.136  31.356  1.00  0.00     0.029 A 
ATOM     55  C   UNL A   1      43.229  28.037  32.015  1.00  0.00     0.049 A 
ATOM     56  H   UNL A   1      41.443  28.939  31.343  1.00  0.00     0.167 HD
ATOM     57  C   UNL A   1      42.533  29.478  33.914  1.00  0.00     0.074 A 
ATOM     58  C   UNL A   1      42.712  30.032  35.241  1.00  0.00     0.031 C 
ATOM     59  C   UNL A   1      43.386  28.593  33.337  1.00  0.00     0.034 A 
BRANCH  46  60
ATOM     60  C   UNL A   1      41.717  26.831  27.624  1.00  0.00     0.023 A 
ATOM     61  C   UNL A   1      41.300  25.489  27.587  1.00  0.00     0.031 A 
ATOM     62  C   UNL A   1      42.432  27.328  26.520  1.00  0.00     0.131 A 
ATOM     63  C   UNL A   1      41.679  24.666  26.516  1.00  0.00     0.055 A 
ATOM     64  C   UNL A   1      42.731  26.526  25.416  1.00  0.00     0.041 A 
ATOM     65  F   UNL A   1      42.873  28.595  26.505  1.00  0.00    -0.206 F 
ATOM     66  C   UNL A   1      42.371  25.181  25.418  1.00  0.00     0.022 A 
BRANCH  63  67
ATOM     67  S   UNL A   1      41.393  22.880  26.657  1.00  0.00     0.124 S 
ATOM     68  O   UNL A   1      42.064  22.381  25.459  1.00  0.00    -0.237 OA
ATOM     69  O   UNL A   1      42.029  22.557  27.927  1.00  0.00    -0.237 OA
ATOM     70  O   UNL A   1      39.936  22.765  26.639  1.00  0.00    -0.744 OA
ENDBRANCH  63  67
ENDBRANCH  46  60
BRANCH  47  71
ATOM     71  C   UNL A   1      39.293  32.487  35.537  1.00  0.00     0.023 A 
ATOM     72  C   UNL A   1      39.735  33.809  35.710  1.00  0.00     0.031 A 
ATOM     73  C   UNL A   1      38.509  31.914  36.554  1.00  0.00     0.131 A 
ATOM     74  C   UNL A   1      39.427  34.500  36.891  1.00  0.00     0.055 A 
ATOM     75  C   UNL A   1      38.166  32.623  37.708  1.00  0.00     0.041 A 
ATOM     76  F   UNL A   1      38.053  30.657  36.432  1.00  0.00    -0.206 F 
ATOM     77  C   UNL A   1      38.637  33.920  37.887  1.00  0.00     0.022 A 
BRANCH  74  78
ATOM     78  S   UNL A   1      40.138  36.150  37.142  1.00  0.00     0.124 S 
ATOM     79  O   UNL A   1      39.926  36.767  35.837  1.00  0.00    -0.237 OA
ATOM     80  O   UNL A   1      39.323  36.667  38.237  1.00  0.00    -0.237 OA
ATOM     81  O   UNL A   1      41.532  35.872  37.482  1.00  0.00    -0.744 OA
ENDBRANCH  74  78
ENDBRANCH  47  71
BRANCH  59  82
ATOM     82  C   UNL A   1      44.611  28.213  34.128  1.00  0.00     0.023 A 
ATOM     83  C   UNL A   1      45.810  28.940  34.029  1.00  0.00     0.031 A 
ATOM     84  C   UNL A   1      44.578  27.099  34.986  1.00  0.00     0.131 A 
ATOM     85  C   UNL A   1      46.943  28.515  34.739  1.00  0.00     0.055 A 
ATOM     86  C   UNL A   1      45.694  26.713  35.730  1.00  0.00     0.041 A 
ATOM     87  F   UNL A   1      43.458  26.371  35.116  1.00  0.00    -0.206 F 
ATOM     88  C   UNL A   1      46.888  27.416  35.599  1.00  0.00     0.022 A 
BRANCH  85  89
ATOM     89  S   UNL A   1      48.516  29.376  34.464  1.00  0.00     0.124 S 
ATOM     90  O   UNL A   1      48.778  29.090  33.058  1.00  0.00    -0.237 OA
ATOM     91  O   UNL A   1      48.174  30.759  34.781  1.00  0.00    -0.237 OA
ATOM     92  O   UNL A   1      49.428  28.733  35.409  1.00  0.00    -0.744 OA
ENDBRANCH  85  89
ENDBRANCH  59  82
ENDBRANCH  33  34
ENDBRANCH  25  28
ENDBRANCH  23  24
ENDBRANCH   1  23
TORSDOF 17
ENDMDL
