MODEL 1
REMARK VINA RESULT:     -13.0      0.000      0.000
REMARK SMILES O=C(NCCCCNC(=O)c1ccc(-c2c3nc(c(-c4cc(S(=O)(=O)[O-])ccc4F)c4ccc([nH]4)c(-c4cc(S(=O)(=O)[O-])ccc4F)c4nc(c(-c5cc(S(=O)(=O)[O-])ccc5F)c5ccc2[nH]5)C=C4)C=C3)cc1)C1=Cc2cc(Cl)c(Cl)c(Cl)c2O[C@@H]1C(F)(F)F
REMARK SMILES IDX 6 1 5 2 4 3 3 4 1 5 2 6 74 8 75 9 86 10 76 11 85 12 77 13
REMARK SMILES IDX 84 14 78 15 82 16 79 17 80 18 83 19 81 20 87 21 88 22 89 23
REMARK SMILES IDX 90 24 7 25 8 26 9 27 10 29 11 30 12 31 73 32 13 33 72 34
REMARK SMILES IDX 14 35 15 36 16 37 66 38 17 39 71 40 65 41 67 42 18 43 70 44
REMARK SMILES IDX 64 45 63 46 19 48 51 49 31 50 50 51 32 52 35 53 49 54 68 55
REMARK SMILES IDX 33 56 34 57 48 59 69 60 36 61 20 62 21 63 29 64 22 65 28 66
REMARK SMILES IDX 30 67 27 68 23 69 24 70 25 71 26 72 52 73 53 74 61 75 54 76
REMARK SMILES IDX 60 77 62 78 59 79 55 80 56 81 57 82 58 83 37 84 38 85 46 86
REMARK SMILES IDX 39 87 45 88 47 89 44 90 40 91 41 92 42 93 43 94
REMARK H PARENT 3 7 8 28 67 47 35 58
REMARK Flexibility Score: inf
ROOT
ATOM      1  C   UNL A   1      35.899  20.938  25.262  1.00  0.00     0.023 C 
ENDROOT
BRANCH   1   2
ATOM      2  C   UNL A   1      34.971  21.466  26.353  1.00  0.00     0.023 C 
BRANCH   2   3
ATOM      3  C   UNL A   1      33.496  21.575  25.962  1.00  0.00     0.116 C 
BRANCH   3   4
ATOM      4  N   UNL A   1      32.699  22.431  26.841  1.00  0.00    -0.352 N 
ATOM      5  O   UNL A   1      31.248  24.102  27.350  1.00  0.00    -0.270 OA
ATOM      6  C   UNL A   1      32.063  23.624  26.571  1.00  0.00     0.251 C 
ATOM      7  H   UNL A   1      32.602  22.106  27.766  1.00  0.00     0.163 HD
BRANCH   6   8
ATOM      8  C   UNL A   1      32.279  24.242  25.245  1.00  0.00     0.067 C 
ATOM      9  C   UNL A   1      31.287  24.356  24.350  1.00  0.00     0.025 C 
ATOM     10  C   UNL A   1      33.563  24.985  25.048  1.00  0.00     0.314 C 
ATOM     11  C   UNL A   1      31.131  25.763  23.922  1.00  0.00     0.020 A 
ATOM     12  O   UNL A   1      33.323  26.388  24.800  1.00  0.00    -0.474 OA
ATOM     13  C   UNL A   1      29.851  26.186  23.545  1.00  0.00     0.034 A 
ATOM     14  C   UNL A   1      32.095  26.731  24.274  1.00  0.00     0.148 A 
ATOM     15  C   UNL A   1      29.521  27.547  23.562  1.00  0.00     0.062 A 
ATOM     16  C   UNL A   1      31.774  28.101  24.252  1.00  0.00     0.103 A 
ATOM     17  Cl  UNL A   1      27.872  27.950  23.222  1.00  0.00    -0.083 Cl
ATOM     18  C   UNL A   1      30.475  28.513  23.916  1.00  0.00     0.082 A 
ATOM     19  Cl  UNL A   1      32.981  29.249  24.754  1.00  0.00    -0.079 Cl
ATOM     20  Cl  UNL A   1      30.033  30.190  23.997  1.00  0.00    -0.081 Cl
BRANCH  10  21
ATOM     21  C   UNL A   1      34.395  24.364  23.908  1.00  0.00     0.429 C 
ATOM     22  F   UNL A   1      35.692  24.213  24.267  1.00  0.00    -0.167 F 
ATOM     23  F   UNL A   1      33.940  23.139  23.556  1.00  0.00    -0.167 F 
ATOM     24  F   UNL A   1      34.382  25.129  22.788  1.00  0.00    -0.167 F 
ENDBRANCH  10  21
ENDBRANCH   6   8
ENDBRANCH   3   4
ENDBRANCH   2   3
ENDBRANCH   1   2
BRANCH   1  25
ATOM     25  C   UNL A   1      37.275  21.597  25.153  1.00  0.00     0.116 C 
BRANCH  25  26
ATOM     26  N   UNL A   1      38.402  20.706  25.386  1.00  0.00    -0.352 N 
ATOM     27  C   UNL A   1      39.562  20.937  26.107  1.00  0.00     0.251 C 
ATOM     28  H   UNL A   1      38.329  19.814  24.975  1.00  0.00     0.163 HD
ATOM     29  O   UNL A   1      40.427  20.083  26.172  1.00  0.00    -0.269 OA
BRANCH  27  30
ATOM     30  C   UNL A   1      39.762  22.268  26.726  1.00  0.00     0.039 A 
ATOM     31  C   UNL A   1      40.742  22.403  27.713  1.00  0.00     0.014 A 
ATOM     32  C   UNL A   1      39.086  23.389  26.242  1.00  0.00     0.014 A 
ATOM     33  C   UNL A   1      41.148  23.680  28.107  1.00  0.00     0.010 A 
ATOM     34  C   UNL A   1      39.547  24.659  26.575  1.00  0.00     0.010 A 
ATOM     35  C   UNL A   1      40.610  24.815  27.480  1.00  0.00    -0.014 A 
BRANCH  35  36
ATOM     36  C   UNL A   1      41.198  26.165  27.689  1.00  0.00     0.031 A 
ATOM     37  C   UNL A   1      42.584  26.472  27.200  1.00  0.00     0.074 A 
ATOM     38  C   UNL A   1      40.519  27.075  28.419  1.00  0.00     0.049 A 
ATOM     39  N   UNL A   1      43.309  27.545  27.387  1.00  0.00    -0.248 NA
ATOM     40  C   UNL A   1      43.255  25.415  26.430  1.00  0.00     0.031 C 
ATOM     41  C   UNL A   1      39.192  26.869  29.007  1.00  0.00     0.029 A 
ATOM     42  N   UNL A   1      40.857  28.346  28.813  1.00  0.00    -0.354 N 
ATOM     43  C   UNL A   1      44.530  27.288  26.773  1.00  0.00     0.074 A 
ATOM     44  C   UNL A   1      44.462  25.933  26.264  1.00  0.00     0.031 C 
ATOM     45  C   UNL A   1      38.826  27.976  29.673  1.00  0.00     0.029 A 
ATOM     46  C   UNL A   1      39.906  28.954  29.601  1.00  0.00     0.049 A 
ATOM     47  H   UNL A   1      41.702  28.783  28.558  1.00  0.00     0.167 HD
ATOM     48  C   UNL A   1      45.598  28.111  26.630  1.00  0.00     0.034 A 
ATOM     49  C   UNL A   1      39.907  30.155  30.213  1.00  0.00     0.034 A 
ATOM     50  C   UNL A   1      45.642  29.462  27.138  1.00  0.00     0.049 A 
ATOM     51  C   UNL A   1      41.104  31.054  30.045  1.00  0.00     0.074 A 
ATOM     52  C   UNL A   1      46.640  30.409  26.988  1.00  0.00     0.029 A 
ATOM     53  N   UNL A   1      44.648  30.053  27.908  1.00  0.00    -0.354 N 
ATOM     54  N   UNL A   1      42.223  30.822  29.399  1.00  0.00    -0.248 NA
ATOM     55  C   UNL A   1      41.034  32.376  30.679  1.00  0.00     0.031 C 
ATOM     56  C   UNL A   1      46.278  31.548  27.717  1.00  0.00     0.029 A 
ATOM     57  C   UNL A   1      45.023  31.339  28.268  1.00  0.00     0.049 A 
ATOM     58  H   UNL A   1      43.799  29.623  28.161  1.00  0.00     0.167 HD
ATOM     59  C   UNL A   1      42.984  31.979  29.535  1.00  0.00     0.074 A 
ATOM     60  C   UNL A   1      42.189  32.911  30.309  1.00  0.00     0.031 C 
ATOM     61  C   UNL A   1      44.226  32.248  29.059  1.00  0.00     0.034 A 
BRANCH  48  62
ATOM     62  C   UNL A   1      46.807  27.554  25.917  1.00  0.00     0.023 A 
ATOM     63  C   UNL A   1      47.128  27.937  24.603  1.00  0.00     0.031 A 
ATOM     64  C   UNL A   1      47.619  26.587  26.535  1.00  0.00     0.131 A 
ATOM     65  C   UNL A   1      48.169  27.295  23.919  1.00  0.00     0.055 A 
ATOM     66  C   UNL A   1      48.709  26.013  25.878  1.00  0.00     0.041 A 
ATOM     67  F   UNL A   1      47.353  26.167  27.783  1.00  0.00    -0.206 F 
ATOM     68  C   UNL A   1      48.978  26.351  24.555  1.00  0.00     0.022 A 
BRANCH  65  69
ATOM     69  S   UNL A   1      48.343  27.589  22.137  1.00  0.00     0.124 S 
ATOM     70  O   UNL A   1      48.576  26.236  21.636  1.00  0.00    -0.237 OA
ATOM     71  O   UNL A   1      47.058  28.187  21.791  1.00  0.00    -0.237 OA
ATOM     72  O   UNL A   1      49.494  28.485  22.048  1.00  0.00    -0.744 OA
ENDBRANCH  65  69
ENDBRANCH  48  62
BRANCH  49  73
ATOM     73  C   UNL A   1      38.750  30.570  31.058  1.00  0.00     0.023 A 
ATOM     74  C   UNL A   1      37.641  31.224  30.501  1.00  0.00     0.031 A 
ATOM     75  C   UNL A   1      38.751  30.335  32.445  1.00  0.00     0.131 A 
ATOM     76  C   UNL A   1      36.593  31.654  31.331  1.00  0.00     0.055 A 
ATOM     77  C   UNL A   1      37.686  30.725  33.260  1.00  0.00     0.041 A 
ATOM     78  F   UNL A   1      39.783  29.703  33.026  1.00  0.00    -0.206 F 
ATOM     79  C   UNL A   1      36.603  31.399  32.704  1.00  0.00     0.022 A 
BRANCH  76  80
ATOM     80  S   UNL A   1      35.238  32.611  30.597  1.00  0.00     0.124 S 
ATOM     81  O   UNL A   1      34.266  32.636  31.684  1.00  0.00    -0.237 OA
ATOM     82  O   UNL A   1      35.894  33.878  30.292  1.00  0.00    -0.237 OA
ATOM     83  O   UNL A   1      34.853  31.816  29.433  1.00  0.00    -0.744 OA
ENDBRANCH  76  80
ENDBRANCH  49  73
BRANCH  61  84
ATOM     84  C   UNL A   1      44.782  33.621  29.343  1.00  0.00     0.023 A 
ATOM     85  C   UNL A   1      44.667  34.668  28.412  1.00  0.00     0.031 A 
ATOM     86  C   UNL A   1      45.440  33.879  30.557  1.00  0.00     0.131 A 
ATOM     87  C   UNL A   1      45.243  35.916  28.694  1.00  0.00     0.055 A 
ATOM     88  C   UNL A   1      45.964  35.138  30.854  1.00  0.00     0.041 A 
ATOM     89  F   UNL A   1      45.578  32.912  31.478  1.00  0.00    -0.206 F 
ATOM     90  C   UNL A   1      45.877  36.163  29.914  1.00  0.00     0.022 A 
BRANCH  87  91
ATOM     91  S   UNL A   1      45.214  37.199  27.411  1.00  0.00     0.124 S 
ATOM     92  O   UNL A   1      45.891  38.307  28.077  1.00  0.00    -0.237 OA
ATOM     93  O   UNL A   1      45.948  36.567  26.319  1.00  0.00    -0.237 OA
ATOM     94  O   UNL A   1      43.789  37.403  27.162  1.00  0.00    -0.744 OA
ENDBRANCH  87  91
ENDBRANCH  61  84
ENDBRANCH  35  36
ENDBRANCH  27  30
ENDBRANCH  25  26
ENDBRANCH   1  25
TORSDOF 15
ENDMDL
MODEL 2
REMARK VINA RESULT:     -13.0      0.573      7.451
REMARK SMILES O=C(NCCCCNC(=O)c1ccc(-c2c3nc(c(-c4cc(S(=O)(=O)[O-])ccc4F)c4ccc([nH]4)c(-c4cc(S(=O)(=O)[O-])ccc4F)c4nc(c(-c5cc(S(=O)(=O)[O-])ccc5F)c5ccc2[nH]5)C=C4)C=C3)cc1)C1=Cc2cc(Cl)c(Cl)c(Cl)c2O[C@@H]1C(F)(F)F
REMARK SMILES IDX 6 1 5 2 4 3 3 4 1 5 2 6 74 8 75 9 86 10 76 11 85 12 77 13
REMARK SMILES IDX 84 14 78 15 82 16 79 17 80 18 83 19 81 20 87 21 88 22 89 23
REMARK SMILES IDX 90 24 7 25 8 26 9 27 10 29 11 30 12 31 73 32 13 33 72 34
REMARK SMILES IDX 14 35 15 36 16 37 66 38 17 39 71 40 65 41 67 42 18 43 70 44
REMARK SMILES IDX 64 45 63 46 19 48 51 49 31 50 50 51 32 52 35 53 49 54 68 55
REMARK SMILES IDX 33 56 34 57 48 59 69 60 36 61 20 62 21 63 29 64 22 65 28 66
REMARK SMILES IDX 30 67 27 68 23 69 24 70 25 71 26 72 52 73 53 74 61 75 54 76
REMARK SMILES IDX 60 77 62 78 59 79 55 80 56 81 57 82 58 83 37 84 38 85 46 86
REMARK SMILES IDX 39 87 45 88 47 89 44 90 40 91 41 92 42 93 43 94
REMARK H PARENT 3 7 8 28 67 47 35 58
REMARK Flexibility Score: inf
ROOT
ATOM      1  C   UNL A   1      35.584  20.922  25.188  1.00  0.00     0.023 C 
ENDROOT
BRANCH   1   2
ATOM      2  C   UNL A   1      34.649  21.415  26.291  1.00  0.00     0.023 C 
BRANCH   2   3
ATOM      3  C   UNL A   1      33.196  21.633  25.867  1.00  0.00     0.116 C 
BRANCH   3   4
ATOM      4  N   UNL A   1      32.430  22.503  26.761  1.00  0.00    -0.352 N 
ATOM      5  O   UNL A   1      31.035  24.212  27.297  1.00  0.00    -0.270 OA
ATOM      6  C   UNL A   1      31.832  23.719  26.509  1.00  0.00     0.251 C 
ATOM      7  H   UNL A   1      32.325  22.168  27.682  1.00  0.00     0.163 HD
BRANCH   6   8
ATOM      8  C   UNL A   1      32.063  24.347  25.190  1.00  0.00     0.067 C 
ATOM      9  C   UNL A   1      31.079  24.482  24.290  1.00  0.00     0.025 C 
ATOM     10  C   UNL A   1      33.357  25.078  25.009  1.00  0.00     0.314 C 
ATOM     11  C   UNL A   1      30.941  25.895  23.875  1.00  0.00     0.020 A 
ATOM     12  O   UNL A   1      33.135  26.486  24.774  1.00  0.00    -0.474 OA
ATOM     13  C   UNL A   1      29.668  26.336  23.494  1.00  0.00     0.034 A 
ATOM     14  C   UNL A   1      31.914  26.848  24.243  1.00  0.00     0.148 A 
ATOM     15  C   UNL A   1      29.354  27.700  23.523  1.00  0.00     0.062 A 
ATOM     16  C   UNL A   1      31.609  28.222  24.233  1.00  0.00     0.103 A 
ATOM     17  Cl  UNL A   1      27.712  28.126  23.176  1.00  0.00    -0.083 Cl
ATOM     18  C   UNL A   1      30.316  28.652  23.893  1.00  0.00     0.082 A 
ATOM     19  Cl  UNL A   1      32.825  29.350  24.754  1.00  0.00    -0.079 Cl
ATOM     20  Cl  UNL A   1      29.893  30.333  23.988  1.00  0.00    -0.081 Cl
BRANCH  10  21
ATOM     21  C   UNL A   1      34.190  24.459  23.869  1.00  0.00     0.429 C 
ATOM     22  F   UNL A   1      35.464  24.219  24.260  1.00  0.00    -0.167 F 
ATOM     23  F   UNL A   1      33.679  23.277  23.450  1.00  0.00    -0.167 F 
ATOM     24  F   UNL A   1      34.256  25.269  22.783  1.00  0.00    -0.167 F 
ENDBRANCH  10  21
ENDBRANCH   6   8
ENDBRANCH   3   4
ENDBRANCH   2   3
ENDBRANCH   1   2
BRANCH   1  25
ATOM     25  C   UNL A   1      36.982  21.541  25.147  1.00  0.00     0.116 C 
BRANCH  25  26
ATOM     26  N   UNL A   1      38.078  20.586  25.218  1.00  0.00    -0.352 N 
ATOM     27  C   UNL A   1      39.298  20.704  25.865  1.00  0.00     0.251 C 
ATOM     28  H   UNL A   1      37.932  19.736  24.741  1.00  0.00     0.163 HD
ATOM     29  O   UNL A   1      40.122  19.812  25.793  1.00  0.00    -0.269 OA
BRANCH  27  30
ATOM     30  C   UNL A   1      39.607  21.967  26.576  1.00  0.00     0.039 A 
ATOM     31  C   UNL A   1      40.580  21.945  27.577  1.00  0.00     0.014 A 
ATOM     32  C   UNL A   1      39.040  23.174  26.163  1.00  0.00     0.014 A 
ATOM     33  C   UNL A   1      41.093  23.151  28.062  1.00  0.00     0.010 A 
ATOM     34  C   UNL A   1      39.609  24.372  26.587  1.00  0.00     0.010 A 
ATOM     35  C   UNL A   1      40.668  24.370  27.510  1.00  0.00    -0.014 A 
BRANCH  35  36
ATOM     36  C   UNL A   1      41.372  25.645  27.815  1.00  0.00     0.031 A 
ATOM     37  C   UNL A   1      40.661  26.748  28.542  1.00  0.00     0.074 A 
ATOM     38  C   UNL A   1      42.618  25.841  27.335  1.00  0.00     0.049 A 
ATOM     39  N   UNL A   1      41.064  27.967  28.796  1.00  0.00    -0.248 NA
ATOM     40  C   UNL A   1      39.300  26.452  29.011  1.00  0.00     0.031 C 
ATOM     41  C   UNL A   1      43.388  24.867  26.555  1.00  0.00     0.029 A 
ATOM     42  N   UNL A   1      43.450  26.930  27.410  1.00  0.00    -0.354 N 
ATOM     43  C   UNL A   1      40.001  28.591  29.440  1.00  0.00     0.074 A 
ATOM     44  C   UNL A   1      38.917  27.630  29.479  1.00  0.00     0.031 C 
ATOM     45  C   UNL A   1      44.579  25.398  26.237  1.00  0.00     0.029 A 
ATOM     46  C   UNL A   1      44.645  26.763  26.747  1.00  0.00     0.049 A 
ATOM     47  H   UNL A   1      43.215  27.756  27.893  1.00  0.00     0.167 HD
ATOM     48  C   UNL A   1      39.943  29.839  29.967  1.00  0.00     0.034 A 
ATOM     49  C   UNL A   1      45.672  27.615  26.555  1.00  0.00     0.034 A 
ATOM     50  C   UNL A   1      41.038  30.778  29.924  1.00  0.00     0.049 A 
ATOM     51  C   UNL A   1      45.586  28.998  27.144  1.00  0.00     0.074 A 
ATOM     52  C   UNL A   1      41.116  32.040  30.488  1.00  0.00     0.029 A 
ATOM     53  N   UNL A   1      42.243  30.563  29.268  1.00  0.00    -0.354 N 
ATOM     54  N   UNL A   1      44.600  29.549  27.814  1.00  0.00    -0.248 NA
ATOM     55  C   UNL A   1      46.752  29.871  26.961  1.00  0.00     0.031 C 
ATOM     56  C   UNL A   1      42.341  32.610  30.122  1.00  0.00     0.029 A 
ATOM     57  C   UNL A   1      43.058  31.680  29.384  1.00  0.00     0.049 A 
ATOM     58  H   UNL A   1      42.485  29.738  28.790  1.00  0.00     0.167 HD
ATOM     59  C   UNL A   1      45.036  30.827  28.148  1.00  0.00     0.074 A 
ATOM     60  C   UNL A   1      46.379  30.958  27.620  1.00  0.00     0.031 C 
ATOM     61  C   UNL A   1      44.387  31.803  28.833  1.00  0.00     0.034 A 
BRANCH  48  62
ATOM     62  C   UNL A   1      38.640  30.256  30.608  1.00  0.00     0.023 A 
ATOM     63  C   UNL A   1      37.620  30.875  29.865  1.00  0.00     0.031 A 
ATOM     64  C   UNL A   1      38.434  30.081  31.987  1.00  0.00     0.131 A 
ATOM     65  C   UNL A   1      36.485  31.379  30.516  1.00  0.00     0.055 A 
ATOM     66  C   UNL A   1      37.263  30.508  32.616  1.00  0.00     0.041 A 
ATOM     67  F   UNL A   1      39.379  29.512  32.753  1.00  0.00    -0.206 F 
ATOM     68  C   UNL A   1      36.288  31.180  31.884  1.00  0.00     0.022 A 
BRANCH  65  69
ATOM     69  S   UNL A   1      35.354  32.444  29.580  1.00  0.00     0.124 S 
ATOM     70  O   UNL A   1      36.271  33.448  29.044  1.00  0.00    -0.237 OA
ATOM     71  O   UNL A   1      34.782  31.518  28.609  1.00  0.00    -0.237 OA
ATOM     72  O   UNL A   1      34.426  32.937  30.595  1.00  0.00    -0.744 OA
ENDBRANCH  65  69
ENDBRANCH  48  62
BRANCH  49  73
ATOM     73  C   UNL A   1      46.856  27.197  25.751  1.00  0.00     0.023 A 
ATOM     74  C   UNL A   1      47.032  27.641  24.432  1.00  0.00     0.031 A 
ATOM     75  C   UNL A   1      47.819  26.325  26.290  1.00  0.00     0.131 A 
ATOM     76  C   UNL A   1      48.127  27.184  23.681  1.00  0.00     0.055 A 
ATOM     77  C   UNL A   1      48.930  25.908  25.553  1.00  0.00     0.041 A 
ATOM     78  F   UNL A   1      47.703  25.879  27.550  1.00  0.00    -0.206 F 
ATOM     79  C   UNL A   1      49.082  26.330  24.236  1.00  0.00     0.022 A 
BRANCH  76  80
ATOM     80  S   UNL A   1      48.252  27.674  21.939  1.00  0.00     0.124 S 
ATOM     81  O   UNL A   1      49.423  28.544  21.957  1.00  0.00    -0.237 OA
ATOM     82  O   UNL A   1      48.418  26.386  21.273  1.00  0.00    -0.237 OA
ATOM     83  O   UNL A   1      46.980  28.345  21.682  1.00  0.00    -0.744 OA
ENDBRANCH  76  80
ENDBRANCH  49  73
BRANCH  61  84
ATOM     84  C   UNL A   1      45.142  33.086  29.071  1.00  0.00     0.023 A 
ATOM     85  C   UNL A   1      45.140  34.127  28.125  1.00  0.00     0.031 A 
ATOM     86  C   UNL A   1      45.877  33.264  30.255  1.00  0.00     0.131 A 
ATOM     87  C   UNL A   1      45.897  35.284  28.363  1.00  0.00     0.055 A 
ATOM     88  C   UNL A   1      46.584  34.440  30.509  1.00  0.00     0.041 A 
ATOM     89  F   UNL A   1      45.913  32.299  31.188  1.00  0.00    -0.206 F 
ATOM     90  C   UNL A   1      46.606  35.454  29.555  1.00  0.00     0.022 A 
BRANCH  87  91
ATOM     91  S   UNL A   1      46.000  36.541  27.059  1.00  0.00     0.124 S 
ATOM     92  O   UNL A   1      47.032  37.432  27.578  1.00  0.00    -0.237 OA
ATOM     93  O   UNL A   1      46.370  35.749  25.889  1.00  0.00    -0.237 OA
ATOM     94  O   UNL A   1      44.653  37.108  27.021  1.00  0.00    -0.744 OA
ENDBRANCH  87  91
ENDBRANCH  61  84
ENDBRANCH  35  36
ENDBRANCH  27  30
ENDBRANCH  25  26
ENDBRANCH   1  25
TORSDOF 15
ENDMDL
MODEL 3
REMARK VINA RESULT:     -12.9      5.188      7.767
REMARK SMILES O=C(NCCCCNC(=O)c1ccc(-c2c3nc(c(-c4cc(S(=O)(=O)[O-])ccc4F)c4ccc([nH]4)c(-c4cc(S(=O)(=O)[O-])ccc4F)c4nc(c(-c5cc(S(=O)(=O)[O-])ccc5F)c5ccc2[nH]5)C=C4)C=C3)cc1)C1=Cc2cc(Cl)c(Cl)c(Cl)c2O[C@@H]1C(F)(F)F
REMARK SMILES IDX 6 1 5 2 4 3 3 4 1 5 2 6 74 8 75 9 86 10 76 11 85 12 77 13
REMARK SMILES IDX 84 14 78 15 82 16 79 17 80 18 83 19 81 20 87 21 88 22 89 23
REMARK SMILES IDX 90 24 7 25 8 26 9 27 10 29 11 30 12 31 73 32 13 33 72 34
REMARK SMILES IDX 14 35 15 36 16 37 66 38 17 39 71 40 65 41 67 42 18 43 70 44
REMARK SMILES IDX 64 45 63 46 19 48 51 49 31 50 50 51 32 52 35 53 49 54 68 55
REMARK SMILES IDX 33 56 34 57 48 59 69 60 36 61 20 62 21 63 29 64 22 65 28 66
REMARK SMILES IDX 30 67 27 68 23 69 24 70 25 71 26 72 52 73 53 74 61 75 54 76
REMARK SMILES IDX 60 77 62 78 59 79 55 80 56 81 57 82 58 83 37 84 38 85 46 86
REMARK SMILES IDX 39 87 45 88 47 89 44 90 40 91 41 92 42 93 43 94
REMARK H PARENT 3 7 8 28 67 47 35 58
REMARK Flexibility Score: inf
ROOT
ATOM      1  C   UNL A   1      31.601  28.796  25.811  1.00  0.00     0.023 C 
ENDROOT
BRANCH   1   2
ATOM      2  C   UNL A   1      31.672  27.504  26.622  1.00  0.00     0.023 C 
BRANCH   2   3
ATOM      3  C   UNL A   1      30.882  26.327  26.049  1.00  0.00     0.116 C 
BRANCH   3   4
ATOM      4  N   UNL A   1      30.937  25.110  26.859  1.00  0.00    -0.352 N 
ATOM      5  O   UNL A   1      31.805  23.142  27.589  1.00  0.00    -0.270 OA
ATOM      6  C   UNL A   1      31.709  23.979  26.700  1.00  0.00     0.251 C 
ATOM      7  H   UNL A   1      30.330  25.095  27.636  1.00  0.00     0.163 HD
BRANCH   6   8
ATOM      8  C   UNL A   1      32.540  23.871  25.481  1.00  0.00     0.067 C 
ATOM      9  C   UNL A   1      33.609  24.655  25.285  1.00  0.00     0.025 C 
ATOM     10  C   UNL A   1      32.314  22.671  24.615  1.00  0.00     0.314 C 
ATOM     11  C   UNL A   1      34.815  23.839  25.028  1.00  0.00     0.020 A 
ATOM     12  O   UNL A   1      33.494  21.839  24.555  1.00  0.00    -0.474 OA
ATOM     13  C   UNL A   1      36.050  24.365  25.426  1.00  0.00     0.034 A 
ATOM     14  C   UNL A   1      34.705  22.451  24.798  1.00  0.00     0.148 A 
ATOM     15  C   UNL A   1      37.146  23.520  25.636  1.00  0.00     0.062 A 
ATOM     16  C   UNL A   1      35.819  21.608  24.971  1.00  0.00     0.103 A 
ATOM     17  Cl  UNL A   1      38.582  24.252  26.268  1.00  0.00    -0.083 Cl
ATOM     18  C   UNL A   1      37.041  22.139  25.413  1.00  0.00     0.082 A 
ATOM     19  Cl  UNL A   1      35.614  19.897  24.733  1.00  0.00    -0.079 Cl
ATOM     20  Cl  UNL A   1      38.389  21.095  25.741  1.00  0.00    -0.081 Cl
BRANCH  10  21
ATOM     21  C   UNL A   1      31.866  23.086  23.199  1.00  0.00     0.429 C 
ATOM     22  F   UNL A   1      32.192  22.144  22.282  1.00  0.00    -0.167 F 
ATOM     23  F   UNL A   1      30.526  23.263  23.121  1.00  0.00    -0.167 F 
ATOM     24  F   UNL A   1      32.443  24.245  22.797  1.00  0.00    -0.167 F 
ENDBRANCH  10  21
ENDBRANCH   6   8
ENDBRANCH   3   4
ENDBRANCH   2   3
ENDBRANCH   1   2
BRANCH   1  25
ATOM     25  C   UNL A   1      32.772  29.768  25.964  1.00  0.00     0.116 C 
BRANCH  25  26
ATOM     26  N   UNL A   1      32.441  31.028  26.615  1.00  0.00    -0.352 N 
ATOM     27  C   UNL A   1      33.243  31.839  27.402  1.00  0.00     0.251 C 
ATOM     28  H   UNL A   1      31.521  31.348  26.475  1.00  0.00     0.163 HD
ATOM     29  O   UNL A   1      32.790  32.853  27.901  1.00  0.00    -0.269 OA
BRANCH  27  30
ATOM     30  C   UNL A   1      34.631  31.407  27.687  1.00  0.00     0.039 A 
ATOM     31  C   UNL A   1      35.609  32.388  27.870  1.00  0.00     0.014 A 
ATOM     32  C   UNL A   1      34.929  30.061  27.904  1.00  0.00     0.014 A 
ATOM     33  C   UNL A   1      36.845  32.032  28.415  1.00  0.00     0.010 A 
ATOM     34  C   UNL A   1      36.129  29.720  28.521  1.00  0.00     0.010 A 
ATOM     35  C   UNL A   1      37.081  30.709  28.820  1.00  0.00    -0.014 A 
BRANCH  35  36
ATOM     36  C   UNL A   1      38.275  30.350  29.631  1.00  0.00     0.031 A 
ATOM     37  C   UNL A   1      39.254  29.329  29.130  1.00  0.00     0.074 A 
ATOM     38  C   UNL A   1      38.410  30.869  30.870  1.00  0.00     0.049 A 
ATOM     39  N   UNL A   1      40.285  28.802  29.739  1.00  0.00    -0.248 NA
ATOM     40  C   UNL A   1      39.017  28.803  27.778  1.00  0.00     0.031 C 
ATOM     41  C   UNL A   1      37.486  31.820  31.495  1.00  0.00     0.029 A 
ATOM     42  N   UNL A   1      39.362  30.655  31.837  1.00  0.00    -0.354 N 
ATOM     43  C   UNL A   1      40.812  27.869  28.852  1.00  0.00     0.074 A 
ATOM     44  C   UNL A   1      39.946  27.864  27.691  1.00  0.00     0.031 C 
ATOM     45  C   UNL A   1      37.923  32.115  32.730  1.00  0.00     0.029 A 
ATOM     46  C   UNL A   1      39.130  31.344  33.006  1.00  0.00     0.049 A 
ATOM     47  H   UNL A   1      40.138  30.063  31.707  1.00  0.00     0.167 HD
ATOM     48  C   UNL A   1      41.925  27.105  28.986  1.00  0.00     0.034 A 
ATOM     49  C   UNL A   1      39.800  31.343  34.175  1.00  0.00     0.034 A 
ATOM     50  C   UNL A   1      42.779  27.131  30.149  1.00  0.00     0.049 A 
ATOM     51  C   UNL A   1      41.031  30.485  34.305  1.00  0.00     0.074 A 
ATOM     52  C   UNL A   1      43.970  26.457  30.362  1.00  0.00     0.029 A 
ATOM     53  N   UNL A   1      42.527  27.863  31.303  1.00  0.00    -0.354 N 
ATOM     54  N   UNL A   1      41.557  29.662  33.428  1.00  0.00    -0.248 NA
ATOM     55  C   UNL A   1      41.762  30.563  35.575  1.00  0.00     0.031 C 
ATOM     56  C   UNL A   1      44.403  26.732  31.664  1.00  0.00     0.029 A 
ATOM     57  C   UNL A   1      43.521  27.631  32.243  1.00  0.00     0.049 A 
ATOM     58  H   UNL A   1      41.756  28.460  31.435  1.00  0.00     0.167 HD
ATOM     59  C   UNL A   1      42.693  29.137  34.037  1.00  0.00     0.074 A 
ATOM     60  C   UNL A   1      42.783  29.750  35.346  1.00  0.00     0.031 C 
ATOM     61  C   UNL A   1      43.584  28.234  33.554  1.00  0.00     0.034 A 
BRANCH  48  62
ATOM     62  C   UNL A   1      42.255  26.164  27.851  1.00  0.00     0.023 A 
ATOM     63  C   UNL A   1      41.836  24.823  27.863  1.00  0.00     0.031 A 
ATOM     64  C   UNL A   1      43.041  26.597  26.769  1.00  0.00     0.131 A 
ATOM     65  C   UNL A   1      42.281  23.940  26.868  1.00  0.00     0.055 A 
ATOM     66  C   UNL A   1      43.408  25.734  25.735  1.00  0.00     0.041 A 
ATOM     67  F   UNL A   1      43.485  27.863  26.710  1.00  0.00    -0.206 F 
ATOM     68  C   UNL A   1      43.045  24.391  25.790  1.00  0.00     0.022 A 
BRANCH  65  69
ATOM     69  S   UNL A   1      41.985  22.165  27.094  1.00  0.00     0.124 S 
ATOM     70  O   UNL A   1      43.154  21.768  27.875  1.00  0.00    -0.237 OA
ATOM     71  O   UNL A   1      40.708  22.146  27.799  1.00  0.00    -0.237 OA
ATOM     72  O   UNL A   1      41.953  21.646  25.728  1.00  0.00    -0.744 OA
ENDBRANCH  65  69
ENDBRANCH  48  62
BRANCH  49  73
ATOM     73  C   UNL A   1      39.311  32.161  35.323  1.00  0.00     0.023 A 
ATOM     74  C   UNL A   1      39.764  33.474  35.524  1.00  0.00     0.031 A 
ATOM     75  C   UNL A   1      38.398  31.627  36.249  1.00  0.00     0.131 A 
ATOM     76  C   UNL A   1      39.330  34.198  36.646  1.00  0.00     0.055 A 
ATOM     77  C   UNL A   1      37.936  32.368  37.339  1.00  0.00     0.041 A 
ATOM     78  F   UNL A   1      37.926  30.380  36.097  1.00  0.00    -0.206 F 
ATOM     79  C   UNL A   1      38.411  33.659  37.548  1.00  0.00     0.022 A 
BRANCH  76  80
ATOM     80  S   UNL A   1      40.036  35.843  36.945  1.00  0.00     0.124 S 
ATOM     81  O   UNL A   1      41.455  35.537  37.088  1.00  0.00    -0.237 OA
ATOM     82  O   UNL A   1      39.652  36.561  35.734  1.00  0.00    -0.237 OA
ATOM     83  O   UNL A   1      39.365  36.283  38.166  1.00  0.00    -0.744 OA
ENDBRANCH  76  80
ENDBRANCH  49  73
BRANCH  61  84
ATOM     84  C   UNL A   1      44.748  27.882  34.445  1.00  0.00     0.023 A 
ATOM     85  C   UNL A   1      44.689  26.797  35.338  1.00  0.00     0.031 A 
ATOM     86  C   UNL A   1      45.927  28.646  34.403  1.00  0.00     0.131 A 
ATOM     87  C   UNL A   1      45.775  26.534  36.186  1.00  0.00     0.055 A 
ATOM     88  C   UNL A   1      47.023  28.347  35.212  1.00  0.00     0.041 A 
ATOM     89  F   UNL A   1      46.032  29.694  33.570  1.00  0.00    -0.206 F 
ATOM     90  C   UNL A   1      46.947  27.292  36.118  1.00  0.00     0.022 A 
BRANCH  87  91
ATOM     91  S   UNL A   1      45.611  25.228  37.434  1.00  0.00     0.124 S 
ATOM     92  O   UNL A   1      46.771  25.475  38.285  1.00  0.00    -0.237 OA
ATOM     93  O   UNL A   1      44.310  25.523  38.027  1.00  0.00    -0.237 OA
ATOM     94  O   UNL A   1      45.668  23.995  36.650  1.00  0.00    -0.744 OA
ENDBRANCH  87  91
ENDBRANCH  61  84
ENDBRANCH  35  36
ENDBRANCH  27  30
ENDBRANCH  25  26
ENDBRANCH   1  25
TORSDOF 15
ENDMDL
