MODEL 1
REMARK VINA RESULT:     -12.5      0.000      0.000
REMARK SMILES Cc1ccc(Nc2nc(C(=O)NCCCCNC(=O)c3ccc(-c4c5nc(c(-c6cc(S(=O)(=O)[O-])ccc6F)c6ccc([nH]6)c(-c6cc(S(=O)(=O)[O-])ccc6F)c6nc(c(-c7cc(S(=O)(=O)[O-])ccc7F)c7ccc4[nH]7)C=C6)C=C5)cc3)cs2)cc1
REMARK SMILES IDX 15 1 14 2 13 3 12 4 10 5 11 6 9 8 7 9 8 10 84 11 83 12 6 13
REMARK SMILES IDX 5 15 1 16 2 17 3 18 86 19 4 20 85 21 16 22 17 23 18 24 19 26
REMARK SMILES IDX 20 27 21 28 82 29 22 30 81 31 23 32 24 33 25 34 75 35 26 36
REMARK SMILES IDX 80 37 74 38 76 39 27 40 79 41 73 42 72 43 28 45 60 46 40 47
REMARK SMILES IDX 59 48 41 49 44 50 58 51 77 52 42 53 43 54 57 56 78 57 45 58
REMARK SMILES IDX 29 59 30 60 38 61 31 62 37 63 39 64 36 65 32 66 33 67 34 68
REMARK SMILES IDX 35 69 61 70 62 71 70 72 63 73 69 74 71 75 68 76 64 77 65 78
REMARK SMILES IDX 66 79 67 80 46 81 47 82 55 83 48 84 54 85 56 86 53 87 49 88
REMARK SMILES IDX 50 89 51 90 52 91
REMARK H PARENT 12 7 6 14 17 25 76 44 44 55
REMARK Flexibility Score: inf
ROOT
ATOM      1  C   UNL A   1      37.791  21.303  25.339  1.00  0.00     0.023 C 
ENDROOT
BRANCH   1   2
ATOM      2  C   UNL A   1      36.340  21.450  24.860  1.00  0.00     0.023 C 
BRANCH   2   3
ATOM      3  C   UNL A   1      35.280  21.364  25.968  1.00  0.00     0.116 C 
BRANCH   3   4
ATOM      4  N   UNL A   1      34.301  20.303  25.727  1.00  0.00    -0.351 N 
ATOM      5  C   UNL A   1      32.996  20.363  25.296  1.00  0.00     0.270 C 
ATOM      6  O   UNL A   1      32.367  19.304  25.221  1.00  0.00    -0.267 OA
ATOM      7  H   UNL A   1      34.632  19.393  25.905  1.00  0.00     0.163 HD
BRANCH   5   8
ATOM      8  C   UNL A   1      32.362  21.645  24.962  1.00  0.00     0.141 A 
ATOM      9  C   UNL A   1      31.436  23.643  25.364  1.00  0.00     0.187 A 
ATOM     10  N   UNL A   1      31.971  22.577  25.906  1.00  0.00    -0.215 NA
ATOM     11  S   UNL A   1      31.287  23.552  23.648  1.00  0.00    -0.104 S 
ATOM     12  C   UNL A   1      32.117  22.053  23.661  1.00  0.00     0.102 A 
BRANCH   9  13
ATOM     13  N   UNL A   1      31.004  24.732  26.035  1.00  0.00    -0.332 N 
ATOM     14  H   UNL A   1      30.106  24.683  26.437  1.00  0.00     0.169 HD
BRANCH  13  15
ATOM     15  C   UNL A   1      31.717  25.935  26.212  1.00  0.00     0.040 A 
ATOM     16  C   UNL A   1      34.052  29.527  26.852  1.00  0.00     0.044 C 
ATOM     17  C   UNL A   1      33.249  28.280  26.630  1.00  0.00    -0.051 A 
ATOM     18  C   UNL A   1      31.875  28.279  26.870  1.00  0.00     0.005 A 
ATOM     19  C   UNL A   1      33.841  27.129  26.107  1.00  0.00     0.005 A 
ATOM     20  C   UNL A   1      31.118  27.123  26.651  1.00  0.00     0.026 A 
ATOM     21  C   UNL A   1      33.085  25.969  25.905  1.00  0.00     0.026 A 
ENDBRANCH  13  15
ENDBRANCH   9  13
ENDBRANCH   5   8
ENDBRANCH   3   4
ENDBRANCH   2   3
ENDBRANCH   1   2
BRANCH   1  22
ATOM     22  C   UNL A   1      38.439  22.604  25.805  1.00  0.00     0.116 C 
BRANCH  22  23
ATOM     23  N   UNL A   1      39.826  22.512  26.240  1.00  0.00    -0.352 N 
ATOM     24  C   UNL A   1      40.659  23.528  26.696  1.00  0.00     0.251 C 
ATOM     25  H   UNL A   1      40.226  21.613  26.206  1.00  0.00     0.163 HD
ATOM     26  O   UNL A   1      41.843  23.332  26.898  1.00  0.00    -0.269 OA
BRANCH  24  27
ATOM     27  C   UNL A   1      40.060  24.851  27.023  1.00  0.00     0.039 A 
ATOM     28  C   UNL A   1      40.527  25.976  26.332  1.00  0.00     0.014 A 
ATOM     29  C   UNL A   1      39.222  25.004  28.123  1.00  0.00     0.014 A 
ATOM     30  C   UNL A   1      40.345  27.244  26.885  1.00  0.00     0.010 A 
ATOM     31  C   UNL A   1      39.137  26.244  28.729  1.00  0.00     0.010 A 
ATOM     32  C   UNL A   1      39.748  27.355  28.143  1.00  0.00    -0.014 A 
BRANCH  32  33
ATOM     33  C   UNL A   1      39.861  28.545  28.982  1.00  0.00     0.031 A 
ATOM     34  C   UNL A   1      38.807  29.587  28.992  1.00  0.00     0.074 A 
ATOM     35  C   UNL A   1      40.928  28.711  29.797  1.00  0.00     0.049 A 
ATOM     36  N   UNL A   1      39.038  30.838  29.226  1.00  0.00    -0.248 NA
ATOM     37  C   UNL A   1      37.399  29.308  28.720  1.00  0.00     0.031 C 
ATOM     38  C   UNL A   1      41.067  29.699  30.868  1.00  0.00     0.029 A 
ATOM     39  N   UNL A   1      42.181  28.125  29.773  1.00  0.00    -0.354 N 
ATOM     40  C   UNL A   1      37.826  31.448  29.444  1.00  0.00     0.074 A 
ATOM     41  C   UNL A   1      36.834  30.480  29.033  1.00  0.00     0.031 C 
ATOM     42  C   UNL A   1      42.371  29.855  31.148  1.00  0.00     0.029 A 
ATOM     43  C   UNL A   1      43.112  29.084  30.169  1.00  0.00     0.049 A 
ATOM     44  H   UNL A   1      42.380  27.195  29.519  1.00  0.00     0.167 HD
ATOM     45  C   UNL A   1      37.762  32.639  30.101  1.00  0.00     0.034 A 
ATOM     46  C   UNL A   1      44.112  29.575  29.380  1.00  0.00     0.034 A 
ATOM     47  C   UNL A   1      39.072  33.101  30.544  1.00  0.00     0.049 A 
ATOM     48  C   UNL A   1      44.099  31.088  29.264  1.00  0.00     0.074 A 
ATOM     49  C   UNL A   1      39.705  33.061  31.776  1.00  0.00     0.029 A 
ATOM     50  N   UNL A   1      40.037  33.472  29.618  1.00  0.00    -0.354 N 
ATOM     51  N   UNL A   1      43.058  31.830  29.523  1.00  0.00    -0.248 NA
ATOM     52  C   UNL A   1      45.242  31.881  28.822  1.00  0.00     0.031 C 
ATOM     53  C   UNL A   1      41.063  33.417  31.587  1.00  0.00     0.029 A 
ATOM     54  C   UNL A   1      41.251  33.683  30.242  1.00  0.00     0.049 A 
ATOM     55  H   UNL A   1      39.878  33.573  28.651  1.00  0.00     0.167 HD
ATOM     56  C   UNL A   1      43.356  33.153  29.298  1.00  0.00     0.074 A 
ATOM     57  C   UNL A   1      44.741  33.130  28.865  1.00  0.00     0.031 C 
ATOM     58  C   UNL A   1      42.416  34.132  29.492  1.00  0.00     0.034 A 
BRANCH  45  59
ATOM     59  C   UNL A   1      36.469  33.215  30.623  1.00  0.00     0.023 A 
ATOM     60  C   UNL A   1      35.639  33.960  29.760  1.00  0.00     0.031 A 
ATOM     61  C   UNL A   1      36.014  33.085  31.947  1.00  0.00     0.131 A 
ATOM     62  C   UNL A   1      34.494  34.620  30.233  1.00  0.00     0.055 A 
ATOM     63  C   UNL A   1      34.899  33.781  32.433  1.00  0.00     0.041 A 
ATOM     64  F   UNL A   1      36.621  32.258  32.814  1.00  0.00    -0.206 F 
ATOM     65  C   UNL A   1      34.140  34.568  31.576  1.00  0.00     0.022 A 
BRANCH  62  66
ATOM     66  S   UNL A   1      33.478  35.554  29.055  1.00  0.00     0.124 S 
ATOM     67  O   UNL A   1      32.591  34.523  28.524  1.00  0.00    -0.237 OA
ATOM     68  O   UNL A   1      32.858  36.560  29.910  1.00  0.00    -0.237 OA
ATOM     69  O   UNL A   1      34.457  36.073  28.102  1.00  0.00    -0.744 OA
ENDBRANCH  62  66
ENDBRANCH  45  59
BRANCH  46  70
ATOM     70  C   UNL A   1      44.558  28.649  28.305  1.00  0.00     0.023 A 
ATOM     71  C   UNL A   1      45.374  27.565  28.681  1.00  0.00     0.031 A 
ATOM     72  C   UNL A   1      43.918  28.587  27.060  1.00  0.00     0.131 A 
ATOM     73  C   UNL A   1      45.402  26.399  27.906  1.00  0.00     0.055 A 
ATOM     74  C   UNL A   1      43.998  27.440  26.257  1.00  0.00     0.041 A 
ATOM     75  F   UNL A   1      43.105  29.575  26.657  1.00  0.00    -0.206 F 
ATOM     76  C   UNL A   1      44.710  26.324  26.697  1.00  0.00     0.022 A 
BRANCH  73  77
ATOM     77  S   UNL A   1      46.136  24.911  28.643  1.00  0.00     0.124 S 
ATOM     78  O   UNL A   1      45.605  23.860  27.782  1.00  0.00    -0.237 OA
ATOM     79  O   UNL A   1      47.563  25.200  28.526  1.00  0.00    -0.237 OA
ATOM     80  O   UNL A   1      45.623  24.917  30.011  1.00  0.00    -0.744 OA
ENDBRANCH  73  77
ENDBRANCH  46  70
BRANCH  58  81
ATOM     81  C   UNL A   1      42.507  35.604  29.114  1.00  0.00     0.023 A 
ATOM     82  C   UNL A   1      43.311  36.542  29.777  1.00  0.00     0.031 A 
ATOM     83  C   UNL A   1      41.792  36.116  27.996  1.00  0.00     0.131 A 
ATOM     84  C   UNL A   1      43.347  37.895  29.379  1.00  0.00     0.055 A 
ATOM     85  C   UNL A   1      41.868  37.446  27.571  1.00  0.00     0.041 A 
ATOM     86  F   UNL A   1      40.993  35.343  27.246  1.00  0.00    -0.206 F 
ATOM     87  C   UNL A   1      42.643  38.352  28.271  1.00  0.00     0.022 A 
BRANCH  84  88
ATOM     88  S   UNL A   1      44.316  39.057  30.378  1.00  0.00     0.124 S 
ATOM     89  O   UNL A   1      43.431  40.216  30.438  1.00  0.00    -0.237 OA
ATOM     90  O   UNL A   1      44.487  38.326  31.629  1.00  0.00    -0.237 OA
ATOM     91  O   UNL A   1      45.538  39.248  29.599  1.00  0.00    -0.744 OA
ENDBRANCH  84  88
ENDBRANCH  58  81
ENDBRANCH  32  33
ENDBRANCH  24  27
ENDBRANCH  22  23
ENDBRANCH   1  22
TORSDOF 16
ENDMDL
MODEL 2
REMARK VINA RESULT:     -12.3      4.119     10.565
REMARK SMILES Cc1ccc(Nc2nc(C(=O)NCCCCNC(=O)c3ccc(-c4c5nc(c(-c6cc(S(=O)(=O)[O-])ccc6F)c6ccc([nH]6)c(-c6cc(S(=O)(=O)[O-])ccc6F)c6nc(c(-c7cc(S(=O)(=O)[O-])ccc7F)c7ccc4[nH]7)C=C6)C=C5)cc3)cs2)cc1
REMARK SMILES IDX 15 1 14 2 13 3 12 4 10 5 11 6 9 8 7 9 8 10 84 11 83 12 6 13
REMARK SMILES IDX 5 15 1 16 2 17 3 18 86 19 4 20 85 21 16 22 17 23 18 24 19 26
REMARK SMILES IDX 20 27 21 28 82 29 22 30 81 31 23 32 24 33 25 34 75 35 26 36
REMARK SMILES IDX 80 37 74 38 76 39 27 40 79 41 73 42 72 43 28 45 60 46 40 47
REMARK SMILES IDX 59 48 41 49 44 50 58 51 77 52 42 53 43 54 57 56 78 57 45 58
REMARK SMILES IDX 29 59 30 60 38 61 31 62 37 63 39 64 36 65 32 66 33 67 34 68
REMARK SMILES IDX 35 69 61 70 62 71 70 72 63 73 69 74 71 75 68 76 64 77 65 78
REMARK SMILES IDX 66 79 67 80 46 81 47 82 55 83 48 84 54 85 56 86 53 87 49 88
REMARK SMILES IDX 50 89 51 90 52 91
REMARK H PARENT 12 7 6 14 17 25 76 44 44 55
REMARK Flexibility Score: inf
ROOT
ATOM      1  C   UNL A   1      32.719  31.029  27.211  1.00  0.00     0.023 C 
ENDROOT
BRANCH   1   2
ATOM      2  C   UNL A   1      31.923  29.866  26.600  1.00  0.00     0.023 C 
BRANCH   2   3
ATOM      3  C   UNL A   1      32.304  29.510  25.155  1.00  0.00     0.116 C 
BRANCH   3   4
ATOM      4  N   UNL A   1      31.194  29.699  24.219  1.00  0.00    -0.351 N 
ATOM      5  C   UNL A   1      30.501  28.794  23.449  1.00  0.00     0.270 C 
ATOM      6  O   UNL A   1      29.626  29.231  22.698  1.00  0.00    -0.267 OA
ATOM      7  H   UNL A   1      30.894  30.632  24.124  1.00  0.00     0.163 HD
BRANCH   5   8
ATOM      8  C   UNL A   1      30.809  27.359  23.499  1.00  0.00     0.141 A 
ATOM      9  C   UNL A   1      31.980  25.495  23.087  1.00  0.00     0.187 A 
ATOM     10  N   UNL A   1      31.919  26.790  22.900  1.00  0.00    -0.215 NA
ATOM     11  S   UNL A   1      30.629  24.851  23.944  1.00  0.00    -0.104 S 
ATOM     12  C   UNL A   1      30.025  26.438  24.175  1.00  0.00     0.102 A 
BRANCH   9  13
ATOM     13  N   UNL A   1      32.971  24.685  22.657  1.00  0.00    -0.332 N 
ATOM     14  H   UNL A   1      32.909  24.357  21.730  1.00  0.00     0.169 HD
BRANCH  13  15
ATOM     15  C   UNL A   1      34.085  24.264  23.412  1.00  0.00     0.040 A 
ATOM     16  C   UNL A   1      37.551  23.161  25.763  1.00  0.00     0.044 C 
ATOM     17  C   UNL A   1      36.350  23.548  24.953  1.00  0.00    -0.051 A 
ATOM     18  C   UNL A   1      36.100  22.927  23.728  1.00  0.00     0.005 A 
ATOM     19  C   UNL A   1      35.423  24.472  25.439  1.00  0.00     0.005 A 
ATOM     20  C   UNL A   1      34.974  23.273  22.975  1.00  0.00     0.026 A 
ATOM     21  C   UNL A   1      34.306  24.828  24.675  1.00  0.00     0.026 A 
ENDBRANCH  13  15
ENDBRANCH   9  13
ENDBRANCH   5   8
ENDBRANCH   3   4
ENDBRANCH   2   3
ENDBRANCH   1   2
BRANCH   1  22
ATOM     22  C   UNL A   1      34.149  30.676  27.609  1.00  0.00     0.116 C 
BRANCH  22  23
ATOM     23  N   UNL A   1      34.819  31.615  28.498  1.00  0.00    -0.352 N 
ATOM     24  C   UNL A   1      35.963  31.417  29.263  1.00  0.00     0.251 C 
ATOM     25  H   UNL A   1      34.407  32.507  28.568  1.00  0.00     0.163 HD
ATOM     26  O   UNL A   1      36.336  32.247  30.071  1.00  0.00    -0.269 OA
BRANCH  24  27
ATOM     27  C   UNL A   1      36.785  30.201  29.017  1.00  0.00     0.039 A 
ATOM     28  C   UNL A   1      36.995  29.318  30.084  1.00  0.00     0.014 A 
ATOM     29  C   UNL A   1      37.502  30.049  27.834  1.00  0.00     0.014 A 
ATOM     30  C   UNL A   1      38.080  28.442  30.046  1.00  0.00     0.010 A 
ATOM     31  C   UNL A   1      38.640  29.265  27.839  1.00  0.00     0.010 A 
ATOM     32  C   UNL A   1      38.965  28.505  28.966  1.00  0.00    -0.014 A 
BRANCH  32  33
ATOM     33  C   UNL A   1      40.313  27.946  29.000  1.00  0.00     0.031 A 
ATOM     34  C   UNL A   1      40.591  26.568  28.528  1.00  0.00     0.074 A 
ATOM     35  C   UNL A   1      41.353  28.691  29.440  1.00  0.00     0.049 A 
ATOM     36  N   UNL A   1      41.540  25.827  29.000  1.00  0.00    -0.248 NA
ATOM     37  C   UNL A   1      39.805  25.899  27.494  1.00  0.00     0.031 C 
ATOM     38  C   UNL A   1      42.776  28.376  29.301  1.00  0.00     0.029 A 
ATOM     39  N   UNL A   1      41.379  29.829  30.225  1.00  0.00    -0.354 N 
ATOM     40  C   UNL A   1      41.690  24.758  28.150  1.00  0.00     0.074 A 
ATOM     41  C   UNL A   1      40.535  24.798  27.281  1.00  0.00     0.031 C 
ATOM     42  C   UNL A   1      43.467  29.082  30.209  1.00  0.00     0.029 A 
ATOM     43  C   UNL A   1      42.498  29.756  31.052  1.00  0.00     0.049 A 
ATOM     44  H   UNL A   1      40.720  30.561  30.204  1.00  0.00     0.167 HD
ATOM     45  C   UNL A   1      42.846  24.038  28.146  1.00  0.00     0.034 A 
ATOM     46  C   UNL A   1      42.460  29.682  32.415  1.00  0.00     0.034 A 
ATOM     47  C   UNL A   1      43.837  24.571  29.073  1.00  0.00     0.049 A 
ATOM     48  C   UNL A   1      43.214  28.489  32.974  1.00  0.00     0.074 A 
ATOM     49  C   UNL A   1      44.956  25.366  28.885  1.00  0.00     0.029 A 
ATOM     50  N   UNL A   1      43.614  24.521  30.443  1.00  0.00    -0.354 N 
ATOM     51  N   UNL A   1      43.520  27.429  32.279  1.00  0.00    -0.248 NA
ATOM     52  C   UNL A   1      43.655  28.383  34.361  1.00  0.00     0.031 C 
ATOM     53  C   UNL A   1      45.412  25.794  30.155  1.00  0.00     0.029 A 
ATOM     54  C   UNL A   1      44.576  25.251  31.114  1.00  0.00     0.049 A 
ATOM     55  H   UNL A   1      42.876  24.034  30.875  1.00  0.00     0.167 HD
ATOM     56  C   UNL A   1      44.175  26.518  33.073  1.00  0.00     0.074 A 
ATOM     57  C   UNL A   1      44.238  27.169  34.369  1.00  0.00     0.031 C 
ATOM     58  C   UNL A   1      44.593  25.314  32.570  1.00  0.00     0.034 A 
BRANCH  45  59
ATOM     59  C   UNL A   1      43.188  23.050  27.058  1.00  0.00     0.023 A 
ATOM     60  C   UNL A   1      42.706  21.728  27.141  1.00  0.00     0.031 A 
ATOM     61  C   UNL A   1      43.990  23.339  25.939  1.00  0.00     0.131 A 
ATOM     62  C   UNL A   1      43.102  20.743  26.221  1.00  0.00     0.055 A 
ATOM     63  C   UNL A   1      44.426  22.350  25.048  1.00  0.00     0.041 A 
ATOM     64  F   UNL A   1      44.362  24.598  25.656  1.00  0.00    -0.206 F 
ATOM     65  C   UNL A   1      43.994  21.038  25.196  1.00  0.00     0.022 A 
BRANCH  62  66
ATOM     66  S   UNL A   1      42.431  19.067  26.396  1.00  0.00     0.124 S 
ATOM     67  O   UNL A   1      41.212  19.134  25.596  1.00  0.00    -0.237 OA
ATOM     68  O   UNL A   1      43.510  18.244  25.860  1.00  0.00    -0.237 OA
ATOM     69  O   UNL A   1      42.215  18.938  27.837  1.00  0.00    -0.744 OA
ENDBRANCH  62  66
ENDBRANCH  45  59
BRANCH  46  70
ATOM     70  C   UNL A   1      41.243  30.276  33.029  1.00  0.00     0.023 A 
ATOM     71  C   UNL A   1      41.169  31.681  33.092  1.00  0.00     0.031 A 
ATOM     72  C   UNL A   1      40.055  29.549  33.186  1.00  0.00     0.131 A 
ATOM     73  C   UNL A   1      39.925  32.321  33.141  1.00  0.00     0.055 A 
ATOM     74  C   UNL A   1      38.816  30.195  33.296  1.00  0.00     0.041 A 
ATOM     75  F   UNL A   1      40.056  28.210  33.108  1.00  0.00    -0.206 F 
ATOM     76  C   UNL A   1      38.742  31.587  33.234  1.00  0.00     0.022 A 
BRANCH  73  77
ATOM     77  S   UNL A   1      39.879  34.106  32.810  1.00  0.00     0.124 S 
ATOM     78  O   UNL A   1      38.902  34.183  31.729  1.00  0.00    -0.237 OA
ATOM     79  O   UNL A   1      39.467  34.633  34.108  1.00  0.00    -0.237 OA
ATOM     80  O   UNL A   1      41.254  34.421  32.433  1.00  0.00    -0.744 OA
ENDBRANCH  73  77
ENDBRANCH  46  70
BRANCH  58  81
ATOM     81  C   UNL A   1      45.152  24.123  33.337  1.00  0.00     0.023 A 
ATOM     82  C   UNL A   1      46.457  24.053  33.847  1.00  0.00     0.031 A 
ATOM     83  C   UNL A   1      44.335  22.997  33.632  1.00  0.00     0.131 A 
ATOM     84  C   UNL A   1      46.915  22.917  34.546  1.00  0.00     0.055 A 
ATOM     85  C   UNL A   1      44.775  21.893  34.369  1.00  0.00     0.041 A 
ATOM     86  F   UNL A   1      43.058  22.918  33.230  1.00  0.00    -0.206 F 
ATOM     87  C   UNL A   1      46.079  21.842  34.825  1.00  0.00     0.022 A 
BRANCH  84  88
ATOM     88  S   UNL A   1      48.655  22.866  35.053  1.00  0.00     0.124 S 
ATOM     89  O   UNL A   1      49.089  24.233  34.782  1.00  0.00    -0.237 OA
ATOM     90  O   UNL A   1      48.558  22.501  36.463  1.00  0.00    -0.237 OA
ATOM     91  O   UNL A   1      49.238  21.845  34.186  1.00  0.00    -0.744 OA
ENDBRANCH  84  88
ENDBRANCH  58  81
ENDBRANCH  32  33
ENDBRANCH  24  27
ENDBRANCH  22  23
ENDBRANCH   1  22
TORSDOF 16
ENDMDL
MODEL 3
REMARK VINA RESULT:     -12.0      2.336      2.698
REMARK SMILES Cc1ccc(Nc2nc(C(=O)NCCCCNC(=O)c3ccc(-c4c5nc(c(-c6cc(S(=O)(=O)[O-])ccc6F)c6ccc([nH]6)c(-c6cc(S(=O)(=O)[O-])ccc6F)c6nc(c(-c7cc(S(=O)(=O)[O-])ccc7F)c7ccc4[nH]7)C=C6)C=C5)cc3)cs2)cc1
REMARK SMILES IDX 15 1 14 2 13 3 12 4 10 5 11 6 9 8 7 9 8 10 84 11 83 12 6 13
REMARK SMILES IDX 5 15 1 16 2 17 3 18 86 19 4 20 85 21 16 22 17 23 18 24 19 26
REMARK SMILES IDX 20 27 21 28 82 29 22 30 81 31 23 32 24 33 25 34 75 35 26 36
REMARK SMILES IDX 80 37 74 38 76 39 27 40 79 41 73 42 72 43 28 45 60 46 40 47
REMARK SMILES IDX 59 48 41 49 44 50 58 51 77 52 42 53 43 54 57 56 78 57 45 58
REMARK SMILES IDX 29 59 30 60 38 61 31 62 37 63 39 64 36 65 32 66 33 67 34 68
REMARK SMILES IDX 35 69 61 70 62 71 70 72 63 73 69 74 71 75 68 76 64 77 65 78
REMARK SMILES IDX 66 79 67 80 46 81 47 82 55 83 48 84 54 85 56 86 53 87 49 88
REMARK SMILES IDX 50 89 51 90 52 91
REMARK H PARENT 12 7 6 14 17 25 76 44 44 55
REMARK Flexibility Score: inf
ROOT
ATOM      1  C   UNL A   1      38.193  20.777  25.088  1.00  0.00     0.023 C 
ENDROOT
BRANCH   1   2
ATOM      2  C   UNL A   1      36.662  20.674  25.050  1.00  0.00     0.023 C 
BRANCH   2   3
ATOM      3  C   UNL A   1      35.917  21.955  25.455  1.00  0.00     0.116 C 
BRANCH   3   4
ATOM      4  N   UNL A   1      35.143  21.789  26.686  1.00  0.00    -0.351 N 
ATOM      5  C   UNL A   1      33.871  22.199  27.013  1.00  0.00     0.270 C 
ATOM      6  O   UNL A   1      33.469  21.967  28.156  1.00  0.00    -0.267 OA
ATOM      7  H   UNL A   1      35.612  21.302  27.402  1.00  0.00     0.163 HD
BRANCH   5   8
ATOM      8  C   UNL A   1      33.029  22.914  26.044  1.00  0.00     0.141 A 
ATOM      9  C   UNL A   1      32.146  24.694  25.013  1.00  0.00     0.187 A 
ATOM     10  N   UNL A   1      32.961  24.292  25.957  1.00  0.00    -0.215 NA
ATOM     11  S   UNL A   1      31.326  23.408  24.207  1.00  0.00    -0.104 S 
ATOM     12  C   UNL A   1      32.239  22.270  25.107  1.00  0.00     0.102 A 
BRANCH   9  13
ATOM     13  N   UNL A   1      31.914  25.979  24.669  1.00  0.00    -0.332 N 
ATOM     14  H   UNL A   1      31.405  26.134  23.839  1.00  0.00     0.169 HD
BRANCH  13  15
ATOM     15  C   UNL A   1      32.332  27.119  25.385  1.00  0.00     0.040 A 
ATOM     16  C   UNL A   1      33.805  30.560  27.563  1.00  0.00     0.044 C 
ATOM     17  C   UNL A   1      33.300  29.369  26.805  1.00  0.00    -0.051 A 
ATOM     18  C   UNL A   1      32.210  28.642  27.286  1.00  0.00     0.005 A 
ATOM     19  C   UNL A   1      33.856  29.013  25.575  1.00  0.00     0.005 A 
ATOM     20  C   UNL A   1      31.725  27.539  26.575  1.00  0.00     0.026 A 
ATOM     21  C   UNL A   1      33.380  27.898  24.875  1.00  0.00     0.026 A 
ENDBRANCH  13  15
ENDBRANCH   9  13
ENDBRANCH   5   8
ENDBRANCH   3   4
ENDBRANCH   2   3
ENDBRANCH   1   2
BRANCH   1  22
ATOM     22  C   UNL A   1      38.732  21.873  26.002  1.00  0.00     0.116 C 
BRANCH  22  23
ATOM     23  N   UNL A   1      40.179  21.930  26.156  1.00  0.00    -0.352 N 
ATOM     24  C   UNL A   1      40.983  23.042  26.385  1.00  0.00     0.251 C 
ATOM     25  H   UNL A   1      40.650  21.068  26.086  1.00  0.00     0.163 HD
ATOM     26  O   UNL A   1      42.197  22.962  26.355  1.00  0.00    -0.269 OA
BRANCH  24  27
ATOM     27  C   UNL A   1      40.333  24.328  26.759  1.00  0.00     0.039 A 
ATOM     28  C   UNL A   1      40.806  25.504  26.164  1.00  0.00     0.014 A 
ATOM     29  C   UNL A   1      39.435  24.393  27.820  1.00  0.00     0.014 A 
ATOM     30  C   UNL A   1      40.563  26.731  26.782  1.00  0.00     0.010 A 
ATOM     31  C   UNL A   1      39.286  25.590  28.494  1.00  0.00     0.010 A 
ATOM     32  C   UNL A   1      39.898  26.750  28.011  1.00  0.00    -0.014 A 
BRANCH  32  33
ATOM     33  C   UNL A   1      39.936  27.888  28.925  1.00  0.00     0.031 A 
ATOM     34  C   UNL A   1      39.033  29.051  28.751  1.00  0.00     0.074 A 
ATOM     35  C   UNL A   1      40.785  27.892  29.979  1.00  0.00     0.049 A 
ATOM     36  N   UNL A   1      39.338  30.255  29.111  1.00  0.00    -0.248 NA
ATOM     37  C   UNL A   1      37.712  28.957  28.136  1.00  0.00     0.031 C 
ATOM     38  C   UNL A   1      40.768  28.819  31.112  1.00  0.00     0.029 A 
ATOM     39  N   UNL A   1      41.933  27.158  30.216  1.00  0.00    -0.354 N 
ATOM     40  C   UNL A   1      38.186  31.001  29.073  1.00  0.00     0.074 A 
ATOM     41  C   UNL A   1      37.221  30.178  28.378  1.00  0.00     0.031 C 
ATOM     42  C   UNL A   1      41.974  28.804  31.703  1.00  0.00     0.029 A 
ATOM     43  C   UNL A   1      42.840  27.981  30.881  1.00  0.00     0.049 A 
ATOM     44  H   UNL A   1      42.082  26.220  29.958  1.00  0.00     0.167 HD
ATOM     45  C   UNL A   1      38.098  32.169  29.769  1.00  0.00     0.034 A 
ATOM     46  C   UNL A   1      44.050  28.372  30.383  1.00  0.00     0.034 A 
ATOM     47  C   UNL A   1      39.304  32.450  30.539  1.00  0.00     0.049 A 
ATOM     48  C   UNL A   1      44.235  29.878  30.363  1.00  0.00     0.074 A 
ATOM     49  C   UNL A   1      39.610  32.291  31.881  1.00  0.00     0.029 A 
ATOM     50  N   UNL A   1      40.499  32.731  29.892  1.00  0.00    -0.354 N 
ATOM     51  N   UNL A   1      43.251  30.733  30.414  1.00  0.00    -0.248 NA
ATOM     52  C   UNL A   1      45.532  30.538  30.255  1.00  0.00     0.031 C 
ATOM     53  C   UNL A   1      41.004  32.483  32.041  1.00  0.00     0.029 A 
ATOM     54  C   UNL A   1      41.541  32.769  30.799  1.00  0.00     0.049 A 
ATOM     55  H   UNL A   1      40.592  32.883  28.924  1.00  0.00     0.167 HD
ATOM     56  C   UNL A   1      43.740  32.017  30.349  1.00  0.00     0.074 A 
ATOM     57  C   UNL A   1      45.178  31.837  30.256  1.00  0.00     0.031 C 
ATOM     58  C   UNL A   1      42.897  33.096  30.376  1.00  0.00     0.034 A 
BRANCH  45  59
ATOM     59  C   UNL A   1      36.789  32.881  30.005  1.00  0.00     0.023 A 
ATOM     60  C   UNL A   1      36.286  32.997  31.318  1.00  0.00     0.031 A 
ATOM     61  C   UNL A   1      35.989  33.441  28.993  1.00  0.00     0.131 A 
ATOM     62  C   UNL A   1      35.014  33.536  31.571  1.00  0.00     0.055 A 
ATOM     63  C   UNL A   1      34.701  33.936  29.236  1.00  0.00     0.041 A 
ATOM     64  F   UNL A   1      36.439  33.551  27.732  1.00  0.00    -0.206 F 
ATOM     65  C   UNL A   1      34.200  33.971  30.531  1.00  0.00     0.022 A 
BRANCH  62  66
ATOM     66  S   UNL A   1      34.444  33.654  33.289  1.00  0.00     0.124 S 
ATOM     67  O   UNL A   1      35.438  32.857  34.002  1.00  0.00    -0.237 OA
ATOM     68  O   UNL A   1      34.478  35.092  33.529  1.00  0.00    -0.237 OA
ATOM     69  O   UNL A   1      33.105  33.068  33.241  1.00  0.00    -0.744 OA
ENDBRANCH  62  66
ENDBRANCH  45  59
BRANCH  46  70
ATOM     70  C   UNL A   1      44.638  27.435  29.389  1.00  0.00     0.023 A 
ATOM     71  C   UNL A   1      44.436  27.726  28.027  1.00  0.00     0.031 A 
ATOM     72  C   UNL A   1      45.662  26.538  29.723  1.00  0.00     0.131 A 
ATOM     73  C   UNL A   1      45.339  27.260  27.063  1.00  0.00     0.055 A 
ATOM     74  C   UNL A   1      46.527  26.025  28.747  1.00  0.00     0.041 A 
ATOM     75  F   UNL A   1      45.923  26.243  31.005  1.00  0.00    -0.206 F 
ATOM     76  C   UNL A   1      46.393  26.417  27.414  1.00  0.00     0.022 A 
BRANCH  73  77
ATOM     77  S   UNL A   1      45.260  27.996  25.404  1.00  0.00     0.124 S 
ATOM     78  O   UNL A   1      45.853  26.945  24.584  1.00  0.00    -0.237 OA
ATOM     79  O   UNL A   1      43.825  28.219  25.252  1.00  0.00    -0.237 OA
ATOM     80  O   UNL A   1      46.056  29.214  25.530  1.00  0.00    -0.744 OA
ENDBRANCH  73  77
ENDBRANCH  46  70
BRANCH  58  81
ATOM     81  C   UNL A   1      43.239  34.558  30.123  1.00  0.00     0.023 A 
ATOM     82  C   UNL A   1      43.019  35.222  28.908  1.00  0.00     0.031 A 
ATOM     83  C   UNL A   1      43.775  35.372  31.159  1.00  0.00     0.131 A 
ATOM     84  C   UNL A   1      43.363  36.579  28.737  1.00  0.00     0.055 A 
ATOM     85  C   UNL A   1      44.069  36.730  31.003  1.00  0.00     0.041 A 
ATOM     86  F   UNL A   1      44.027  34.891  32.385  1.00  0.00    -0.206 F 
ATOM     87  C   UNL A   1      43.872  37.344  29.780  1.00  0.00     0.022 A 
BRANCH  84  88
ATOM     88  S   UNL A   1      43.160  37.315  27.092  1.00  0.00     0.124 S 
ATOM     89  O   UNL A   1      42.833  36.149  26.277  1.00  0.00    -0.237 OA
ATOM     90  O   UNL A   1      42.071  38.262  27.306  1.00  0.00    -0.237 OA
ATOM     91  O   UNL A   1      44.463  37.918  26.819  1.00  0.00    -0.744 OA
ENDBRANCH  84  88
ENDBRANCH  58  81
ENDBRANCH  32  33
ENDBRANCH  24  27
ENDBRANCH  22  23
ENDBRANCH   1  22
TORSDOF 16
ENDMDL
