MODEL 1
REMARK VINA RESULT:     -11.8      0.000      0.000
REMARK SMILES C[NH+](C)CCc1nc(Nc2ccc(O)c(C(=O)NCCCCNC(=O)c3ccc(-c4c5nc(c(-c6cc(S(=O)(=O)[O-])ccc6F)c6ccc([nH]6)c(-c6cc(S(=O)(=O)[O-])ccc6F)c6nc(c(-c7cc(S(=O)(=O)[O-])ccc7F)c7ccc4[nH]7)C=C6)C=C5)cc3)c2)c2ccccc2n1
REMARK SMILES IDX 19 1 18 2 16 3 17 4 15 6 10 7 11 8 89 9 12 10 13 11 9 12
REMARK SMILES IDX 8 14 6 15 7 16 96 17 95 18 90 19 94 20 91 21 93 22 92 23
REMARK SMILES IDX 5 24 4 25 2 26 1 27 3 28 14 30 20 32 21 33 22 34 23 35 24 36
REMARK SMILES IDX 25 38 26 39 27 40 88 41 28 42 87 43 29 44 30 45 31 46 81 47
REMARK SMILES IDX 32 48 86 49 80 50 82 51 33 52 85 53 79 54 78 55 34 57 66 58
REMARK SMILES IDX 46 59 65 60 47 61 50 62 64 63 83 64 48 65 49 66 63 68 84 69
REMARK SMILES IDX 51 70 35 71 36 72 44 73 37 74 43 75 45 76 42 77 38 78 39 79
REMARK SMILES IDX 40 80 41 81 67 82 68 83 76 84 69 85 75 86 77 87 74 88 70 89
REMARK SMILES IDX 71 90 72 91 73 92 52 93 53 94 61 95 54 96 60 97 62 98 59 99
REMARK SMILES IDX 55 100 56 101 57 102 58 103
REMARK H PARENT 18 5 9 13 2 29 14 31 23 37 82 56 50 67
REMARK Flexibility Score: inf
ROOT
ATOM      1  C   UNL A   1      34.140  20.532  24.732  1.00  0.00     0.116 C 
ENDROOT
BRANCH   1   2
ATOM      2  N   UNL A   1      33.151  20.848  23.723  1.00  0.00    -0.352 N 
ATOM      3  C   UNL A   1      32.136  21.765  23.669  1.00  0.00     0.255 C 
ATOM      4  O   UNL A   1      31.436  21.726  22.651  1.00  0.00    -0.269 OA
ATOM      5  H   UNL A   1      33.223  20.293  22.914  1.00  0.00     0.163 HD
BRANCH   3   6
ATOM      6  C   UNL A   1      31.852  22.845  24.670  1.00  0.00     0.083 A 
ATOM      7  C   UNL A   1      32.300  25.228  25.142  1.00  0.00     0.041 A 
ATOM      8  C   UNL A   1      31.569  25.125  26.322  1.00  0.00     0.030 A 
ATOM      9  C   UNL A   1      32.437  24.088  24.337  1.00  0.00     0.043 A 
ATOM     10  C   UNL A   1      30.950  23.926  26.660  1.00  0.00     0.049 A 
ATOM     11  C   UNL A   1      31.079  22.798  25.836  1.00  0.00     0.128 A 
BRANCH   7  12
ATOM     12  N   UNL A   1      32.998  26.402  24.809  1.00  0.00    -0.340 N 
ATOM     13  H   UNL A   1      33.940  26.303  24.542  1.00  0.00     0.168 HD
BRANCH  12  14
ATOM     14  C   UNL A   1      32.467  27.712  24.824  1.00  0.00     0.142 A 
ATOM     15  C   UNL A   1      30.841  29.169  24.100  1.00  0.00     0.137 A 
ATOM     16  N   UNL A   1      31.463  27.997  23.973  1.00  0.00    -0.215 NA
ATOM     17  N   UNL A   1      31.224  30.132  24.956  1.00  0.00    -0.233 NA
ATOM     18  C   UNL A   1      32.268  29.876  25.752  1.00  0.00     0.076 A 
ATOM     19  C   UNL A   1      32.951  28.655  25.743  1.00  0.00     0.043 A 
ATOM     20  C   UNL A   1      32.677  30.856  26.650  1.00  0.00     0.029 A 
ATOM     21  C   UNL A   1      34.036  28.450  26.636  1.00  0.00     0.014 A 
ATOM     22  C   UNL A   1      33.739  30.652  27.537  1.00  0.00     0.002 A 
ATOM     23  C   UNL A   1      34.421  29.444  27.530  1.00  0.00     0.001 A 
BRANCH  15  24
ATOM     24  C   UNL A   1      29.612  29.451  23.275  1.00  0.00     0.138 C 
BRANCH  24  25
ATOM     25  C   UNL A   1      29.772  30.296  21.994  1.00  0.00     0.269 C 
BRANCH  25  26
ATOM     26  N   UNL A   1      29.203  31.653  21.897  1.00  0.00    -0.339 N 
ATOM     27  C   UNL A   1      28.090  31.743  20.959  1.00  0.00     0.332 C 
ATOM     28  C   UNL A   1      28.846  32.250  23.177  1.00  0.00     0.332 C 
ATOM     29  H   UNL A   1      29.972  32.210  21.524  1.00  0.00     0.347 HD
ENDBRANCH  25  26
ENDBRANCH  24  25
ENDBRANCH  15  24
ENDBRANCH  12  14
ENDBRANCH   7  12
BRANCH  11  30
ATOM     30  O   UNL A   1      30.382  21.693  26.215  1.00  0.00    -0.507 OA
ATOM     31  H   UNL A   1      30.295  21.481  27.124  1.00  0.00     0.293 HD
ENDBRANCH  11  30
ENDBRANCH   3   6
ENDBRANCH   1   2
BRANCH   1  32
ATOM     32  C   UNL A   1      35.378  21.417  24.561  1.00  0.00     0.023 C 
BRANCH  32  33
ATOM     33  C   UNL A   1      35.953  21.977  25.863  1.00  0.00     0.023 C 
BRANCH  33  34
ATOM     34  C   UNL A   1      37.227  22.800  25.704  1.00  0.00     0.116 C 
BRANCH  34  35
ATOM     35  N   UNL A   1      38.438  22.059  26.031  1.00  0.00    -0.352 N 
ATOM     36  C   UNL A   1      39.619  22.526  26.560  1.00  0.00     0.251 C 
ATOM     37  H   UNL A   1      38.406  21.092  25.848  1.00  0.00     0.163 HD
ATOM     38  O   UNL A   1      40.577  21.774  26.685  1.00  0.00    -0.269 OA
BRANCH  36  39
ATOM     39  C   UNL A   1      39.729  23.955  26.923  1.00  0.00     0.039 A 
ATOM     40  C   UNL A   1      39.442  24.338  28.235  1.00  0.00     0.014 A 
ATOM     41  C   UNL A   1      40.178  24.894  25.991  1.00  0.00     0.014 A 
ATOM     42  C   UNL A   1      39.701  25.648  28.641  1.00  0.00     0.010 A 
ATOM     43  C   UNL A   1      40.494  26.182  26.413  1.00  0.00     0.010 A 
ATOM     44  C   UNL A   1      40.280  26.563  27.747  1.00  0.00    -0.014 A 
BRANCH  44  45
ATOM     45  C   UNL A   1      40.723  27.908  28.196  1.00  0.00     0.031 A 
ATOM     46  C   UNL A   1      42.184  28.216  28.339  1.00  0.00     0.074 A 
ATOM     47  C   UNL A   1      39.796  28.815  28.564  1.00  0.00     0.049 A 
ATOM     48  N   UNL A   1      42.761  29.286  28.820  1.00  0.00    -0.248 NA
ATOM     49  C   UNL A   1      43.120  27.166  27.910  1.00  0.00     0.031 C 
ATOM     50  C   UNL A   1      38.346  28.613  28.508  1.00  0.00     0.029 A 
ATOM     51  N   UNL A   1      39.933  30.081  29.076  1.00  0.00    -0.354 N 
ATOM     52  C   UNL A   1      44.127  29.040  28.760  1.00  0.00     0.074 A 
ATOM     53  C   UNL A   1      44.287  27.694  28.249  1.00  0.00     0.031 C 
ATOM     54  C   UNL A   1      37.730  29.719  28.955  1.00  0.00     0.029 A 
ATOM     55  C   UNL A   1      38.735  30.690  29.374  1.00  0.00     0.049 A 
ATOM     56  H   UNL A   1      40.806  30.513  29.217  1.00  0.00     0.167 HD
ATOM     57  C   UNL A   1      45.152  29.868  29.084  1.00  0.00     0.034 A 
ATOM     58  C   UNL A   1      38.476  31.883  29.942  1.00  0.00     0.034 A 
ATOM     59  C   UNL A   1      44.971  31.207  29.589  1.00  0.00     0.049 A 
ATOM     60  C   UNL A   1      39.629  32.764  30.343  1.00  0.00     0.074 A 
ATOM     61  C   UNL A   1      45.935  32.158  29.876  1.00  0.00     0.029 A 
ATOM     62  N   UNL A   1      43.745  31.782  29.899  1.00  0.00    -0.354 N 
ATOM     63  N   UNL A   1      40.918  32.540  30.225  1.00  0.00    -0.248 NA
ATOM     64  C   UNL A   1      39.294  34.057  30.954  1.00  0.00     0.031 C 
ATOM     65  C   UNL A   1      45.298  33.279  30.422  1.00  0.00     0.029 A 
ATOM     66  C   UNL A   1      43.930  33.056  30.415  1.00  0.00     0.049 A 
ATOM     67  H   UNL A   1      42.870  31.348  29.771  1.00  0.00     0.167 HD
ATOM     68  C   UNL A   1      41.547  33.673  30.733  1.00  0.00     0.074 A 
ATOM     69  C   UNL A   1      40.496  34.583  31.143  1.00  0.00     0.031 C 
ATOM     70  C   UNL A   1      42.873  33.939  30.846  1.00  0.00     0.034 A 
BRANCH  57  71
ATOM     71  C   UNL A   1      46.553  29.329  28.925  1.00  0.00     0.023 A 
ATOM     72  C   UNL A   1      47.105  29.075  27.658  1.00  0.00     0.031 A 
ATOM     73  C   UNL A   1      47.336  29.033  30.055  1.00  0.00     0.131 A 
ATOM     74  C   UNL A   1      48.365  28.470  27.550  1.00  0.00     0.055 A 
ATOM     75  C   UNL A   1      48.623  28.503  29.941  1.00  0.00     0.041 A 
ATOM     76  F   UNL A   1      46.856  29.235  31.292  1.00  0.00    -0.206 F 
ATOM     77  C   UNL A   1      49.139  28.203  28.683  1.00  0.00     0.022 A 
BRANCH  74  78
ATOM     78  S   UNL A   1      48.915  27.900  25.918  1.00  0.00     0.124 S 
ATOM     79  O   UNL A   1      47.982  28.593  25.034  1.00  0.00    -0.237 OA
ATOM     80  O   UNL A   1      50.298  28.360  25.874  1.00  0.00    -0.237 OA
ATOM     81  O   UNL A   1      48.740  26.451  25.984  1.00  0.00    -0.744 OA
ENDBRANCH  74  78
ENDBRANCH  57  71
BRANCH  58  82
ATOM     82  C   UNL A   1      37.070  32.307  30.195  1.00  0.00     0.023 A 
ATOM     83  C   UNL A   1      36.364  33.064  29.249  1.00  0.00     0.031 A 
ATOM     84  C   UNL A   1      36.422  31.984  31.401  1.00  0.00     0.131 A 
ATOM     85  C   UNL A   1      35.063  33.505  29.536  1.00  0.00     0.055 A 
ATOM     86  C   UNL A   1      35.112  32.386  31.664  1.00  0.00     0.041 A 
ATOM     87  F   UNL A   1      37.053  31.256  32.337  1.00  0.00    -0.206 F 
ATOM     88  C   UNL A   1      34.428  33.161  30.732  1.00  0.00     0.022 A 
BRANCH  85  89
ATOM     89  S   UNL A   1      34.233  34.595  28.348  1.00  0.00     0.124 S 
ATOM     90  O   UNL A   1      34.590  33.976  27.076  1.00  0.00    -0.237 OA
ATOM     91  O   UNL A   1      32.836  34.474  28.750  1.00  0.00    -0.237 OA
ATOM     92  O   UNL A   1      34.841  35.900  28.601  1.00  0.00    -0.744 OA
ENDBRANCH  85  89
ENDBRANCH  58  82
BRANCH  70  93
ATOM     93  C   UNL A   1      43.251  35.281  31.420  1.00  0.00     0.023 A 
ATOM     94  C   UNL A   1      43.281  35.504  32.808  1.00  0.00     0.031 A 
ATOM     95  C   UNL A   1      43.577  36.350  30.567  1.00  0.00     0.131 A 
ATOM     96  C   UNL A   1      43.587  36.782  33.302  1.00  0.00     0.055 A 
ATOM     97  C   UNL A   1      43.932  37.603  31.067  1.00  0.00     0.041 A 
ATOM     98  F   UNL A   1      43.560  36.191  29.235  1.00  0.00    -0.206 F 
ATOM     99  C   UNL A   1      43.928  37.827  32.441  1.00  0.00     0.022 A 
BRANCH  96 100
ATOM    100  S   UNL A   1      43.469  37.077  35.088  1.00  0.00     0.124 S 
ATOM    101  O   UNL A   1      44.157  38.356  35.229  1.00  0.00    -0.237 OA
ATOM    102  O   UNL A   1      42.027  37.101  35.307  1.00  0.00    -0.237 OA
ATOM    103  O   UNL A   1      44.164  35.931  35.672  1.00  0.00    -0.744 OA
ENDBRANCH  96 100
ENDBRANCH  70  93
ENDBRANCH  44  45
ENDBRANCH  36  39
ENDBRANCH  34  35
ENDBRANCH  33  34
ENDBRANCH  32  33
ENDBRANCH   1  32
TORSDOF 20
ENDMDL
MODEL 2
REMARK VINA RESULT:     -11.8      1.800      2.071
REMARK SMILES C[NH+](C)CCc1nc(Nc2ccc(O)c(C(=O)NCCCCNC(=O)c3ccc(-c4c5nc(c(-c6cc(S(=O)(=O)[O-])ccc6F)c6ccc([nH]6)c(-c6cc(S(=O)(=O)[O-])ccc6F)c6nc(c(-c7cc(S(=O)(=O)[O-])ccc7F)c7ccc4[nH]7)C=C6)C=C5)cc3)c2)c2ccccc2n1
REMARK SMILES IDX 19 1 18 2 16 3 17 4 15 6 10 7 11 8 89 9 12 10 13 11 9 12
REMARK SMILES IDX 8 14 6 15 7 16 96 17 95 18 90 19 94 20 91 21 93 22 92 23
REMARK SMILES IDX 5 24 4 25 2 26 1 27 3 28 14 30 20 32 21 33 22 34 23 35 24 36
REMARK SMILES IDX 25 38 26 39 27 40 88 41 28 42 87 43 29 44 30 45 31 46 81 47
REMARK SMILES IDX 32 48 86 49 80 50 82 51 33 52 85 53 79 54 78 55 34 57 66 58
REMARK SMILES IDX 46 59 65 60 47 61 50 62 64 63 83 64 48 65 49 66 63 68 84 69
REMARK SMILES IDX 51 70 35 71 36 72 44 73 37 74 43 75 45 76 42 77 38 78 39 79
REMARK SMILES IDX 40 80 41 81 67 82 68 83 76 84 69 85 75 86 77 87 74 88 70 89
REMARK SMILES IDX 71 90 72 91 73 92 52 93 53 94 61 95 54 96 60 97 62 98 59 99
REMARK SMILES IDX 55 100 56 101 57 102 58 103
REMARK H PARENT 18 5 9 13 2 29 14 31 23 37 82 56 50 67
REMARK Flexibility Score: inf
ROOT
ATOM      1  C   UNL A   1      34.287  20.344  25.151  1.00  0.00     0.116 C 
ENDROOT
BRANCH   1   2
ATOM      2  N   UNL A   1      33.547  20.712  23.963  1.00  0.00    -0.352 N 
ATOM      3  C   UNL A   1      32.616  21.684  23.708  1.00  0.00     0.255 C 
ATOM      4  O   UNL A   1      32.142  21.682  22.566  1.00  0.00    -0.269 OA
ATOM      5  H   UNL A   1      33.755  20.153  23.181  1.00  0.00     0.163 HD
BRANCH   3   6
ATOM      6  C   UNL A   1      32.190  22.779  24.638  1.00  0.00     0.083 A 
ATOM      7  C   UNL A   1      32.466  25.199  25.053  1.00  0.00     0.041 A 
ATOM      8  C   UNL A   1      31.644  25.096  26.171  1.00  0.00     0.030 A 
ATOM      9  C   UNL A   1      32.733  24.042  24.308  1.00  0.00     0.043 A 
ATOM     10  C   UNL A   1      31.064  23.875  26.502  1.00  0.00     0.049 A 
ATOM     11  C   UNL A   1      31.324  22.728  25.737  1.00  0.00     0.128 A 
BRANCH   7  12
ATOM     12  N   UNL A   1      33.126  26.399  24.734  1.00  0.00    -0.340 N 
ATOM     13  H   UNL A   1      34.065  26.332  24.445  1.00  0.00     0.168 HD
BRANCH  12  14
ATOM     14  C   UNL A   1      32.561  27.694  24.791  1.00  0.00     0.142 A 
ATOM     15  C   UNL A   1      30.883  29.124  24.133  1.00  0.00     0.137 A 
ATOM     16  N   UNL A   1      31.534  27.972  23.965  1.00  0.00    -0.215 NA
ATOM     17  N   UNL A   1      31.256  30.075  25.006  1.00  0.00    -0.233 NA
ATOM     18  C   UNL A   1      32.322  29.828  25.776  1.00  0.00     0.076 A 
ATOM     19  C   UNL A   1      33.037  28.626  25.724  1.00  0.00     0.043 A 
ATOM     20  C   UNL A   1      32.722  30.797  26.690  1.00  0.00     0.029 A 
ATOM     21  C   UNL A   1      34.144  28.429  26.592  1.00  0.00     0.014 A 
ATOM     22  C   UNL A   1      33.805  30.600  27.553  1.00  0.00     0.002 A 
ATOM     23  C   UNL A   1      34.519  29.411  27.503  1.00  0.00     0.001 A 
BRANCH  15  24
ATOM     24  C   UNL A   1      29.632  29.393  23.338  1.00  0.00     0.138 C 
BRANCH  24  25
ATOM     25  C   UNL A   1      28.964  30.776  23.474  1.00  0.00     0.269 C 
BRANCH  25  26
ATOM     26  N   UNL A   1      28.112  31.323  22.401  1.00  0.00    -0.339 N 
ATOM     27  C   UNL A   1      28.436  32.702  22.057  1.00  0.00     0.332 C 
ATOM     28  C   UNL A   1      28.044  30.496  21.205  1.00  0.00     0.332 C 
ATOM     29  H   UNL A   1      27.177  31.314  22.810  1.00  0.00     0.347 HD
ENDBRANCH  25  26
ENDBRANCH  24  25
ENDBRANCH  15  24
ENDBRANCH  12  14
ENDBRANCH   7  12
BRANCH  11  30
ATOM     30  O   UNL A   1      30.657  21.599  26.099  1.00  0.00    -0.507 OA
ATOM     31  H   UNL A   1      30.995  21.054  26.783  1.00  0.00     0.293 HD
ENDBRANCH  11  30
ENDBRANCH   3   6
ENDBRANCH   1   2
BRANCH   1  32
ATOM     32  C   UNL A   1      35.630  21.077  25.192  1.00  0.00     0.023 C 
BRANCH  32  33
ATOM     33  C   UNL A   1      35.611  22.415  25.932  1.00  0.00     0.023 C 
BRANCH  33  34
ATOM     34  C   UNL A   1      36.910  23.210  25.862  1.00  0.00     0.116 C 
BRANCH  34  35
ATOM     35  N   UNL A   1      38.089  22.424  26.203  1.00  0.00    -0.352 N 
ATOM     36  C   UNL A   1      39.290  22.849  26.720  1.00  0.00     0.251 C 
ATOM     37  H   UNL A   1      38.013  21.455  26.042  1.00  0.00     0.163 HD
ATOM     38  O   UNL A   1      40.214  22.058  26.860  1.00  0.00    -0.269 OA
BRANCH  36  39
ATOM     39  C   UNL A   1      39.465  24.278  27.052  1.00  0.00     0.039 A 
ATOM     40  C   UNL A   1      39.119  24.718  28.332  1.00  0.00     0.014 A 
ATOM     41  C   UNL A   1      40.030  25.160  26.127  1.00  0.00     0.014 A 
ATOM     42  C   UNL A   1      39.431  26.022  28.719  1.00  0.00     0.010 A 
ATOM     43  C   UNL A   1      40.396  26.440  26.534  1.00  0.00     0.010 A 
ATOM     44  C   UNL A   1      40.122  26.873  27.841  1.00  0.00    -0.014 A 
BRANCH  44  45
ATOM     45  C   UNL A   1      40.617  28.202  28.282  1.00  0.00     0.031 A 
ATOM     46  C   UNL A   1      42.087  28.439  28.470  1.00  0.00     0.074 A 
ATOM     47  C   UNL A   1      39.725  29.161  28.604  1.00  0.00     0.049 A 
ATOM     48  N   UNL A   1      42.700  29.488  28.952  1.00  0.00    -0.248 NA
ATOM     49  C   UNL A   1      42.981  27.336  28.090  1.00  0.00     0.031 C 
ATOM     50  C   UNL A   1      38.270  29.030  28.503  1.00  0.00     0.029 A 
ATOM     51  N   UNL A   1      39.909  30.427  29.100  1.00  0.00    -0.354 N 
ATOM     52  C   UNL A   1      44.054  29.172  28.942  1.00  0.00     0.074 A 
ATOM     53  C   UNL A   1      44.162  27.811  28.459  1.00  0.00     0.031 C 
ATOM     54  C   UNL A   1      37.695  30.174  28.910  1.00  0.00     0.029 A 
ATOM     55  C   UNL A   1      38.734  31.100  29.347  1.00  0.00     0.049 A 
ATOM     56  H   UNL A   1      40.798  30.818  29.263  1.00  0.00     0.167 HD
ATOM     57  C   UNL A   1      45.107  29.954  29.287  1.00  0.00     0.034 A 
ATOM     58  C   UNL A   1      38.517  32.315  29.887  1.00  0.00     0.034 A 
ATOM     59  C   UNL A   1      44.978  31.310  29.764  1.00  0.00     0.049 A 
ATOM     60  C   UNL A   1      39.700  33.145  30.312  1.00  0.00     0.074 A 
ATOM     61  C   UNL A   1      45.979  32.216  30.067  1.00  0.00     0.029 A 
ATOM     62  N   UNL A   1      43.773  31.951  30.022  1.00  0.00    -0.354 N 
ATOM     63  N   UNL A   1      40.979  32.855  30.241  1.00  0.00    -0.248 NA
ATOM     64  C   UNL A   1      39.411  34.463  30.889  1.00  0.00     0.031 C 
ATOM     65  C   UNL A   1      45.382  33.378  30.573  1.00  0.00     0.029 A 
ATOM     66  C   UNL A   1      44.005  33.223  30.523  1.00  0.00     0.049 A 
ATOM     67  H   UNL A   1      42.882  31.559  29.873  1.00  0.00     0.167 HD
ATOM     68  C   UNL A   1      41.647  33.964  30.751  1.00  0.00     0.074 A 
ATOM     69  C   UNL A   1      40.631  34.932  31.110  1.00  0.00     0.031 C 
ATOM     70  C   UNL A   1      42.981  34.165  30.904  1.00  0.00     0.034 A 
BRANCH  57  71
ATOM     71  C   UNL A   1      46.484  29.343  29.184  1.00  0.00     0.023 A 
ATOM     72  C   UNL A   1      47.197  29.335  27.973  1.00  0.00     0.031 A 
ATOM     73  C   UNL A   1      47.078  28.731  30.302  1.00  0.00     0.131 A 
ATOM     74  C   UNL A   1      48.424  28.660  27.886  1.00  0.00     0.055 A 
ATOM     75  C   UNL A   1      48.336  28.130  30.230  1.00  0.00     0.041 A 
ATOM     76  F   UNL A   1      46.438  28.691  31.481  1.00  0.00    -0.206 F 
ATOM     77  C   UNL A   1      49.010  28.077  29.013  1.00  0.00     0.022 A 
BRANCH  74  78
ATOM     78  S   UNL A   1      49.170  28.427  26.249  1.00  0.00     0.124 S 
ATOM     79  O   UNL A   1      50.086  29.563  26.179  1.00  0.00    -0.237 OA
ATOM     80  O   UNL A   1      49.788  27.113  26.369  1.00  0.00    -0.237 OA
ATOM     81  O   UNL A   1      48.028  28.500  25.339  1.00  0.00    -0.744 OA
ENDBRANCH  74  78
ENDBRANCH  57  71
BRANCH  58  82
ATOM     82  C   UNL A   1      37.127  32.813  30.085  1.00  0.00     0.023 A 
ATOM     83  C   UNL A   1      36.608  33.010  31.374  1.00  0.00     0.031 A 
ATOM     84  C   UNL A   1      36.288  33.074  28.987  1.00  0.00     0.131 A 
ATOM     85  C   UNL A   1      35.277  33.421  31.536  1.00  0.00     0.055 A 
ATOM     86  C   UNL A   1      34.978  33.526  29.153  1.00  0.00     0.041 A 
ATOM     87  F   UNL A   1      36.739  32.906  27.734  1.00  0.00    -0.206 F 
ATOM     88  C   UNL A   1      34.461  33.691  30.434  1.00  0.00     0.022 A 
BRANCH  85  89
ATOM     89  S   UNL A   1      34.601  33.533  33.215  1.00  0.00     0.124 S 
ATOM     90  O   UNL A   1      34.623  34.973  33.450  1.00  0.00    -0.237 OA
ATOM     91  O   UNL A   1      33.283  32.930  33.053  1.00  0.00    -0.237 OA
ATOM     92  O   UNL A   1      35.545  32.755  34.015  1.00  0.00    -0.744 OA
ENDBRANCH  85  89
ENDBRANCH  58  82
BRANCH  70  93
ATOM     93  C   UNL A   1      43.407  35.497  31.469  1.00  0.00     0.023 A 
ATOM     94  C   UNL A   1      43.697  36.590  30.634  1.00  0.00     0.031 A 
ATOM     95  C   UNL A   1      43.531  35.670  32.859  1.00  0.00     0.131 A 
ATOM     96  C   UNL A   1      44.140  37.797  31.195  1.00  0.00     0.055 A 
ATOM     97  C   UNL A   1      43.922  36.889  33.413  1.00  0.00     0.041 A 
ATOM     98  F   UNL A   1      43.270  34.657  33.700  1.00  0.00    -0.206 F 
ATOM     99  C   UNL A   1      44.239  37.958  32.579  1.00  0.00     0.022 A 
BRANCH  96 100
ATOM    100  S   UNL A   1      44.652  39.138  30.086  1.00  0.00     0.124 S 
ATOM    101  O   UNL A   1      46.047  38.801  29.827  1.00  0.00    -0.237 OA
ATOM    102  O   UNL A   1      43.738  38.981  28.960  1.00  0.00    -0.237 OA
ATOM    103  O   UNL A   1      44.444  40.344  30.886  1.00  0.00    -0.744 OA
ENDBRANCH  96 100
ENDBRANCH  70  93
ENDBRANCH  44  45
ENDBRANCH  36  39
ENDBRANCH  34  35
ENDBRANCH  33  34
ENDBRANCH  32  33
ENDBRANCH   1  32
TORSDOF 20
ENDMDL
MODEL 3
REMARK VINA RESULT:     -11.7      1.803      2.060
REMARK SMILES C[NH+](C)CCc1nc(Nc2ccc(O)c(C(=O)NCCCCNC(=O)c3ccc(-c4c5nc(c(-c6cc(S(=O)(=O)[O-])ccc6F)c6ccc([nH]6)c(-c6cc(S(=O)(=O)[O-])ccc6F)c6nc(c(-c7cc(S(=O)(=O)[O-])ccc7F)c7ccc4[nH]7)C=C6)C=C5)cc3)c2)c2ccccc2n1
REMARK SMILES IDX 19 1 18 2 16 3 17 4 15 6 10 7 11 8 89 9 12 10 13 11 9 12
REMARK SMILES IDX 8 14 6 15 7 16 96 17 95 18 90 19 94 20 91 21 93 22 92 23
REMARK SMILES IDX 5 24 4 25 2 26 1 27 3 28 14 30 20 32 21 33 22 34 23 35 24 36
REMARK SMILES IDX 25 38 26 39 27 40 88 41 28 42 87 43 29 44 30 45 31 46 81 47
REMARK SMILES IDX 32 48 86 49 80 50 82 51 33 52 85 53 79 54 78 55 34 57 66 58
REMARK SMILES IDX 46 59 65 60 47 61 50 62 64 63 83 64 48 65 49 66 63 68 84 69
REMARK SMILES IDX 51 70 35 71 36 72 44 73 37 74 43 75 45 76 42 77 38 78 39 79
REMARK SMILES IDX 40 80 41 81 67 82 68 83 76 84 69 85 75 86 77 87 74 88 70 89
REMARK SMILES IDX 71 90 72 91 73 92 52 93 53 94 61 95 54 96 60 97 62 98 59 99
REMARK SMILES IDX 55 100 56 101 57 102 58 103
REMARK H PARENT 18 5 9 13 2 29 14 31 23 37 82 56 50 67
REMARK Flexibility Score: inf
ROOT
ATOM      1  C   UNL A   1      34.340  20.397  25.319  1.00  0.00     0.116 C 
ENDROOT
BRANCH   1   2
ATOM      2  N   UNL A   1      33.574  20.636  24.114  1.00  0.00    -0.352 N 
ATOM      3  C   UNL A   1      32.582  21.527  23.803  1.00  0.00     0.255 C 
ATOM      4  O   UNL A   1      32.105  21.418  22.667  1.00  0.00    -0.269 OA
ATOM      5  H   UNL A   1      33.815  20.040  23.370  1.00  0.00     0.163 HD
BRANCH   3   6
ATOM      6  C   UNL A   1      32.089  22.654  24.660  1.00  0.00     0.083 A 
ATOM      7  C   UNL A   1      32.305  25.094  24.982  1.00  0.00     0.041 A 
ATOM      8  C   UNL A   1      31.426  25.023  26.060  1.00  0.00     0.030 A 
ATOM      9  C   UNL A   1      32.628  23.911  24.303  1.00  0.00     0.043 A 
ATOM     10  C   UNL A   1      30.849  23.808  26.414  1.00  0.00     0.049 A 
ATOM     11  C   UNL A   1      31.168  22.634  25.714  1.00  0.00     0.128 A 
BRANCH   7  12
ATOM     12  N   UNL A   1      32.960  26.291  24.645  1.00  0.00    -0.340 N 
ATOM     13  H   UNL A   1      33.920  26.233  24.434  1.00  0.00     0.168 HD
BRANCH  12  14
ATOM     14  C   UNL A   1      32.364  27.571  24.584  1.00  0.00     0.142 A 
ATOM     15  C   UNL A   1      30.741  28.929  23.680  1.00  0.00     0.137 A 
ATOM     16  N   UNL A   1      31.433  27.790  23.636  1.00  0.00    -0.215 NA
ATOM     17  N   UNL A   1      30.991  29.924  24.550  1.00  0.00    -0.233 NA
ATOM     18  C   UNL A   1      31.967  29.735  25.446  1.00  0.00     0.076 A 
ATOM     19  C   UNL A   1      32.709  28.552  25.525  1.00  0.00     0.043 A 
ATOM     20  C   UNL A   1      32.238  30.749  26.358  1.00  0.00     0.029 A 
ATOM     21  C   UNL A   1      33.713  28.418  26.521  1.00  0.00     0.014 A 
ATOM     22  C   UNL A   1      33.219  30.615  27.346  1.00  0.00     0.002 A 
ATOM     23  C   UNL A   1      33.960  29.444  27.427  1.00  0.00     0.001 A 
BRANCH  15  24
ATOM     24  C   UNL A   1      29.585  29.134  22.737  1.00  0.00     0.138 C 
BRANCH  24  25
ATOM     25  C   UNL A   1      29.388  30.532  22.116  1.00  0.00     0.269 C 
BRANCH  25  26
ATOM     26  N   UNL A   1      28.854  31.654  22.911  1.00  0.00    -0.339 N 
ATOM     27  C   UNL A   1      28.642  32.863  22.125  1.00  0.00     0.332 C 
ATOM     28  C   UNL A   1      27.666  31.329  23.688  1.00  0.00     0.332 C 
ATOM     29  H   UNL A   1      29.596  31.844  23.584  1.00  0.00     0.347 HD
ENDBRANCH  25  26
ENDBRANCH  24  25
ENDBRANCH  15  24
ENDBRANCH  12  14
ENDBRANCH   7  12
BRANCH  11  30
ATOM     30  O   UNL A   1      30.502  21.509  26.090  1.00  0.00    -0.507 OA
ATOM     31  H   UNL A   1      29.611  21.565  26.376  1.00  0.00     0.293 HD
ENDBRANCH  11  30
ENDBRANCH   3   6
ENDBRANCH   1   2
BRANCH   1  32
ATOM     32  C   UNL A   1      35.761  20.946  25.166  1.00  0.00     0.023 C 
BRANCH  32  33
ATOM     33  C   UNL A   1      35.935  22.406  25.588  1.00  0.00     0.023 C 
BRANCH  33  34
ATOM     34  C   UNL A   1      37.325  22.985  25.346  1.00  0.00     0.116 C 
BRANCH  34  35
ATOM     35  N   UNL A   1      38.393  22.197  25.946  1.00  0.00    -0.352 N 
ATOM     36  C   UNL A   1      39.472  22.625  26.683  1.00  0.00     0.251 C 
ATOM     37  H   UNL A   1      38.333  21.224  25.805  1.00  0.00     0.163 HD
ATOM     38  O   UNL A   1      40.332  21.828  27.035  1.00  0.00    -0.269 OA
BRANCH  36  39
ATOM     39  C   UNL A   1      39.604  24.064  26.996  1.00  0.00     0.039 A 
ATOM     40  C   UNL A   1      39.282  24.504  28.283  1.00  0.00     0.014 A 
ATOM     41  C   UNL A   1      40.106  24.956  26.046  1.00  0.00     0.014 A 
ATOM     42  C   UNL A   1      39.558  25.823  28.647  1.00  0.00     0.010 A 
ATOM     43  C   UNL A   1      40.438  26.253  26.429  1.00  0.00     0.010 A 
ATOM     44  C   UNL A   1      40.189  26.689  27.740  1.00  0.00    -0.014 A 
BRANCH  44  45
ATOM     45  C   UNL A   1      40.647  28.040  28.153  1.00  0.00     0.031 A 
ATOM     46  C   UNL A   1      42.113  28.357  28.211  1.00  0.00     0.074 A 
ATOM     47  C   UNL A   1      39.737  28.945  28.566  1.00  0.00     0.049 A 
ATOM     48  N   UNL A   1      42.709  29.435  28.650  1.00  0.00    -0.248 NA
ATOM     49  C   UNL A   1      43.029  27.310  27.738  1.00  0.00     0.031 C 
ATOM     50  C   UNL A   1      38.288  28.734  28.594  1.00  0.00     0.029 A 
ATOM     51  N   UNL A   1      39.895  30.215  29.060  1.00  0.00    -0.354 N 
ATOM     52  C   UNL A   1      44.071  29.196  28.515  1.00  0.00     0.074 A 
ATOM     53  C   UNL A   1      44.210  27.847  28.006  1.00  0.00     0.031 C 
ATOM     54  C   UNL A   1      37.691  29.840  29.066  1.00  0.00     0.029 A 
ATOM     55  C   UNL A   1      38.712  30.820  29.420  1.00  0.00     0.049 A 
ATOM     56  H   UNL A   1      40.772  30.654  29.148  1.00  0.00     0.167 HD
ATOM     57  C   UNL A   1      45.107  30.032  28.775  1.00  0.00     0.034 A 
ATOM     58  C   UNL A   1      38.478  32.015  29.993  1.00  0.00     0.034 A 
ATOM     59  C   UNL A   1      44.947  31.375  29.279  1.00  0.00     0.049 A 
ATOM     60  C   UNL A   1      39.647  32.907  30.321  1.00  0.00     0.074 A 
ATOM     61  C   UNL A   1      45.920  32.333  29.504  1.00  0.00     0.029 A 
ATOM     62  N   UNL A   1      43.737  31.945  29.653  1.00  0.00    -0.354 N 
ATOM     63  N   UNL A   1      40.928  32.689  30.132  1.00  0.00    -0.248 NA
ATOM     64  C   UNL A   1      39.339  34.202  30.940  1.00  0.00     0.031 C 
ATOM     65  C   UNL A   1      45.308  33.455  30.076  1.00  0.00     0.029 A 
ATOM     66  C   UNL A   1      43.943  33.224  30.148  1.00  0.00     0.049 A 
ATOM     67  H   UNL A   1      42.859  31.505  29.578  1.00  0.00     0.167 HD
ATOM     68  C   UNL A   1      41.578  33.830  30.595  1.00  0.00     0.074 A 
ATOM     69  C   UNL A   1      40.546  34.737  31.057  1.00  0.00     0.031 C 
ATOM     70  C   UNL A   1      42.906  34.104  30.631  1.00  0.00     0.034 A 
BRANCH  57  71
ATOM     71  C   UNL A   1      46.501  29.500  28.541  1.00  0.00     0.023 A 
ATOM     72  C   UNL A   1      47.232  28.875  29.566  1.00  0.00     0.031 A 
ATOM     73  C   UNL A   1      47.120  29.648  27.287  1.00  0.00     0.131 A 
ATOM     74  C   UNL A   1      48.563  28.495  29.345  1.00  0.00     0.055 A 
ATOM     75  C   UNL A   1      48.419  29.195  27.050  1.00  0.00     0.041 A 
ATOM     76  F   UNL A   1      46.479  30.254  26.275  1.00  0.00    -0.206 F 
ATOM     77  C   UNL A   1      49.155  28.629  28.087  1.00  0.00     0.022 A 
BRANCH  74  78
ATOM     78  S   UNL A   1      49.557  27.959  30.765  1.00  0.00     0.124 S 
ATOM     79  O   UNL A   1      48.522  27.533  31.705  1.00  0.00    -0.237 OA
ATOM     80  O   UNL A   1      50.376  26.897  30.193  1.00  0.00    -0.237 OA
ATOM     81  O   UNL A   1      50.281  29.168  31.153  1.00  0.00    -0.744 OA
ENDBRANCH  74  78
ENDBRANCH  57  71
BRANCH  58  82
ATOM     82  C   UNL A   1      37.086  32.434  30.322  1.00  0.00     0.023 A 
ATOM     83  C   UNL A   1      36.293  33.105  29.379  1.00  0.00     0.031 A 
ATOM     84  C   UNL A   1      36.540  32.192  31.595  1.00  0.00     0.131 A 
ATOM     85  C   UNL A   1      35.008  33.544  29.733  1.00  0.00     0.055 A 
ATOM     86  C   UNL A   1      35.244  32.591  31.927  1.00  0.00     0.041 A 
ATOM     87  F   UNL A   1      37.256  31.548  32.530  1.00  0.00    -0.206 F 
ATOM     88  C   UNL A   1      34.474  33.281  30.997  1.00  0.00     0.022 A 
BRANCH  85  89
ATOM     89  S   UNL A   1      34.065  34.526  28.535  1.00  0.00     0.124 S 
ATOM     90  O   UNL A   1      34.496  33.944  27.268  1.00  0.00    -0.237 OA
ATOM     91  O   UNL A   1      32.689  34.251  28.933  1.00  0.00    -0.237 OA
ATOM     92  O   UNL A   1      34.521  35.893  28.781  1.00  0.00    -0.744 OA
ENDBRANCH  85  89
ENDBRANCH  58  82
BRANCH  70  93
ATOM     93  C   UNL A   1      43.308  35.453  31.173  1.00  0.00     0.023 A 
ATOM     94  C   UNL A   1      43.539  36.548  30.322  1.00  0.00     0.031 A 
ATOM     95  C   UNL A   1      43.468  35.641  32.557  1.00  0.00     0.131 A 
ATOM     96  C   UNL A   1      43.961  37.773  30.861  1.00  0.00     0.055 A 
ATOM     97  C   UNL A   1      43.837  36.876  33.090  1.00  0.00     0.041 A 
ATOM     98  F   UNL A   1      43.263  34.628  33.413  1.00  0.00    -0.206 F 
ATOM     99  C   UNL A   1      44.096  37.948  32.240  1.00  0.00     0.022 A 
BRANCH  96 100
ATOM    100  S   UNL A   1      44.398  39.120  29.727  1.00  0.00     0.124 S 
ATOM    101  O   UNL A   1      43.496  40.183  30.159  1.00  0.00    -0.237 OA
ATOM    102  O   UNL A   1      45.813  39.327  30.016  1.00  0.00    -0.237 OA
ATOM    103  O   UNL A   1      44.113  38.563  28.406  1.00  0.00    -0.744 OA
ENDBRANCH  96 100
ENDBRANCH  70  93
ENDBRANCH  44  45
ENDBRANCH  36  39
ENDBRANCH  34  35
ENDBRANCH  33  34
ENDBRANCH  32  33
ENDBRANCH   1  32
TORSDOF 20
ENDMDL
