MODEL 1
REMARK VINA RESULT:     -12.3      0.000      0.000
REMARK SMILES CCCc1cc(OC(F)(F)F)cc2c1O[C@@H](C(F)(F)F)C(C(=O)NCCCCNC(=O)c1ccc(-c3c4nc(c(-c5cc(S(=O)(=O)[O-])ccc5F)c5ccc([nH]5)c(-c5cc(S(=O)(=O)[O-])ccc5F)c5nc(c(-c6cc(S(=O)(=O)[O-])ccc6F)c6ccc3[nH]6)C=C5)C=C4)cc1)=C2
REMARK SMILES IDX 27 1 26 2 25 3 24 4 22 5 23 6 21 8 4 9 5 10 14 11 6 12 13 13
REMARK SMILES IDX 15 14 12 15 95 16 16 17 3 18 2 19 1 20 7 21 8 22 9 23 10 24
REMARK SMILES IDX 11 25 17 26 18 27 19 28 20 29 28 30 29 31 30 32 31 34 32 35
REMARK SMILES IDX 33 36 94 37 34 38 93 39 35 40 36 41 37 42 87 43 38 44 92 45
REMARK SMILES IDX 86 46 88 47 39 48 91 49 85 50 84 51 40 53 72 54 52 55 71 56
REMARK SMILES IDX 53 57 56 58 70 59 89 60 54 61 55 62 69 64 90 65 57 66 41 67
REMARK SMILES IDX 42 68 50 69 43 70 49 71 51 72 48 73 44 74 45 75 46 76 47 77
REMARK SMILES IDX 73 78 74 79 82 80 75 81 81 82 83 83 80 84 76 85 77 86 78 87
REMARK SMILES IDX 79 88 58 89 59 90 67 91 60 92 66 93 68 94 65 95 61 96 62 97
REMARK SMILES IDX 63 98 64 99
REMARK H PARENT 24 7 29 33 88 52 56 63
REMARK Flexibility Score: inf
ROOT
ATOM      1  C   UNL A   1      35.883  21.448  25.027  1.00  0.00     0.023 C 
ENDROOT
BRANCH   1   2
ATOM      2  C   UNL A   1      34.790  22.417  24.569  1.00  0.00     0.023 C 
BRANCH   2   3
ATOM      3  C   UNL A   1      34.485  23.545  25.562  1.00  0.00     0.116 C 
BRANCH   3   4
ATOM      4  N   UNL A   1      33.344  23.193  26.391  1.00  0.00    -0.352 N 
ATOM      5  C   UNL A   1      32.217  23.871  26.735  1.00  0.00     0.251 C 
ATOM      6  O   UNL A   1      31.472  23.371  27.574  1.00  0.00    -0.270 OA
ATOM      7  H   UNL A   1      33.398  22.290  26.777  1.00  0.00     0.163 HD
BRANCH   5   8
ATOM      8  C   UNL A   1      31.817  25.155  26.098  1.00  0.00     0.067 C 
ATOM      9  C   UNL A   1      30.699  28.631  23.987  1.00  0.00    -0.002 A 
ATOM     10  C   UNL A   1      31.055  29.881  24.526  1.00  0.00     0.054 A 
ATOM     11  C   UNL A   1      31.056  27.470  24.698  1.00  0.00     0.131 A 
ATOM     12  C   UNL A   1      31.802  29.976  25.703  1.00  0.00     0.130 A 
ATOM     13  C   UNL A   1      31.773  27.558  25.890  1.00  0.00     0.021 A 
ATOM     14  O   UNL A   1      30.732  26.264  24.142  1.00  0.00    -0.475 OA
ATOM     15  C   UNL A   1      32.145  28.810  26.386  1.00  0.00     0.058 A 
ATOM     16  C   UNL A   1      32.198  26.348  26.572  1.00  0.00     0.025 C 
ATOM     17  C   UNL A   1      30.789  25.067  24.975  1.00  0.00     0.314 C 
BRANCH   9  18
ATOM     18  C   UNL A   1      29.915  28.491  22.694  1.00  0.00     0.039 C 
BRANCH  18  19
ATOM     19  C   UNL A   1      29.021  29.656  22.246  1.00  0.00     0.001 C 
ATOM     20  C   UNL A   1      27.679  29.699  22.964  1.00  0.00     0.004 C 
ENDBRANCH  18  19
ENDBRANCH   9  18
BRANCH  12  21
ATOM     21  O   UNL A   1      32.261  31.125  26.282  1.00  0.00    -0.406 OA
BRANCH  21  22
ATOM     22  C   UNL A   1      31.326  32.161  26.526  1.00  0.00     0.573 C 
ATOM     23  F   UNL A   1      30.631  32.475  25.411  1.00  0.00    -0.132 F 
ATOM     24  F   UNL A   1      30.467  31.813  27.508  1.00  0.00    -0.132 F 
ATOM     25  F   UNL A   1      31.995  33.266  26.925  1.00  0.00    -0.132 F 
ENDBRANCH  21  22
ENDBRANCH  12  21
BRANCH  17  26
ATOM     26  C   UNL A   1      30.912  23.861  24.015  1.00  0.00     0.429 C 
ATOM     27  F   UNL A   1      30.688  22.677  24.623  1.00  0.00    -0.167 F 
ATOM     28  F   UNL A   1      29.978  23.938  23.025  1.00  0.00    -0.167 F 
ATOM     29  F   UNL A   1      32.118  23.808  23.404  1.00  0.00    -0.167 F 
ENDBRANCH  17  26
ENDBRANCH   5   8
ENDBRANCH   3   4
ENDBRANCH   2   3
ENDBRANCH   1   2
BRANCH   1  30
ATOM     30  C   UNL A   1      37.214  22.101  25.384  1.00  0.00     0.116 C 
BRANCH  30  31
ATOM     31  N   UNL A   1      38.266  21.138  25.668  1.00  0.00    -0.352 N 
ATOM     32  C   UNL A   1      39.488  21.350  26.267  1.00  0.00     0.251 C 
ATOM     33  H   UNL A   1      38.080  20.210  25.397  1.00  0.00     0.163 HD
ATOM     34  O   UNL A   1      40.302  20.445  26.334  1.00  0.00    -0.269 OA
BRANCH  32  35
ATOM     35  C   UNL A   1      39.811  22.702  26.776  1.00  0.00     0.039 A 
ATOM     36  C   UNL A   1      40.751  22.823  27.801  1.00  0.00     0.014 A 
ATOM     37  C   UNL A   1      39.229  23.838  26.208  1.00  0.00     0.014 A 
ATOM     38  C   UNL A   1      41.173  24.093  28.200  1.00  0.00     0.010 A 
ATOM     39  C   UNL A   1      39.694  25.101  26.565  1.00  0.00     0.010 A 
ATOM     40  C   UNL A   1      40.682  25.238  27.552  1.00  0.00    -0.014 A 
BRANCH  40  41
ATOM     41  C   UNL A   1      41.221  26.586  27.863  1.00  0.00     0.031 A 
ATOM     42  C   UNL A   1      42.645  26.927  27.527  1.00  0.00     0.074 A 
ATOM     43  C   UNL A   1      40.445  27.470  28.522  1.00  0.00     0.049 A 
ATOM     44  N   UNL A   1      43.319  28.015  27.797  1.00  0.00    -0.248 NA
ATOM     45  C   UNL A   1      43.420  25.896  26.822  1.00  0.00     0.031 C 
ATOM     46  C   UNL A   1      39.061  27.229  28.940  1.00  0.00     0.029 A 
ATOM     47  N   UNL A   1      40.709  28.739  28.969  1.00  0.00    -0.354 N 
ATOM     48  C   UNL A   1      44.600  27.799  27.302  1.00  0.00     0.074 A 
ATOM     49  C   UNL A   1      44.620  26.453  26.768  1.00  0.00     0.031 C 
ATOM     50  C   UNL A   1      38.596  28.321  29.569  1.00  0.00     0.029 A 
ATOM     51  C   UNL A   1      39.657  29.320  29.637  1.00  0.00     0.049 A 
ATOM     52  H   UNL A   1      41.572  29.192  28.826  1.00  0.00     0.167 HD
ATOM     53  C   UNL A   1      45.653  28.653  27.277  1.00  0.00     0.034 A 
ATOM     54  C   UNL A   1      39.563  30.515  30.253  1.00  0.00     0.034 A 
ATOM     55  C   UNL A   1      45.610  29.994  27.807  1.00  0.00     0.049 A 
ATOM     56  C   UNL A   1      40.758  31.433  30.243  1.00  0.00     0.074 A 
ATOM     57  C   UNL A   1      46.591  30.970  27.766  1.00  0.00     0.029 A 
ATOM     58  N   UNL A   1      44.533  30.546  28.489  1.00  0.00    -0.354 N 
ATOM     59  N   UNL A   1      41.943  31.238  29.712  1.00  0.00    -0.248 NA
ATOM     60  C   UNL A   1      40.600  32.730  30.911  1.00  0.00     0.031 C 
ATOM     61  C   UNL A   1      46.133  32.084  28.480  1.00  0.00     0.029 A 
ATOM     62  C   UNL A   1      44.840  31.832  28.910  1.00  0.00     0.049 A 
ATOM     63  H   UNL A   1      43.675  30.090  28.651  1.00  0.00     0.167 HD
ATOM     64  C   UNL A   1      42.667  32.397  29.971  1.00  0.00     0.074 A 
ATOM     65  C   UNL A   1      41.779  33.293  30.684  1.00  0.00     0.031 C 
ATOM     66  C   UNL A   1      43.951  32.698  29.646  1.00  0.00     0.034 A 
BRANCH  53  67
ATOM     67  C   UNL A   1      46.942  28.147  26.678  1.00  0.00     0.023 A 
ATOM     68  C   UNL A   1      47.181  28.194  25.293  1.00  0.00     0.031 A 
ATOM     69  C   UNL A   1      47.936  27.582  27.497  1.00  0.00     0.131 A 
ATOM     70  C   UNL A   1      48.345  27.620  24.762  1.00  0.00     0.055 A 
ATOM     71  C   UNL A   1      49.129  27.083  26.969  1.00  0.00     0.041 A 
ATOM     72  F   UNL A   1      47.757  27.491  28.824  1.00  0.00    -0.206 F 
ATOM     73  C   UNL A   1      49.333  27.087  25.593  1.00  0.00     0.022 A 
BRANCH  70  74
ATOM     74  S   UNL A   1      48.485  27.457  22.961  1.00  0.00     0.124 S 
ATOM     75  O   UNL A   1      47.290  28.164  22.507  1.00  0.00    -0.237 OA
ATOM     76  O   UNL A   1      49.758  28.112  22.683  1.00  0.00    -0.237 OA
ATOM     77  O   UNL A   1      48.465  26.012  22.744  1.00  0.00    -0.744 OA
ENDBRANCH  70  74
ENDBRANCH  53  67
BRANCH  54  78
ATOM     78  C   UNL A   1      38.306  30.909  30.949  1.00  0.00     0.023 A 
ATOM     79  C   UNL A   1      37.296  31.611  30.273  1.00  0.00     0.031 A 
ATOM     80  C   UNL A   1      38.113  30.619  32.311  1.00  0.00     0.131 A 
ATOM     81  C   UNL A   1      36.155  32.036  30.971  1.00  0.00     0.055 A 
ATOM     82  C   UNL A   1      36.955  31.002  32.989  1.00  0.00     0.041 A 
ATOM     83  F   UNL A   1      39.045  29.943  33.001  1.00  0.00    -0.206 F 
ATOM     84  C   UNL A   1      35.972  31.728  32.321  1.00  0.00     0.022 A 
BRANCH  81  85
ATOM     85  S   UNL A   1      34.941  33.067  30.102  1.00  0.00     0.124 S 
ATOM     86  O   UNL A   1      34.356  32.113  29.166  1.00  0.00    -0.237 OA
ATOM     87  O   UNL A   1      34.080  33.507  31.194  1.00  0.00    -0.237 OA
ATOM     88  O   UNL A   1      35.759  34.116  29.495  1.00  0.00    -0.744 OA
ENDBRANCH  81  85
ENDBRANCH  54  78
BRANCH  66  89
ATOM     89  C   UNL A   1      44.453  34.061  30.053  1.00  0.00     0.023 A 
ATOM     90  C   UNL A   1      44.309  35.177  29.211  1.00  0.00     0.031 A 
ATOM     91  C   UNL A   1      45.097  34.241  31.289  1.00  0.00     0.131 A 
ATOM     92  C   UNL A   1      44.848  36.415  29.593  1.00  0.00     0.055 A 
ATOM     93  C   UNL A   1      45.582  35.488  31.689  1.00  0.00     0.041 A 
ATOM     94  F   UNL A   1      45.264  33.209  32.131  1.00  0.00    -0.206 F 
ATOM     95  C   UNL A   1      45.469  36.580  30.833  1.00  0.00     0.022 A 
BRANCH  92  96
ATOM     96  S   UNL A   1      44.796  37.789  28.410  1.00  0.00     0.124 S 
ATOM     97  O   UNL A   1      45.323  38.893  29.206  1.00  0.00    -0.237 OA
ATOM     98  O   UNL A   1      45.658  37.310  27.335  1.00  0.00    -0.237 OA
ATOM     99  O   UNL A   1      43.379  37.893  28.067  1.00  0.00    -0.744 OA
ENDBRANCH  92  96
ENDBRANCH  66  89
ENDBRANCH  40  41
ENDBRANCH  32  35
ENDBRANCH  30  31
ENDBRANCH   1  30
TORSDOF 19
ENDMDL
MODEL 2
REMARK VINA RESULT:     -12.2      4.836     10.024
REMARK SMILES CCCc1cc(OC(F)(F)F)cc2c1O[C@@H](C(F)(F)F)C(C(=O)NCCCCNC(=O)c1ccc(-c3c4nc(c(-c5cc(S(=O)(=O)[O-])ccc5F)c5ccc([nH]5)c(-c5cc(S(=O)(=O)[O-])ccc5F)c5nc(c(-c6cc(S(=O)(=O)[O-])ccc6F)c6ccc3[nH]6)C=C5)C=C4)cc1)=C2
REMARK SMILES IDX 27 1 26 2 25 3 24 4 22 5 23 6 21 8 4 9 5 10 14 11 6 12 13 13
REMARK SMILES IDX 15 14 12 15 95 16 16 17 3 18 2 19 1 20 7 21 8 22 9 23 10 24
REMARK SMILES IDX 11 25 17 26 18 27 19 28 20 29 28 30 29 31 30 32 31 34 32 35
REMARK SMILES IDX 33 36 94 37 34 38 93 39 35 40 36 41 37 42 87 43 38 44 92 45
REMARK SMILES IDX 86 46 88 47 39 48 91 49 85 50 84 51 40 53 72 54 52 55 71 56
REMARK SMILES IDX 53 57 56 58 70 59 89 60 54 61 55 62 69 64 90 65 57 66 41 67
REMARK SMILES IDX 42 68 50 69 43 70 49 71 51 72 48 73 44 74 45 75 46 76 47 77
REMARK SMILES IDX 73 78 74 79 82 80 75 81 81 82 83 83 80 84 76 85 77 86 78 87
REMARK SMILES IDX 79 88 58 89 59 90 67 91 60 92 66 93 68 94 65 95 61 96 62 97
REMARK SMILES IDX 63 98 64 99
REMARK H PARENT 24 7 29 33 88 52 56 63
REMARK Flexibility Score: inf
ROOT
ATOM      1  C   UNL A   1      33.426  27.915  26.688  1.00  0.00     0.023 C 
ENDROOT
BRANCH   1   2
ATOM      2  C   UNL A   1      31.962  28.192  26.333  1.00  0.00     0.023 C 
BRANCH   2   3
ATOM      3  C   UNL A   1      31.002  27.040  26.653  1.00  0.00     0.116 C 
BRANCH   3   4
ATOM      4  N   UNL A   1      30.194  26.719  25.488  1.00  0.00    -0.352 N 
ATOM      5  C   UNL A   1      30.371  25.848  24.460  1.00  0.00     0.251 C 
ATOM      6  O   UNL A   1      29.575  25.881  23.525  1.00  0.00    -0.270 OA
ATOM      7  H   UNL A   1      29.355  27.232  25.433  1.00  0.00     0.163 HD
BRANCH   5   8
ATOM      8  C   UNL A   1      31.444  24.817  24.447  1.00  0.00     0.067 C 
ATOM      9  C   UNL A   1      34.600  22.038  24.116  1.00  0.00    -0.002 A 
ATOM     10  C   UNL A   1      34.413  20.751  24.653  1.00  0.00     0.054 A 
ATOM     11  C   UNL A   1      33.554  22.973  24.240  1.00  0.00     0.131 A 
ATOM     12  C   UNL A   1      33.200  20.380  25.239  1.00  0.00     0.130 A 
ATOM     13  C   UNL A   1      32.354  22.620  24.852  1.00  0.00     0.021 A 
ATOM     14  O   UNL A   1      33.741  24.206  23.681  1.00  0.00    -0.475 OA
ATOM     15  C   UNL A   1      32.180  21.324  25.346  1.00  0.00     0.058 A 
ATOM     16  C   UNL A   1      31.259  23.572  24.905  1.00  0.00     0.025 C 
ATOM     17  C   UNL A   1      32.840  25.291  24.055  1.00  0.00     0.314 C 
BRANCH   9  18
ATOM     18  C   UNL A   1      35.893  22.464  23.444  1.00  0.00     0.039 C 
BRANCH  18  19
ATOM     19  C   UNL A   1      37.100  22.812  24.326  1.00  0.00     0.001 C 
ATOM     20  C   UNL A   1      36.731  23.616  25.566  1.00  0.00     0.004 C 
ENDBRANCH  18  19
ENDBRANCH   9  18
BRANCH  12  21
ATOM     21  O   UNL A   1      32.880  19.146  25.731  1.00  0.00    -0.406 OA
BRANCH  21  22
ATOM     22  C   UNL A   1      32.739  18.082  24.807  1.00  0.00     0.573 C 
ATOM     23  F   UNL A   1      32.087  17.033  25.352  1.00  0.00    -0.132 F 
ATOM     24  F   UNL A   1      32.084  18.491  23.699  1.00  0.00    -0.132 F 
ATOM     25  F   UNL A   1      33.969  17.662  24.435  1.00  0.00    -0.132 F 
ENDBRANCH  21  22
ENDBRANCH  12  21
BRANCH  17  26
ATOM     26  C   UNL A   1      32.923  26.348  22.930  1.00  0.00     0.429 C 
ATOM     27  F   UNL A   1      34.053  26.252  22.198  1.00  0.00    -0.167 F 
ATOM     28  F   UNL A   1      31.904  26.184  22.040  1.00  0.00    -0.167 F 
ATOM     29  F   UNL A   1      32.825  27.613  23.401  1.00  0.00    -0.167 F 
ENDBRANCH  17  26
ENDBRANCH   5   8
ENDBRANCH   3   4
ENDBRANCH   2   3
ENDBRANCH   1   2
BRANCH   1  30
ATOM     30  C   UNL A   1      34.399  29.030  26.320  1.00  0.00     0.116 C 
BRANCH  30  31
ATOM     31  N   UNL A   1      33.927  30.351  26.706  1.00  0.00    -0.352 N 
ATOM     32  C   UNL A   1      34.441  31.203  27.658  1.00  0.00     0.251 C 
ATOM     33  H   UNL A   1      33.134  30.679  26.224  1.00  0.00     0.163 HD
ATOM     34  O   UNL A   1      33.856  32.238  27.933  1.00  0.00    -0.269 OA
BRANCH  32  35
ATOM     35  C   UNL A   1      35.679  30.818  28.371  1.00  0.00     0.039 A 
ATOM     36  C   UNL A   1      35.596  29.859  29.383  1.00  0.00     0.014 A 
ATOM     37  C   UNL A   1      36.914  31.358  28.004  1.00  0.00     0.014 A 
ATOM     38  C   UNL A   1      36.767  29.379  29.973  1.00  0.00     0.010 A 
ATOM     39  C   UNL A   1      38.083  30.836  28.550  1.00  0.00     0.010 A 
ATOM     40  C   UNL A   1      38.021  29.830  29.527  1.00  0.00    -0.014 A 
BRANCH  40  41
ATOM     41  C   UNL A   1      39.279  29.232  30.040  1.00  0.00     0.031 A 
ATOM     42  C   UNL A   1      39.982  29.844  31.218  1.00  0.00     0.074 A 
ATOM     43  C   UNL A   1      39.824  28.186  29.389  1.00  0.00     0.049 A 
ATOM     44  N   UNL A   1      41.129  29.519  31.756  1.00  0.00    -0.248 NA
ATOM     45  C   UNL A   1      39.320  30.991  31.856  1.00  0.00     0.031 C 
ATOM     46  C   UNL A   1      39.253  27.539  28.204  1.00  0.00     0.029 A 
ATOM     47  N   UNL A   1      40.984  27.491  29.617  1.00  0.00    -0.354 N 
ATOM     48  C   UNL A   1      41.333  30.425  32.790  1.00  0.00     0.074 A 
ATOM     49  C   UNL A   1      40.215  31.346  32.765  1.00  0.00     0.031 C 
ATOM     50  C   UNL A   1      40.057  26.534  27.821  1.00  0.00     0.029 A 
ATOM     51  C   UNL A   1      41.219  26.491  28.702  1.00  0.00     0.049 A 
ATOM     52  H   UNL A   1      41.592  27.689  30.366  1.00  0.00     0.167 HD
ATOM     53  C   UNL A   1      42.347  30.469  33.689  1.00  0.00     0.034 A 
ATOM     54  C   UNL A   1      42.263  25.648  28.575  1.00  0.00     0.034 A 
ATOM     55  C   UNL A   1      43.447  29.536  33.703  1.00  0.00     0.049 A 
ATOM     56  C   UNL A   1      43.395  25.739  29.564  1.00  0.00     0.074 A 
ATOM     57  C   UNL A   1      44.486  29.440  34.613  1.00  0.00     0.029 A 
ATOM     58  N   UNL A   1      43.661  28.545  32.754  1.00  0.00    -0.354 N 
ATOM     59  N   UNL A   1      43.541  26.561  30.579  1.00  0.00    -0.248 NA
ATOM     60  C   UNL A   1      44.500  24.788  29.394  1.00  0.00     0.031 C 
ATOM     61  C   UNL A   1      45.361  28.438  34.178  1.00  0.00     0.029 A 
ATOM     62  C   UNL A   1      44.836  27.861  33.032  1.00  0.00     0.049 A 
ATOM     63  H   UNL A   1      43.066  28.355  31.993  1.00  0.00     0.167 HD
ATOM     64  C   UNL A   1      44.748  26.214  31.176  1.00  0.00     0.074 A 
ATOM     65  C   UNL A   1      45.278  25.095  30.422  1.00  0.00     0.031 C 
ATOM     66  C   UNL A   1      45.364  26.767  32.252  1.00  0.00     0.034 A 
BRANCH  53  67
ATOM     67  C   UNL A   1      42.318  31.578  34.712  1.00  0.00     0.023 A 
ATOM     68  C   UNL A   1      41.387  31.586  35.767  1.00  0.00     0.031 A 
ATOM     69  C   UNL A   1      43.214  32.658  34.619  1.00  0.00     0.131 A 
ATOM     70  C   UNL A   1      41.323  32.684  36.637  1.00  0.00     0.055 A 
ATOM     71  C   UNL A   1      43.196  33.711  35.536  1.00  0.00     0.041 A 
ATOM     72  F   UNL A   1      44.112  32.716  33.623  1.00  0.00    -0.206 F 
ATOM     73  C   UNL A   1      42.237  33.736  36.544  1.00  0.00     0.022 A 
BRANCH  70  74
ATOM     74  S   UNL A   1      39.938  32.782  37.804  1.00  0.00     0.124 S 
ATOM     75  O   UNL A   1      39.089  31.684  37.348  1.00  0.00    -0.237 OA
ATOM     76  O   UNL A   1      40.596  32.588  39.091  1.00  0.00    -0.237 OA
ATOM     77  O   UNL A   1      39.391  34.118  37.577  1.00  0.00    -0.744 OA
ENDBRANCH  70  74
ENDBRANCH  53  67
BRANCH  54  78
ATOM     78  C   UNL A   1      42.303  24.660  27.460  1.00  0.00     0.023 A 
ATOM     79  C   UNL A   1      41.599  23.449  27.543  1.00  0.00     0.031 A 
ATOM     80  C   UNL A   1      43.077  24.898  26.311  1.00  0.00     0.131 A 
ATOM     81  C   UNL A   1      41.713  22.503  26.513  1.00  0.00     0.055 A 
ATOM     82  C   UNL A   1      43.150  23.974  25.268  1.00  0.00     0.041 A 
ATOM     83  F   UNL A   1      43.764  26.044  26.179  1.00  0.00    -0.206 F 
ATOM     84  C   UNL A   1      42.475  22.761  25.371  1.00  0.00     0.022 A 
BRANCH  81  85
ATOM     85  S   UNL A   1      40.907  20.891  26.723  1.00  0.00     0.124 S 
ATOM     86  O   UNL A   1      41.825  20.004  26.017  1.00  0.00    -0.237 OA
ATOM     87  O   UNL A   1      40.871  20.757  28.175  1.00  0.00    -0.237 OA
ATOM     88  O   UNL A   1      39.605  21.078  26.085  1.00  0.00    -0.744 OA
ENDBRANCH  81  85
ENDBRANCH  54  78
BRANCH  66  89
ATOM     89  C   UNL A   1      46.673  26.150  32.677  1.00  0.00     0.023 A 
ATOM     90  C   UNL A   1      46.717  25.075  33.581  1.00  0.00     0.031 A 
ATOM     91  C   UNL A   1      47.889  26.654  32.185  1.00  0.00     0.131 A 
ATOM     92  C   UNL A   1      47.955  24.570  34.006  1.00  0.00     0.055 A 
ATOM     93  C   UNL A   1      49.116  26.111  32.569  1.00  0.00     0.041 A 
ATOM     94  F   UNL A   1      47.904  27.681  31.321  1.00  0.00    -0.206 F 
ATOM     95  C   UNL A   1      49.154  25.071  33.493  1.00  0.00     0.022 A 
BRANCH  92  96
ATOM     96  S   UNL A   1      47.979  23.301  35.302  1.00  0.00     0.124 S 
ATOM     97  O   UNL A   1      47.096  22.282  34.744  1.00  0.00    -0.237 OA
ATOM     98  O   UNL A   1      49.393  22.950  35.371  1.00  0.00    -0.237 OA
ATOM     99  O   UNL A   1      47.457  23.999  36.476  1.00  0.00    -0.744 OA
ENDBRANCH  92  96
ENDBRANCH  66  89
ENDBRANCH  40  41
ENDBRANCH  32  35
ENDBRANCH  30  31
ENDBRANCH   1  30
TORSDOF 19
ENDMDL
MODEL 3
REMARK VINA RESULT:     -12.1      4.473      9.833
REMARK SMILES CCCc1cc(OC(F)(F)F)cc2c1O[C@@H](C(F)(F)F)C(C(=O)NCCCCNC(=O)c1ccc(-c3c4nc(c(-c5cc(S(=O)(=O)[O-])ccc5F)c5ccc([nH]5)c(-c5cc(S(=O)(=O)[O-])ccc5F)c5nc(c(-c6cc(S(=O)(=O)[O-])ccc6F)c6ccc3[nH]6)C=C5)C=C4)cc1)=C2
REMARK SMILES IDX 27 1 26 2 25 3 24 4 22 5 23 6 21 8 4 9 5 10 14 11 6 12 13 13
REMARK SMILES IDX 15 14 12 15 95 16 16 17 3 18 2 19 1 20 7 21 8 22 9 23 10 24
REMARK SMILES IDX 11 25 17 26 18 27 19 28 20 29 28 30 29 31 30 32 31 34 32 35
REMARK SMILES IDX 33 36 94 37 34 38 93 39 35 40 36 41 37 42 87 43 38 44 92 45
REMARK SMILES IDX 86 46 88 47 39 48 91 49 85 50 84 51 40 53 72 54 52 55 71 56
REMARK SMILES IDX 53 57 56 58 70 59 89 60 54 61 55 62 69 64 90 65 57 66 41 67
REMARK SMILES IDX 42 68 50 69 43 70 49 71 51 72 48 73 44 74 45 75 46 76 47 77
REMARK SMILES IDX 73 78 74 79 82 80 75 81 81 82 83 83 80 84 76 85 77 86 78 87
REMARK SMILES IDX 79 88 58 89 59 90 67 91 60 92 66 93 68 94 65 95 61 96 62 97
REMARK SMILES IDX 63 98 64 99
REMARK H PARENT 24 7 29 33 88 52 56 63
REMARK Flexibility Score: inf
ROOT
ATOM      1  C   UNL A   1      33.082  28.226  26.814  1.00  0.00     0.023 C 
ENDROOT
BRANCH   1   2
ATOM      2  C   UNL A   1      31.602  28.181  26.425  1.00  0.00     0.023 C 
BRANCH   2   3
ATOM      3  C   UNL A   1      30.935  26.815  26.626  1.00  0.00     0.116 C 
BRANCH   3   4
ATOM      4  N   UNL A   1      30.184  26.441  25.438  1.00  0.00    -0.352 N 
ATOM      5  C   UNL A   1      30.434  25.560  24.434  1.00  0.00     0.251 C 
ATOM      6  O   UNL A   1      29.673  25.545  23.470  1.00  0.00    -0.270 OA
ATOM      7  H   UNL A   1      29.328  26.918  25.343  1.00  0.00     0.163 HD
BRANCH   5   8
ATOM      8  C   UNL A   1      31.548  24.575  24.480  1.00  0.00     0.067 C 
ATOM      9  C   UNL A   1      34.833  21.933  24.327  1.00  0.00    -0.002 A 
ATOM     10  C   UNL A   1      34.662  20.628  24.825  1.00  0.00     0.054 A 
ATOM     11  C   UNL A   1      33.743  22.822  24.392  1.00  0.00     0.131 A 
ATOM     12  C   UNL A   1      33.427  20.195  25.313  1.00  0.00     0.130 A 
ATOM     13  C   UNL A   1      32.517  22.407  24.909  1.00  0.00     0.021 A 
ATOM     14  O   UNL A   1      33.917  24.074  23.872  1.00  0.00    -0.475 OA
ATOM     15  C   UNL A   1      32.363  21.095  25.364  1.00  0.00     0.058 A 
ATOM     16  C   UNL A   1      31.382  23.313  24.900  1.00  0.00     0.025 C 
ATOM     17  C   UNL A   1      32.947  25.113  24.200  1.00  0.00     0.314 C 
BRANCH   9  18
ATOM     18  C   UNL A   1      36.152  22.426  23.760  1.00  0.00     0.039 C 
BRANCH  18  19
ATOM     19  C   UNL A   1      37.034  23.331  24.630  1.00  0.00     0.001 C 
ATOM     20  C   UNL A   1      37.807  22.574  25.702  1.00  0.00     0.004 C 
ENDBRANCH  18  19
ENDBRANCH   9  18
BRANCH  12  21
ATOM     21  O   UNL A   1      33.125  18.939  25.757  1.00  0.00    -0.406 OA
BRANCH  21  22
ATOM     22  C   UNL A   1      33.020  17.905  24.794  1.00  0.00     0.573 C 
ATOM     23  F   UNL A   1      31.937  18.070  24.005  1.00  0.00    -0.132 F 
ATOM     24  F   UNL A   1      34.130  17.849  24.027  1.00  0.00    -0.132 F 
ATOM     25  F   UNL A   1      32.893  16.723  25.436  1.00  0.00    -0.132 F 
ENDBRANCH  21  22
ENDBRANCH  12  21
BRANCH  17  26
ATOM     26  C   UNL A   1      33.067  26.197  23.105  1.00  0.00     0.429 C 
ATOM     27  F   UNL A   1      34.327  26.343  22.641  1.00  0.00    -0.167 F 
ATOM     28  F   UNL A   1      32.321  25.863  22.015  1.00  0.00    -0.167 F 
ATOM     29  F   UNL A   1      32.622  27.405  23.522  1.00  0.00    -0.167 F 
ENDBRANCH  17  26
ENDBRANCH   5   8
ENDBRANCH   3   4
ENDBRANCH   2   3
ENDBRANCH   1   2
BRANCH   1  30
ATOM     30  C   UNL A   1      33.892  29.325  26.135  1.00  0.00     0.116 C 
BRANCH  30  31
ATOM     31  N   UNL A   1      33.807  30.605  26.821  1.00  0.00    -0.352 N 
ATOM     32  C   UNL A   1      34.637  31.116  27.794  1.00  0.00     0.251 C 
ATOM     33  H   UNL A   1      33.056  31.183  26.554  1.00  0.00     0.163 HD
ATOM     34  O   UNL A   1      34.359  32.169  28.344  1.00  0.00    -0.269 OA
BRANCH  32  35
ATOM     35  C   UNL A   1      35.834  30.343  28.193  1.00  0.00     0.039 A 
ATOM     36  C   UNL A   1      36.939  30.334  27.338  1.00  0.00     0.014 A 
ATOM     37  C   UNL A   1      35.882  29.682  29.423  1.00  0.00     0.014 A 
ATOM     38  C   UNL A   1      38.125  29.729  27.756  1.00  0.00     0.010 A 
ATOM     39  C   UNL A   1      37.083  29.132  29.862  1.00  0.00     0.010 A 
ATOM     40  C   UNL A   1      38.219  29.166  29.040  1.00  0.00    -0.014 A 
BRANCH  40  41
ATOM     41  C   UNL A   1      39.510  28.644  29.556  1.00  0.00     0.031 A 
ATOM     42  C   UNL A   1      40.242  29.379  30.643  1.00  0.00     0.074 A 
ATOM     43  C   UNL A   1      40.056  27.553  28.984  1.00  0.00     0.049 A 
ATOM     44  N   UNL A   1      41.416  29.130  31.163  1.00  0.00    -0.248 NA
ATOM     45  C   UNL A   1      39.576  30.567  31.197  1.00  0.00     0.031 C 
ATOM     46  C   UNL A   1      39.457  26.786  27.888  1.00  0.00     0.029 A 
ATOM     47  N   UNL A   1      41.240  26.907  29.230  1.00  0.00    -0.354 N 
ATOM     48  C   UNL A   1      41.636  30.133  32.099  1.00  0.00     0.074 A 
ATOM     49  C   UNL A   1      40.496  31.024  32.033  1.00  0.00     0.031 C 
ATOM     50  C   UNL A   1      40.270  25.766  27.569  1.00  0.00     0.029 A 
ATOM     51  C   UNL A   1      41.465  25.831  28.403  1.00  0.00     0.049 A 
ATOM     52  H   UNL A   1      41.871  27.188  29.932  1.00  0.00     0.167 HD
ATOM     53  C   UNL A   1      42.682  30.283  32.950  1.00  0.00     0.034 A 
ATOM     54  C   UNL A   1      42.524  25.002  28.314  1.00  0.00     0.034 A 
ATOM     55  C   UNL A   1      43.804  29.378  33.007  1.00  0.00     0.049 A 
ATOM     56  C   UNL A   1      43.690  25.209  29.245  1.00  0.00     0.074 A 
ATOM     57  C   UNL A   1      44.878  29.390  33.880  1.00  0.00     0.029 A 
ATOM     58  N   UNL A   1      44.007  28.307  32.146  1.00  0.00    -0.354 N 
ATOM     59  N   UNL A   1      43.853  26.126  30.171  1.00  0.00    -0.248 NA
ATOM     60  C   UNL A   1      44.811  24.269  29.120  1.00  0.00     0.031 C 
ATOM     61  C   UNL A   1      45.761  28.369  33.505  1.00  0.00     0.029 A 
ATOM     62  C   UNL A   1      45.207  27.677  32.440  1.00  0.00     0.049 A 
ATOM     63  H   UNL A   1      43.388  28.034  31.430  1.00  0.00     0.167 HD
ATOM     64  C   UNL A   1      45.090  25.861  30.750  1.00  0.00     0.074 A 
ATOM     65  C   UNL A   1      45.619  24.688  30.083  1.00  0.00     0.031 C 
ATOM     66  C   UNL A   1      45.732  26.526  31.745  1.00  0.00     0.034 A 
BRANCH  53  67
ATOM     67  C   UNL A   1      42.664  31.482  33.865  1.00  0.00     0.023 A 
ATOM     68  C   UNL A   1      42.169  31.400  35.180  1.00  0.00     0.031 A 
ATOM     69  C   UNL A   1      43.121  32.732  33.412  1.00  0.00     0.131 A 
ATOM     70  C   UNL A   1      42.073  32.557  35.966  1.00  0.00     0.055 A 
ATOM     71  C   UNL A   1      43.095  33.866  34.227  1.00  0.00     0.041 A 
ATOM     72  F   UNL A   1      43.586  32.877  32.162  1.00  0.00    -0.206 F 
ATOM     73  C   UNL A   1      42.556  33.786  35.508  1.00  0.00     0.022 A 
BRANCH  70  74
ATOM     74  S   UNL A   1      41.181  32.461  37.542  1.00  0.00     0.124 S 
ATOM     75  O   UNL A   1      39.901  31.896  37.122  1.00  0.00    -0.237 OA
ATOM     76  O   UNL A   1      42.035  31.584  38.335  1.00  0.00    -0.237 OA
ATOM     77  O   UNL A   1      41.124  33.850  37.990  1.00  0.00    -0.744 OA
ENDBRANCH  70  74
ENDBRANCH  53  67
BRANCH  54  78
ATOM     78  C   UNL A   1      42.547  23.914  27.295  1.00  0.00     0.023 A 
ATOM     79  C   UNL A   1      41.923  22.681  27.541  1.00  0.00     0.031 A 
ATOM     80  C   UNL A   1      43.224  24.081  26.074  1.00  0.00     0.131 A 
ATOM     81  C   UNL A   1      42.023  21.648  26.598  1.00  0.00     0.055 A 
ATOM     82  C   UNL A   1      43.280  23.066  25.118  1.00  0.00     0.041 A 
ATOM     83  F   UNL A   1      43.830  25.244  25.787  1.00  0.00    -0.206 F 
ATOM     84  C   UNL A   1      42.688  21.835  25.383  1.00  0.00     0.022 A 
BRANCH  81  85
ATOM     85  S   UNL A   1      41.331  20.024  27.014  1.00  0.00     0.124 S 
ATOM     86  O   UNL A   1      40.245  19.905  26.047  1.00  0.00    -0.237 OA
ATOM     87  O   UNL A   1      42.476  19.144  26.805  1.00  0.00    -0.237 OA
ATOM     88  O   UNL A   1      40.914  20.179  28.406  1.00  0.00    -0.744 OA
ENDBRANCH  81  85
ENDBRANCH  54  78
BRANCH  66  89
ATOM     89  C   UNL A   1      47.071  25.979  32.173  1.00  0.00     0.023 A 
ATOM     90  C   UNL A   1      48.244  26.264  31.453  1.00  0.00     0.031 A 
ATOM     91  C   UNL A   1      47.171  25.149  33.303  1.00  0.00     0.131 A 
ATOM     92  C   UNL A   1      49.460  25.682  31.841  1.00  0.00     0.055 A 
ATOM     93  C   UNL A   1      48.393  24.619  33.717  1.00  0.00     0.041 A 
ATOM     94  F   UNL A   1      46.081  24.843  34.025  1.00  0.00    -0.206 F 
ATOM     95  C   UNL A   1      49.545  24.875  32.978  1.00  0.00     0.022 A 
BRANCH  92  96
ATOM     96  S   UNL A   1      50.918  25.932  30.792  1.00  0.00     0.124 S 
ATOM     97  O   UNL A   1      50.992  27.388  30.716  1.00  0.00    -0.237 OA
ATOM     98  O   UNL A   1      51.973  25.279  31.560  1.00  0.00    -0.237 OA
ATOM     99  O   UNL A   1      50.560  25.263  29.541  1.00  0.00    -0.744 OA
ENDBRANCH  92  96
ENDBRANCH  66  89
ENDBRANCH  40  41
ENDBRANCH  32  35
ENDBRANCH  30  31
ENDBRANCH   1  30
TORSDOF 19
ENDMDL
