MODEL 1
REMARK VINA RESULT:     -12.7      0.000      0.000
REMARK SMILES O=C(NCCCCNC(=O)c1cccn(Cc2ccc3c(c2)OC(F)(F)O3)c1=O)c1ccc(-c2c3nc(c(-c4cc(S(=O)(=O)[O-])ccc4F)c4ccc([nH]4)c(-c4cc(S(=O)(=O)[O-])ccc4F)c4nc(c(-c5cc(S(=O)(=O)[O-])ccc5F)c5ccc2[nH]5)C=C4)C=C3)cc1
REMARK SMILES IDX 5 1 4 2 3 3 1 4 2 5 30 7 31 8 92 9 32 10 91 11 33 12 34 13
REMARK SMILES IDX 35 14 85 15 36 16 90 17 84 18 86 19 37 20 89 21 83 22 82 23
REMARK SMILES IDX 38 25 70 26 50 27 69 28 51 29 54 30 68 31 87 32 52 33 53 34
REMARK SMILES IDX 67 36 88 37 55 38 39 39 40 40 48 41 41 42 47 43 49 44 46 45
REMARK SMILES IDX 42 46 43 47 44 48 45 49 71 50 72 51 80 52 73 53 79 54 81 55
REMARK SMILES IDX 78 56 74 57 75 58 76 59 77 60 56 61 57 62 65 63 58 64 64 65
REMARK SMILES IDX 66 66 63 67 59 68 60 69 61 70 62 71 6 72 7 73 8 74 9 75
REMARK SMILES IDX 10 77 11 78 12 79 28 80 13 81 15 82 29 83 14 84 16 85 17 86
REMARK SMILES IDX 18 87 22 88 19 89 21 90 20 91 23 92 27 93 24 94 25 95 26 96
REMARK H PARENT 3 6 86 24 54 35 8 76
REMARK Flexibility Score: inf
ROOT
ATOM      1  C   UNL A   1      38.320  19.584  25.046  1.00  0.00     0.023 C 
ENDROOT
BRANCH   1   2
ATOM      2  C   UNL A   1      39.489  20.131  25.855  1.00  0.00     0.116 C 
BRANCH   2   3
ATOM      3  N   UNL A   1      40.547  19.149  26.041  1.00  0.00    -0.352 N 
ATOM      4  O   UNL A   1      42.658  18.391  26.208  1.00  0.00    -0.269 OA
ATOM      5  C   UNL A   1      41.889  19.345  26.256  1.00  0.00     0.251 C 
ATOM      6  H   UNL A   1      40.259  18.208  26.006  1.00  0.00     0.163 HD
BRANCH   5   7
ATOM      7  C   UNL A   1      42.405  20.703  26.536  1.00  0.00     0.039 A 
ATOM      8  C   UNL A   1      42.482  21.140  27.862  1.00  0.00     0.014 A 
ATOM      9  C   UNL A   1      42.782  21.557  25.496  1.00  0.00     0.014 A 
ATOM     10  C   UNL A   1      42.965  22.421  28.144  1.00  0.00     0.010 A 
ATOM     11  C   UNL A   1      43.343  22.798  25.782  1.00  0.00     0.010 A 
ATOM     12  C   UNL A   1      43.414  23.254  27.107  1.00  0.00    -0.014 A 
BRANCH  12  13
ATOM     13  C   UNL A   1      43.903  24.632  27.367  1.00  0.00     0.031 A 
ATOM     14  C   UNL A   1      42.943  25.678  27.864  1.00  0.00     0.074 A 
ATOM     15  C   UNL A   1      45.182  24.960  27.100  1.00  0.00     0.049 A 
ATOM     16  N   UNL A   1      43.139  26.956  28.053  1.00  0.00    -0.248 NA
ATOM     17  C   UNL A   1      41.571  25.233  28.162  1.00  0.00     0.031 C 
ATOM     18  C   UNL A   1      46.196  24.037  26.595  1.00  0.00     0.029 A 
ATOM     19  N   UNL A   1      45.843  26.161  27.202  1.00  0.00    -0.354 N 
ATOM     20  C   UNL A   1      41.915  27.469  28.465  1.00  0.00     0.074 A 
ATOM     21  C   UNL A   1      40.968  26.378  28.447  1.00  0.00     0.031 C 
ATOM     22  C   UNL A   1      47.354  24.698  26.446  1.00  0.00     0.029 A 
ATOM     23  C   UNL A   1      47.156  26.105  26.792  1.00  0.00     0.049 A 
ATOM     24  H   UNL A   1      45.418  26.983  27.537  1.00  0.00     0.167 HD
ATOM     25  C   UNL A   1      41.618  28.732  28.849  1.00  0.00     0.034 A 
ATOM     26  C   UNL A   1      48.088  27.076  26.686  1.00  0.00     0.034 A 
ATOM     27  C   UNL A   1      42.585  29.796  28.904  1.00  0.00     0.049 A 
ATOM     28  C   UNL A   1      47.732  28.480  27.108  1.00  0.00     0.074 A 
ATOM     29  C   UNL A   1      42.400  31.089  29.357  1.00  0.00     0.029 A 
ATOM     30  N   UNL A   1      43.907  29.699  28.495  1.00  0.00    -0.354 N 
ATOM     31  N   UNL A   1      46.595  28.934  27.582  1.00  0.00    -0.248 NA
ATOM     32  C   UNL A   1      48.778  29.507  26.992  1.00  0.00     0.031 C 
ATOM     33  C   UNL A   1      43.583  31.795  29.148  1.00  0.00     0.029 A 
ATOM     34  C   UNL A   1      44.538  30.923  28.649  1.00  0.00     0.049 A 
ATOM     35  H   UNL A   1      44.334  28.882  28.149  1.00  0.00     0.167 HD
ATOM     36  C   UNL A   1      46.795  30.287  27.841  1.00  0.00     0.074 A 
ATOM     37  C   UNL A   1      48.169  30.576  27.491  1.00  0.00     0.031 C 
ATOM     38  C   UNL A   1      45.916  31.203  28.319  1.00  0.00     0.034 A 
BRANCH  25  39
ATOM     39  C   UNL A   1      40.204  29.054  29.269  1.00  0.00     0.023 A 
ATOM     40  C   UNL A   1      39.847  28.980  30.629  1.00  0.00     0.031 A 
ATOM     41  C   UNL A   1      39.188  29.287  28.327  1.00  0.00     0.131 A 
ATOM     42  C   UNL A   1      38.503  29.091  31.003  1.00  0.00     0.055 A 
ATOM     43  C   UNL A   1      37.855  29.450  28.710  1.00  0.00     0.041 A 
ATOM     44  F   UNL A   1      39.474  29.362  27.017  1.00  0.00    -0.206 F 
ATOM     45  C   UNL A   1      37.507  29.336  30.052  1.00  0.00     0.022 A 
BRANCH  42  46
ATOM     46  S   UNL A   1      37.985  28.838  32.722  1.00  0.00     0.124 S 
ATOM     47  O   UNL A   1      36.662  29.458  32.730  1.00  0.00    -0.237 OA
ATOM     48  O   UNL A   1      37.991  27.381  32.830  1.00  0.00    -0.237 OA
ATOM     49  O   UNL A   1      39.002  29.534  33.502  1.00  0.00    -0.744 OA
ENDBRANCH  42  46
ENDBRANCH  25  39
BRANCH  26  50
ATOM     50  C   UNL A   1      49.456  26.712  26.209  1.00  0.00     0.023 A 
ATOM     51  C   UNL A   1      50.516  26.536  27.119  1.00  0.00     0.031 A 
ATOM     52  C   UNL A   1      49.750  26.667  24.836  1.00  0.00     0.131 A 
ATOM     53  C   UNL A   1      51.828  26.413  26.644  1.00  0.00     0.055 A 
ATOM     54  C   UNL A   1      51.049  26.465  24.367  1.00  0.00     0.041 A 
ATOM     55  F   UNL A   1      48.776  26.839  23.930  1.00  0.00    -0.206 F 
ATOM     56  C   UNL A   1      52.100  26.358  25.274  1.00  0.00     0.022 A 
BRANCH  53  57
ATOM     57  S   UNL A   1      53.238  26.474  27.785  1.00  0.00     0.124 S 
ATOM     58  O   UNL A   1      54.077  25.385  27.296  1.00  0.00    -0.237 OA
ATOM     59  O   UNL A   1      53.751  27.822  27.550  1.00  0.00    -0.237 OA
ATOM     60  O   UNL A   1      52.631  26.264  29.096  1.00  0.00    -0.744 OA
ENDBRANCH  53  57
ENDBRANCH  26  50
BRANCH  38  61
ATOM     61  C   UNL A   1      46.372  32.630  28.517  1.00  0.00     0.023 A 
ATOM     62  C   UNL A   1      46.515  33.479  27.403  1.00  0.00     0.031 A 
ATOM     63  C   UNL A   1      46.858  33.075  29.759  1.00  0.00     0.131 A 
ATOM     64  C   UNL A   1      47.194  34.697  27.535  1.00  0.00     0.055 A 
ATOM     65  C   UNL A   1      47.482  34.316  29.897  1.00  0.00     0.041 A 
ATOM     66  F   UNL A   1      46.756  32.298  30.849  1.00  0.00    -0.206 F 
ATOM     67  C   UNL A   1      47.671  35.123  28.778  1.00  0.00     0.022 A 
BRANCH  64  68
ATOM     68  S   UNL A   1      47.584  35.714  26.083  1.00  0.00     0.124 S 
ATOM     69  O   UNL A   1      46.382  36.536  25.959  1.00  0.00    -0.237 OA
ATOM     70  O   UNL A   1      48.782  36.424  26.519  1.00  0.00    -0.237 OA
ATOM     71  O   UNL A   1      47.783  34.741  25.015  1.00  0.00    -0.744 OA
ENDBRANCH  64  68
ENDBRANCH  38  61
ENDBRANCH  12  13
ENDBRANCH   5   7
ENDBRANCH   2   3
ENDBRANCH   1   2
BRANCH   1  72
ATOM     72  C   UNL A   1      37.102  20.500  24.977  1.00  0.00     0.023 C 
BRANCH  72  73
ATOM     73  C   UNL A   1      37.301  21.762  24.147  1.00  0.00     0.116 C 
BRANCH  73  74
ATOM     74  N   UNL A   1      37.210  22.974  24.947  1.00  0.00    -0.352 N 
ATOM     75  C   UNL A   1      36.130  23.790  25.140  1.00  0.00     0.256 C 
ATOM     76  H   UNL A   1      38.036  23.242  25.411  1.00  0.00     0.163 HD
ATOM     77  O   UNL A   1      36.234  24.827  25.789  1.00  0.00    -0.269 OA
BRANCH  75  78
ATOM     78  C   UNL A   1      34.868  23.436  24.462  1.00  0.00     0.105 A 
ATOM     79  C   UNL A   1      34.675  23.911  23.220  1.00  0.00     0.021 A 
ATOM     80  C   UNL A   1      33.869  22.516  25.074  1.00  0.00     0.263 A 
ATOM     81  C   UNL A   1      33.539  23.485  22.443  1.00  0.00     0.019 A 
ATOM     82  N   UNL A   1      32.839  22.091  24.228  1.00  0.00    -0.310 N 
ATOM     83  O   UNL A   1      33.995  22.129  26.234  1.00  0.00    -0.268 OA
ATOM     84  C   UNL A   1      32.685  22.587  22.945  1.00  0.00     0.089 A 
BRANCH  82  85
ATOM     85  C   UNL A   1      31.891  21.117  24.750  1.00  0.00     0.161 C 
BRANCH  85  86
ATOM     86  C   UNL A   1      32.312  19.697  24.449  1.00  0.00    -0.024 A 
ATOM     87  C   UNL A   1      32.397  19.244  23.113  1.00  0.00     0.010 A 
ATOM     88  C   UNL A   1      32.615  18.820  25.504  1.00  0.00     0.056 A 
ATOM     89  C   UNL A   1      32.814  17.943  22.822  1.00  0.00     0.051 A 
ATOM     90  C   UNL A   1      33.049  17.553  25.187  1.00  0.00     0.173 A 
ATOM     91  C   UNL A   1      33.154  17.130  23.880  1.00  0.00     0.172 A 
ATOM     92  O   UNL A   1      33.448  16.604  26.075  1.00  0.00    -0.395 OA
ATOM     93  O   UNL A   1      33.643  15.864  23.788  1.00  0.00    -0.395 OA
ATOM     94  C   UNL A   1      34.008  15.656  25.160  1.00  0.00     0.586 C 
ATOM     95  F   UNL A   1      35.362  15.721  25.253  1.00  0.00    -0.125 F 
ATOM     96  F   UNL A   1      33.634  14.407  25.528  1.00  0.00    -0.125 F 
ENDBRANCH  85  86
ENDBRANCH  82  85
ENDBRANCH  75  78
ENDBRANCH  73  74
ENDBRANCH  72  73
ENDBRANCH   1  72
TORSDOF 16
ENDMDL
MODEL 2
REMARK VINA RESULT:     -12.6      6.289     10.994
REMARK SMILES O=C(NCCCCNC(=O)c1cccn(Cc2ccc3c(c2)OC(F)(F)O3)c1=O)c1ccc(-c2c3nc(c(-c4cc(S(=O)(=O)[O-])ccc4F)c4ccc([nH]4)c(-c4cc(S(=O)(=O)[O-])ccc4F)c4nc(c(-c5cc(S(=O)(=O)[O-])ccc5F)c5ccc2[nH]5)C=C4)C=C3)cc1
REMARK SMILES IDX 5 1 4 2 3 3 1 4 2 5 30 7 31 8 92 9 32 10 91 11 33 12 34 13
REMARK SMILES IDX 35 14 85 15 36 16 90 17 84 18 86 19 37 20 89 21 83 22 82 23
REMARK SMILES IDX 38 25 70 26 50 27 69 28 51 29 54 30 68 31 87 32 52 33 53 34
REMARK SMILES IDX 67 36 88 37 55 38 39 39 40 40 48 41 41 42 47 43 49 44 46 45
REMARK SMILES IDX 42 46 43 47 44 48 45 49 71 50 72 51 80 52 73 53 79 54 81 55
REMARK SMILES IDX 78 56 74 57 75 58 76 59 77 60 56 61 57 62 65 63 58 64 64 65
REMARK SMILES IDX 66 66 63 67 59 68 60 69 61 70 62 71 6 72 7 73 8 74 9 75
REMARK SMILES IDX 10 77 11 78 12 79 28 80 13 81 15 82 29 83 14 84 16 85 17 86
REMARK SMILES IDX 18 87 22 88 19 89 21 90 20 91 23 92 27 93 24 94 25 95 26 96
REMARK H PARENT 3 6 86 24 54 35 8 76
REMARK Flexibility Score: inf
ROOT
ATOM      1  C   UNL A   1      31.351  31.883  26.443  1.00  0.00     0.023 C 
ENDROOT
BRANCH   1   2
ATOM      2  C   UNL A   1      32.636  32.405  27.074  1.00  0.00     0.116 C 
BRANCH   2   3
ATOM      3  N   UNL A   1      32.515  33.782  27.528  1.00  0.00    -0.352 N 
ATOM      4  O   UNL A   1      32.849  35.551  28.877  1.00  0.00    -0.269 OA
ATOM      5  C   UNL A   1      33.216  34.440  28.509  1.00  0.00     0.251 C 
ATOM      6  H   UNL A   1      31.830  34.319  27.067  1.00  0.00     0.163 HD
BRANCH   5   7
ATOM      7  C   UNL A   1      34.405  33.807  29.123  1.00  0.00     0.039 A 
ATOM      8  C   UNL A   1      35.677  34.246  28.747  1.00  0.00     0.014 A 
ATOM      9  C   UNL A   1      34.268  32.763  30.042  1.00  0.00     0.014 A 
ATOM     10  C   UNL A   1      36.811  33.659  29.317  1.00  0.00     0.010 A 
ATOM     11  C   UNL A   1      35.393  32.238  30.670  1.00  0.00     0.010 A 
ATOM     12  C   UNL A   1      36.676  32.660  30.294  1.00  0.00    -0.014 A 
BRANCH  12  13
ATOM     13  C   UNL A   1      37.858  31.991  30.895  1.00  0.00     0.031 A 
ATOM     14  C   UNL A   1      38.587  30.931  30.117  1.00  0.00     0.074 A 
ATOM     15  C   UNL A   1      38.237  32.285  32.155  1.00  0.00     0.049 A 
ATOM     16  N   UNL A   1      39.569  30.156  30.494  1.00  0.00    -0.248 NA
ATOM     17  C   UNL A   1      38.132  30.689  28.736  1.00  0.00     0.031 C 
ATOM     18  C   UNL A   1      37.594  33.278  33.013  1.00  0.00     0.029 A 
ATOM     19  N   UNL A   1      39.243  31.769  32.935  1.00  0.00    -0.354 N 
ATOM     20  C   UNL A   1      39.831  29.323  29.413  1.00  0.00     0.074 A 
ATOM     21  C   UNL A   1      38.870  29.647  28.384  1.00  0.00     0.031 C 
ATOM     22  C   UNL A   1      38.229  33.312  34.194  1.00  0.00     0.029 A 
ATOM     23  C   UNL A   1      39.291  32.307  34.201  1.00  0.00     0.049 A 
ATOM     24  H   UNL A   1      39.871  31.081  32.619  1.00  0.00     0.167 HD
ATOM     25  C   UNL A   1      40.803  28.391  29.284  1.00  0.00     0.034 A 
ATOM     26  C   UNL A   1      40.083  32.013  35.255  1.00  0.00     0.034 A 
ATOM     27  C   UNL A   1      41.780  28.114  30.304  1.00  0.00     0.049 A 
ATOM     28  C   UNL A   1      41.153  30.962  35.094  1.00  0.00     0.074 A 
ATOM     29  C   UNL A   1      42.855  27.246  30.236  1.00  0.00     0.029 A 
ATOM     30  N   UNL A   1      41.806  28.688  31.566  1.00  0.00    -0.354 N 
ATOM     31  N   UNL A   1      41.448  30.244  34.035  1.00  0.00    -0.248 NA
ATOM     32  C   UNL A   1      42.005  30.680  36.258  1.00  0.00     0.031 C 
ATOM     33  C   UNL A   1      43.481  27.234  31.481  1.00  0.00     0.029 A 
ATOM     34  C   UNL A   1      42.856  28.161  32.301  1.00  0.00     0.049 A 
ATOM     35  H   UNL A   1      41.174  29.368  31.892  1.00  0.00     0.167 HD
ATOM     36  C   UNL A   1      42.530  29.445  34.398  1.00  0.00     0.074 A 
ATOM     37  C   UNL A   1      42.852  29.782  35.768  1.00  0.00     0.031 C 
ATOM     38  C   UNL A   1      43.189  28.515  33.661  1.00  0.00     0.034 A 
BRANCH  25  39
ATOM     39  C   UNL A   1      40.898  27.607  27.997  1.00  0.00     0.023 A 
ATOM     40  C   UNL A   1      40.490  26.260  27.970  1.00  0.00     0.031 A 
ATOM     41  C   UNL A   1      41.519  28.137  26.853  1.00  0.00     0.131 A 
ATOM     42  C   UNL A   1      40.751  25.477  26.840  1.00  0.00     0.055 A 
ATOM     43  C   UNL A   1      41.729  27.366  25.709  1.00  0.00     0.041 A 
ATOM     44  F   UNL A   1      41.932  29.415  26.829  1.00  0.00    -0.206 F 
ATOM     45  C   UNL A   1      41.358  26.025  25.706  1.00  0.00     0.022 A 
BRANCH  42  46
ATOM     46  S   UNL A   1      40.390  23.700  26.829  1.00  0.00     0.124 S 
ATOM     47  O   UNL A   1      39.015  23.677  26.332  1.00  0.00    -0.237 OA
ATOM     48  O   UNL A   1      41.396  23.191  25.901  1.00  0.00    -0.237 OA
ATOM     49  O   UNL A   1      40.554  23.299  28.222  1.00  0.00    -0.744 OA
ENDBRANCH  42  46
ENDBRANCH  25  39
BRANCH  26  50
ATOM     50  C   UNL A   1      39.907  32.781  36.524  1.00  0.00     0.023 A 
ATOM     51  C   UNL A   1      39.032  32.326  37.528  1.00  0.00     0.031 A 
ATOM     52  C   UNL A   1      40.507  34.040  36.691  1.00  0.00     0.131 A 
ATOM     53  C   UNL A   1      38.714  33.163  38.606  1.00  0.00     0.055 A 
ATOM     54  C   UNL A   1      40.247  34.837  37.808  1.00  0.00     0.041 A 
ATOM     55  F   UNL A   1      41.340  34.522  35.757  1.00  0.00    -0.206 F 
ATOM     56  C   UNL A   1      39.329  34.408  38.762  1.00  0.00     0.022 A 
BRANCH  53  57
ATOM     57  S   UNL A   1      37.380  32.727  39.757  1.00  0.00     0.124 S 
ATOM     58  O   UNL A   1      36.232  32.605  38.864  1.00  0.00    -0.237 OA
ATOM     59  O   UNL A   1      37.875  31.475  40.324  1.00  0.00    -0.237 OA
ATOM     60  O   UNL A   1      37.341  33.853  40.684  1.00  0.00    -0.744 OA
ENDBRANCH  53  57
ENDBRANCH  26  50
BRANCH  38  61
ATOM     61  C   UNL A   1      44.345  27.766  34.281  1.00  0.00     0.023 A 
ATOM     62  C   UNL A   1      44.102  26.592  35.019  1.00  0.00     0.031 A 
ATOM     63  C   UNL A   1      45.636  28.321  34.320  1.00  0.00     0.131 A 
ATOM     64  C   UNL A   1      45.113  26.050  35.823  1.00  0.00     0.055 A 
ATOM     65  C   UNL A   1      46.657  27.743  35.078  1.00  0.00     0.041 A 
ATOM     66  F   UNL A   1      45.916  29.446  33.643  1.00  0.00    -0.206 F 
ATOM     67  C   UNL A   1      46.392  26.615  35.850  1.00  0.00     0.022 A 
BRANCH  64  68
ATOM     68  S   UNL A   1      44.774  24.667  36.949  1.00  0.00     0.124 S 
ATOM     69  O   UNL A   1      43.905  25.293  37.942  1.00  0.00    -0.237 OA
ATOM     70  O   UNL A   1      44.120  23.706  36.065  1.00  0.00    -0.237 OA
ATOM     71  O   UNL A   1      46.093  24.277  37.436  1.00  0.00    -0.744 OA
ENDBRANCH  64  68
ENDBRANCH  38  61
ENDBRANCH  12  13
ENDBRANCH   5   7
ENDBRANCH   2   3
ENDBRANCH   1   2
BRANCH   1  72
ATOM     72  C   UNL A   1      31.480  30.531  25.747  1.00  0.00     0.023 C 
BRANCH  72  73
ATOM     73  C   UNL A   1      32.874  29.918  25.803  1.00  0.00     0.116 C 
BRANCH  73  74
ATOM     74  N   UNL A   1      33.361  29.523  24.488  1.00  0.00    -0.352 N 
ATOM     75  C   UNL A   1      33.063  28.397  23.772  1.00  0.00     0.256 C 
ATOM     76  H   UNL A   1      33.985  30.150  24.059  1.00  0.00     0.163 HD
ATOM     77  O   UNL A   1      33.619  28.171  22.700  1.00  0.00    -0.269 OA
BRANCH  75  78
ATOM     78  C   UNL A   1      32.135  27.421  24.374  1.00  0.00     0.105 A 
ATOM     79  C   UNL A   1      30.908  27.317  23.837  1.00  0.00     0.021 A 
ATOM     80  C   UNL A   1      32.548  26.510  25.477  1.00  0.00     0.263 A 
ATOM     81  C   UNL A   1      30.003  26.284  24.274  1.00  0.00     0.019 A 
ATOM     82  N   UNL A   1      31.645  25.488  25.788  1.00  0.00    -0.310 N 
ATOM     83  O   UNL A   1      33.641  26.637  26.025  1.00  0.00    -0.268 OA
ATOM     84  C   UNL A   1      30.396  25.400  25.198  1.00  0.00     0.089 A 
BRANCH  82  85
ATOM     85  C   UNL A   1      32.043  24.513  26.794  1.00  0.00     0.161 C 
BRANCH  85  86
ATOM     86  C   UNL A   1      32.678  23.288  26.178  1.00  0.00    -0.024 A 
ATOM     87  C   UNL A   1      34.080  23.220  26.006  1.00  0.00     0.010 A 
ATOM     88  C   UNL A   1      31.872  22.213  25.769  1.00  0.00     0.056 A 
ATOM     89  C   UNL A   1      34.681  22.080  25.466  1.00  0.00     0.051 A 
ATOM     90  C   UNL A   1      32.493  21.093  25.266  1.00  0.00     0.173 A 
ATOM     91  C   UNL A   1      33.862  21.026  25.127  1.00  0.00     0.172 A 
ATOM     92  O   UNL A   1      31.875  19.943  24.889  1.00  0.00    -0.395 OA
ATOM     93  O   UNL A   1      34.272  19.818  24.654  1.00  0.00    -0.395 OA
ATOM     94  C   UNL A   1      33.026  19.109  24.721  1.00  0.00     0.586 C 
ATOM     95  F   UNL A   1      33.085  18.246  25.769  1.00  0.00    -0.125 F 
ATOM     96  F   UNL A   1      32.882  18.371  23.594  1.00  0.00    -0.125 F 
ENDBRANCH  85  86
ENDBRANCH  82  85
ENDBRANCH  75  78
ENDBRANCH  73  74
ENDBRANCH  72  73
ENDBRANCH   1  72
TORSDOF 16
ENDMDL
MODEL 3
REMARK VINA RESULT:     -12.5      5.556      9.939
REMARK SMILES O=C(NCCCCNC(=O)c1cccn(Cc2ccc3c(c2)OC(F)(F)O3)c1=O)c1ccc(-c2c3nc(c(-c4cc(S(=O)(=O)[O-])ccc4F)c4ccc([nH]4)c(-c4cc(S(=O)(=O)[O-])ccc4F)c4nc(c(-c5cc(S(=O)(=O)[O-])ccc5F)c5ccc2[nH]5)C=C4)C=C3)cc1
REMARK SMILES IDX 5 1 4 2 3 3 1 4 2 5 30 7 31 8 92 9 32 10 91 11 33 12 34 13
REMARK SMILES IDX 35 14 85 15 36 16 90 17 84 18 86 19 37 20 89 21 83 22 82 23
REMARK SMILES IDX 38 25 70 26 50 27 69 28 51 29 54 30 68 31 87 32 52 33 53 34
REMARK SMILES IDX 67 36 88 37 55 38 39 39 40 40 48 41 41 42 47 43 49 44 46 45
REMARK SMILES IDX 42 46 43 47 44 48 45 49 71 50 72 51 80 52 73 53 79 54 81 55
REMARK SMILES IDX 78 56 74 57 75 58 76 59 77 60 56 61 57 62 65 63 58 64 64 65
REMARK SMILES IDX 66 66 63 67 59 68 60 69 61 70 62 71 6 72 7 73 8 74 9 75
REMARK SMILES IDX 10 77 11 78 12 79 28 80 13 81 15 82 29 83 14 84 16 85 17 86
REMARK SMILES IDX 18 87 22 88 19 89 21 90 20 91 23 92 27 93 24 94 25 95 26 96
REMARK H PARENT 3 6 86 24 54 35 8 76
REMARK Flexibility Score: inf
ROOT
ATOM      1  C   UNL A   1      31.787  28.168  25.974  1.00  0.00     0.023 C 
ENDROOT
BRANCH   1   2
ATOM      2  C   UNL A   1      33.021  29.060  26.036  1.00  0.00     0.116 C 
BRANCH   2   3
ATOM      3  N   UNL A   1      32.689  30.454  26.287  1.00  0.00    -0.352 N 
ATOM      4  O   UNL A   1      32.755  32.436  27.350  1.00  0.00    -0.269 OA
ATOM      5  C   UNL A   1      33.288  31.352  27.137  1.00  0.00     0.251 C 
ATOM      6  H   UNL A   1      31.924  30.804  25.776  1.00  0.00     0.163 HD
BRANCH   5   7
ATOM      7  C   UNL A   1      34.568  31.009  27.798  1.00  0.00     0.039 A 
ATOM      8  C   UNL A   1      34.754  29.711  28.282  1.00  0.00     0.014 A 
ATOM      9  C   UNL A   1      35.568  31.970  27.969  1.00  0.00     0.014 A 
ATOM     10  C   UNL A   1      35.956  29.371  28.910  1.00  0.00     0.010 A 
ATOM     11  C   UNL A   1      36.794  31.607  28.516  1.00  0.00     0.010 A 
ATOM     12  C   UNL A   1      36.991  30.313  29.019  1.00  0.00    -0.014 A 
BRANCH  12  13
ATOM     13  C   UNL A   1      38.267  29.995  29.708  1.00  0.00     0.031 A 
ATOM     14  C   UNL A   1      39.224  29.016  29.084  1.00  0.00     0.074 A 
ATOM     15  C   UNL A   1      38.538  30.529  30.916  1.00  0.00     0.049 A 
ATOM     16  N   UNL A   1      40.334  28.525  29.566  1.00  0.00    -0.248 NA
ATOM     17  C   UNL A   1      38.872  28.501  27.750  1.00  0.00     0.031 C 
ATOM     18  C   UNL A   1      37.676  31.470  31.628  1.00  0.00     0.029 A 
ATOM     19  N   UNL A   1      39.605  30.346  31.761  1.00  0.00    -0.354 N 
ATOM     20  C   UNL A   1      40.797  27.627  28.611  1.00  0.00     0.074 A 
ATOM     21  C   UNL A   1      39.821  27.600  27.545  1.00  0.00     0.031 C 
ATOM     22  C   UNL A   1      38.255  31.796  32.793  1.00  0.00     0.029 A 
ATOM     23  C   UNL A   1      39.502  31.047  32.941  1.00  0.00     0.049 A 
ATOM     24  H   UNL A   1      40.372  29.769  31.544  1.00  0.00     0.167 HD
ATOM     25  C   UNL A   1      41.945  26.912  28.613  1.00  0.00     0.034 A 
ATOM     26  C   UNL A   1      40.305  31.071  34.026  1.00  0.00     0.034 A 
ATOM     27  C   UNL A   1      42.927  26.986  29.663  1.00  0.00     0.049 A 
ATOM     28  C   UNL A   1      41.575  30.257  34.013  1.00  0.00     0.074 A 
ATOM     29  C   UNL A   1      44.161  26.364  29.717  1.00  0.00     0.029 A 
ATOM     30  N   UNL A   1      42.794  27.718  30.834  1.00  0.00    -0.354 N 
ATOM     31  N   UNL A   1      42.045  29.481  33.064  1.00  0.00    -0.248 NA
ATOM     32  C   UNL A   1      42.431  30.320  35.207  1.00  0.00     0.031 C 
ATOM     33  C   UNL A   1      44.737  26.651  30.952  1.00  0.00     0.029 A 
ATOM     34  C   UNL A   1      43.908  27.528  31.635  1.00  0.00     0.049 A 
ATOM     35  H   UNL A   1      42.024  28.287  31.061  1.00  0.00     0.167 HD
ATOM     36  C   UNL A   1      43.258  28.984  33.535  1.00  0.00     0.074 A 
ATOM     37  C   UNL A   1      43.461  29.563  34.846  1.00  0.00     0.031 C 
ATOM     38  C   UNL A   1      44.118  28.123  32.934  1.00  0.00     0.034 A 
BRANCH  25  39
ATOM     39  C   UNL A   1      42.240  26.000  27.447  1.00  0.00     0.023 A 
ATOM     40  C   UNL A   1      41.788  24.667  27.472  1.00  0.00     0.031 A 
ATOM     41  C   UNL A   1      43.082  26.397  26.393  1.00  0.00     0.131 A 
ATOM     42  C   UNL A   1      42.217  23.767  26.490  1.00  0.00     0.055 A 
ATOM     43  C   UNL A   1      43.464  25.509  25.386  1.00  0.00     0.041 A 
ATOM     44  F   UNL A   1      43.545  27.655  26.324  1.00  0.00    -0.206 F 
ATOM     45  C   UNL A   1      43.044  24.184  25.442  1.00  0.00     0.022 A 
BRANCH  42  46
ATOM     46  S   UNL A   1      41.790  22.008  26.581  1.00  0.00     0.124 S 
ATOM     47  O   UNL A   1      42.303  21.643  27.900  1.00  0.00    -0.237 OA
ATOM     48  O   UNL A   1      40.335  22.041  26.466  1.00  0.00    -0.237 OA
ATOM     49  O   UNL A   1      42.500  21.415  25.453  1.00  0.00    -0.744 OA
ENDBRANCH  42  46
ENDBRANCH  25  39
BRANCH  26  50
ATOM     50  C   UNL A   1      39.935  31.948  35.177  1.00  0.00     0.023 A 
ATOM     51  C   UNL A   1      39.156  31.455  36.241  1.00  0.00     0.031 A 
ATOM     52  C   UNL A   1      40.240  33.319  35.163  1.00  0.00     0.131 A 
ATOM     53  C   UNL A   1      38.637  32.341  37.193  1.00  0.00     0.055 A 
ATOM     54  C   UNL A   1      39.785  34.185  36.159  1.00  0.00     0.041 A 
ATOM     55  F   UNL A   1      40.970  33.840  34.165  1.00  0.00    -0.206 F 
ATOM     56  C   UNL A   1      38.961  33.700  37.170  1.00  0.00     0.022 A 
BRANCH  53  57
ATOM     57  S   UNL A   1      37.402  31.785  38.402  1.00  0.00     0.124 S 
ATOM     58  O   UNL A   1      37.166  30.406  37.987  1.00  0.00    -0.237 OA
ATOM     59  O   UNL A   1      38.125  31.951  39.661  1.00  0.00    -0.237 OA
ATOM     60  O   UNL A   1      36.286  32.704  38.204  1.00  0.00    -0.744 OA
ENDBRANCH  53  57
ENDBRANCH  26  50
BRANCH  38  61
ATOM     61  C   UNL A   1      45.386  27.725  33.654  1.00  0.00     0.023 A 
ATOM     62  C   UNL A   1      45.375  26.622  34.530  1.00  0.00     0.031 A 
ATOM     63  C   UNL A   1      46.524  28.549  33.635  1.00  0.00     0.131 A 
ATOM     64  C   UNL A   1      46.450  26.415  35.404  1.00  0.00     0.055 A 
ATOM     65  C   UNL A   1      47.618  28.303  34.468  1.00  0.00     0.041 A 
ATOM     66  F   UNL A   1      46.579  29.619  32.826  1.00  0.00    -0.206 F 
ATOM     67  C   UNL A   1      47.574  27.245  35.372  1.00  0.00     0.022 A 
BRANCH  64  68
ATOM     68  S   UNL A   1      46.377  25.136  36.690  1.00  0.00     0.124 S 
ATOM     69  O   UNL A   1      44.972  24.736  36.638  1.00  0.00    -0.237 OA
ATOM     70  O   UNL A   1      47.326  24.145  36.191  1.00  0.00    -0.237 OA
ATOM     71  O   UNL A   1      46.779  25.835  37.906  1.00  0.00    -0.744 OA
ENDBRANCH  64  68
ENDBRANCH  38  61
ENDBRANCH  12  13
ENDBRANCH   5   7
ENDBRANCH   2   3
ENDBRANCH   1   2
BRANCH   1  72
ATOM     72  C   UNL A   1      31.460  27.619  24.588  1.00  0.00     0.023 C 
BRANCH  72  73
ATOM     73  C   UNL A   1      32.196  26.336  24.223  1.00  0.00     0.116 C 
BRANCH  73  74
ATOM     74  N   UNL A   1      32.466  26.237  22.796  1.00  0.00    -0.352 N 
ATOM     75  C   UNL A   1      33.049  25.209  22.108  1.00  0.00     0.256 C 
ATOM     76  H   UNL A   1      32.192  27.012  22.255  1.00  0.00     0.163 HD
ATOM     77  O   UNL A   1      33.277  25.309  20.905  1.00  0.00    -0.269 OA
BRANCH  75  78
ATOM     78  C   UNL A   1      33.483  24.024  22.873  1.00  0.00     0.105 A 
ATOM     79  C   UNL A   1      34.794  23.902  23.138  1.00  0.00     0.021 A 
ATOM     80  C   UNL A   1      32.514  23.033  23.418  1.00  0.00     0.263 A 
ATOM     81  C   UNL A   1      35.270  22.854  24.005  1.00  0.00     0.019 A 
ATOM     82  N   UNL A   1      33.045  22.096  24.312  1.00  0.00    -0.310 N 
ATOM     83  O   UNL A   1      31.322  23.091  23.128  1.00  0.00    -0.268 OA
ATOM     84  C   UNL A   1      34.400  22.015  24.578  1.00  0.00     0.089 A 
BRANCH  82  85
ATOM     85  C   UNL A   1      32.122  21.165  24.946  1.00  0.00     0.161 C 
BRANCH  85  86
ATOM     86  C   UNL A   1      32.437  19.729  24.599  1.00  0.00    -0.024 A 
ATOM     87  C   UNL A   1      32.528  19.324  23.247  1.00  0.00     0.010 A 
ATOM     88  C   UNL A   1      32.633  18.788  25.624  1.00  0.00     0.056 A 
ATOM     89  C   UNL A   1      32.848  18.005  22.914  1.00  0.00     0.051 A 
ATOM     90  C   UNL A   1      32.973  17.504  25.266  1.00  0.00     0.173 A 
ATOM     91  C   UNL A   1      33.086  17.126  23.947  1.00  0.00     0.172 A 
ATOM     92  O   UNL A   1      33.264  16.491  26.125  1.00  0.00    -0.395 OA
ATOM     93  O   UNL A   1      33.474  15.829  23.815  1.00  0.00    -0.395 OA
ATOM     94  C   UNL A   1      33.775  15.537  25.187  1.00  0.00     0.586 C 
ATOM     95  F   UNL A   1      35.126  15.487  25.323  1.00  0.00    -0.125 F 
ATOM     96  F   UNL A   1      33.290  14.309  25.491  1.00  0.00    -0.125 F 
ENDBRANCH  85  86
ENDBRANCH  82  85
ENDBRANCH  75  78
ENDBRANCH  73  74
ENDBRANCH  72  73
ENDBRANCH   1  72
TORSDOF 16
ENDMDL
