MODEL 1
REMARK VINA RESULT:     -12.3      0.000      0.000
REMARK SMILES Cc1ccc(C)c(S(=O)(=O)N[C@H](CC2=c3ccccc3=NC2)C(=O)NCCCCNC(=O)c2ccc(-c3c4nc(c(-c5cc(S(=O)(=O)[O-])ccc5F)c5ccc([nH]5)c(-c5cc(S(=O)(=O)[O-])ccc5F)c5nc(c(-c6cc(S(=O)(=O)[O-])ccc6F)c6ccc3[nH]6)C=C5)C=C4)cc2)c1
REMARK SMILES IDX 27 1 26 2 25 3 23 4 24 5 12 7 11 8 8 10 9 11 10 12 7 13 1 14
REMARK SMILES IDX 2 15 3 16 96 17 4 18 5 19 6 20 13 21 14 22 15 23 22 24 16 25
REMARK SMILES IDX 20 26 21 27 17 28 19 29 18 30 28 31 29 32 30 33 31 34 32 36
REMARK SMILES IDX 33 37 34 38 95 39 35 40 94 41 36 42 37 43 38 44 88 45 39 46
REMARK SMILES IDX 93 47 87 48 89 49 40 50 92 51 86 52 85 53 41 55 73 56 53 57
REMARK SMILES IDX 72 58 54 59 57 60 71 61 90 62 55 63 56 64 70 66 91 67 58 68
REMARK SMILES IDX 42 69 43 70 51 71 44 72 50 73 52 74 49 75 45 76 46 77 47 78
REMARK SMILES IDX 48 79 74 80 75 81 83 82 76 83 82 84 84 85 81 86 77 87 78 88
REMARK SMILES IDX 79 89 80 90 59 91 60 92 68 93 61 94 67 95 69 96 66 97 62 98
REMARK SMILES IDX 63 99 64 100 65 101
REMARK H PARENT 25 6 11 9 30 35 89 54 57 65
REMARK Flexibility Score: inf
ROOT
ATOM      1  C   UNL A   1      35.816  22.966  23.948  1.00  0.00     0.023 C 
ENDROOT
BRANCH   1   2
ATOM      2  C   UNL A   1      35.233  24.398  24.140  1.00  0.00     0.116 C 
BRANCH   2   3
ATOM      3  N   UNL A   1      34.332  24.957  23.138  1.00  0.00    -0.355 N 
ATOM      4  C   UNL A   1      33.162  25.677  23.156  1.00  0.00     0.238 C 
ATOM      5  O   UNL A   1      32.588  25.792  22.069  1.00  0.00    -0.273 OA
ATOM      6  H   UNL A   1      34.638  24.770  22.222  1.00  0.00     0.163 HD
BRANCH   4   7
ATOM      7  C   UNL A   1      32.473  26.221  24.424  1.00  0.00     0.163 C 
BRANCH   7   8
ATOM      8  N   UNL A   1      31.500  25.204  24.964  1.00  0.00    -0.198 NA
ATOM      9  H   UNL A   1      30.671  25.717  25.265  1.00  0.00     0.142 HD
BRANCH   8  10
ATOM     10  S   UNL A   1      31.967  24.208  26.261  1.00  0.00     0.241 S 
ATOM     11  O   UNL A   1      30.812  23.963  27.075  1.00  0.00    -0.207 OA
ATOM     12  O   UNL A   1      33.168  24.840  26.781  1.00  0.00    -0.207 OA
BRANCH  10  13
ATOM     13  C   UNL A   1      32.493  22.676  25.527  1.00  0.00     0.085 A 
ATOM     14  C   UNL A   1      31.924  20.943  22.194  1.00  0.00     0.044 C 
ATOM     15  C   UNL A   1      32.388  21.198  23.595  1.00  0.00    -0.050 A 
ATOM     16  C   UNL A   1      33.009  20.200  24.345  1.00  0.00     0.004 A 
ATOM     17  C   UNL A   1      32.181  22.446  24.183  1.00  0.00     0.025 A 
ATOM     18  C   UNL A   1      33.404  20.449  25.663  1.00  0.00     0.005 A 
ATOM     19  C   UNL A   1      33.147  21.687  26.281  1.00  0.00    -0.031 A 
ATOM     20  C   UNL A   1      33.618  21.864  27.699  1.00  0.00     0.046 C 
ENDBRANCH  10  13
ENDBRANCH   8  10
ENDBRANCH   7   8
BRANCH   7  21
ATOM     21  C   UNL A   1      31.798  27.652  24.313  1.00  0.00     0.063 C 
BRANCH  21  22
ATOM     22  C   UNL A   1      32.221  28.829  25.171  1.00  0.00    -0.037 C 
ATOM     23  C   UNL A   1      33.220  29.105  26.014  1.00  0.00     0.001 A 
ATOM     24  C   UNL A   1      31.257  29.949  25.225  1.00  0.00     0.174 C 
ATOM     25  C   UNL A   1      34.374  28.453  26.544  1.00  0.00     0.010 A 
ATOM     26  C   UNL A   1      32.852  30.446  26.534  1.00  0.00     0.065 A 
ATOM     27  N   UNL A   1      31.704  30.936  26.207  1.00  0.00    -0.280 NA
ATOM     28  C   UNL A   1      35.149  29.117  27.427  1.00  0.00     0.001 A 
ATOM     29  C   UNL A   1      33.791  31.151  27.411  1.00  0.00     0.028 A 
ATOM     30  C   UNL A   1      34.884  30.495  27.813  1.00  0.00     0.002 A 
ENDBRANCH  21  22
ENDBRANCH   7  21
ENDBRANCH   4   7
ENDBRANCH   2   3
ENDBRANCH   1   2
BRANCH   1  31
ATOM     31  C   UNL A   1      37.259  22.608  24.364  1.00  0.00     0.023 C 
BRANCH  31  32
ATOM     32  C   UNL A   1      37.568  22.187  25.801  1.00  0.00     0.116 C 
BRANCH  32  33
ATOM     33  N   UNL A   1      38.972  21.829  26.026  1.00  0.00    -0.352 N 
ATOM     34  C   UNL A   1      40.046  22.542  26.535  1.00  0.00     0.251 C 
ATOM     35  H   UNL A   1      39.194  20.905  25.766  1.00  0.00     0.163 HD
ATOM     36  O   UNL A   1      41.176  22.065  26.480  1.00  0.00    -0.269 OA
BRANCH  34  37
ATOM     37  C   UNL A   1      39.827  23.857  27.172  1.00  0.00     0.039 A 
ATOM     38  C   UNL A   1      38.828  24.773  26.839  1.00  0.00     0.014 A 
ATOM     39  C   UNL A   1      40.833  24.324  27.984  1.00  0.00     0.014 A 
ATOM     40  C   UNL A   1      38.997  26.101  27.276  1.00  0.00     0.010 A 
ATOM     41  C   UNL A   1      40.583  25.326  28.841  1.00  0.00     0.010 A 
ATOM     42  C   UNL A   1      40.040  26.381  28.168  1.00  0.00    -0.014 A 
BRANCH  42  43
ATOM     43  C   UNL A   1      40.358  27.646  28.786  1.00  0.00     0.031 A 
ATOM     44  C   UNL A   1      41.588  28.220  28.200  1.00  0.00     0.074 A 
ATOM     45  C   UNL A   1      39.487  28.416  29.468  1.00  0.00     0.049 A 
ATOM     46  N   UNL A   1      42.784  27.905  28.568  1.00  0.00    -0.248 NA
ATOM     47  C   UNL A   1      41.519  28.878  26.878  1.00  0.00     0.031 C 
ATOM     48  C   UNL A   1      38.063  28.247  29.747  1.00  0.00     0.029 A 
ATOM     49  N   UNL A   1      39.759  29.603  30.061  1.00  0.00    -0.354 N 
ATOM     50  C   UNL A   1      43.607  28.581  27.686  1.00  0.00     0.074 A 
ATOM     51  C   UNL A   1      42.802  28.812  26.518  1.00  0.00     0.031 C 
ATOM     52  C   UNL A   1      37.559  29.388  30.289  1.00  0.00     0.029 A 
ATOM     53  C   UNL A   1      38.663  30.294  30.558  1.00  0.00     0.049 A 
ATOM     54  H   UNL A   1      40.675  29.953  30.136  1.00  0.00     0.167 HD
ATOM     55  C   UNL A   1      44.740  29.202  28.121  1.00  0.00     0.034 A 
ATOM     56  C   UNL A   1      38.708  31.523  31.136  1.00  0.00     0.034 A 
ATOM     57  C   UNL A   1      44.951  28.916  29.525  1.00  0.00     0.049 A 
ATOM     58  C   UNL A   1      40.127  31.774  31.520  1.00  0.00     0.074 A 
ATOM     59  C   UNL A   1      45.185  27.770  30.257  1.00  0.00     0.029 A 
ATOM     60  N   UNL A   1      44.459  29.847  30.415  1.00  0.00    -0.354 N 
ATOM     61  N   UNL A   1      40.762  31.101  32.441  1.00  0.00    -0.248 NA
ATOM     62  C   UNL A   1      40.974  32.428  30.532  1.00  0.00     0.031 C 
ATOM     63  C   UNL A   1      44.421  27.928  31.450  1.00  0.00     0.029 A 
ATOM     64  C   UNL A   1      43.826  29.194  31.443  1.00  0.00     0.049 A 
ATOM     65  H   UNL A   1      44.547  30.824  30.327  1.00  0.00     0.167 HD
ATOM     66  C   UNL A   1      42.021  30.868  31.902  1.00  0.00     0.074 A 
ATOM     67  C   UNL A   1      42.119  31.781  30.762  1.00  0.00     0.031 C 
ATOM     68  C   UNL A   1      42.738  29.752  32.233  1.00  0.00     0.034 A 
BRANCH  55  69
ATOM     69  C   UNL A   1      45.405  30.360  27.419  1.00  0.00     0.023 A 
ATOM     70  C   UNL A   1      44.710  31.411  26.794  1.00  0.00     0.031 A 
ATOM     71  C   UNL A   1      46.802  30.516  27.500  1.00  0.00     0.131 A 
ATOM     72  C   UNL A   1      45.367  32.534  26.280  1.00  0.00     0.055 A 
ATOM     73  C   UNL A   1      47.456  31.667  27.045  1.00  0.00     0.041 A 
ATOM     74  F   UNL A   1      47.571  29.572  28.062  1.00  0.00    -0.206 F 
ATOM     75  C   UNL A   1      46.738  32.686  26.431  1.00  0.00     0.022 A 
BRANCH  72  76
ATOM     76  S   UNL A   1      44.429  33.819  25.405  1.00  0.00     0.124 S 
ATOM     77  O   UNL A   1      43.582  33.026  24.522  1.00  0.00    -0.237 OA
ATOM     78  O   UNL A   1      43.747  34.488  26.509  1.00  0.00    -0.237 OA
ATOM     79  O   UNL A   1      45.465  34.613  24.749  1.00  0.00    -0.744 OA
ENDBRANCH  72  76
ENDBRANCH  55  69
BRANCH  56  80
ATOM     80  C   UNL A   1      37.783  32.664  30.913  1.00  0.00     0.023 A 
ATOM     81  C   UNL A   1      37.029  33.164  31.992  1.00  0.00     0.031 A 
ATOM     82  C   UNL A   1      37.352  32.997  29.615  1.00  0.00     0.131 A 
ATOM     83  C   UNL A   1      35.851  33.889  31.756  1.00  0.00     0.055 A 
ATOM     84  C   UNL A   1      36.194  33.753  29.384  1.00  0.00     0.041 A 
ATOM     85  F   UNL A   1      37.996  32.515  28.540  1.00  0.00    -0.206 F 
ATOM     86  C   UNL A   1      35.425  34.184  30.459  1.00  0.00     0.022 A 
BRANCH  83  87
ATOM     87  S   UNL A   1      34.743  34.321  33.128  1.00  0.00     0.124 S 
ATOM     88  O   UNL A   1      35.294  35.598  33.578  1.00  0.00    -0.237 OA
ATOM     89  O   UNL A   1      33.453  34.404  32.449  1.00  0.00    -0.237 OA
ATOM     90  O   UNL A   1      34.896  33.207  34.055  1.00  0.00    -0.744 OA
ENDBRANCH  83  87
ENDBRANCH  56  80
BRANCH  68  91
ATOM     91  C   UNL A   1      42.265  28.900  33.397  1.00  0.00     0.023 A 
ATOM     92  C   UNL A   1      43.050  28.943  34.561  1.00  0.00     0.031 A 
ATOM     93  C   UNL A   1      41.261  27.913  33.333  1.00  0.00     0.131 A 
ATOM     94  C   UNL A   1      42.880  27.991  35.572  1.00  0.00     0.055 A 
ATOM     95  C   UNL A   1      41.041  27.009  34.382  1.00  0.00     0.041 A 
ATOM     96  F   UNL A   1      40.523  27.732  32.232  1.00  0.00    -0.206 F 
ATOM     97  C   UNL A   1      41.869  27.031  35.500  1.00  0.00     0.022 A 
BRANCH  94  98
ATOM     98  S   UNL A   1      44.089  27.875  36.914  1.00  0.00     0.124 S 
ATOM     99  O   UNL A   1      44.044  29.217  37.487  1.00  0.00    -0.237 OA
ATOM    100  O   UNL A   1      43.524  26.816  37.749  1.00  0.00    -0.237 OA
ATOM    101  O   UNL A   1      45.336  27.526  36.238  1.00  0.00    -0.744 OA
ENDBRANCH  94  98
ENDBRANCH  68  91
ENDBRANCH  42  43
ENDBRANCH  34  37
ENDBRANCH  32  33
ENDBRANCH  31  32
ENDBRANCH   1  31
TORSDOF 19
ENDMDL
MODEL 2
REMARK VINA RESULT:     -12.1      2.834      8.502
REMARK SMILES Cc1ccc(C)c(S(=O)(=O)N[C@H](CC2=c3ccccc3=NC2)C(=O)NCCCCNC(=O)c2ccc(-c3c4nc(c(-c5cc(S(=O)(=O)[O-])ccc5F)c5ccc([nH]5)c(-c5cc(S(=O)(=O)[O-])ccc5F)c5nc(c(-c6cc(S(=O)(=O)[O-])ccc6F)c6ccc3[nH]6)C=C5)C=C4)cc2)c1
REMARK SMILES IDX 27 1 26 2 25 3 23 4 24 5 12 7 11 8 8 10 9 11 10 12 7 13 1 14
REMARK SMILES IDX 2 15 3 16 96 17 4 18 5 19 6 20 13 21 14 22 15 23 22 24 16 25
REMARK SMILES IDX 20 26 21 27 17 28 19 29 18 30 28 31 29 32 30 33 31 34 32 36
REMARK SMILES IDX 33 37 34 38 95 39 35 40 94 41 36 42 37 43 38 44 88 45 39 46
REMARK SMILES IDX 93 47 87 48 89 49 40 50 92 51 86 52 85 53 41 55 73 56 53 57
REMARK SMILES IDX 72 58 54 59 57 60 71 61 90 62 55 63 56 64 70 66 91 67 58 68
REMARK SMILES IDX 42 69 43 70 51 71 44 72 50 73 52 74 49 75 45 76 46 77 47 78
REMARK SMILES IDX 48 79 74 80 75 81 83 82 76 83 82 84 84 85 81 86 77 87 78 88
REMARK SMILES IDX 79 89 80 90 59 91 60 92 68 93 61 94 67 95 69 96 66 97 62 98
REMARK SMILES IDX 63 99 64 100 65 101
REMARK H PARENT 25 6 11 9 30 35 89 54 57 65
REMARK Flexibility Score: inf
ROOT
ATOM      1  C   UNL A   1      33.100  30.867  26.673  1.00  0.00     0.023 C 
ENDROOT
BRANCH   1   2
ATOM      2  C   UNL A   1      31.880  29.998  26.247  1.00  0.00     0.116 C 
BRANCH   2   3
ATOM      3  N   UNL A   1      31.177  30.290  25.003  1.00  0.00    -0.355 N 
ATOM      4  C   UNL A   1      30.630  29.552  23.982  1.00  0.00     0.238 C 
ATOM      5  O   UNL A   1      30.289  30.191  22.982  1.00  0.00    -0.273 OA
ATOM      6  H   UNL A   1      31.068  31.258  24.860  1.00  0.00     0.163 HD
BRANCH   4   7
ATOM      7  C   UNL A   1      30.538  28.013  23.949  1.00  0.00     0.163 C 
BRANCH   7   8
ATOM      8  N   UNL A   1      31.416  27.416  25.020  1.00  0.00    -0.198 NA
ATOM      9  H   UNL A   1      32.176  26.929  24.545  1.00  0.00     0.142 HD
BRANCH   8  10
ATOM     10  S   UNL A   1      30.745  26.321  26.135  1.00  0.00     0.241 S 
ATOM     11  O   UNL A   1      29.513  25.827  25.591  1.00  0.00    -0.207 OA
ATOM     12  O   UNL A   1      30.809  27.023  27.406  1.00  0.00    -0.207 OA
BRANCH  10  13
ATOM     13  C   UNL A   1      31.906  24.979  26.252  1.00  0.00     0.085 A 
ATOM     14  C   UNL A   1      35.548  24.468  25.297  1.00  0.00     0.044 C 
ATOM     15  C   UNL A   1      34.162  24.188  25.790  1.00  0.00    -0.050 A 
ATOM     16  C   UNL A   1      33.758  22.894  26.117  1.00  0.00     0.004 A 
ATOM     17  C   UNL A   1      33.239  25.228  25.910  1.00  0.00     0.025 A 
ATOM     18  C   UNL A   1      32.449  22.650  26.543  1.00  0.00     0.005 A 
ATOM     19  C   UNL A   1      31.497  23.684  26.612  1.00  0.00    -0.031 A 
ATOM     20  C   UNL A   1      30.117  23.324  27.092  1.00  0.00     0.046 C 
ENDBRANCH  10  13
ENDBRANCH   8  10
ENDBRANCH   7   8
BRANCH   7  21
ATOM     21  C   UNL A   1      30.792  27.312  22.550  1.00  0.00     0.063 C 
BRANCH  21  22
ATOM     22  C   UNL A   1      31.758  26.155  22.373  1.00  0.00    -0.037 C 
ATOM     23  C   UNL A   1      31.741  24.836  22.588  1.00  0.00     0.001 A 
ATOM     24  C   UNL A   1      33.131  26.534  21.975  1.00  0.00     0.174 C 
ATOM     25  C   UNL A   1      30.837  23.854  23.093  1.00  0.00     0.010 A 
ATOM     26  C   UNL A   1      33.129  24.431  22.256  1.00  0.00     0.065 A 
ATOM     27  N   UNL A   1      33.994  25.354  22.002  1.00  0.00    -0.280 NA
ATOM     28  C   UNL A   1      31.243  22.569  23.158  1.00  0.00     0.001 A 
ATOM     29  C   UNL A   1      33.472  23.006  22.251  1.00  0.00     0.028 A 
ATOM     30  C   UNL A   1      32.547  22.139  22.677  1.00  0.00     0.002 A 
ENDBRANCH  21  22
ENDBRANCH   7  21
ENDBRANCH   4   7
ENDBRANCH   2   3
ENDBRANCH   1   2
BRANCH   1  31
ATOM     31  C   UNL A   1      32.954  32.071  27.629  1.00  0.00     0.023 C 
BRANCH  31  32
ATOM     32  C   UNL A   1      34.168  32.929  27.983  1.00  0.00     0.116 C 
BRANCH  32  33
ATOM     33  N   UNL A   1      34.351  33.131  29.424  1.00  0.00    -0.352 N 
ATOM     34  C   UNL A   1      35.175  32.518  30.355  1.00  0.00     0.251 C 
ATOM     35  H   UNL A   1      33.780  33.839  29.803  1.00  0.00     0.163 HD
ATOM     36  O   UNL A   1      35.033  32.761  31.550  1.00  0.00    -0.269 OA
BRANCH  34  37
ATOM     37  C   UNL A   1      36.242  31.599  29.908  1.00  0.00     0.039 A 
ATOM     38  C   UNL A   1      36.065  30.280  29.488  1.00  0.00     0.014 A 
ATOM     39  C   UNL A   1      37.537  31.988  30.158  1.00  0.00     0.014 A 
ATOM     40  C   UNL A   1      37.204  29.452  29.462  1.00  0.00     0.010 A 
ATOM     41  C   UNL A   1      38.547  31.391  29.507  1.00  0.00     0.010 A 
ATOM     42  C   UNL A   1      38.459  30.038  29.667  1.00  0.00    -0.014 A 
BRANCH  42  43
ATOM     43  C   UNL A   1      39.752  29.397  29.623  1.00  0.00     0.031 A 
ATOM     44  C   UNL A   1      40.107  28.846  30.948  1.00  0.00     0.074 A 
ATOM     45  C   UNL A   1      40.367  28.970  28.503  1.00  0.00     0.049 A 
ATOM     46  N   UNL A   1      40.642  29.531  31.901  1.00  0.00    -0.248 NA
ATOM     47  C   UNL A   1      39.489  27.579  31.391  1.00  0.00     0.031 C 
ATOM     48  C   UNL A   1      39.946  28.987  27.104  1.00  0.00     0.029 A 
ATOM     49  N   UNL A   1      41.580  28.371  28.432  1.00  0.00    -0.354 N 
ATOM     50  C   UNL A   1      40.688  28.658  32.972  1.00  0.00     0.074 A 
ATOM     51  C   UNL A   1      39.664  27.683  32.710  1.00  0.00     0.031 C 
ATOM     52  C   UNL A   1      40.807  28.250  26.352  1.00  0.00     0.029 A 
ATOM     53  C   UNL A   1      41.931  27.864  27.189  1.00  0.00     0.049 A 
ATOM     54  H   UNL A   1      42.175  28.300  29.212  1.00  0.00     0.167 HD
ATOM     55  C   UNL A   1      41.781  28.602  33.784  1.00  0.00     0.034 A 
ATOM     56  C   UNL A   1      43.073  27.180  26.915  1.00  0.00     0.034 A 
ATOM     57  C   UNL A   1      42.724  29.635  33.413  1.00  0.00     0.049 A 
ATOM     58  C   UNL A   1      44.024  27.454  28.031  1.00  0.00     0.074 A 
ATOM     59  C   UNL A   1      42.693  31.015  33.393  1.00  0.00     0.029 A 
ATOM     60  N   UNL A   1      43.725  29.261  32.541  1.00  0.00    -0.354 N 
ATOM     61  N   UNL A   1      44.550  28.624  28.268  1.00  0.00    -0.248 NA
ATOM     62  C   UNL A   1      43.988  26.544  29.168  1.00  0.00     0.031 C 
ATOM     63  C   UNL A   1      43.373  31.385  32.196  1.00  0.00     0.029 A 
ATOM     64  C   UNL A   1      43.870  30.232  31.581  1.00  0.00     0.049 A 
ATOM     65  H   UNL A   1      44.251  28.430  32.598  1.00  0.00     0.167 HD
ATOM     66  C   UNL A   1      44.491  28.764  29.649  1.00  0.00     0.074 A 
ATOM     67  C   UNL A   1      44.213  27.419  30.153  1.00  0.00     0.031 C 
ATOM     68  C   UNL A   1      44.362  29.994  30.232  1.00  0.00     0.034 A 
BRANCH  55  69
ATOM     69  C   UNL A   1      42.175  27.401  34.607  1.00  0.00     0.023 A 
ATOM     70  C   UNL A   1      42.929  26.319  34.118  1.00  0.00     0.031 A 
ATOM     71  C   UNL A   1      41.923  27.390  35.992  1.00  0.00     0.131 A 
ATOM     72  C   UNL A   1      43.391  25.296  34.954  1.00  0.00     0.055 A 
ATOM     73  C   UNL A   1      42.438  26.404  36.842  1.00  0.00     0.041 A 
ATOM     74  F   UNL A   1      41.203  28.364  36.571  1.00  0.00    -0.206 F 
ATOM     75  C   UNL A   1      43.178  25.348  36.324  1.00  0.00     0.022 A 
BRANCH  72  76
ATOM     76  S   UNL A   1      44.283  23.878  34.255  1.00  0.00     0.124 S 
ATOM     77  O   UNL A   1      43.192  22.971  33.917  1.00  0.00    -0.237 OA
ATOM     78  O   UNL A   1      44.972  24.493  33.123  1.00  0.00    -0.237 OA
ATOM     79  O   UNL A   1      45.154  23.448  35.347  1.00  0.00    -0.744 OA
ENDBRANCH  72  76
ENDBRANCH  55  69
BRANCH  56  80
ATOM     80  C   UNL A   1      43.217  25.948  26.097  1.00  0.00     0.023 A 
ATOM     81  C   UNL A   1      42.400  24.836  26.373  1.00  0.00     0.031 A 
ATOM     82  C   UNL A   1      44.378  25.723  25.334  1.00  0.00     0.131 A 
ATOM     83  C   UNL A   1      42.794  23.550  25.969  1.00  0.00     0.055 A 
ATOM     84  C   UNL A   1      44.750  24.443  24.900  1.00  0.00     0.041 A 
ATOM     85  F   UNL A   1      45.227  26.731  25.074  1.00  0.00    -0.206 F 
ATOM     86  C   UNL A   1      43.967  23.345  25.238  1.00  0.00     0.022 A 
BRANCH  83  87
ATOM     87  S   UNL A   1      41.883  22.085  26.532  1.00  0.00     0.124 S 
ATOM     88  O   UNL A   1      40.496  22.466  26.273  1.00  0.00    -0.237 OA
ATOM     89  O   UNL A   1      42.419  21.049  25.655  1.00  0.00    -0.237 OA
ATOM     90  O   UNL A   1      42.253  21.972  27.938  1.00  0.00    -0.744 OA
ENDBRANCH  83  87
ENDBRANCH  56  80
BRANCH  68  91
ATOM     91  C   UNL A   1      44.553  31.231  29.372  1.00  0.00     0.023 A 
ATOM     92  C   UNL A   1      45.869  31.704  29.243  1.00  0.00     0.031 A 
ATOM     93  C   UNL A   1      43.520  32.063  28.896  1.00  0.00     0.131 A 
ATOM     94  C   UNL A   1      46.122  32.981  28.731  1.00  0.00     0.055 A 
ATOM     95  C   UNL A   1      43.782  33.310  28.311  1.00  0.00     0.041 A 
ATOM     96  F   UNL A   1      42.230  31.744  29.057  1.00  0.00    -0.206 F 
ATOM     97  C   UNL A   1      45.088  33.784  28.247  1.00  0.00     0.022 A 
BRANCH  94  98
ATOM     98  S   UNL A   1      47.783  33.689  28.851  1.00  0.00     0.124 S 
ATOM     99  O   UNL A   1      47.867  34.043  30.266  1.00  0.00    -0.237 OA
ATOM    100  O   UNL A   1      48.627  32.571  28.433  1.00  0.00    -0.237 OA
ATOM    101  O   UNL A   1      47.755  34.818  27.926  1.00  0.00    -0.744 OA
ENDBRANCH  94  98
ENDBRANCH  68  91
ENDBRANCH  42  43
ENDBRANCH  34  37
ENDBRANCH  32  33
ENDBRANCH  31  32
ENDBRANCH   1  31
TORSDOF 19
ENDMDL
MODEL 3
REMARK VINA RESULT:     -11.9      3.021      7.981
REMARK SMILES Cc1ccc(C)c(S(=O)(=O)N[C@H](CC2=c3ccccc3=NC2)C(=O)NCCCCNC(=O)c2ccc(-c3c4nc(c(-c5cc(S(=O)(=O)[O-])ccc5F)c5ccc([nH]5)c(-c5cc(S(=O)(=O)[O-])ccc5F)c5nc(c(-c6cc(S(=O)(=O)[O-])ccc6F)c6ccc3[nH]6)C=C5)C=C4)cc2)c1
REMARK SMILES IDX 27 1 26 2 25 3 23 4 24 5 12 7 11 8 8 10 9 11 10 12 7 13 1 14
REMARK SMILES IDX 2 15 3 16 96 17 4 18 5 19 6 20 13 21 14 22 15 23 22 24 16 25
REMARK SMILES IDX 20 26 21 27 17 28 19 29 18 30 28 31 29 32 30 33 31 34 32 36
REMARK SMILES IDX 33 37 34 38 95 39 35 40 94 41 36 42 37 43 38 44 88 45 39 46
REMARK SMILES IDX 93 47 87 48 89 49 40 50 92 51 86 52 85 53 41 55 73 56 53 57
REMARK SMILES IDX 72 58 54 59 57 60 71 61 90 62 55 63 56 64 70 66 91 67 58 68
REMARK SMILES IDX 42 69 43 70 51 71 44 72 50 73 52 74 49 75 45 76 46 77 47 78
REMARK SMILES IDX 48 79 74 80 75 81 83 82 76 83 82 84 84 85 81 86 77 87 78 88
REMARK SMILES IDX 79 89 80 90 59 91 60 92 68 93 61 94 67 95 69 96 66 97 62 98
REMARK SMILES IDX 63 99 64 100 65 101
REMARK H PARENT 25 6 11 9 30 35 89 54 57 65
REMARK Flexibility Score: inf
ROOT
ATOM      1  C   UNL A   1      36.495  23.328  26.168  1.00  0.00     0.023 C 
ENDROOT
BRANCH   1   2
ATOM      2  C   UNL A   1      35.657  24.466  25.513  1.00  0.00     0.116 C 
BRANCH   2   3
ATOM      3  N   UNL A   1      35.129  24.296  24.163  1.00  0.00    -0.355 N 
ATOM      4  C   UNL A   1      33.919  23.950  23.613  1.00  0.00     0.238 C 
ATOM      5  O   UNL A   1      33.929  23.718  22.401  1.00  0.00    -0.273 OA
ATOM      6  H   UNL A   1      35.811  24.474  23.476  1.00  0.00     0.163 HD
BRANCH   4   7
ATOM      7  C   UNL A   1      32.619  23.711  24.407  1.00  0.00     0.163 C 
BRANCH   7   8
ATOM      8  N   UNL A   1      32.220  24.964  25.144  1.00  0.00    -0.198 NA
ATOM      9  H   UNL A   1      32.452  24.818  26.126  1.00  0.00     0.142 HD
BRANCH   8  10
ATOM     10  S   UNL A   1      30.602  25.486  25.087  1.00  0.00     0.241 S 
ATOM     11  O   UNL A   1      29.996  25.202  26.356  1.00  0.00    -0.207 OA
ATOM     12  O   UNL A   1      30.095  24.937  23.840  1.00  0.00    -0.207 OA
BRANCH  10  13
ATOM     13  C   UNL A   1      30.672  27.248  24.860  1.00  0.00     0.085 A 
ATOM     14  C   UNL A   1      29.575  29.666  22.142  1.00  0.00     0.044 C 
ATOM     15  C   UNL A   1      30.186  29.138  23.403  1.00  0.00    -0.050 A 
ATOM     16  C   UNL A   1      30.948  29.956  24.236  1.00  0.00     0.004 A 
ATOM     17  C   UNL A   1      30.015  27.797  23.753  1.00  0.00     0.025 A 
ATOM     18  C   UNL A   1      31.537  29.434  25.392  1.00  0.00     0.005 A 
ATOM     19  C   UNL A   1      31.417  28.071  25.722  1.00  0.00    -0.031 A 
ATOM     20  C   UNL A   1      32.078  27.604  26.991  1.00  0.00     0.046 C 
ENDBRANCH  10  13
ENDBRANCH   8  10
ENDBRANCH   7   8
BRANCH   7  21
ATOM     21  C   UNL A   1      32.593  22.452  25.372  1.00  0.00     0.063 C 
BRANCH  21  22
ATOM     22  C   UNL A   1      32.638  21.024  24.861  1.00  0.00    -0.037 C 
ATOM     23  C   UNL A   1      32.424  20.403  23.697  1.00  0.00     0.001 A 
ATOM     24  C   UNL A   1      32.851  19.989  25.897  1.00  0.00     0.174 C 
ATOM     25  C   UNL A   1      32.042  20.745  22.365  1.00  0.00     0.010 A 
ATOM     26  C   UNL A   1      32.568  18.970  24.057  1.00  0.00     0.065 A 
ATOM     27  N   UNL A   1      32.708  18.662  25.302  1.00  0.00    -0.280 NA
ATOM     28  C   UNL A   1      31.921  19.761  21.451  1.00  0.00     0.001 A 
ATOM     29  C   UNL A   1      32.525  17.962  22.994  1.00  0.00     0.028 A 
ATOM     30  C   UNL A   1      32.223  18.371  21.757  1.00  0.00     0.002 A 
ENDBRANCH  21  22
ENDBRANCH   7  21
ENDBRANCH   4   7
ENDBRANCH   2   3
ENDBRANCH   1   2
BRANCH   1  31
ATOM     31  C   UNL A   1      36.462  21.878  25.639  1.00  0.00     0.023 C 
BRANCH  31  32
ATOM     32  C   UNL A   1      37.521  21.390  24.651  1.00  0.00     0.116 C 
BRANCH  32  33
ATOM     33  N   UNL A   1      38.324  20.268  25.148  1.00  0.00    -0.352 N 
ATOM     34  C   UNL A   1      39.593  20.204  25.703  1.00  0.00     0.251 C 
ATOM     35  H   UNL A   1      37.876  19.394  25.075  1.00  0.00     0.163 HD
ATOM     36  O   UNL A   1      40.116  19.111  25.903  1.00  0.00    -0.269 OA
BRANCH  34  37
ATOM     37  C   UNL A   1      40.300  21.445  26.083  1.00  0.00     0.039 A 
ATOM     38  C   UNL A   1      41.586  21.811  25.684  1.00  0.00     0.014 A 
ATOM     39  C   UNL A   1      39.749  22.179  27.107  1.00  0.00     0.014 A 
ATOM     40  C   UNL A   1      42.231  22.818  26.428  1.00  0.00     0.010 A 
ATOM     41  C   UNL A   1      40.128  23.454  27.287  1.00  0.00     0.010 A 
ATOM     42  C   UNL A   1      41.488  23.518  27.386  1.00  0.00    -0.014 A 
BRANCH  42  43
ATOM     43  C   UNL A   1      41.924  24.619  28.212  1.00  0.00     0.031 A 
ATOM     44  C   UNL A   1      40.904  25.688  28.240  1.00  0.00     0.074 A 
ATOM     45  C   UNL A   1      42.883  24.546  29.155  1.00  0.00     0.049 A 
ATOM     46  N   UNL A   1      40.784  26.603  27.339  1.00  0.00    -0.248 NA
ATOM     47  C   UNL A   1      39.706  25.520  29.090  1.00  0.00     0.031 C 
ATOM     48  C   UNL A   1      43.693  23.424  29.625  1.00  0.00     0.029 A 
ATOM     49  N   UNL A   1      43.316  25.561  29.940  1.00  0.00    -0.354 N 
ATOM     50  C   UNL A   1      39.647  27.301  27.702  1.00  0.00     0.074 A 
ATOM     51  C   UNL A   1      38.879  26.384  28.499  1.00  0.00     0.031 C 
ATOM     52  C   UNL A   1      44.378  23.783  30.743  1.00  0.00     0.029 A 
ATOM     53  C   UNL A   1      44.191  25.208  30.957  1.00  0.00     0.049 A 
ATOM     54  H   UNL A   1      43.028  26.491  29.798  1.00  0.00     0.167 HD
ATOM     55  C   UNL A   1      39.605  28.661  27.625  1.00  0.00     0.034 A 
ATOM     56  C   UNL A   1      44.698  26.060  31.887  1.00  0.00     0.034 A 
ATOM     57  C   UNL A   1      40.821  29.158  27.015  1.00  0.00     0.049 A 
ATOM     58  C   UNL A   1      44.501  27.443  31.366  1.00  0.00     0.074 A 
ATOM     59  C   UNL A   1      41.416  29.012  25.778  1.00  0.00     0.029 A 
ATOM     60  N   UNL A   1      41.824  29.538  27.881  1.00  0.00    -0.354 N 
ATOM     61  N   UNL A   1      45.111  27.918  30.314  1.00  0.00    -0.248 NA
ATOM     62  C   UNL A   1      43.257  28.113  31.720  1.00  0.00     0.031 C 
ATOM     63  C   UNL A   1      42.810  28.887  26.048  1.00  0.00     0.029 A 
ATOM     64  C   UNL A   1      43.022  29.052  27.420  1.00  0.00     0.049 A 
ATOM     65  H   UNL A   1      41.701  30.072  28.699  1.00  0.00     0.167 HD
ATOM     66  C   UNL A   1      44.129  28.619  29.624  1.00  0.00     0.074 A 
ATOM     67  C   UNL A   1      43.033  28.773  30.581  1.00  0.00     0.031 C 
ATOM     68  C   UNL A   1      44.166  28.736  28.263  1.00  0.00     0.034 A 
BRANCH  55  69
ATOM     69  C   UNL A   1      38.691  29.538  28.445  1.00  0.00     0.023 A 
ATOM     70  C   UNL A   1      37.526  30.149  27.948  1.00  0.00     0.031 A 
ATOM     71  C   UNL A   1      38.897  29.657  29.832  1.00  0.00     0.131 A 
ATOM     72  C   UNL A   1      36.635  30.836  28.778  1.00  0.00     0.055 A 
ATOM     73  C   UNL A   1      37.975  30.287  30.676  1.00  0.00     0.041 A 
ATOM     74  F   UNL A   1      39.981  29.126  30.418  1.00  0.00    -0.206 F 
ATOM     75  C   UNL A   1      36.834  30.882  30.151  1.00  0.00     0.022 A 
BRANCH  72  76
ATOM     76  S   UNL A   1      35.192  31.681  28.070  1.00  0.00     0.124 S 
ATOM     77  O   UNL A   1      34.393  31.961  29.257  1.00  0.00    -0.237 OA
ATOM     78  O   UNL A   1      35.813  32.839  27.434  1.00  0.00    -0.237 OA
ATOM     79  O   UNL A   1      34.636  30.695  27.147  1.00  0.00    -0.744 OA
ENDBRANCH  72  76
ENDBRANCH  55  69
BRANCH  56  80
ATOM     80  C   UNL A   1      44.840  25.826  33.347  1.00  0.00     0.023 A 
ATOM     81  C   UNL A   1      43.708  25.931  34.178  1.00  0.00     0.031 A 
ATOM     82  C   UNL A   1      46.103  25.889  33.966  1.00  0.00     0.131 A 
ATOM     83  C   UNL A   1      43.859  26.175  35.552  1.00  0.00     0.055 A 
ATOM     84  C   UNL A   1      46.249  26.097  35.345  1.00  0.00     0.041 A 
ATOM     85  F   UNL A   1      47.225  25.844  33.229  1.00  0.00    -0.206 F 
ATOM     86  C   UNL A   1      45.122  26.264  36.141  1.00  0.00     0.022 A 
BRANCH  83  87
ATOM     87  S   UNL A   1      42.416  26.560  36.584  1.00  0.00     0.124 S 
ATOM     88  O   UNL A   1      41.320  25.979  35.811  1.00  0.00    -0.237 OA
ATOM     89  O   UNL A   1      42.745  25.860  37.822  1.00  0.00    -0.237 OA
ATOM     90  O   UNL A   1      42.429  28.016  36.662  1.00  0.00    -0.744 OA
ENDBRANCH  83  87
ENDBRANCH  56  80
BRANCH  68  91
ATOM     91  C   UNL A   1      45.430  28.322  27.530  1.00  0.00     0.023 A 
ATOM     92  C   UNL A   1      45.439  27.028  26.984  1.00  0.00     0.031 A 
ATOM     93  C   UNL A   1      46.655  29.020  27.553  1.00  0.00     0.131 A 
ATOM     94  C   UNL A   1      46.635  26.443  26.555  1.00  0.00     0.055 A 
ATOM     95  C   UNL A   1      47.837  28.460  27.049  1.00  0.00     0.041 A 
ATOM     96  F   UNL A   1      46.769  30.219  28.135  1.00  0.00    -0.206 F 
ATOM     97  C   UNL A   1      47.835  27.155  26.568  1.00  0.00     0.022 A 
BRANCH  94  98
ATOM     98  S   UNL A   1      46.679  24.681  26.139  1.00  0.00     0.124 S 
ATOM     99  O   UNL A   1      46.806  24.710  24.685  1.00  0.00    -0.237 OA
ATOM    100  O   UNL A   1      47.862  24.222  26.864  1.00  0.00    -0.237 OA
ATOM    101  O   UNL A   1      45.409  24.167  26.645  1.00  0.00    -0.744 OA
ENDBRANCH  94  98
ENDBRANCH  68  91
ENDBRANCH  42  43
ENDBRANCH  34  37
ENDBRANCH  32  33
ENDBRANCH  31  32
ENDBRANCH   1  31
TORSDOF 19
ENDMDL
