MODEL 1
REMARK VINA RESULT:     -11.4      0.000      0.000
REMARK SMILES CSCC[C@@H](CO)n1ccnc1-c1ccccc1C(=O)NCCCCNC(=O)c1ccc(-c2c3nc(c(-c4cc(S(=O)(=O)[O-])ccc4F)c4ccc([nH]4)c(-c4cc(S(=O)(=O)[O-])ccc4F)c4nc(c(-c5cc(S(=O)(=O)[O-])ccc5F)c5ccc2[nH]5)C=C4)C=C3)cc1
REMARK SMILES IDX 22 1 21 2 19 3 20 4 18 6 13 7 14 8 15 9 17 10 16 11 12 12
REMARK SMILES IDX 8 13 9 14 10 15 11 16 5 17 4 18 3 19 2 20 1 21 6 22 7 23
REMARK SMILES IDX 23 25 24 26 25 27 26 28 27 29 28 31 29 32 30 33 91 34 31 35
REMARK SMILES IDX 90 36 32 37 33 38 34 39 84 40 35 41 89 42 83 43 85 44 36 45
REMARK SMILES IDX 88 46 82 47 81 48 37 50 69 51 49 52 68 53 50 54 53 55 67 56
REMARK SMILES IDX 86 57 51 58 52 59 66 61 87 62 54 63 38 64 39 65 47 66 40 67
REMARK SMILES IDX 46 68 48 69 45 70 41 71 42 72 43 73 44 74 70 75 71 76 79 77
REMARK SMILES IDX 72 78 78 79 80 80 77 81 73 82 74 83 75 84 76 85 55 86 56 87
REMARK SMILES IDX 64 88 57 89 63 90 65 91 62 92 58 93 59 94 60 95 61 96
REMARK H PARENT 21 5 7 24 26 30 85 49 53 60
REMARK Flexibility Score: inf
ROOT
ATOM      1  C   UNL A   1      34.340  28.586  26.881  1.00  0.00     0.116 C 
ENDROOT
BRANCH   1   2
ATOM      2  N   UNL A   1      33.128  28.380  27.631  1.00  0.00    -0.352 N 
ATOM      3  C   UNL A   1      31.858  28.054  27.207  1.00  0.00     0.252 C 
ATOM      4  O   UNL A   1      31.043  27.829  28.112  1.00  0.00    -0.269 OA
ATOM      5  H   UNL A   1      33.223  28.489  28.605  1.00  0.00     0.163 HD
BRANCH   3   6
ATOM      6  C   UNL A   1      31.349  27.971  25.778  1.00  0.00     0.050 A 
ATOM      7  C   UNL A   1      30.835  26.880  25.046  1.00  0.00     0.030 A 
ATOM      8  C   UNL A   1      30.456  27.068  23.689  1.00  0.00     0.013 A 
ATOM      9  C   UNL A   1      30.467  28.317  23.080  1.00  0.00     0.001 A 
ATOM     10  C   UNL A   1      31.292  29.242  25.140  1.00  0.00     0.014 A 
ATOM     11  C   UNL A   1      30.851  29.417  23.822  1.00  0.00     0.001 A 
BRANCH   7  12
ATOM     12  C   UNL A   1      30.679  25.498  25.490  1.00  0.00     0.141 A 
ATOM     13  N   UNL A   1      31.434  24.375  25.145  1.00  0.00    -0.326 N 
ATOM     14  C   UNL A   1      30.950  23.348  25.933  1.00  0.00     0.108 A 
ATOM     15  C   UNL A   1      29.945  23.869  26.699  1.00  0.00     0.131 A 
ATOM     16  N   UNL A   1      29.802  25.193  26.437  1.00  0.00    -0.237 NA
BRANCH  13  17
ATOM     17  C   UNL A   1      32.636  24.289  24.288  1.00  0.00     0.115 C 
BRANCH  17  18
ATOM     18  C   UNL A   1      33.494  23.020  24.546  1.00  0.00     0.039 C 
BRANCH  18  19
ATOM     19  C   UNL A   1      34.912  23.232  25.086  1.00  0.00     0.071 C 
BRANCH  19  20
ATOM     20  S   UNL A   1      35.531  21.803  26.025  1.00  0.00    -0.165 SA
ATOM     21  C   UNL A   1      34.211  21.580  27.233  1.00  0.00     0.085 C 
ENDBRANCH  19  20
ENDBRANCH  18  19
ENDBRANCH  17  18
BRANCH  17  22
ATOM     22  C   UNL A   1      32.378  24.354  22.769  1.00  0.00     0.181 C 
BRANCH  22  23
ATOM     23  O   UNL A   1      32.357  23.048  22.202  1.00  0.00    -0.394 OA
ATOM     24  H   UNL A   1      31.980  23.088  21.309  1.00  0.00     0.210 HD
ENDBRANCH  22  23
ENDBRANCH  17  22
ENDBRANCH  13  17
ENDBRANCH   7  12
ENDBRANCH   3   6
ENDBRANCH   1   2
BRANCH   1  25
ATOM     25  C   UNL A   1      35.049  29.932  27.026  1.00  0.00     0.023 C 
BRANCH  25  26
ATOM     26  C   UNL A   1      34.189  31.125  27.476  1.00  0.00     0.023 C 
BRANCH  26  27
ATOM     27  C   UNL A   1      34.930  32.359  28.012  1.00  0.00     0.116 C 
BRANCH  27  28
ATOM     28  N   UNL A   1      34.778  32.592  29.446  1.00  0.00    -0.352 N 
ATOM     29  C   UNL A   1      35.516  32.051  30.495  1.00  0.00     0.251 C 
ATOM     30  H   UNL A   1      34.060  33.213  29.705  1.00  0.00     0.163 HD
ATOM     31  O   UNL A   1      35.138  32.188  31.645  1.00  0.00    -0.269 OA
BRANCH  29  32
ATOM     32  C   UNL A   1      36.775  31.316  30.205  1.00  0.00     0.039 A 
ATOM     33  C   UNL A   1      37.997  31.975  30.055  1.00  0.00     0.014 A 
ATOM     34  C   UNL A   1      36.725  29.934  30.069  1.00  0.00     0.014 A 
ATOM     35  C   UNL A   1      39.169  31.225  29.880  1.00  0.00     0.010 A 
ATOM     36  C   UNL A   1      37.883  29.190  29.949  1.00  0.00     0.010 A 
ATOM     37  C   UNL A   1      39.114  29.823  29.855  1.00  0.00    -0.014 A 
BRANCH  37  38
ATOM     38  C   UNL A   1      40.332  29.008  29.980  1.00  0.00     0.031 A 
ATOM     39  C   UNL A   1      40.711  28.688  31.389  1.00  0.00     0.074 A 
ATOM     40  C   UNL A   1      40.919  28.321  28.973  1.00  0.00     0.049 A 
ATOM     41  N   UNL A   1      41.793  29.007  32.016  1.00  0.00    -0.248 NA
ATOM     42  C   UNL A   1      39.710  28.022  32.240  1.00  0.00     0.031 C 
ATOM     43  C   UNL A   1      40.482  28.215  27.578  1.00  0.00     0.029 A 
ATOM     44  N   UNL A   1      41.979  27.459  29.021  1.00  0.00    -0.354 N 
ATOM     45  C   UNL A   1      41.711  28.409  33.273  1.00  0.00     0.074 A 
ATOM     46  C   UNL A   1      40.346  27.974  33.411  1.00  0.00     0.031 C 
ATOM     47  C   UNL A   1      41.120  27.183  26.981  1.00  0.00     0.029 A 
ATOM     48  C   UNL A   1      42.121  26.652  27.893  1.00  0.00     0.049 A 
ATOM     49  H   UNL A   1      42.594  27.412  29.788  1.00  0.00     0.167 HD
ATOM     50  C   UNL A   1      42.827  28.142  34.009  1.00  0.00     0.034 A 
ATOM     51  C   UNL A   1      42.969  25.601  27.721  1.00  0.00     0.034 A 
ATOM     52  C   UNL A   1      43.963  28.887  33.512  1.00  0.00     0.049 A 
ATOM     53  C   UNL A   1      44.069  25.764  28.701  1.00  0.00     0.074 A 
ATOM     54  C   UNL A   1      44.225  30.230  33.308  1.00  0.00     0.029 A 
ATOM     55  N   UNL A   1      44.914  28.218  32.773  1.00  0.00    -0.354 N 
ATOM     56  N   UNL A   1      44.922  26.750  28.665  1.00  0.00    -0.248 NA
ATOM     57  C   UNL A   1      43.947  25.099  29.989  1.00  0.00     0.031 C 
ATOM     58  C   UNL A   1      44.934  30.277  32.070  1.00  0.00     0.029 A 
ATOM     59  C   UNL A   1      45.136  28.964  31.642  1.00  0.00     0.049 A 
ATOM     60  H   UNL A   1      45.351  27.368  33.010  1.00  0.00     0.167 HD
ATOM     61  C   UNL A   1      45.106  27.113  29.989  1.00  0.00     0.074 A 
ATOM     62  C   UNL A   1      44.568  25.996  30.763  1.00  0.00     0.031 C 
ATOM     63  C   UNL A   1      45.417  28.398  30.337  1.00  0.00     0.034 A 
BRANCH  50  64
ATOM     64  C   UNL A   1      42.999  26.964  34.951  1.00  0.00     0.023 A 
ATOM     65  C   UNL A   1      43.762  25.874  34.482  1.00  0.00     0.031 A 
ATOM     66  C   UNL A   1      42.244  26.719  36.120  1.00  0.00     0.131 A 
ATOM     67  C   UNL A   1      43.652  24.602  35.070  1.00  0.00     0.055 A 
ATOM     68  C   UNL A   1      42.198  25.468  36.746  1.00  0.00     0.041 A 
ATOM     69  F   UNL A   1      41.442  27.634  36.672  1.00  0.00    -0.206 F 
ATOM     70  C   UNL A   1      42.872  24.390  36.201  1.00  0.00     0.022 A 
BRANCH  67  71
ATOM     71  S   UNL A   1      44.383  23.191  34.199  1.00  0.00     0.124 S 
ATOM     72  O   UNL A   1      43.369  22.919  33.186  1.00  0.00    -0.237 OA
ATOM     73  O   UNL A   1      45.640  23.755  33.720  1.00  0.00    -0.237 OA
ATOM     74  O   UNL A   1      44.510  22.179  35.245  1.00  0.00    -0.744 OA
ENDBRANCH  67  71
ENDBRANCH  50  64
BRANCH  51  75
ATOM     75  C   UNL A   1      42.723  24.341  26.963  1.00  0.00     0.023 A 
ATOM     76  C   UNL A   1      43.679  23.753  26.104  1.00  0.00     0.031 A 
ATOM     77  C   UNL A   1      41.590  23.557  27.276  1.00  0.00     0.131 A 
ATOM     78  C   UNL A   1      43.475  22.446  25.595  1.00  0.00     0.055 A 
ATOM     79  C   UNL A   1      41.390  22.272  26.766  1.00  0.00     0.041 A 
ATOM     80  F   UNL A   1      40.678  23.979  28.168  1.00  0.00    -0.206 F 
ATOM     81  C   UNL A   1      42.337  21.707  25.929  1.00  0.00     0.022 A 
BRANCH  78  82
ATOM     82  S   UNL A   1      44.744  21.635  24.565  1.00  0.00     0.124 S 
ATOM     83  O   UNL A   1      45.972  21.927  25.296  1.00  0.00    -0.237 OA
ATOM     84  O   UNL A   1      44.306  20.245  24.560  1.00  0.00    -0.237 OA
ATOM     85  O   UNL A   1      44.623  22.316  23.275  1.00  0.00    -0.744 OA
ENDBRANCH  78  82
ENDBRANCH  51  75
BRANCH  63  86
ATOM     86  C   UNL A   1      45.860  29.360  29.254  1.00  0.00     0.023 A 
ATOM     87  C   UNL A   1      44.991  30.113  28.431  1.00  0.00     0.031 A 
ATOM     88  C   UNL A   1      47.240  29.615  29.146  1.00  0.00     0.131 A 
ATOM     89  C   UNL A   1      45.516  31.067  27.536  1.00  0.00     0.055 A 
ATOM     90  C   UNL A   1      47.754  30.576  28.276  1.00  0.00     0.041 A 
ATOM     91  F   UNL A   1      48.118  28.953  29.919  1.00  0.00    -0.206 F 
ATOM     92  C   UNL A   1      46.893  31.302  27.463  1.00  0.00     0.022 A 
BRANCH  89  93
ATOM     93  S   UNL A   1      44.415  32.016  26.437  1.00  0.00     0.124 S 
ATOM     94  O   UNL A   1      43.945  33.107  27.282  1.00  0.00    -0.237 OA
ATOM     95  O   UNL A   1      45.306  32.390  25.343  1.00  0.00    -0.237 OA
ATOM     96  O   UNL A   1      43.381  31.044  26.071  1.00  0.00    -0.744 OA
ENDBRANCH  89  93
ENDBRANCH  63  86
ENDBRANCH  37  38
ENDBRANCH  29  32
ENDBRANCH  27  28
ENDBRANCH  26  27
ENDBRANCH  25  26
ENDBRANCH   1  25
TORSDOF 21
ENDMDL
MODEL 2
REMARK VINA RESULT:     -11.0      1.878      2.657
REMARK SMILES CSCC[C@@H](CO)n1ccnc1-c1ccccc1C(=O)NCCCCNC(=O)c1ccc(-c2c3nc(c(-c4cc(S(=O)(=O)[O-])ccc4F)c4ccc([nH]4)c(-c4cc(S(=O)(=O)[O-])ccc4F)c4nc(c(-c5cc(S(=O)(=O)[O-])ccc5F)c5ccc2[nH]5)C=C4)C=C3)cc1
REMARK SMILES IDX 22 1 21 2 19 3 20 4 18 6 13 7 14 8 15 9 17 10 16 11 12 12
REMARK SMILES IDX 8 13 9 14 10 15 11 16 5 17 4 18 3 19 2 20 1 21 6 22 7 23
REMARK SMILES IDX 23 25 24 26 25 27 26 28 27 29 28 31 29 32 30 33 91 34 31 35
REMARK SMILES IDX 90 36 32 37 33 38 34 39 84 40 35 41 89 42 83 43 85 44 36 45
REMARK SMILES IDX 88 46 82 47 81 48 37 50 69 51 49 52 68 53 50 54 53 55 67 56
REMARK SMILES IDX 86 57 51 58 52 59 66 61 87 62 54 63 38 64 39 65 47 66 40 67
REMARK SMILES IDX 46 68 48 69 45 70 41 71 42 72 43 73 44 74 70 75 71 76 79 77
REMARK SMILES IDX 72 78 78 79 80 80 77 81 73 82 74 83 75 84 76 85 55 86 56 87
REMARK SMILES IDX 64 88 57 89 63 90 65 91 62 92 58 93 59 94 60 95 61 96
REMARK H PARENT 21 5 7 24 26 30 85 49 53 60
REMARK Flexibility Score: inf
ROOT
ATOM      1  C   UNL A   1      31.344  27.963  26.252  1.00  0.00     0.116 C 
ENDROOT
BRANCH   1   2
ATOM      2  N   UNL A   1      31.144  26.592  26.646  1.00  0.00    -0.352 N 
ATOM      3  C   UNL A   1      31.496  25.419  26.014  1.00  0.00     0.252 C 
ATOM      4  O   UNL A   1      31.289  24.388  26.667  1.00  0.00    -0.269 OA
ATOM      5  H   UNL A   1      30.681  26.475  27.506  1.00  0.00     0.163 HD
BRANCH   3   6
ATOM      6  C   UNL A   1      32.074  25.253  24.619  1.00  0.00     0.050 A 
ATOM      7  C   UNL A   1      33.225  24.568  24.174  1.00  0.00     0.030 A 
ATOM      8  C   UNL A   1      33.565  24.600  22.795  1.00  0.00     0.013 A 
ATOM      9  C   UNL A   1      32.745  25.190  21.840  1.00  0.00     0.001 A 
ATOM     10  C   UNL A   1      31.233  25.796  23.608  1.00  0.00     0.014 A 
ATOM     11  C   UNL A   1      31.554  25.759  22.245  1.00  0.00     0.001 A 
BRANCH   7  12
ATOM     12  C   UNL A   1      34.198  23.837  24.980  1.00  0.00     0.141 A 
ATOM     13  N   UNL A   1      34.300  22.461  25.197  1.00  0.00    -0.326 N 
ATOM     14  C   UNL A   1      35.459  22.287  25.929  1.00  0.00     0.108 A 
ATOM     15  C   UNL A   1      35.998  23.528  26.128  1.00  0.00     0.131 A 
ATOM     16  N   UNL A   1      35.230  24.468  25.523  1.00  0.00    -0.237 NA
BRANCH  13  17
ATOM     17  C   UNL A   1      33.492  21.365  24.619  1.00  0.00     0.115 C 
BRANCH  17  18
ATOM     18  C   UNL A   1      33.934  19.953  25.089  1.00  0.00     0.039 C 
BRANCH  18  19
ATOM     19  C   UNL A   1      33.409  18.753  24.294  1.00  0.00     0.071 C 
BRANCH  19  20
ATOM     20  S   UNL A   1      32.910  17.365  25.357  1.00  0.00    -0.165 SA
ATOM     21  C   UNL A   1      33.275  15.958  24.290  1.00  0.00     0.085 C 
ENDBRANCH  19  20
ENDBRANCH  18  19
ENDBRANCH  17  18
BRANCH  17  22
ATOM     22  C   UNL A   1      31.972  21.461  24.856  1.00  0.00     0.181 C 
BRANCH  22  23
ATOM     23  O   UNL A   1      31.686  21.657  26.237  1.00  0.00    -0.394 OA
ATOM     24  H   UNL A   1      30.734  21.548  26.389  1.00  0.00     0.210 HD
ENDBRANCH  22  23
ENDBRANCH  17  22
ENDBRANCH  13  17
ENDBRANCH   7  12
ENDBRANCH   3   6
ENDBRANCH   1   2
BRANCH   1  25
ATOM     25  C   UNL A   1      32.164  28.859  27.180  1.00  0.00     0.023 C 
BRANCH  25  26
ATOM     26  C   UNL A   1      33.680  28.606  27.231  1.00  0.00     0.023 C 
BRANCH  26  27
ATOM     27  C   UNL A   1      34.592  29.696  26.650  1.00  0.00     0.116 C 
BRANCH  27  28
ATOM     28  N   UNL A   1      34.421  31.021  27.243  1.00  0.00    -0.352 N 
ATOM     29  C   UNL A   1      35.084  31.572  28.336  1.00  0.00     0.251 C 
ATOM     30  H   UNL A   1      33.751  31.598  26.814  1.00  0.00     0.163 HD
ATOM     31  O   UNL A   1      34.688  32.612  28.831  1.00  0.00    -0.269 OA
BRANCH  29  32
ATOM     32  C   UNL A   1      36.285  30.891  28.888  1.00  0.00     0.039 A 
ATOM     33  C   UNL A   1      36.233  29.585  29.380  1.00  0.00     0.014 A 
ATOM     34  C   UNL A   1      37.488  31.585  28.923  1.00  0.00     0.014 A 
ATOM     35  C   UNL A   1      37.415  28.958  29.799  1.00  0.00     0.010 A 
ATOM     36  C   UNL A   1      38.662  30.954  29.285  1.00  0.00     0.010 A 
ATOM     37  C   UNL A   1      38.641  29.638  29.725  1.00  0.00    -0.014 A 
BRANCH  37  38
ATOM     38  C   UNL A   1      39.920  28.924  29.861  1.00  0.00     0.031 A 
ATOM     39  C   UNL A   1      40.299  28.616  31.273  1.00  0.00     0.074 A 
ATOM     40  C   UNL A   1      40.579  28.302  28.856  1.00  0.00     0.049 A 
ATOM     41  N   UNL A   1      41.340  29.014  31.924  1.00  0.00    -0.248 NA
ATOM     42  C   UNL A   1      39.342  27.858  32.097  1.00  0.00     0.031 C 
ATOM     43  C   UNL A   1      40.176  28.181  27.452  1.00  0.00     0.029 A 
ATOM     44  N   UNL A   1      41.705  27.530  28.913  1.00  0.00    -0.354 N 
ATOM     45  C   UNL A   1      41.286  28.392  33.171  1.00  0.00     0.074 A 
ATOM     46  C   UNL A   1      39.960  27.845  33.278  1.00  0.00     0.031 C 
ATOM     47  C   UNL A   1      40.907  27.213  26.854  1.00  0.00     0.029 A 
ATOM     48  C   UNL A   1      41.932  26.753  27.777  1.00  0.00     0.049 A 
ATOM     49  H   UNL A   1      42.308  27.522  29.691  1.00  0.00     0.167 HD
ATOM     50  C   UNL A   1      42.408  28.207  33.925  1.00  0.00     0.034 A 
ATOM     51  C   UNL A   1      42.867  25.778  27.607  1.00  0.00     0.034 A 
ATOM     52  C   UNL A   1      43.487  29.050  33.458  1.00  0.00     0.049 A 
ATOM     53  C   UNL A   1      43.932  26.016  28.610  1.00  0.00     0.074 A 
ATOM     54  C   UNL A   1      43.641  30.413  33.276  1.00  0.00     0.029 A 
ATOM     55  N   UNL A   1      44.502  28.472  32.727  1.00  0.00    -0.354 N 
ATOM     56  N   UNL A   1      44.702  27.069  28.601  1.00  0.00    -0.248 NA
ATOM     57  C   UNL A   1      43.843  25.325  29.886  1.00  0.00     0.031 C 
ATOM     58  C   UNL A   1      44.364  30.536  32.053  1.00  0.00     0.029 A 
ATOM     59  C   UNL A   1      44.681  29.250  31.611  1.00  0.00     0.049 A 
ATOM     60  H   UNL A   1      45.003  27.658  32.962  1.00  0.00     0.167 HD
ATOM     61  C   UNL A   1      44.833  27.427  29.933  1.00  0.00     0.074 A 
ATOM     62  C   UNL A   1      44.374  26.258  30.683  1.00  0.00     0.031 C 
ATOM     63  C   UNL A   1      45.030  28.728  30.304  1.00  0.00     0.034 A 
BRANCH  50  64
ATOM     64  C   UNL A   1      42.660  27.034  34.854  1.00  0.00     0.023 A 
ATOM     65  C   UNL A   1      43.456  25.982  34.356  1.00  0.00     0.031 A 
ATOM     66  C   UNL A   1      41.951  26.750  36.043  1.00  0.00     0.131 A 
ATOM     67  C   UNL A   1      43.420  24.703  34.940  1.00  0.00     0.055 A 
ATOM     68  C   UNL A   1      41.979  25.495  36.663  1.00  0.00     0.041 A 
ATOM     69  F   UNL A   1      41.125  27.625  36.624  1.00  0.00    -0.206 F 
ATOM     70  C   UNL A   1      42.684  24.451  36.091  1.00  0.00     0.022 A 
BRANCH  67  71
ATOM     71  S   UNL A   1      44.187  23.330  34.040  1.00  0.00     0.124 S 
ATOM     72  O   UNL A   1      43.031  22.736  33.376  1.00  0.00    -0.237 OA
ATOM     73  O   UNL A   1      45.136  24.030  33.181  1.00  0.00    -0.237 OA
ATOM     74  O   UNL A   1      44.782  22.522  35.100  1.00  0.00    -0.744 OA
ENDBRANCH  67  71
ENDBRANCH  50  64
BRANCH  51  75
ATOM     75  C   UNL A   1      42.738  24.513  26.828  1.00  0.00     0.023 A 
ATOM     76  C   UNL A   1      43.771  23.993  26.016  1.00  0.00     0.031 A 
ATOM     77  C   UNL A   1      41.641  23.658  27.076  1.00  0.00     0.131 A 
ATOM     78  C   UNL A   1      43.675  22.682  25.488  1.00  0.00     0.055 A 
ATOM     79  C   UNL A   1      41.547  22.368  26.547  1.00  0.00     0.041 A 
ATOM     80  F   UNL A   1      40.660  24.014  27.922  1.00  0.00    -0.206 F 
ATOM     81  C   UNL A   1      42.569  21.872  25.757  1.00  0.00     0.022 A 
BRANCH  78  82
ATOM     82  S   UNL A   1      45.043  21.961  24.520  1.00  0.00     0.124 S 
ATOM     83  O   UNL A   1      45.285  22.986  23.512  1.00  0.00    -0.237 OA
ATOM     84  O   UNL A   1      46.082  21.782  25.527  1.00  0.00    -0.237 OA
ATOM     85  O   UNL A   1      44.476  20.715  24.001  1.00  0.00    -0.744 OA
ENDBRANCH  78  82
ENDBRANCH  51  75
BRANCH  63  86
ATOM     86  C   UNL A   1      45.412  29.739  29.242  1.00  0.00     0.023 A 
ATOM     87  C   UNL A   1      46.733  30.008  28.815  1.00  0.00     0.031 A 
ATOM     88  C   UNL A   1      44.364  30.366  28.544  1.00  0.00     0.131 A 
ATOM     89  C   UNL A   1      46.961  30.884  27.735  1.00  0.00     0.055 A 
ATOM     90  C   UNL A   1      44.592  31.214  27.461  1.00  0.00     0.041 A 
ATOM     91  F   UNL A   1      43.084  30.132  28.882  1.00  0.00    -0.206 F 
ATOM     92  C   UNL A   1      45.894  31.481  27.057  1.00  0.00     0.022 A 
BRANCH  89  93
ATOM     93  S   UNL A   1      48.658  31.276  27.198  1.00  0.00     0.124 S 
ATOM     94  O   UNL A   1      49.085  30.068  26.502  1.00  0.00    -0.237 OA
ATOM     95  O   UNL A   1      48.461  32.459  26.367  1.00  0.00    -0.237 OA
ATOM     96  O   UNL A   1      49.362  31.532  28.458  1.00  0.00    -0.744 OA
ENDBRANCH  89  93
ENDBRANCH  63  86
ENDBRANCH  37  38
ENDBRANCH  29  32
ENDBRANCH  27  28
ENDBRANCH  26  27
ENDBRANCH  25  26
ENDBRANCH   1  25
TORSDOF 21
ENDMDL
MODEL 3
REMARK VINA RESULT:     -10.5      2.357      6.800
REMARK SMILES CSCC[C@@H](CO)n1ccnc1-c1ccccc1C(=O)NCCCCNC(=O)c1ccc(-c2c3nc(c(-c4cc(S(=O)(=O)[O-])ccc4F)c4ccc([nH]4)c(-c4cc(S(=O)(=O)[O-])ccc4F)c4nc(c(-c5cc(S(=O)(=O)[O-])ccc5F)c5ccc2[nH]5)C=C4)C=C3)cc1
REMARK SMILES IDX 22 1 21 2 19 3 20 4 18 6 13 7 14 8 15 9 17 10 16 11 12 12
REMARK SMILES IDX 8 13 9 14 10 15 11 16 5 17 4 18 3 19 2 20 1 21 6 22 7 23
REMARK SMILES IDX 23 25 24 26 25 27 26 28 27 29 28 31 29 32 30 33 91 34 31 35
REMARK SMILES IDX 90 36 32 37 33 38 34 39 84 40 35 41 89 42 83 43 85 44 36 45
REMARK SMILES IDX 88 46 82 47 81 48 37 50 69 51 49 52 68 53 50 54 53 55 67 56
REMARK SMILES IDX 86 57 51 58 52 59 66 61 87 62 54 63 38 64 39 65 47 66 40 67
REMARK SMILES IDX 46 68 48 69 45 70 41 71 42 72 43 73 44 74 70 75 71 76 79 77
REMARK SMILES IDX 72 78 78 79 80 80 77 81 73 82 74 83 75 84 76 85 55 86 56 87
REMARK SMILES IDX 64 88 57 89 63 90 65 91 62 92 58 93 59 94 60 95 61 96
REMARK H PARENT 21 5 7 24 26 30 85 49 53 60
REMARK Flexibility Score: inf
ROOT
ATOM      1  C   UNL A   1      34.370  28.456  26.623  1.00  0.00     0.116 C 
ENDROOT
BRANCH   1   2
ATOM      2  N   UNL A   1      33.181  28.349  27.428  1.00  0.00    -0.352 N 
ATOM      3  C   UNL A   1      31.900  27.975  27.086  1.00  0.00     0.252 C 
ATOM      4  O   UNL A   1      31.112  27.867  28.035  1.00  0.00    -0.269 OA
ATOM      5  H   UNL A   1      33.304  28.579  28.377  1.00  0.00     0.163 HD
BRANCH   3   6
ATOM      6  C   UNL A   1      31.349  27.713  25.695  1.00  0.00     0.050 A 
ATOM      7  C   UNL A   1      30.990  26.506  25.058  1.00  0.00     0.030 A 
ATOM      8  C   UNL A   1      30.526  26.537  23.716  1.00  0.00     0.013 A 
ATOM      9  C   UNL A   1      30.305  27.727  23.032  1.00  0.00     0.001 A 
ATOM     10  C   UNL A   1      31.057  28.911  24.985  1.00  0.00     0.014 A 
ATOM     11  C   UNL A   1      30.537  28.923  23.684  1.00  0.00     0.001 A 
BRANCH   7  12
ATOM     12  C   UNL A   1      31.082  25.151  25.593  1.00  0.00     0.141 A 
ATOM     13  N   UNL A   1      32.147  24.250  25.523  1.00  0.00    -0.326 N 
ATOM     14  C   UNL A   1      31.766  23.166  26.290  1.00  0.00     0.108 A 
ATOM     15  C   UNL A   1      30.517  23.438  26.777  1.00  0.00     0.131 A 
ATOM     16  N   UNL A   1      30.117  24.666  26.363  1.00  0.00    -0.237 NA
BRANCH  13  17
ATOM     17  C   UNL A   1      33.495  24.446  24.947  1.00  0.00     0.115 C 
BRANCH  17  18
ATOM     18  C   UNL A   1      34.260  23.119  24.692  1.00  0.00     0.039 C 
BRANCH  18  19
ATOM     19  C   UNL A   1      35.485  22.838  25.569  1.00  0.00     0.071 C 
BRANCH  19  20
ATOM     20  S   UNL A   1      37.037  22.798  24.623  1.00  0.00    -0.165 SA
ATOM     21  C   UNL A   1      38.243  22.531  25.937  1.00  0.00     0.085 C 
ENDBRANCH  19  20
ENDBRANCH  18  19
ENDBRANCH  17  18
BRANCH  17  22
ATOM     22  C   UNL A   1      33.547  25.253  23.633  1.00  0.00     0.181 C 
BRANCH  22  23
ATOM     23  O   UNL A   1      34.179  24.502  22.602  1.00  0.00    -0.394 OA
ATOM     24  H   UNL A   1      35.037  24.901  22.391  1.00  0.00     0.210 HD
ENDBRANCH  22  23
ENDBRANCH  17  22
ENDBRANCH  13  17
ENDBRANCH   7  12
ENDBRANCH   3   6
ENDBRANCH   1   2
BRANCH   1  25
ATOM     25  C   UNL A   1      35.339  29.598  26.930  1.00  0.00     0.023 C 
BRANCH  25  26
ATOM     26  C   UNL A   1      34.887  30.631  27.975  1.00  0.00     0.023 C 
BRANCH  26  27
ATOM     27  C   UNL A   1      35.975  31.252  28.863  1.00  0.00     0.116 C 
BRANCH  27  28
ATOM     28  N   UNL A   1      35.890  30.898  30.278  1.00  0.00    -0.352 N 
ATOM     29  C   UNL A   1      36.641  29.962  30.982  1.00  0.00     0.251 C 
ATOM     30  H   UNL A   1      35.214  31.385  30.801  1.00  0.00     0.163 HD
ATOM     31  O   UNL A   1      36.315  29.639  32.112  1.00  0.00    -0.269 OA
BRANCH  29  32
ATOM     32  C   UNL A   1      37.850  29.365  30.356  1.00  0.00     0.039 A 
ATOM     33  C   UNL A   1      38.481  29.957  29.259  1.00  0.00     0.014 A 
ATOM     34  C   UNL A   1      38.353  28.179  30.873  1.00  0.00     0.014 A 
ATOM     35  C   UNL A   1      39.674  29.405  28.769  1.00  0.00     0.010 A 
ATOM     36  C   UNL A   1      39.555  27.662  30.427  1.00  0.00     0.010 A 
ATOM     37  C   UNL A   1      40.228  28.267  29.375  1.00  0.00    -0.014 A 
BRANCH  37  38
ATOM     38  C   UNL A   1      41.609  27.848  29.093  1.00  0.00     0.031 A 
ATOM     39  C   UNL A   1      41.714  26.589  28.297  1.00  0.00     0.074 A 
ATOM     40  C   UNL A   1      42.706  28.628  29.231  1.00  0.00     0.049 A 
ATOM     41  N   UNL A   1      42.268  25.473  28.637  1.00  0.00    -0.248 NA
ATOM     42  C   UNL A   1      41.019  26.530  27.000  1.00  0.00     0.031 C 
ATOM     43  C   UNL A   1      42.769  30.029  29.658  1.00  0.00     0.029 A 
ATOM     44  N   UNL A   1      44.003  28.359  28.892  1.00  0.00    -0.354 N 
ATOM     45  C   UNL A   1      42.181  24.635  27.526  1.00  0.00     0.074 A 
ATOM     46  C   UNL A   1      41.256  25.272  26.627  1.00  0.00     0.031 C 
ATOM     47  C   UNL A   1      43.979  30.544  29.341  1.00  0.00     0.029 A 
ATOM     48  C   UNL A   1      44.830  29.480  28.833  1.00  0.00     0.049 A 
ATOM     49  H   UNL A   1      44.327  27.449  28.706  1.00  0.00     0.167 HD
ATOM     50  C   UNL A   1      43.036  23.587  27.356  1.00  0.00     0.034 A 
ATOM     51  C   UNL A   1      46.109  29.549  28.372  1.00  0.00     0.034 A 
ATOM     52  C   UNL A   1      43.709  23.263  28.595  1.00  0.00     0.049 A 
ATOM     53  C   UNL A   1      46.665  28.176  28.424  1.00  0.00     0.074 A 
ATOM     54  C   UNL A   1      43.283  22.915  29.865  1.00  0.00     0.029 A 
ATOM     55  N   UNL A   1      45.022  23.647  28.749  1.00  0.00    -0.354 N 
ATOM     56  N   UNL A   1      46.862  27.524  29.537  1.00  0.00    -0.248 NA
ATOM     57  C   UNL A   1      46.572  27.349  27.231  1.00  0.00     0.031 C 
ATOM     58  C   UNL A   1      44.160  23.615  30.746  1.00  0.00     0.029 A 
ATOM     59  C   UNL A   1      45.115  24.272  29.968  1.00  0.00     0.049 A 
ATOM     60  H   UNL A   1      45.755  23.501  28.107  1.00  0.00     0.167 HD
ATOM     61  C   UNL A   1      46.479  26.221  29.260  1.00  0.00     0.074 A 
ATOM     62  C   UNL A   1      46.413  26.150  27.801  1.00  0.00     0.031 C 
ATOM     63  C   UNL A   1      45.978  25.406  30.236  1.00  0.00     0.034 A 
BRANCH  50  64
ATOM     64  C   UNL A   1      43.538  23.068  26.020  1.00  0.00     0.023 A 
ATOM     65  C   UNL A   1      43.573  21.669  25.848  1.00  0.00     0.031 A 
ATOM     66  C   UNL A   1      44.240  23.817  25.050  1.00  0.00     0.131 A 
ATOM     67  C   UNL A   1      44.375  21.077  24.857  1.00  0.00     0.055 A 
ATOM     68  C   UNL A   1      44.976  23.224  24.018  1.00  0.00     0.041 A 
ATOM     69  F   UNL A   1      44.335  25.150  25.089  1.00  0.00    -0.206 F 
ATOM     70  C   UNL A   1      45.080  21.847  23.939  1.00  0.00     0.022 A 
BRANCH  67  71
ATOM     71  S   UNL A   1      44.641  19.286  24.928  1.00  0.00     0.124 S 
ATOM     72  O   UNL A   1      45.857  19.206  25.731  1.00  0.00    -0.237 OA
ATOM     73  O   UNL A   1      43.413  18.828  25.567  1.00  0.00    -0.237 OA
ATOM     74  O   UNL A   1      44.793  18.912  23.524  1.00  0.00    -0.744 OA
ENDBRANCH  67  71
ENDBRANCH  50  64
BRANCH  51  75
ATOM     75  C   UNL A   1      46.757  30.671  27.635  1.00  0.00     0.023 A 
ATOM     76  C   UNL A   1      46.031  31.678  26.960  1.00  0.00     0.031 A 
ATOM     77  C   UNL A   1      48.143  30.896  27.800  1.00  0.00     0.131 A 
ATOM     78  C   UNL A   1      46.692  32.836  26.479  1.00  0.00     0.055 A 
ATOM     79  C   UNL A   1      48.790  32.036  27.316  1.00  0.00     0.041 A 
ATOM     80  F   UNL A   1      48.902  30.056  28.521  1.00  0.00    -0.206 F 
ATOM     81  C   UNL A   1      48.065  33.015  26.660  1.00  0.00     0.022 A 
BRANCH  78  82
ATOM     82  S   UNL A   1      45.753  34.188  25.692  1.00  0.00     0.124 S 
ATOM     83  O   UNL A   1      44.800  33.464  24.859  1.00  0.00    -0.237 OA
ATOM     84  O   UNL A   1      45.203  34.899  26.840  1.00  0.00    -0.237 OA
ATOM     85  O   UNL A   1      46.776  34.928  24.950  1.00  0.00    -0.744 OA
ENDBRANCH  78  82
ENDBRANCH  51  75
BRANCH  63  86
ATOM     86  C   UNL A   1      46.126  25.825  31.685  1.00  0.00     0.023 A 
ATOM     87  C   UNL A   1      45.069  26.260  32.517  1.00  0.00     0.031 A 
ATOM     88  C   UNL A   1      47.390  25.649  32.279  1.00  0.00     0.131 A 
ATOM     89  C   UNL A   1      45.303  26.511  33.883  1.00  0.00     0.055 A 
ATOM     90  C   UNL A   1      47.612  25.877  33.636  1.00  0.00     0.041 A 
ATOM     91  F   UNL A   1      48.430  25.212  31.550  1.00  0.00    -0.206 F 
ATOM     92  C   UNL A   1      46.570  26.315  34.443  1.00  0.00     0.022 A 
BRANCH  89  93
ATOM     93  S   UNL A   1      43.963  27.113  34.962  1.00  0.00     0.124 S 
ATOM     94  O   UNL A   1      42.752  26.782  34.220  1.00  0.00    -0.237 OA
ATOM     95  O   UNL A   1      44.186  26.361  36.193  1.00  0.00    -0.237 OA
ATOM     96  O   UNL A   1      44.235  28.549  35.071  1.00  0.00    -0.744 OA
ENDBRANCH  89  93
ENDBRANCH  63  86
ENDBRANCH  37  38
ENDBRANCH  29  32
ENDBRANCH  27  28
ENDBRANCH  26  27
ENDBRANCH  25  26
ENDBRANCH   1  25
TORSDOF 21
ENDMDL
