MODEL 1
REMARK VINA RESULT:     -10.5      0.000      0.000
REMARK SMILES O=C(NCCCCNC(=O)c1cccc(Cl)c1C(=O)c1ccccc1)c1ccc(-c2c3nc(c(-c4cc(S(=O)(=O)[O-])ccc4F)c4ccc([nH]4)c(-c4cc(S(=O)(=O)[O-])ccc4F)c4nc(c(-c5cc(S(=O)(=O)[O-])ccc5F)c5ccc2[nH]5)C=C4)C=C3)cc1
REMARK SMILES IDX 5 1 4 2 3 3 1 4 2 5 26 7 27 8 88 9 28 10 87 11 29 12 30 13
REMARK SMILES IDX 31 14 81 15 32 16 86 17 80 18 82 19 33 20 85 21 79 22 78 23
REMARK SMILES IDX 34 25 66 26 46 27 65 28 47 29 50 30 64 31 83 32 48 33 49 34
REMARK SMILES IDX 63 36 84 37 51 38 35 39 36 40 44 41 37 42 43 43 45 44 42 45
REMARK SMILES IDX 38 46 39 47 40 48 41 49 67 50 68 51 76 52 69 53 75 54 77 55
REMARK SMILES IDX 74 56 70 57 71 58 72 59 73 60 52 61 53 62 61 63 54 64 60 65
REMARK SMILES IDX 62 66 59 67 55 68 56 69 57 70 58 71 6 72 7 73 8 74 9 75
REMARK SMILES IDX 10 77 11 78 12 79 17 80 13 81 15 82 14 83 16 84 18 85 19 86
REMARK SMILES IDX 20 87 21 88 25 89 22 90 24 91 23 92
REMARK H PARENT 3 6 82 24 50 35 8 76
REMARK Flexibility Score: inf
ROOT
ATOM      1  C   UNL A   1      41.435  19.983  27.268  1.00  0.00     0.023 C 
ENDROOT
BRANCH   1   2
ATOM      2  C   UNL A   1      40.777  21.341  27.488  1.00  0.00     0.116 C 
BRANCH   2   3
ATOM      3  N   UNL A   1      39.574  21.532  26.690  1.00  0.00    -0.352 N 
ATOM      4  O   UNL A   1      37.801  22.612  25.820  1.00  0.00    -0.269 OA
ATOM      5  C   UNL A   1      38.871  22.683  26.421  1.00  0.00     0.251 C 
ATOM      6  H   UNL A   1      39.209  20.714  26.281  1.00  0.00     0.163 HD
BRANCH   5   7
ATOM      7  C   UNL A   1      39.382  23.998  26.867  1.00  0.00     0.039 A 
ATOM      8  C   UNL A   1      39.300  24.392  28.205  1.00  0.00     0.014 A 
ATOM      9  C   UNL A   1      39.974  24.844  25.925  1.00  0.00     0.014 A 
ATOM     10  C   UNL A   1      39.687  25.679  28.576  1.00  0.00     0.010 A 
ATOM     11  C   UNL A   1      40.428  26.108  26.314  1.00  0.00     0.010 A 
ATOM     12  C   UNL A   1      40.260  26.549  27.637  1.00  0.00    -0.014 A 
BRANCH  12  13
ATOM     13  C   UNL A   1      40.714  27.905  28.042  1.00  0.00     0.031 A 
ATOM     14  C   UNL A   1      42.178  28.248  28.050  1.00  0.00     0.074 A 
ATOM     15  C   UNL A   1      39.806  28.817  28.436  1.00  0.00     0.049 A 
ATOM     16  N   UNL A   1      42.773  29.333  28.479  1.00  0.00    -0.248 NA
ATOM     17  C   UNL A   1      43.091  27.230  27.519  1.00  0.00     0.031 C 
ATOM     18  C   UNL A   1      38.357  28.603  28.462  1.00  0.00     0.029 A 
ATOM     19  N   UNL A   1      39.963  30.096  28.909  1.00  0.00    -0.354 N 
ATOM     20  C   UNL A   1      44.135  29.120  28.292  1.00  0.00     0.074 A 
ATOM     21  C   UNL A   1      44.273  27.785  27.744  1.00  0.00     0.031 C 
ATOM     22  C   UNL A   1      37.760  29.711  28.924  1.00  0.00     0.029 A 
ATOM     23  C   UNL A   1      38.782  30.684  29.296  1.00  0.00     0.049 A 
ATOM     24  H   UNL A   1      40.836  30.548  28.965  1.00  0.00     0.167 HD
ATOM     25  C   UNL A   1      45.168  29.962  28.548  1.00  0.00     0.034 A 
ATOM     26  C   UNL A   1      38.545  31.851  29.925  1.00  0.00     0.034 A 
ATOM     27  C   UNL A   1      45.003  31.286  29.106  1.00  0.00     0.049 A 
ATOM     28  C   UNL A   1      39.705  32.744  30.271  1.00  0.00     0.074 A 
ATOM     29  C   UNL A   1      45.973  32.237  29.373  1.00  0.00     0.029 A 
ATOM     30  N   UNL A   1      43.790  31.838  29.504  1.00  0.00    -0.354 N 
ATOM     31  N   UNL A   1      40.987  32.540  30.075  1.00  0.00    -0.248 NA
ATOM     32  C   UNL A   1      39.390  34.025  30.915  1.00  0.00     0.031 C 
ATOM     33  C   UNL A   1      45.361  33.324  30.007  1.00  0.00     0.029 A 
ATOM     34  C   UNL A   1      43.994  33.097  30.050  1.00  0.00     0.049 A 
ATOM     35  H   UNL A   1      42.914  31.400  29.411  1.00  0.00     0.167 HD
ATOM     36  C   UNL A   1      41.630  33.682  30.543  1.00  0.00     0.074 A 
ATOM     37  C   UNL A   1      40.594  34.569  31.035  1.00  0.00     0.031 C 
ATOM     38  C   UNL A   1      42.956  33.973  30.548  1.00  0.00     0.034 A 
BRANCH  25  39
ATOM     39  C   UNL A   1      46.566  29.447  28.287  1.00  0.00     0.023 A 
ATOM     40  C   UNL A   1      47.233  28.611  29.201  1.00  0.00     0.031 A 
ATOM     41  C   UNL A   1      47.267  29.840  27.132  1.00  0.00     0.131 A 
ATOM     42  C   UNL A   1      48.583  28.285  28.998  1.00  0.00     0.055 A 
ATOM     43  C   UNL A   1      48.580  29.431  26.888  1.00  0.00     0.041 A 
ATOM     44  F   UNL A   1      46.694  30.651  26.228  1.00  0.00    -0.206 F 
ATOM     45  C   UNL A   1      49.254  28.667  27.835  1.00  0.00     0.022 A 
BRANCH  42  46
ATOM     46  S   UNL A   1      49.502  27.523  30.366  1.00  0.00     0.124 S 
ATOM     47  O   UNL A   1      50.198  28.676  30.932  1.00  0.00    -0.237 OA
ATOM     48  O   UNL A   1      48.436  26.954  31.182  1.00  0.00    -0.237 OA
ATOM     49  O   UNL A   1      50.366  26.552  29.699  1.00  0.00    -0.744 OA
ENDBRANCH  42  46
ENDBRANCH  25  39
BRANCH  26  50
ATOM     50  C   UNL A   1      37.150  32.203  30.310  1.00  0.00     0.023 A 
ATOM     51  C   UNL A   1      36.266  32.793  29.394  1.00  0.00     0.031 A 
ATOM     52  C   UNL A   1      36.675  31.926  31.606  1.00  0.00     0.131 A 
ATOM     53  C   UNL A   1      34.956  33.102  29.793  1.00  0.00     0.055 A 
ATOM     54  C   UNL A   1      35.359  32.190  31.981  1.00  0.00     0.041 A 
ATOM     55  F   UNL A   1      37.480  31.355  32.515  1.00  0.00    -0.206 F 
ATOM     56  C   UNL A   1      34.491  32.788  31.073  1.00  0.00     0.022 A 
BRANCH  53  57
ATOM     57  S   UNL A   1      33.870  33.962  28.623  1.00  0.00     0.124 S 
ATOM     58  O   UNL A   1      33.384  32.858  27.804  1.00  0.00    -0.237 OA
ATOM     59  O   UNL A   1      32.893  34.581  29.512  1.00  0.00    -0.237 OA
ATOM     60  O   UNL A   1      34.770  34.895  27.947  1.00  0.00    -0.744 OA
ENDBRANCH  53  57
ENDBRANCH  26  50
BRANCH  38  61
ATOM     61  C   UNL A   1      43.366  35.339  31.041  1.00  0.00     0.023 A 
ATOM     62  C   UNL A   1      43.404  36.463  30.197  1.00  0.00     0.031 A 
ATOM     63  C   UNL A   1      43.693  35.519  32.398  1.00  0.00     0.131 A 
ATOM     64  C   UNL A   1      43.788  37.711  30.714  1.00  0.00     0.055 A 
ATOM     65  C   UNL A   1      44.021  36.772  32.917  1.00  0.00     0.041 A 
ATOM     66  F   UNL A   1      43.680  34.480  33.247  1.00  0.00    -0.206 F 
ATOM     67  C   UNL A   1      44.076  37.876  32.072  1.00  0.00     0.022 A 
BRANCH  64  68
ATOM     68  S   UNL A   1      43.959  39.116  29.580  1.00  0.00     0.124 S 
ATOM     69  O   UNL A   1      45.273  38.874  28.994  1.00  0.00    -0.237 OA
ATOM     70  O   UNL A   1      42.818  38.939  28.685  1.00  0.00    -0.237 OA
ATOM     71  O   UNL A   1      43.878  40.280  30.460  1.00  0.00    -0.744 OA
ENDBRANCH  64  68
ENDBRANCH  38  61
ENDBRANCH  12  13
ENDBRANCH   5   7
ENDBRANCH   2   3
ENDBRANCH   1   2
BRANCH   1  72
ATOM     72  C   UNL A   1      42.218  19.826  25.965  1.00  0.00     0.023 C 
BRANCH  72  73
ATOM     73  C   UNL A   1      43.395  20.779  25.777  1.00  0.00     0.116 C 
BRANCH  73  74
ATOM     74  N   UNL A   1      43.068  21.989  25.037  1.00  0.00    -0.352 N 
ATOM     75  C   UNL A   1      43.262  23.301  25.410  1.00  0.00     0.252 C 
ATOM     76  H   UNL A   1      42.654  21.853  24.154  1.00  0.00     0.163 HD
ATOM     77  O   UNL A   1      43.031  24.242  24.658  1.00  0.00    -0.269 OA
BRANCH  75  78
ATOM     78  C   UNL A   1      43.854  23.575  26.730  1.00  0.00     0.052 A 
ATOM     79  C   UNL A   1      42.958  23.603  27.814  1.00  0.00     0.015 A 
ATOM     80  C   UNL A   1      45.225  23.845  26.901  1.00  0.00     0.054 A 
ATOM     81  C   UNL A   1      43.405  23.977  29.075  1.00  0.00     0.002 A 
ATOM     82  C   UNL A   1      45.646  24.272  28.172  1.00  0.00     0.053 A 
ATOM     83  C   UNL A   1      44.741  24.324  29.247  1.00  0.00     0.021 A 
ATOM     84  Cl  UNL A   1      47.225  24.896  28.513  1.00  0.00    -0.084 Cl
BRANCH  80  85
ATOM     85  C   UNL A   1      46.137  23.812  25.726  1.00  0.00     0.195 C 
ATOM     86  O   UNL A   1      46.428  22.722  25.240  1.00  0.00    -0.289 OA
BRANCH  85  87
ATOM     87  C   UNL A   1      46.627  25.047  25.048  1.00  0.00     0.023 A 
ATOM     88  C   UNL A   1      45.788  26.170  25.079  1.00  0.00     0.012 A 
ATOM     89  C   UNL A   1      47.894  25.150  24.460  1.00  0.00     0.012 A 
ATOM     90  C   UNL A   1      46.237  27.402  24.603  1.00  0.00     0.001 A 
ATOM     91  C   UNL A   1      48.342  26.390  23.988  1.00  0.00     0.001 A 
ATOM     92  C   UNL A   1      47.521  27.516  24.075  1.00  0.00     0.000 A 
ENDBRANCH  85  87
ENDBRANCH  80  85
ENDBRANCH  75  78
ENDBRANCH  73  74
ENDBRANCH  72  73
ENDBRANCH   1  72
TORSDOF 16
ENDMDL
MODEL 2
REMARK VINA RESULT:     -10.5      6.356     10.867
REMARK SMILES O=C(NCCCCNC(=O)c1cccc(Cl)c1C(=O)c1ccccc1)c1ccc(-c2c3nc(c(-c4cc(S(=O)(=O)[O-])ccc4F)c4ccc([nH]4)c(-c4cc(S(=O)(=O)[O-])ccc4F)c4nc(c(-c5cc(S(=O)(=O)[O-])ccc5F)c5ccc2[nH]5)C=C4)C=C3)cc1
REMARK SMILES IDX 5 1 4 2 3 3 1 4 2 5 26 7 27 8 88 9 28 10 87 11 29 12 30 13
REMARK SMILES IDX 31 14 81 15 32 16 86 17 80 18 82 19 33 20 85 21 79 22 78 23
REMARK SMILES IDX 34 25 66 26 46 27 65 28 47 29 50 30 64 31 83 32 48 33 49 34
REMARK SMILES IDX 63 36 84 37 51 38 35 39 36 40 44 41 37 42 43 43 45 44 42 45
REMARK SMILES IDX 38 46 39 47 40 48 41 49 67 50 68 51 76 52 69 53 75 54 77 55
REMARK SMILES IDX 74 56 70 57 71 58 72 59 73 60 52 61 53 62 61 63 54 64 60 65
REMARK SMILES IDX 62 66 59 67 55 68 56 69 57 70 58 71 6 72 7 73 8 74 9 75
REMARK SMILES IDX 10 77 11 78 12 79 17 80 13 81 15 82 14 83 16 84 18 85 19 86
REMARK SMILES IDX 20 87 21 88 25 89 22 90 24 91 23 92
REMARK H PARENT 3 6 82 24 50 35 8 76
REMARK Flexibility Score: inf
ROOT
ATOM      1  C   UNL A   1      31.214  31.740  26.399  1.00  0.00     0.023 C 
ENDROOT
BRANCH   1   2
ATOM      2  C   UNL A   1      32.541  32.281  26.920  1.00  0.00     0.116 C 
BRANCH   2   3
ATOM      3  N   UNL A   1      32.447  33.644  27.423  1.00  0.00    -0.352 N 
ATOM      4  O   UNL A   1      32.889  35.413  28.743  1.00  0.00    -0.269 OA
ATOM      5  C   UNL A   1      33.211  34.289  28.368  1.00  0.00     0.251 C 
ATOM      6  H   UNL A   1      31.728  34.188  27.025  1.00  0.00     0.163 HD
BRANCH   5   7
ATOM      7  C   UNL A   1      34.403  33.629  28.948  1.00  0.00     0.039 A 
ATOM      8  C   UNL A   1      34.280  32.508  29.775  1.00  0.00     0.014 A 
ATOM      9  C   UNL A   1      35.668  34.134  28.639  1.00  0.00     0.014 A 
ATOM     10  C   UNL A   1      35.408  31.976  30.397  1.00  0.00     0.010 A 
ATOM     11  C   UNL A   1      36.805  33.552  29.208  1.00  0.00     0.010 A 
ATOM     12  C   UNL A   1      36.683  32.487  30.116  1.00  0.00    -0.014 A 
BRANCH  12  13
ATOM     13  C   UNL A   1      37.892  31.892  30.744  1.00  0.00     0.031 A 
ATOM     14  C   UNL A   1      38.693  30.848  30.017  1.00  0.00     0.074 A 
ATOM     15  C   UNL A   1      38.246  32.268  31.987  1.00  0.00     0.049 A 
ATOM     16  N   UNL A   1      39.703  30.132  30.443  1.00  0.00    -0.248 NA
ATOM     17  C   UNL A   1      38.294  30.564  28.633  1.00  0.00     0.031 C 
ATOM     18  C   UNL A   1      37.551  33.278  32.789  1.00  0.00     0.029 A 
ATOM     19  N   UNL A   1      39.260  31.835  32.803  1.00  0.00    -0.354 N 
ATOM     20  C   UNL A   1      40.049  29.294  29.388  1.00  0.00     0.074 A 
ATOM     21  C   UNL A   1      39.111  29.569  28.317  1.00  0.00     0.031 C 
ATOM     22  C   UNL A   1      38.161  33.387  33.978  1.00  0.00     0.029 A 
ATOM     23  C   UNL A   1      39.240  32.407  34.052  1.00  0.00     0.049 A 
ATOM     24  H   UNL A   1      39.939  31.179  32.520  1.00  0.00     0.167 HD
ATOM     25  C   UNL A   1      41.056  28.386  29.320  1.00  0.00     0.034 A 
ATOM     26  C   UNL A   1      39.969  32.143  35.154  1.00  0.00     0.034 A 
ATOM     27  C   UNL A   1      41.971  28.123  30.408  1.00  0.00     0.049 A 
ATOM     28  C   UNL A   1      41.034  31.083  35.089  1.00  0.00     0.074 A 
ATOM     29  C   UNL A   1      43.048  27.254  30.439  1.00  0.00     0.029 A 
ATOM     30  N   UNL A   1      41.903  28.710  31.667  1.00  0.00    -0.354 N 
ATOM     31  N   UNL A   1      41.361  30.307  34.081  1.00  0.00    -0.248 NA
ATOM     32  C   UNL A   1      41.830  30.865  36.302  1.00  0.00     0.031 C 
ATOM     33  C   UNL A   1      43.576  27.252  31.734  1.00  0.00     0.029 A 
ATOM     34  C   UNL A   1      42.892  28.192  32.491  1.00  0.00     0.049 A 
ATOM     35  H   UNL A   1      41.249  29.394  31.935  1.00  0.00     0.167 HD
ATOM     36  C   UNL A   1      42.425  29.531  34.531  1.00  0.00     0.074 A 
ATOM     37  C   UNL A   1      42.681  29.929  35.901  1.00  0.00     0.031 C 
ATOM     38  C   UNL A   1      43.135  28.587  33.861  1.00  0.00     0.034 A 
BRANCH  25  39
ATOM     39  C   UNL A   1      41.173  27.571  28.051  1.00  0.00     0.023 A 
ATOM     40  C   UNL A   1      40.800  26.216  28.001  1.00  0.00     0.031 A 
ATOM     41  C   UNL A   1      41.717  28.142  26.886  1.00  0.00     0.131 A 
ATOM     42  C   UNL A   1      41.071  25.456  26.853  1.00  0.00     0.055 A 
ATOM     43  C   UNL A   1      41.895  27.403  25.714  1.00  0.00     0.041 A 
ATOM     44  F   UNL A   1      42.110  29.425  26.872  1.00  0.00    -0.206 F 
ATOM     45  C   UNL A   1      41.593  26.045  25.699  1.00  0.00     0.022 A 
BRANCH  42  46
ATOM     46  S   UNL A   1      40.917  23.650  26.957  1.00  0.00     0.124 S 
ATOM     47  O   UNL A   1      41.835  23.214  25.907  1.00  0.00    -0.237 OA
ATOM     48  O   UNL A   1      41.335  23.377  28.327  1.00  0.00    -0.237 OA
ATOM     49  O   UNL A   1      39.503  23.410  26.674  1.00  0.00    -0.744 OA
ENDBRANCH  42  46
ENDBRANCH  25  39
BRANCH  26  50
ATOM     50  C   UNL A   1      39.667  32.868  36.420  1.00  0.00     0.023 A 
ATOM     51  C   UNL A   1      38.698  32.397  37.318  1.00  0.00     0.031 A 
ATOM     52  C   UNL A   1      40.373  34.038  36.759  1.00  0.00     0.131 A 
ATOM     53  C   UNL A   1      38.449  33.104  38.505  1.00  0.00     0.055 A 
ATOM     54  C   UNL A   1      40.155  34.708  37.961  1.00  0.00     0.041 A 
ATOM     55  F   UNL A   1      41.315  34.523  35.936  1.00  0.00    -0.206 F 
ATOM     56  C   UNL A   1      39.183  34.245  38.841  1.00  0.00     0.022 A 
BRANCH  53  57
ATOM     57  S   UNL A   1      37.116  32.532  39.594  1.00  0.00     0.124 S 
ATOM     58  O   UNL A   1      37.232  33.458  40.715  1.00  0.00    -0.237 OA
ATOM     59  O   UNL A   1      35.939  32.694  38.746  1.00  0.00    -0.237 OA
ATOM     60  O   UNL A   1      37.484  31.148  39.884  1.00  0.00    -0.744 OA
ENDBRANCH  53  57
ENDBRANCH  26  50
BRANCH  38  61
ATOM     61  C   UNL A   1      44.307  27.960  34.576  1.00  0.00     0.023 A 
ATOM     62  C   UNL A   1      44.181  26.786  35.338  1.00  0.00     0.031 A 
ATOM     63  C   UNL A   1      45.583  28.541  34.459  1.00  0.00     0.131 A 
ATOM     64  C   UNL A   1      45.310  26.245  35.977  1.00  0.00     0.055 A 
ATOM     65  C   UNL A   1      46.710  27.969  35.051  1.00  0.00     0.041 A 
ATOM     66  F   UNL A   1      45.759  29.666  33.749  1.00  0.00    -0.206 F 
ATOM     67  C   UNL A   1      46.575  26.818  35.820  1.00  0.00     0.022 A 
BRANCH  64  68
ATOM     68  S   UNL A   1      45.099  24.807  37.063  1.00  0.00     0.124 S 
ATOM     69  O   UNL A   1      44.719  23.765  36.116  1.00  0.00    -0.237 OA
ATOM     70  O   UNL A   1      46.423  24.671  37.665  1.00  0.00    -0.237 OA
ATOM     71  O   UNL A   1      44.042  25.224  37.983  1.00  0.00    -0.744 OA
ENDBRANCH  64  68
ENDBRANCH  38  61
ENDBRANCH  12  13
ENDBRANCH   5   7
ENDBRANCH   2   3
ENDBRANCH   1   2
BRANCH   1  72
ATOM     72  C   UNL A   1      31.300  30.473  25.548  1.00  0.00     0.023 C 
BRANCH  72  73
ATOM     73  C   UNL A   1      32.610  29.696  25.641  1.00  0.00     0.116 C 
BRANCH  73  74
ATOM     74  N   UNL A   1      33.311  29.558  24.373  1.00  0.00    -0.352 N 
ATOM     75  C   UNL A   1      33.530  28.416  23.634  1.00  0.00     0.252 C 
ATOM     76  H   UNL A   1      33.678  30.389  23.993  1.00  0.00     0.163 HD
ATOM     77  O   UNL A   1      34.056  28.437  22.527  1.00  0.00    -0.269 OA
BRANCH  75  78
ATOM     78  C   UNL A   1      33.030  27.134  24.159  1.00  0.00     0.052 A 
ATOM     79  C   UNL A   1      33.770  26.567  25.212  1.00  0.00     0.015 A 
ATOM     80  C   UNL A   1      31.908  26.482  23.613  1.00  0.00     0.054 A 
ATOM     81  C   UNL A   1      33.448  25.302  25.685  1.00  0.00     0.002 A 
ATOM     82  C   UNL A   1      31.631  25.182  24.070  1.00  0.00     0.053 A 
ATOM     83  C   UNL A   1      32.391  24.608  25.104  1.00  0.00     0.021 A 
ATOM     84  Cl  UNL A   1      30.467  24.125  23.343  1.00  0.00    -0.084 Cl
BRANCH  80  85
ATOM     85  C   UNL A   1      31.157  27.114  22.495  1.00  0.00     0.195 C 
ATOM     86  O   UNL A   1      31.425  26.776  21.344  1.00  0.00    -0.289 OA
BRANCH  85  87
ATOM     87  C   UNL A   1      30.022  28.058  22.713  1.00  0.00     0.023 A 
ATOM     88  C   UNL A   1      30.191  29.375  22.263  1.00  0.00     0.012 A 
ATOM     89  C   UNL A   1      28.797  27.671  23.268  1.00  0.00     0.012 A 
ATOM     90  C   UNL A   1      29.125  30.275  22.292  1.00  0.00     0.001 A 
ATOM     91  C   UNL A   1      27.727  28.575  23.290  1.00  0.00     0.001 A 
ATOM     92  C   UNL A   1      27.888  29.868  22.787  1.00  0.00     0.000 A 
ENDBRANCH  85  87
ENDBRANCH  80  85
ENDBRANCH  75  78
ENDBRANCH  73  74
ENDBRANCH  72  73
ENDBRANCH   1  72
TORSDOF 16
ENDMDL
MODEL 3
REMARK VINA RESULT:     -10.5      6.601     10.952
REMARK SMILES O=C(NCCCCNC(=O)c1cccc(Cl)c1C(=O)c1ccccc1)c1ccc(-c2c3nc(c(-c4cc(S(=O)(=O)[O-])ccc4F)c4ccc([nH]4)c(-c4cc(S(=O)(=O)[O-])ccc4F)c4nc(c(-c5cc(S(=O)(=O)[O-])ccc5F)c5ccc2[nH]5)C=C4)C=C3)cc1
REMARK SMILES IDX 5 1 4 2 3 3 1 4 2 5 26 7 27 8 88 9 28 10 87 11 29 12 30 13
REMARK SMILES IDX 31 14 81 15 32 16 86 17 80 18 82 19 33 20 85 21 79 22 78 23
REMARK SMILES IDX 34 25 66 26 46 27 65 28 47 29 50 30 64 31 83 32 48 33 49 34
REMARK SMILES IDX 63 36 84 37 51 38 35 39 36 40 44 41 37 42 43 43 45 44 42 45
REMARK SMILES IDX 38 46 39 47 40 48 41 49 67 50 68 51 76 52 69 53 75 54 77 55
REMARK SMILES IDX 74 56 70 57 71 58 72 59 73 60 52 61 53 62 61 63 54 64 60 65
REMARK SMILES IDX 62 66 59 67 55 68 56 69 57 70 58 71 6 72 7 73 8 74 9 75
REMARK SMILES IDX 10 77 11 78 12 79 17 80 13 81 15 82 14 83 16 84 18 85 19 86
REMARK SMILES IDX 20 87 21 88 25 89 22 90 24 91 23 92
REMARK H PARENT 3 6 82 24 50 35 8 76
REMARK Flexibility Score: inf
ROOT
ATOM      1  C   UNL A   1      31.297  31.758  26.672  1.00  0.00     0.023 C 
ENDROOT
BRANCH   1   2
ATOM      2  C   UNL A   1      32.622  32.405  27.061  1.00  0.00     0.116 C 
BRANCH   2   3
ATOM      3  N   UNL A   1      32.478  33.781  27.514  1.00  0.00    -0.352 N 
ATOM      4  O   UNL A   1      32.822  35.599  28.796  1.00  0.00    -0.269 OA
ATOM      5  C   UNL A   1      33.184  34.471  28.473  1.00  0.00     0.251 C 
ATOM      6  H   UNL A   1      31.769  34.297  27.066  1.00  0.00     0.163 HD
BRANCH   5   7
ATOM      7  C   UNL A   1      34.359  33.854  29.129  1.00  0.00     0.039 A 
ATOM      8  C   UNL A   1      34.209  32.838  30.078  1.00  0.00     0.014 A 
ATOM      9  C   UNL A   1      35.636  34.291  28.770  1.00  0.00     0.014 A 
ATOM     10  C   UNL A   1      35.323  32.355  30.762  1.00  0.00     0.010 A 
ATOM     11  C   UNL A   1      36.759  33.752  29.406  1.00  0.00     0.010 A 
ATOM     12  C   UNL A   1      36.610  32.802  30.430  1.00  0.00    -0.014 A 
BRANCH  12  13
ATOM     13  C   UNL A   1      37.804  32.254  31.127  1.00  0.00     0.031 A 
ATOM     14  C   UNL A   1      38.578  31.112  30.529  1.00  0.00     0.074 A 
ATOM     15  C   UNL A   1      38.167  32.764  32.318  1.00  0.00     0.049 A 
ATOM     16  N   UNL A   1      39.571  30.427  31.039  1.00  0.00    -0.248 NA
ATOM     17  C   UNL A   1      38.172  30.677  29.187  1.00  0.00     0.031 C 
ATOM     18  C   UNL A   1      37.499  33.879  32.993  1.00  0.00     0.029 A 
ATOM     19  N   UNL A   1      39.171  32.405  33.181  1.00  0.00    -0.354 N 
ATOM     20  C   UNL A   1      39.895  29.462  30.091  1.00  0.00     0.074 A 
ATOM     21  C   UNL A   1      38.964  29.633  28.992  1.00  0.00     0.031 C 
ATOM     22  C   UNL A   1      38.110  34.112  34.163  1.00  0.00     0.029 A 
ATOM     23  C   UNL A   1      39.165  33.121  34.355  1.00  0.00     0.049 A 
ATOM     24  H   UNL A   1      39.833  31.704  32.980  1.00  0.00     0.167 HD
ATOM     25  C   UNL A   1      40.879  28.528  30.133  1.00  0.00     0.034 A 
ATOM     26  C   UNL A   1      39.887  32.970  35.482  1.00  0.00     0.034 A 
ATOM     27  C   UNL A   1      41.787  28.371  31.247  1.00  0.00     0.049 A 
ATOM     28  C   UNL A   1      40.925  31.883  35.545  1.00  0.00     0.074 A 
ATOM     29  C   UNL A   1      42.842  27.485  31.383  1.00  0.00     0.029 A 
ATOM     30  N   UNL A   1      41.734  29.104  32.428  1.00  0.00    -0.354 N 
ATOM     31  N   UNL A   1      41.233  30.987  34.636  1.00  0.00    -0.248 NA
ATOM     32  C   UNL A   1      41.716  31.789  36.778  1.00  0.00     0.031 C 
ATOM     33  C   UNL A   1      43.370  27.623  32.671  1.00  0.00     0.029 A 
ATOM     34  C   UNL A   1      42.710  28.661  33.309  1.00  0.00     0.049 A 
ATOM     35  H   UNL A   1      41.098  29.831  32.612  1.00  0.00     0.167 HD
ATOM     36  C   UNL A   1      42.278  30.242  35.177  1.00  0.00     0.074 A 
ATOM     37  C   UNL A   1      42.543  30.792  36.491  1.00  0.00     0.031 C 
ATOM     38  C   UNL A   1      42.963  29.209  34.624  1.00  0.00     0.034 A 
BRANCH  25  39
ATOM     39  C   UNL A   1      40.975  27.567  28.969  1.00  0.00     0.023 A 
ATOM     40  C   UNL A   1      41.986  27.676  27.997  1.00  0.00     0.031 A 
ATOM     41  C   UNL A   1      40.009  26.559  28.794  1.00  0.00     0.131 A 
ATOM     42  C   UNL A   1      41.949  26.867  26.851  1.00  0.00     0.055 A 
ATOM     43  C   UNL A   1      40.033  25.693  27.698  1.00  0.00     0.041 A 
ATOM     44  F   UNL A   1      39.006  26.413  29.674  1.00  0.00    -0.206 F 
ATOM     45  C   UNL A   1      40.993  25.859  26.706  1.00  0.00     0.022 A 
BRANCH  42  46
ATOM     46  S   UNL A   1      43.044  27.284  25.464  1.00  0.00     0.124 S 
ATOM     47  O   UNL A   1      43.276  25.971  24.866  1.00  0.00    -0.237 OA
ATOM     48  O   UNL A   1      42.227  28.206  24.685  1.00  0.00    -0.237 OA
ATOM     49  O   UNL A   1      44.210  27.877  26.115  1.00  0.00    -0.744 OA
ENDBRANCH  42  46
ENDBRANCH  25  39
BRANCH  26  50
ATOM     50  C   UNL A   1      39.604  33.845  36.653  1.00  0.00     0.023 A 
ATOM     51  C   UNL A   1      39.023  33.335  37.823  1.00  0.00     0.031 A 
ATOM     52  C   UNL A   1      39.940  35.212  36.621  1.00  0.00     0.131 A 
ATOM     53  C   UNL A   1      38.780  34.191  38.910  1.00  0.00     0.055 A 
ATOM     54  C   UNL A   1      39.740  36.047  37.720  1.00  0.00     0.041 A 
ATOM     55  F   UNL A   1      40.505  35.746  35.527  1.00  0.00    -0.206 F 
ATOM     56  C   UNL A   1      39.151  35.538  38.872  1.00  0.00     0.022 A 
BRANCH  53  57
ATOM     57  S   UNL A   1      37.930  33.527  40.367  1.00  0.00     0.124 S 
ATOM     58  O   UNL A   1      38.889  32.538  40.845  1.00  0.00    -0.237 OA
ATOM     59  O   UNL A   1      37.768  34.717  41.194  1.00  0.00    -0.237 OA
ATOM     60  O   UNL A   1      36.690  32.981  39.818  1.00  0.00    -0.744 OA
ENDBRANCH  53  57
ENDBRANCH  26  50
BRANCH  38  61
ATOM     61  C   UNL A   1      44.119  28.641  35.411  1.00  0.00     0.023 A 
ATOM     62  C   UNL A   1      43.954  27.607  36.350  1.00  0.00     0.031 A 
ATOM     63  C   UNL A   1      45.419  29.131  35.186  1.00  0.00     0.131 A 
ATOM     64  C   UNL A   1      45.069  27.115  37.048  1.00  0.00     0.055 A 
ATOM     65  C   UNL A   1      46.530  28.601  35.844  1.00  0.00     0.041 A 
ATOM     66  F   UNL A   1      45.633  30.122  34.307  1.00  0.00    -0.206 F 
ATOM     67  C   UNL A   1      46.357  27.591  36.785  1.00  0.00     0.022 A 
BRANCH  64  68
ATOM     68  S   UNL A   1      44.814  25.876  38.349  1.00  0.00     0.124 S 
ATOM     69  O   UNL A   1      43.881  26.560  39.239  1.00  0.00    -0.237 OA
ATOM     70  O   UNL A   1      44.272  24.744  37.603  1.00  0.00    -0.237 OA
ATOM     71  O   UNL A   1      46.154  25.671  38.895  1.00  0.00    -0.744 OA
ENDBRANCH  64  68
ENDBRANCH  38  61
ENDBRANCH  12  13
ENDBRANCH   5   7
ENDBRANCH   2   3
ENDBRANCH   1   2
BRANCH   1  72
ATOM     72  C   UNL A   1      31.371  30.694  25.577  1.00  0.00     0.023 C 
BRANCH  72  73
ATOM     73  C   UNL A   1      32.567  29.749  25.648  1.00  0.00     0.116 C 
BRANCH  73  74
ATOM     74  N   UNL A   1      33.275  29.591  24.386  1.00  0.00    -0.352 N 
ATOM     75  C   UNL A   1      33.504  28.436  23.670  1.00  0.00     0.252 C 
ATOM     76  H   UNL A   1      33.639  30.417  23.992  1.00  0.00     0.163 HD
ATOM     77  O   UNL A   1      34.036  28.439  22.566  1.00  0.00    -0.269 OA
BRANCH  75  78
ATOM     78  C   UNL A   1      33.010  27.162  24.217  1.00  0.00     0.052 A 
ATOM     79  C   UNL A   1      33.755  26.614  25.276  1.00  0.00     0.015 A 
ATOM     80  C   UNL A   1      31.887  26.498  23.686  1.00  0.00     0.054 A 
ATOM     81  C   UNL A   1      33.438  25.355  25.771  1.00  0.00     0.002 A 
ATOM     82  C   UNL A   1      31.616  25.204  24.164  1.00  0.00     0.053 A 
ATOM     83  C   UNL A   1      32.381  24.649  25.205  1.00  0.00     0.021 A 
ATOM     84  Cl  UNL A   1      30.452  24.134  23.458  1.00  0.00    -0.084 Cl
BRANCH  80  85
ATOM     85  C   UNL A   1      31.130  27.110  22.561  1.00  0.00     0.195 C 
ATOM     86  O   UNL A   1      31.440  26.804  21.412  1.00  0.00    -0.289 OA
BRANCH  85  87
ATOM     87  C   UNL A   1      29.947  27.994  22.767  1.00  0.00     0.023 A 
ATOM     88  C   UNL A   1      30.036  29.307  22.282  1.00  0.00     0.012 A 
ATOM     89  C   UNL A   1      28.750  27.553  23.345  1.00  0.00     0.012 A 
ATOM     90  C   UNL A   1      28.921  30.145  22.300  1.00  0.00     0.001 A 
ATOM     91  C   UNL A   1      27.632  28.396  23.355  1.00  0.00     0.001 A 
ATOM     92  C   UNL A   1      27.713  29.682  22.819  1.00  0.00     0.000 A 
ENDBRANCH  85  87
ENDBRANCH  80  85
ENDBRANCH  75  78
ENDBRANCH  73  74
ENDBRANCH  72  73
ENDBRANCH   1  72
TORSDOF 16
ENDMDL
