MODEL 1
REMARK VINA RESULT:     -12.9      0.000      0.000
REMARK SMILES CCC[C@H]1CCc2c(sc(NC(=O)[C@H]3[C@@H](C(=O)NCCCCNC(=O)c4ccc(-c5c6nc(c(-c7cc(S(=O)(=O)[O-])ccc7F)c7ccc([nH]7)c(-c7cc(S(=O)(=O)[O-])ccc7F)c7nc(c(-c8cc(S(=O)(=O)[O-])ccc8F)c8ccc5[nH]8)C=C7)C=C6)cc4)[C@H]4CC[C@@H]3O4)c2C(N)=O)C1
REMARK SMILES IDX 20 1 19 2 18 3 16 4 17 5 15 7 14 8 92 9 89 10 91 11 93 12
REMARK SMILES IDX 90 13 12 14 11 15 13 17 10 18 4 19 5 20 98 21 6 22 8 23 7 24
REMARK SMILES IDX 9 25 94 26 3 27 2 28 1 29 95 30 96 31 97 32 21 35 22 36
REMARK SMILES IDX 23 37 24 38 25 40 26 41 27 42 88 43 28 44 87 45 29 46 30 47
REMARK SMILES IDX 31 48 81 49 32 50 86 51 80 52 82 53 33 54 85 55 79 56 78 57
REMARK SMILES IDX 34 59 66 60 46 61 65 62 47 63 50 64 64 65 83 66 48 67 49 68
REMARK SMILES IDX 63 70 84 71 51 72 35 73 36 74 44 75 37 76 43 77 45 78 42 79
REMARK SMILES IDX 38 80 39 81 40 82 41 83 67 84 68 85 76 86 69 87 75 88 77 89
REMARK SMILES IDX 74 90 70 91 71 92 72 93 73 94 52 95 53 96 61 97 54 98 60 99
REMARK SMILES IDX 62 100 59 101 55 102 56 103 57 104 58 105
REMARK H PARENT 18 6 11 16 96 33 96 34 23 39 82 58 50 69
REMARK Flexibility Score: inf
ROOT
ATOM      1  C   UNL A   1      35.466  23.023  23.264  1.00  0.00     0.023 C 
ENDROOT
BRANCH   1   2
ATOM      2  C   UNL A   1      35.208  24.404  23.874  1.00  0.00     0.116 C 
BRANCH   2   3
ATOM      3  N   UNL A   1      34.135  25.128  23.221  1.00  0.00    -0.356 N 
ATOM      4  C   UNL A   1      33.201  25.992  23.709  1.00  0.00     0.226 C 
ATOM      5  O   UNL A   1      32.485  26.574  22.894  1.00  0.00    -0.275 OA
ATOM      6  H   UNL A   1      34.070  24.967  22.251  1.00  0.00     0.163 HD
BRANCH   4   7
ATOM      7  C   UNL A   1      33.164  26.321  25.188  1.00  0.00     0.122 C 
ATOM      8  C   UNL A   1      31.899  26.085  26.025  1.00  0.00     0.123 C 
ATOM      9  C   UNL A   1      31.677  27.445  26.689  1.00  0.00     0.132 C 
ATOM     10  C   UNL A   1      33.476  27.790  25.522  1.00  0.00     0.132 C 
ATOM     11  C   UNL A   1      31.223  28.527  25.709  1.00  0.00     0.035 C 
ATOM     12  O   UNL A   1      33.052  27.845  26.918  1.00  0.00    -0.373 OA
ATOM     13  C   UNL A   1      32.503  28.804  24.927  1.00  0.00     0.035 C 
BRANCH   8  14
ATOM     14  C   UNL A   1      30.639  25.568  25.393  1.00  0.00     0.231 C 
ATOM     15  N   UNL A   1      30.583  24.327  24.823  1.00  0.00    -0.317 N 
ATOM     16  H   UNL A   1      29.742  24.137  24.347  1.00  0.00     0.170 HD
ATOM     17  O   UNL A   1      29.589  26.212  25.440  1.00  0.00    -0.274 OA
BRANCH  15  18
ATOM     18  C   UNL A   1      31.495  23.298  24.799  1.00  0.00     0.108 A 
ATOM     19  C   UNL A   1      32.621  18.810  23.764  1.00  0.00    -0.006 C 
ATOM     20  C   UNL A   1      33.735  19.034  24.812  1.00  0.00     0.009 C 
ATOM     21  C   UNL A   1      32.517  20.072  22.873  1.00  0.00     0.050 C 
ATOM     22  C   UNL A   1      33.370  20.184  25.773  1.00  0.00     0.038 C 
ATOM     23  C   UNL A   1      32.319  21.261  23.749  1.00  0.00     0.011 A 
ATOM     24  C   UNL A   1      32.699  21.337  25.072  1.00  0.00    -0.019 A 
ATOM     25  S   UNL A   1      31.589  22.681  23.202  1.00  0.00    -0.122 S 
ATOM     26  C   UNL A   1      32.328  22.603  25.666  1.00  0.00     0.077 A 
BRANCH  19  27
ATOM     27  C   UNL A   1      32.853  17.559  22.902  1.00  0.00     0.004 C 
BRANCH  27  28
ATOM     28  C   UNL A   1      33.870  16.569  23.492  1.00  0.00    -0.003 C 
ATOM     29  C   UNL A   1      33.394  15.766  24.696  1.00  0.00     0.004 C 
ENDBRANCH  27  28
ENDBRANCH  19  27
BRANCH  26  30
ATOM     30  C   UNL A   1      32.776  22.990  26.997  1.00  0.00     0.251 C 
ATOM     31  N   UNL A   1      34.095  23.329  27.096  1.00  0.00    -0.365 N 
ATOM     32  O   UNL A   1      32.062  22.960  27.991  1.00  0.00    -0.269 OA
ATOM     33  H   UNL A   1      34.659  23.350  26.289  1.00  0.00     0.159 HD
ATOM     34  H   UNL A   1      34.482  23.554  27.973  1.00  0.00     0.159 HD
ENDBRANCH  26  30
ENDBRANCH  15  18
ENDBRANCH   8  14
ENDBRANCH   4   7
ENDBRANCH   2   3
ENDBRANCH   1   2
BRANCH   1  35
ATOM     35  C   UNL A   1      36.801  22.378  23.643  1.00  0.00     0.023 C 
BRANCH  35  36
ATOM     36  C   UNL A   1      36.994  22.191  25.141  1.00  0.00     0.116 C 
BRANCH  36  37
ATOM     37  N   UNL A   1      37.847  21.047  25.434  1.00  0.00    -0.352 N 
ATOM     38  C   UNL A   1      39.105  21.031  25.987  1.00  0.00     0.251 C 
ATOM     39  H   UNL A   1      37.471  20.167  25.205  1.00  0.00     0.163 HD
ATOM     40  O   UNL A   1      39.771  20.000  25.963  1.00  0.00    -0.269 OA
BRANCH  38  41
ATOM     41  C   UNL A   1      39.650  22.268  26.582  1.00  0.00     0.039 A 
ATOM     42  C   UNL A   1      40.654  22.180  27.549  1.00  0.00     0.014 A 
ATOM     43  C   UNL A   1      39.190  23.516  26.151  1.00  0.00     0.014 A 
ATOM     44  C   UNL A   1      41.254  23.348  28.027  1.00  0.00     0.010 A 
ATOM     45  C   UNL A   1      39.836  24.671  26.576  1.00  0.00     0.010 A 
ATOM     46  C   UNL A   1      40.879  24.599  27.513  1.00  0.00    -0.014 A 
BRANCH  46  47
ATOM     47  C   UNL A   1      41.568  25.851  27.920  1.00  0.00     0.031 A 
ATOM     48  C   UNL A   1      40.799  26.926  28.637  1.00  0.00     0.074 A 
ATOM     49  C   UNL A   1      42.848  26.057  27.550  1.00  0.00     0.049 A 
ATOM     50  N   UNL A   1      41.167  28.141  28.944  1.00  0.00    -0.248 NA
ATOM     51  C   UNL A   1      39.418  26.598  29.027  1.00  0.00     0.031 C 
ATOM     52  C   UNL A   1      43.678  25.103  26.809  1.00  0.00     0.029 A 
ATOM     53  N   UNL A   1      43.668  27.144  27.719  1.00  0.00    -0.354 N 
ATOM     54  C   UNL A   1      40.058  28.736  29.536  1.00  0.00     0.074 A 
ATOM     55  C   UNL A   1      38.992  27.758  29.508  1.00  0.00     0.031 C 
ATOM     56  C   UNL A   1      44.887  25.648  26.590  1.00  0.00     0.029 A 
ATOM     57  C   UNL A   1      44.904  27.003  27.130  1.00  0.00     0.049 A 
ATOM     58  H   UNL A   1      43.397  27.950  28.216  1.00  0.00     0.167 HD
ATOM     59  C   UNL A   1      39.947  29.979  30.066  1.00  0.00     0.034 A 
ATOM     60  C   UNL A   1      45.925  27.876  27.014  1.00  0.00     0.034 A 
ATOM     61  C   UNL A   1      41.030  30.928  30.113  1.00  0.00     0.049 A 
ATOM     62  C   UNL A   1      45.775  29.251  27.619  1.00  0.00     0.074 A 
ATOM     63  C   UNL A   1      41.054  32.179  30.706  1.00  0.00     0.029 A 
ATOM     64  N   UNL A   1      42.279  30.739  29.537  1.00  0.00    -0.354 N 
ATOM     65  N   UNL A   1      44.742  29.771  28.238  1.00  0.00    -0.248 NA
ATOM     66  C   UNL A   1      46.932  30.149  27.516  1.00  0.00     0.031 C 
ATOM     67  C   UNL A   1      42.293  32.769  30.434  1.00  0.00     0.029 A 
ATOM     68  C   UNL A   1      43.069  31.862  29.732  1.00  0.00     0.049 A 
ATOM     69  H   UNL A   1      42.563  29.925  29.060  1.00  0.00     0.167 HD
ATOM     70  C   UNL A   1      45.136  31.051  28.620  1.00  0.00     0.074 A 
ATOM     71  C   UNL A   1      46.505  31.213  28.180  1.00  0.00     0.031 C 
ATOM     72  C   UNL A   1      44.431  32.007  29.276  1.00  0.00     0.034 A 
BRANCH  59  73
ATOM     73  C   UNL A   1      38.602  30.390  30.612  1.00  0.00     0.023 A 
ATOM     74  C   UNL A   1      37.692  31.144  29.852  1.00  0.00     0.031 A 
ATOM     75  C   UNL A   1      38.226  30.020  31.916  1.00  0.00     0.131 A 
ATOM     76  C   UNL A   1      36.476  31.555  30.422  1.00  0.00     0.055 A 
ATOM     77  C   UNL A   1      36.985  30.372  32.451  1.00  0.00     0.041 A 
ATOM     78  F   UNL A   1      39.064  29.317  32.695  1.00  0.00    -0.206 F 
ATOM     79  C   UNL A   1      36.106  31.153  31.707  1.00  0.00     0.022 A 
BRANCH  76  80
ATOM     80  S   UNL A   1      35.434  32.715  29.497  1.00  0.00     0.124 S 
ATOM     81  O   UNL A   1      34.163  32.601  30.208  1.00  0.00    -0.237 OA
ATOM     82  O   UNL A   1      36.144  33.978  29.660  1.00  0.00    -0.237 OA
ATOM     83  O   UNL A   1      35.433  32.170  28.141  1.00  0.00    -0.744 OA
ENDBRANCH  76  80
ENDBRANCH  59  73
BRANCH  60  84
ATOM     84  C   UNL A   1      47.165  27.504  26.273  1.00  0.00     0.023 A 
ATOM     85  C   UNL A   1      47.306  27.790  24.906  1.00  0.00     0.031 A 
ATOM     86  C   UNL A   1      48.203  26.799  26.909  1.00  0.00     0.131 A 
ATOM     87  C   UNL A   1      48.430  27.326  24.206  1.00  0.00     0.055 A 
ATOM     88  C   UNL A   1      49.346  26.388  26.221  1.00  0.00     0.041 A 
ATOM     89  F   UNL A   1      48.122  26.503  28.216  1.00  0.00    -0.206 F 
ATOM     90  C   UNL A   1      49.456  26.636  24.856  1.00  0.00     0.022 A 
BRANCH  87  91
ATOM     91  S   UNL A   1      48.483  27.547  22.406  1.00  0.00     0.124 S 
ATOM     92  O   UNL A   1      47.272  28.324  22.166  1.00  0.00    -0.237 OA
ATOM     93  O   UNL A   1      49.746  28.254  22.227  1.00  0.00    -0.237 OA
ATOM     94  O   UNL A   1      48.458  26.179  21.894  1.00  0.00    -0.744 OA
ENDBRANCH  87  91
ENDBRANCH  60  84
BRANCH  72  95
ATOM     95  C   UNL A   1      45.153  33.294  29.587  1.00  0.00     0.023 A 
ATOM     96  C   UNL A   1      45.230  34.340  28.653  1.00  0.00     0.031 A 
ATOM     97  C   UNL A   1      45.782  33.468  30.831  1.00  0.00     0.131 A 
ATOM     98  C   UNL A   1      45.969  35.494  28.956  1.00  0.00     0.055 A 
ATOM     99  C   UNL A   1      46.467  34.641  31.150  1.00  0.00     0.041 A 
ATOM    100  F   UNL A   1      45.741  32.499  31.760  1.00  0.00    -0.206 F 
ATOM    101  C   UNL A   1      46.573  35.658  30.205  1.00  0.00     0.022 A 
BRANCH  98 102
ATOM    102  S   UNL A   1      46.199  36.745  27.663  1.00  0.00     0.124 S 
ATOM    103  O   UNL A   1      45.578  36.106  26.509  1.00  0.00    -0.237 OA
ATOM    104  O   UNL A   1      45.491  37.897  28.213  1.00  0.00    -0.237 OA
ATOM    105  O   UNL A   1      47.651  36.892  27.585  1.00  0.00    -0.744 OA
ENDBRANCH  98 102
ENDBRANCH  72  95
ENDBRANCH  46  47
ENDBRANCH  38  41
ENDBRANCH  36  37
ENDBRANCH  35  36
ENDBRANCH   1  35
TORSDOF 19
ENDMDL
MODEL 2
REMARK VINA RESULT:     -12.8      0.688      7.164
REMARK SMILES CCC[C@H]1CCc2c(sc(NC(=O)[C@H]3[C@@H](C(=O)NCCCCNC(=O)c4ccc(-c5c6nc(c(-c7cc(S(=O)(=O)[O-])ccc7F)c7ccc([nH]7)c(-c7cc(S(=O)(=O)[O-])ccc7F)c7nc(c(-c8cc(S(=O)(=O)[O-])ccc8F)c8ccc5[nH]8)C=C7)C=C6)cc4)[C@H]4CC[C@@H]3O4)c2C(N)=O)C1
REMARK SMILES IDX 20 1 19 2 18 3 16 4 17 5 15 7 14 8 92 9 89 10 91 11 93 12
REMARK SMILES IDX 90 13 12 14 11 15 13 17 10 18 4 19 5 20 98 21 6 22 8 23 7 24
REMARK SMILES IDX 9 25 94 26 3 27 2 28 1 29 95 30 96 31 97 32 21 35 22 36
REMARK SMILES IDX 23 37 24 38 25 40 26 41 27 42 88 43 28 44 87 45 29 46 30 47
REMARK SMILES IDX 31 48 81 49 32 50 86 51 80 52 82 53 33 54 85 55 79 56 78 57
REMARK SMILES IDX 34 59 66 60 46 61 65 62 47 63 50 64 64 65 83 66 48 67 49 68
REMARK SMILES IDX 63 70 84 71 51 72 35 73 36 74 44 75 37 76 43 77 45 78 42 79
REMARK SMILES IDX 38 80 39 81 40 82 41 83 67 84 68 85 76 86 69 87 75 88 77 89
REMARK SMILES IDX 74 90 70 91 71 92 72 93 73 94 52 95 53 96 61 97 54 98 60 99
REMARK SMILES IDX 62 100 59 101 55 102 56 103 57 104 58 105
REMARK H PARENT 18 6 11 16 96 33 96 34 23 39 82 58 50 69
REMARK Flexibility Score: inf
ROOT
ATOM      1  C   UNL A   1      35.708  22.836  23.502  1.00  0.00     0.023 C 
ENDROOT
BRANCH   1   2
ATOM      2  C   UNL A   1      35.175  24.091  24.202  1.00  0.00     0.116 C 
BRANCH   2   3
ATOM      3  N   UNL A   1      34.375  24.934  23.335  1.00  0.00    -0.356 N 
ATOM      4  C   UNL A   1      33.497  25.939  23.614  1.00  0.00     0.226 C 
ATOM      5  O   UNL A   1      33.056  26.586  22.664  1.00  0.00    -0.275 OA
ATOM      6  H   UNL A   1      34.486  24.749  22.375  1.00  0.00     0.163 HD
BRANCH   4   7
ATOM      7  C   UNL A   1      33.207  26.324  25.050  1.00  0.00     0.122 C 
ATOM      8  C   UNL A   1      31.795  26.199  25.639  1.00  0.00     0.123 C 
ATOM      9  C   UNL A   1      31.547  27.594  26.216  1.00  0.00     0.132 C 
ATOM     10  C   UNL A   1      33.551  27.782  25.401  1.00  0.00     0.132 C 
ATOM     11  C   UNL A   1      31.358  28.664  25.141  1.00  0.00     0.035 C 
ATOM     12  O   UNL A   1      32.879  27.915  26.690  1.00  0.00    -0.373 OA
ATOM     13  C   UNL A   1      32.777  28.832  24.608  1.00  0.00     0.035 C 
BRANCH   8  14
ATOM     14  C   UNL A   1      30.643  25.738  24.794  1.00  0.00     0.231 C 
ATOM     15  N   UNL A   1      30.605  24.479  24.264  1.00  0.00    -0.317 N 
ATOM     16  H   UNL A   1      29.858  24.324  23.641  1.00  0.00     0.170 HD
ATOM     17  O   UNL A   1      29.654  26.451  24.619  1.00  0.00    -0.274 OA
BRANCH  15  18
ATOM     18  C   UNL A   1      31.427  23.392  24.448  1.00  0.00     0.108 A 
ATOM     19  C   UNL A   1      32.404  18.801  23.777  1.00  0.00    -0.006 C 
ATOM     20  C   UNL A   1      33.307  18.994  25.018  1.00  0.00     0.009 C 
ATOM     21  C   UNL A   1      32.567  20.030  22.849  1.00  0.00     0.050 C 
ATOM     22  C   UNL A   1      32.847  20.204  25.856  1.00  0.00     0.038 C 
ATOM     23  C   UNL A   1      32.290  21.264  23.636  1.00  0.00     0.011 A 
ATOM     24  C   UNL A   1      32.410  21.369  25.005  1.00  0.00    -0.019 A 
ATOM     25  S   UNL A   1      31.785  22.706  22.918  1.00  0.00    -0.122 S 
ATOM     26  C   UNL A   1      32.023  22.680  25.480  1.00  0.00     0.077 A 
BRANCH  19  27
ATOM     27  C   UNL A   1      32.709  17.503  23.012  1.00  0.00     0.004 C 
BRANCH  27  28
ATOM     28  C   UNL A   1      34.122  16.948  23.251  1.00  0.00    -0.003 C 
ATOM     29  C   UNL A   1      34.240  15.872  24.322  1.00  0.00     0.004 C 
ENDBRANCH  27  28
ENDBRANCH  19  27
BRANCH  26  30
ATOM     30  C   UNL A   1      32.231  23.090  26.862  1.00  0.00     0.251 C 
ATOM     31  N   UNL A   1      33.535  23.198  27.252  1.00  0.00    -0.365 N 
ATOM     32  O   UNL A   1      31.323  23.271  27.663  1.00  0.00    -0.269 OA
ATOM     33  H   UNL A   1      34.257  23.051  26.599  1.00  0.00     0.159 HD
ATOM     34  H   UNL A   1      33.754  23.422  28.186  1.00  0.00     0.159 HD
ENDBRANCH  26  30
ENDBRANCH  15  18
ENDBRANCH   8  14
ENDBRANCH   4   7
ENDBRANCH   2   3
ENDBRANCH   1   2
BRANCH   1  35
ATOM     35  C   UNL A   1      36.012  21.653  24.422  1.00  0.00     0.023 C 
BRANCH  35  36
ATOM     36  C   UNL A   1      36.889  22.005  25.615  1.00  0.00     0.116 C 
BRANCH  36  37
ATOM     37  N   UNL A   1      37.954  21.029  25.806  1.00  0.00    -0.352 N 
ATOM     38  C   UNL A   1      39.263  21.243  26.166  1.00  0.00     0.251 C 
ATOM     39  H   UNL A   1      37.701  20.090  25.656  1.00  0.00     0.163 HD
ATOM     40  O   UNL A   1      40.081  20.334  26.069  1.00  0.00    -0.269 OA
BRANCH  38  41
ATOM     41  C   UNL A   1      39.673  22.580  26.643  1.00  0.00     0.039 A 
ATOM     42  C   UNL A   1      40.675  22.685  27.609  1.00  0.00     0.014 A 
ATOM     43  C   UNL A   1      39.087  23.728  26.102  1.00  0.00     0.014 A 
ATOM     44  C   UNL A   1      41.148  23.948  27.976  1.00  0.00     0.010 A 
ATOM     45  C   UNL A   1      39.608  24.979  26.417  1.00  0.00     0.010 A 
ATOM     46  C   UNL A   1      40.648  25.101  27.351  1.00  0.00    -0.014 A 
BRANCH  46  47
ATOM     47  C   UNL A   1      41.201  26.450  27.640  1.00  0.00     0.031 A 
ATOM     48  C   UNL A   1      42.611  26.780  27.235  1.00  0.00     0.074 A 
ATOM     49  C   UNL A   1      40.472  27.328  28.356  1.00  0.00     0.049 A 
ATOM     50  N   UNL A   1      43.328  27.834  27.521  1.00  0.00    -0.248 NA
ATOM     51  C   UNL A   1      43.317  25.771  26.429  1.00  0.00     0.031 C 
ATOM     52  C   UNL A   1      39.110  27.098  28.845  1.00  0.00     0.029 A 
ATOM     53  N   UNL A   1      40.781  28.581  28.824  1.00  0.00    -0.354 N 
ATOM     54  C   UNL A   1      44.580  27.605  26.958  1.00  0.00     0.074 A 
ATOM     55  C   UNL A   1      44.533  26.294  26.348  1.00  0.00     0.031 C 
ATOM     56  C   UNL A   1      38.702  28.172  29.541  1.00  0.00     0.029 A 
ATOM     57  C   UNL A   1      39.787  29.147  29.590  1.00  0.00     0.049 A 
ATOM     58  H   UNL A   1      41.634  29.033  28.629  1.00  0.00     0.167 HD
ATOM     59  C   UNL A   1      45.661  28.422  26.943  1.00  0.00     0.034 A 
ATOM     60  C   UNL A   1      39.763  30.308  30.277  1.00  0.00     0.034 A 
ATOM     61  C   UNL A   1      45.679  29.738  27.529  1.00  0.00     0.049 A 
ATOM     62  C   UNL A   1      40.979  31.199  30.236  1.00  0.00     0.074 A 
ATOM     63  C   UNL A   1      46.689  30.684  27.492  1.00  0.00     0.029 A 
ATOM     64  N   UNL A   1      44.642  30.293  28.268  1.00  0.00    -0.354 N 
ATOM     65  N   UNL A   1      42.130  30.998  29.639  1.00  0.00    -0.248 NA
ATOM     66  C   UNL A   1      40.888  32.476  30.954  1.00  0.00     0.031 C 
ATOM     67  C   UNL A   1      46.288  31.783  28.260  1.00  0.00     0.029 A 
ATOM     68  C   UNL A   1      45.002  31.554  28.720  1.00  0.00     0.049 A 
ATOM     69  H   UNL A   1      43.778  29.856  28.445  1.00  0.00     0.167 HD
ATOM     70  C   UNL A   1      42.891  32.137  29.890  1.00  0.00     0.074 A 
ATOM     71  C   UNL A   1      42.060  33.026  30.673  1.00  0.00     0.031 C 
ATOM     72  C   UNL A   1      44.161  32.423  29.508  1.00  0.00     0.034 A 
BRANCH  59  73
ATOM     73  C   UNL A   1      46.921  27.903  26.294  1.00  0.00     0.023 A 
ATOM     74  C   UNL A   1      47.181  28.089  24.925  1.00  0.00     0.031 A 
ATOM     75  C   UNL A   1      47.877  27.212  27.060  1.00  0.00     0.131 A 
ATOM     76  C   UNL A   1      48.338  27.537  24.352  1.00  0.00     0.055 A 
ATOM     77  C   UNL A   1      49.060  26.728  26.497  1.00  0.00     0.041 A 
ATOM     78  F   UNL A   1      47.672  26.989  28.368  1.00  0.00    -0.206 F 
ATOM     79  C   UNL A   1      49.291  26.879  25.133  1.00  0.00     0.022 A 
BRANCH  76  80
ATOM     80  S   UNL A   1      48.524  27.595  22.549  1.00  0.00     0.124 S 
ATOM     81  O   UNL A   1      48.596  26.175  22.214  1.00  0.00    -0.237 OA
ATOM     82  O   UNL A   1      47.314  28.289  22.127  1.00  0.00    -0.237 OA
ATOM     83  O   UNL A   1      49.769  28.337  22.357  1.00  0.00    -0.744 OA
ENDBRANCH  76  80
ENDBRANCH  59  73
BRANCH  60  84
ATOM     84  C   UNL A   1      38.570  30.686  31.089  1.00  0.00     0.023 A 
ATOM     85  C   UNL A   1      37.474  31.339  30.505  1.00  0.00     0.031 A 
ATOM     86  C   UNL A   1      38.537  30.456  32.476  1.00  0.00     0.131 A 
ATOM     87  C   UNL A   1      36.416  31.789  31.311  1.00  0.00     0.055 A 
ATOM     88  C   UNL A   1      37.458  30.855  33.266  1.00  0.00     0.041 A 
ATOM     89  F   UNL A   1      39.558  29.831  33.086  1.00  0.00    -0.206 F 
ATOM     90  C   UNL A   1      36.395  31.542  32.686  1.00  0.00     0.022 A 
BRANCH  87  91
ATOM     91  S   UNL A   1      35.113  32.796  30.549  1.00  0.00     0.124 S 
ATOM     92  O   UNL A   1      34.161  32.930  31.645  1.00  0.00    -0.237 OA
ATOM     93  O   UNL A   1      35.843  34.003  30.181  1.00  0.00    -0.237 OA
ATOM     94  O   UNL A   1      34.661  31.975  29.427  1.00  0.00    -0.744 OA
ENDBRANCH  87  91
ENDBRANCH  60  84
BRANCH  72  95
ATOM     95  C   UNL A   1      44.704  33.773  29.904  1.00  0.00     0.023 A 
ATOM     96  C   UNL A   1      44.512  34.909  29.099  1.00  0.00     0.031 A 
ATOM     97  C   UNL A   1      45.433  33.920  31.096  1.00  0.00     0.131 A 
ATOM     98  C   UNL A   1      45.091  36.132  29.469  1.00  0.00     0.055 A 
ATOM     99  C   UNL A   1      45.956  35.151  31.489  1.00  0.00     0.041 A 
ATOM    100  F   UNL A   1      45.646  32.867  31.901  1.00  0.00    -0.206 F 
ATOM    101  C   UNL A   1      45.797  36.264  30.668  1.00  0.00     0.022 A 
BRANCH  98 102
ATOM    102  S   UNL A   1      44.979  37.531  28.321  1.00  0.00     0.124 S 
ATOM    103  O   UNL A   1      46.093  38.368  28.755  1.00  0.00    -0.237 OA
ATOM    104  O   UNL A   1      45.136  36.884  27.023  1.00  0.00    -0.237 OA
ATOM    105  O   UNL A   1      43.651  38.082  28.582  1.00  0.00    -0.744 OA
ENDBRANCH  98 102
ENDBRANCH  72  95
ENDBRANCH  46  47
ENDBRANCH  38  41
ENDBRANCH  36  37
ENDBRANCH  35  36
ENDBRANCH   1  35
TORSDOF 19
ENDMDL
MODEL 3
REMARK VINA RESULT:     -12.3      1.950      2.164
REMARK SMILES CCC[C@H]1CCc2c(sc(NC(=O)[C@H]3[C@@H](C(=O)NCCCCNC(=O)c4ccc(-c5c6nc(c(-c7cc(S(=O)(=O)[O-])ccc7F)c7ccc([nH]7)c(-c7cc(S(=O)(=O)[O-])ccc7F)c7nc(c(-c8cc(S(=O)(=O)[O-])ccc8F)c8ccc5[nH]8)C=C7)C=C6)cc4)[C@H]4CC[C@@H]3O4)c2C(N)=O)C1
REMARK SMILES IDX 20 1 19 2 18 3 16 4 17 5 15 7 14 8 92 9 89 10 91 11 93 12
REMARK SMILES IDX 90 13 12 14 11 15 13 17 10 18 4 19 5 20 98 21 6 22 8 23 7 24
REMARK SMILES IDX 9 25 94 26 3 27 2 28 1 29 95 30 96 31 97 32 21 35 22 36
REMARK SMILES IDX 23 37 24 38 25 40 26 41 27 42 88 43 28 44 87 45 29 46 30 47
REMARK SMILES IDX 31 48 81 49 32 50 86 51 80 52 82 53 33 54 85 55 79 56 78 57
REMARK SMILES IDX 34 59 66 60 46 61 65 62 47 63 50 64 64 65 83 66 48 67 49 68
REMARK SMILES IDX 63 70 84 71 51 72 35 73 36 74 44 75 37 76 43 77 45 78 42 79
REMARK SMILES IDX 38 80 39 81 40 82 41 83 67 84 68 85 76 86 69 87 75 88 77 89
REMARK SMILES IDX 74 90 70 91 71 92 72 93 73 94 52 95 53 96 61 97 54 98 60 99
REMARK SMILES IDX 62 100 59 101 55 102 56 103 57 104 58 105
REMARK H PARENT 18 6 11 16 96 33 96 34 23 39 82 58 50 69
REMARK Flexibility Score: inf
ROOT
ATOM      1  C   UNL A   1      35.075  22.948  23.627  1.00  0.00     0.023 C 
ENDROOT
BRANCH   1   2
ATOM      2  C   UNL A   1      35.077  24.471  23.459  1.00  0.00     0.116 C 
BRANCH   2   3
ATOM      3  N   UNL A   1      34.025  24.951  22.583  1.00  0.00    -0.356 N 
ATOM      4  C   UNL A   1      32.982  25.799  22.807  1.00  0.00     0.226 C 
ATOM      5  O   UNL A   1      32.313  26.145  21.833  1.00  0.00    -0.275 OA
ATOM      6  H   UNL A   1      34.074  24.604  21.663  1.00  0.00     0.163 HD
BRANCH   4   7
ATOM      7  C   UNL A   1      32.765  26.398  24.182  1.00  0.00     0.122 C 
ATOM      8  C   UNL A   1      31.416  26.269  24.903  1.00  0.00     0.123 C 
ATOM      9  C   UNL A   1      31.090  27.719  25.266  1.00  0.00     0.132 C 
ATOM     10  C   UNL A   1      33.005  27.915  24.261  1.00  0.00     0.132 C 
ATOM     11  C   UNL A   1      30.731  28.577  24.053  1.00  0.00     0.035 C 
ATOM     12  O   UNL A   1      32.419  28.214  25.565  1.00  0.00    -0.373 OA
ATOM     13  C   UNL A   1      32.087  28.757  23.378  1.00  0.00     0.035 C 
BRANCH   8  14
ATOM     14  C   UNL A   1      30.250  25.589  24.247  1.00  0.00     0.231 C 
ATOM     15  N   UNL A   1      30.275  24.255  23.951  1.00  0.00    -0.317 N 
ATOM     16  H   UNL A   1      29.502  23.941  23.427  1.00  0.00     0.170 HD
ATOM     17  O   UNL A   1      29.198  26.193  24.027  1.00  0.00    -0.274 OA
BRANCH  15  18
ATOM     18  C   UNL A   1      31.189  23.275  24.258  1.00  0.00     0.108 A 
ATOM     19  C   UNL A   1      32.479  18.713  24.321  1.00  0.00    -0.006 C 
ATOM     20  C   UNL A   1      33.439  19.183  25.438  1.00  0.00     0.009 C 
ATOM     21  C   UNL A   1      32.487  19.764  23.185  1.00  0.00     0.050 C 
ATOM     22  C   UNL A   1      32.939  20.490  26.087  1.00  0.00     0.038 C 
ATOM     23  C   UNL A   1      32.164  21.098  23.765  1.00  0.00     0.011 A 
ATOM     24  C   UNL A   1      32.360  21.454  25.082  1.00  0.00    -0.019 A 
ATOM     25  S   UNL A   1      31.503  22.352  22.848  1.00  0.00    -0.122 S 
ATOM     26  C   UNL A   1      31.903  22.800  25.351  1.00  0.00     0.077 A 
BRANCH  19  27
ATOM     27  C   UNL A   1      32.835  17.322  23.773  1.00  0.00     0.004 C 
BRANCH  27  28
ATOM     28  C   UNL A   1      34.337  16.996  23.812  1.00  0.00    -0.003 C 
ATOM     29  C   UNL A   1      34.777  16.026  24.901  1.00  0.00     0.004 C 
ENDBRANCH  27  28
ENDBRANCH  19  27
BRANCH  26  30
ATOM     30  C   UNL A   1      32.164  23.463  26.621  1.00  0.00     0.251 C 
ATOM     31  N   UNL A   1      33.436  23.930  26.788  1.00  0.00    -0.365 N 
ATOM     32  O   UNL A   1      31.341  23.554  27.523  1.00  0.00    -0.269 OA
ATOM     33  H   UNL A   1      34.089  23.851  26.054  1.00  0.00     0.159 HD
ATOM     34  H   UNL A   1      33.701  24.345  27.640  1.00  0.00     0.159 HD
ENDBRANCH  26  30
ENDBRANCH  15  18
ENDBRANCH   8  14
ENDBRANCH   4   7
ENDBRANCH   2   3
ENDBRANCH   1   2
BRANCH   1  35
ATOM     35  C   UNL A   1      36.445  22.317  23.885  1.00  0.00     0.023 C 
BRANCH  35  36
ATOM     36  C   UNL A   1      36.657  21.866  25.323  1.00  0.00     0.116 C 
BRANCH  36  37
ATOM     37  N   UNL A   1      37.578  20.740  25.403  1.00  0.00    -0.352 N 
ATOM     38  C   UNL A   1      38.898  20.732  25.786  1.00  0.00     0.251 C 
ATOM     39  H   UNL A   1      37.204  19.866  25.147  1.00  0.00     0.163 HD
ATOM     40  O   UNL A   1      39.588  19.737  25.586  1.00  0.00    -0.269 OA
BRANCH  38  41
ATOM     41  C   UNL A   1      39.477  21.939  26.413  1.00  0.00     0.039 A 
ATOM     42  C   UNL A   1      40.502  21.799  27.349  1.00  0.00     0.014 A 
ATOM     43  C   UNL A   1      39.024  23.208  26.041  1.00  0.00     0.014 A 
ATOM     44  C   UNL A   1      41.132  22.939  27.855  1.00  0.00     0.010 A 
ATOM     45  C   UNL A   1      39.699  24.337  26.492  1.00  0.00     0.010 A 
ATOM     46  C   UNL A   1      40.764  24.215  27.397  1.00  0.00    -0.014 A 
BRANCH  46  47
ATOM     47  C   UNL A   1      41.482  25.440  27.834  1.00  0.00     0.031 A 
ATOM     48  C   UNL A   1      40.737  26.520  28.568  1.00  0.00     0.074 A 
ATOM     49  C   UNL A   1      42.768  25.621  27.473  1.00  0.00     0.049 A 
ATOM     50  N   UNL A   1      41.134  27.719  28.902  1.00  0.00    -0.248 NA
ATOM     51  C   UNL A   1      39.346  26.219  28.946  1.00  0.00     0.031 C 
ATOM     52  C   UNL A   1      43.578  24.663  26.717  1.00  0.00     0.029 A 
ATOM     53  N   UNL A   1      43.614  26.684  27.668  1.00  0.00    -0.354 N 
ATOM     54  C   UNL A   1      40.036  28.329  29.502  1.00  0.00     0.074 A 
ATOM     55  C   UNL A   1      38.946  27.378  29.449  1.00  0.00     0.031 C 
ATOM     56  C   UNL A   1      44.801  25.181  26.514  1.00  0.00     0.029 A 
ATOM     57  C   UNL A   1      44.849  26.524  27.083  1.00  0.00     0.049 A 
ATOM     58  H   UNL A   1      43.361  27.487  28.181  1.00  0.00     0.167 HD
ATOM     59  C   UNL A   1      39.954  29.563  30.056  1.00  0.00     0.034 A 
ATOM     60  C   UNL A   1      45.893  27.374  26.989  1.00  0.00     0.034 A 
ATOM     61  C   UNL A   1      41.060  30.484  30.127  1.00  0.00     0.049 A 
ATOM     62  C   UNL A   1      45.774  28.738  27.620  1.00  0.00     0.074 A 
ATOM     63  C   UNL A   1      41.112  31.721  30.746  1.00  0.00     0.029 A 
ATOM     64  N   UNL A   1      42.307  30.275  29.553  1.00  0.00    -0.354 N 
ATOM     65  N   UNL A   1      44.751  29.272  28.246  1.00  0.00    -0.248 NA
ATOM     66  C   UNL A   1      46.953  29.609  27.541  1.00  0.00     0.031 C 
ATOM     67  C   UNL A   1      42.367  32.286  30.492  1.00  0.00     0.029 A 
ATOM     68  C   UNL A   1      43.124  31.373  29.774  1.00  0.00     0.049 A 
ATOM     69  H   UNL A   1      42.573  29.464  29.061  1.00  0.00     0.167 HD
ATOM     70  C   UNL A   1      45.175  30.534  28.656  1.00  0.00     0.074 A 
ATOM     71  C   UNL A   1      46.550  30.670  28.225  1.00  0.00     0.031 C 
ATOM     72  C   UNL A   1      44.491  31.494  29.328  1.00  0.00     0.034 A 
BRANCH  59  73
ATOM     73  C   UNL A   1      38.617  29.997  30.604  1.00  0.00     0.023 A 
ATOM     74  C   UNL A   1      37.671  30.667  29.809  1.00  0.00     0.031 A 
ATOM     75  C   UNL A   1      38.284  29.734  31.945  1.00  0.00     0.131 A 
ATOM     76  C   UNL A   1      36.464  31.105  30.378  1.00  0.00     0.055 A 
ATOM     77  C   UNL A   1      37.053  30.109  32.485  1.00  0.00     0.041 A 
ATOM     78  F   UNL A   1      39.157  29.115  32.756  1.00  0.00    -0.206 F 
ATOM     79  C   UNL A   1      36.138  30.809  31.703  1.00  0.00     0.022 A 
BRANCH  76  80
ATOM     80  S   UNL A   1      35.375  32.164  29.389  1.00  0.00     0.124 S 
ATOM     81  O   UNL A   1      34.439  32.651  30.400  1.00  0.00    -0.237 OA
ATOM     82  O   UNL A   1      36.299  33.152  28.847  1.00  0.00    -0.237 OA
ATOM     83  O   UNL A   1      34.799  31.245  28.409  1.00  0.00    -0.744 OA
ENDBRANCH  76  80
ENDBRANCH  59  73
BRANCH  60  84
ATOM     84  C   UNL A   1      47.126  26.985  26.246  1.00  0.00     0.023 A 
ATOM     85  C   UNL A   1      48.177  26.312  26.889  1.00  0.00     0.031 A 
ATOM     86  C   UNL A   1      47.299  27.337  24.895  1.00  0.00     0.131 A 
ATOM     87  C   UNL A   1      49.374  26.061  26.199  1.00  0.00     0.055 A 
ATOM     88  C   UNL A   1      48.469  27.037  24.197  1.00  0.00     0.041 A 
ATOM     89  F   UNL A   1      46.324  27.978  24.231  1.00  0.00    -0.206 F 
ATOM     90  C   UNL A   1      49.523  26.409  24.855  1.00  0.00     0.022 A 
BRANCH  87  91
ATOM     91  S   UNL A   1      50.775  25.365  27.119  1.00  0.00     0.124 S 
ATOM     92  O   UNL A   1      51.237  26.521  27.877  1.00  0.00    -0.237 OA
ATOM     93  O   UNL A   1      50.132  24.306  27.889  1.00  0.00    -0.237 OA
ATOM     94  O   UNL A   1      51.678  24.907  26.065  1.00  0.00    -0.744 OA
ENDBRANCH  87  91
ENDBRANCH  60  84
BRANCH  72  95
ATOM     95  C   UNL A   1      45.243  32.755  29.669  1.00  0.00     0.023 A 
ATOM     96  C   UNL A   1      45.969  32.880  30.866  1.00  0.00     0.031 A 
ATOM     97  C   UNL A   1      45.223  33.850  28.788  1.00  0.00     0.131 A 
ATOM     98  C   UNL A   1      46.600  34.095  31.176  1.00  0.00     0.055 A 
ATOM     99  C   UNL A   1      45.900  35.035  29.074  1.00  0.00     0.041 A 
ATOM    100  F   UNL A   1      44.544  33.784  27.631  1.00  0.00    -0.206 F 
ATOM    101  C   UNL A   1      46.584  35.167  30.280  1.00  0.00     0.022 A 
BRANCH  98 102
ATOM    102  S   UNL A   1      47.372  34.283  32.806  1.00  0.00     0.124 S 
ATOM    103  O   UNL A   1      48.336  35.351  32.562  1.00  0.00    -0.237 OA
ATOM    104  O   UNL A   1      46.236  34.630  33.653  1.00  0.00    -0.237 OA
ATOM    105  O   UNL A   1      47.956  32.967  33.061  1.00  0.00    -0.744 OA
ENDBRANCH  98 102
ENDBRANCH  72  95
ENDBRANCH  46  47
ENDBRANCH  38  41
ENDBRANCH  36  37
ENDBRANCH  35  36
ENDBRANCH   1  35
TORSDOF 19
ENDMDL
