MODEL 1
REMARK VINA RESULT:     -11.6      0.000      0.000
REMARK SMILES Cc1noc(C)c1[C@H](C)NC(=O)NC[C@@](C)(O)C(=O)NCCCCNC(=O)c1ccc(-c2c3nc(c(-c4cc(S(=O)(=O)[O-])ccc4F)c4ccc([nH]4)c(-c4cc(S(=O)(=O)[O-])ccc4F)c4nc(c(-c5cc(S(=O)(=O)[O-])ccc5F)c5ccc2[nH]5)C=C4)C=C3)cc1
REMARK SMILES IDX 22 1 21 2 20 3 18 4 19 5 15 7 16 8 14 9 13 10 10 11 11 12
REMARK SMILES IDX 12 14 8 16 9 17 7 18 1 19 2 20 3 21 4 22 5 23 6 24 17 25
REMARK SMILES IDX 23 27 24 28 25 29 26 30 27 32 28 33 29 34 90 35 30 36 89 37
REMARK SMILES IDX 31 38 32 39 33 40 83 41 34 42 88 43 82 44 84 45 35 46 87 47
REMARK SMILES IDX 81 48 80 49 36 51 68 52 48 53 67 54 49 55 52 56 66 57 85 58
REMARK SMILES IDX 50 59 51 60 65 62 86 63 53 64 37 65 38 66 46 67 39 68 45 69
REMARK SMILES IDX 47 70 44 71 40 72 41 73 42 74 43 75 69 76 70 77 78 78 71 79
REMARK SMILES IDX 77 80 79 81 76 82 72 83 73 84 74 85 75 86 54 87 55 88 63 89
REMARK SMILES IDX 56 90 62 91 64 92 61 93 57 94 58 95 59 96 60 97
REMARK H PARENT 20 6 10 13 13 15 17 26 25 31 84 50 52 61
REMARK Flexibility Score: inf
ROOT
ATOM      1  C   UNL A   1      31.881  30.540  26.851  1.00  0.00     0.023 C 
ENDROOT
BRANCH   1   2
ATOM      2  C   UNL A   1      31.702  29.829  25.512  1.00  0.00     0.116 C 
BRANCH   2   3
ATOM      3  N   UNL A   1      32.745  28.860  25.239  1.00  0.00    -0.354 N 
ATOM      4  C   UNL A   1      32.752  27.494  25.309  1.00  0.00     0.253 C 
ATOM      5  O   UNL A   1      33.767  26.951  24.871  1.00  0.00    -0.272 OA
ATOM      6  H   UNL A   1      33.601  29.255  24.953  1.00  0.00     0.163 HD
BRANCH   4   7
ATOM      7  C   UNL A   1      31.505  26.696  25.799  1.00  0.00     0.157 C 
ATOM      8  C   UNL A   1      30.399  26.920  24.752  1.00  0.00     0.055 C 
BRANCH   7   9
ATOM      9  C   UNL A   1      31.706  25.160  26.006  1.00  0.00     0.162 C 
BRANCH   9  10
ATOM     10  N   UNL A   1      30.746  24.415  26.794  1.00  0.00    -0.335 N 
ATOM     11  N   UNL A   1      31.276  22.116  26.563  1.00  0.00    -0.331 N 
ATOM     12  C   UNL A   1      30.522  23.116  27.033  1.00  0.00     0.315 C 
ATOM     13  H   UNL A   1      30.886  21.227  26.730  1.00  0.00     0.165 HD
ATOM     14  O   UNL A   1      29.565  22.826  27.755  1.00  0.00    -0.249 OA
ATOM     15  H   UNL A   1      30.109  25.001  27.264  1.00  0.00     0.165 HD
BRANCH  11  16
ATOM     16  C   UNL A   1      32.545  22.055  25.858  1.00  0.00     0.116 C 
ATOM     17  C   UNL A   1      33.600  21.476  26.800  1.00  0.00     0.036 C 
BRANCH  16  18
ATOM     18  C   UNL A   1      32.352  21.293  24.576  1.00  0.00     0.040 A 
ATOM     19  C   UNL A   1      32.090  23.305  22.911  1.00  0.00     0.071 C 
ATOM     20  C   UNL A   1      32.156  21.873  23.280  1.00  0.00     0.086 A 
ATOM     21  N   UNL A   1      32.055  20.941  22.329  1.00  0.00    -0.085 NA
ATOM     22  O   UNL A   1      32.190  19.735  22.971  1.00  0.00    -0.361 OA
ATOM     23  C   UNL A   1      32.379  19.936  24.301  1.00  0.00     0.139 A 
ATOM     24  C   UNL A   1      32.578  18.699  25.080  1.00  0.00     0.091 C 
ENDBRANCH  16  18
ENDBRANCH  11  16
ENDBRANCH   9  10
ENDBRANCH   7   9
BRANCH   7  25
ATOM     25  O   UNL A   1      31.056  27.198  27.072  1.00  0.00    -0.378 OA
ATOM     26  H   UNL A   1      31.819  27.515  27.581  1.00  0.00     0.212 HD
ENDBRANCH   7  25
ENDBRANCH   4   7
ENDBRANCH   2   3
ENDBRANCH   1   2
BRANCH   1  27
ATOM     27  C   UNL A   1      31.568  32.039  26.863  1.00  0.00     0.023 C 
BRANCH  27  28
ATOM     28  C   UNL A   1      32.762  32.987  26.940  1.00  0.00     0.116 C 
BRANCH  28  29
ATOM     29  N   UNL A   1      32.526  34.156  27.772  1.00  0.00    -0.352 N 
ATOM     30  C   UNL A   1      33.182  34.579  28.906  1.00  0.00     0.251 C 
ATOM     31  H   UNL A   1      31.785  34.733  27.481  1.00  0.00     0.163 HD
ATOM     32  O   UNL A   1      32.764  35.569  29.502  1.00  0.00    -0.269 OA
BRANCH  30  33
ATOM     33  C   UNL A   1      34.344  33.827  29.434  1.00  0.00     0.039 A 
ATOM     34  C   UNL A   1      35.629  34.263  29.095  1.00  0.00     0.014 A 
ATOM     35  C   UNL A   1      34.185  32.713  30.261  1.00  0.00     0.014 A 
ATOM     36  C   UNL A   1      36.748  33.638  29.652  1.00  0.00     0.010 A 
ATOM     37  C   UNL A   1      35.298  32.137  30.873  1.00  0.00     0.010 A 
ATOM     38  C   UNL A   1      36.591  32.599  30.584  1.00  0.00    -0.014 A 
BRANCH  38  39
ATOM     39  C   UNL A   1      37.764  32.009  31.284  1.00  0.00     0.031 A 
ATOM     40  C   UNL A   1      38.540  30.883  30.659  1.00  0.00     0.074 A 
ATOM     41  C   UNL A   1      38.083  32.435  32.523  1.00  0.00     0.049 A 
ATOM     42  N   UNL A   1      39.536  30.188  31.148  1.00  0.00    -0.248 NA
ATOM     43  C   UNL A   1      38.114  30.463  29.318  1.00  0.00     0.031 C 
ATOM     44  C   UNL A   1      37.372  33.479  33.264  1.00  0.00     0.029 A 
ATOM     45  N   UNL A   1      39.070  32.030  33.387  1.00  0.00    -0.354 N 
ATOM     46  C   UNL A   1      39.851  29.241  30.180  1.00  0.00     0.074 A 
ATOM     47  C   UNL A   1      38.889  29.410  29.109  1.00  0.00     0.031 C 
ATOM     48  C   UNL A   1      37.951  33.639  34.463  1.00  0.00     0.029 A 
ATOM     49  C   UNL A   1      39.044  32.681  34.597  1.00  0.00     0.049 A 
ATOM     50  H   UNL A   1      39.734  31.339  33.161  1.00  0.00     0.167 HD
ATOM     51  C   UNL A   1      40.860  28.333  30.172  1.00  0.00     0.034 A 
ATOM     52  C   UNL A   1      39.798  32.516  35.702  1.00  0.00     0.034 A 
ATOM     53  C   UNL A   1      41.805  28.174  31.252  1.00  0.00     0.049 A 
ATOM     54  C   UNL A   1      40.898  31.488  35.690  1.00  0.00     0.074 A 
ATOM     55  C   UNL A   1      42.902  27.333  31.326  1.00  0.00     0.029 A 
ATOM     56  N   UNL A   1      41.755  28.859  32.462  1.00  0.00    -0.354 N 
ATOM     57  N   UNL A   1      41.230  30.646  34.739  1.00  0.00    -0.248 NA
ATOM     58  C   UNL A   1      41.733  31.397  36.893  1.00  0.00     0.031 C 
ATOM     59  C   UNL A   1      43.469  27.455  32.600  1.00  0.00     0.029 A 
ATOM     60  C   UNL A   1      42.776  28.432  33.300  1.00  0.00     0.049 A 
ATOM     61  H   UNL A   1      41.090  29.549  32.692  1.00  0.00     0.167 HD
ATOM     62  C   UNL A   1      42.324  29.935  35.224  1.00  0.00     0.074 A 
ATOM     63  C   UNL A   1      42.605  30.463  36.544  1.00  0.00     0.031 C 
ATOM     64  C   UNL A   1      43.033  28.942  34.628  1.00  0.00     0.034 A 
BRANCH  51  65
ATOM     65  C   UNL A   1      40.960  27.427  28.964  1.00  0.00     0.023 A 
ATOM     66  C   UNL A   1      41.920  27.644  27.957  1.00  0.00     0.031 A 
ATOM     67  C   UNL A   1      40.048  26.373  28.780  1.00  0.00     0.131 A 
ATOM     68  C   UNL A   1      41.876  26.897  26.771  1.00  0.00     0.055 A 
ATOM     69  C   UNL A   1      40.073  25.568  27.638  1.00  0.00     0.041 A 
ATOM     70  F   UNL A   1      39.098  26.121  29.692  1.00  0.00    -0.206 F 
ATOM     71  C   UNL A   1      40.976  25.843  26.614  1.00  0.00     0.022 A 
BRANCH  68  72
ATOM     72  S   UNL A   1      42.881  27.453  25.366  1.00  0.00     0.124 S 
ATOM     73  O   UNL A   1      42.911  26.254  24.530  1.00  0.00    -0.237 OA
ATOM     74  O   UNL A   1      42.106  28.574  24.849  1.00  0.00    -0.237 OA
ATOM     75  O   UNL A   1      44.160  27.807  25.978  1.00  0.00    -0.744 OA
ENDBRANCH  68  72
ENDBRANCH  51  65
BRANCH  52  76
ATOM     76  C   UNL A   1      39.519  33.329  36.920  1.00  0.00     0.023 A 
ATOM     77  C   UNL A   1      40.199  34.531  37.167  1.00  0.00     0.031 A 
ATOM     78  C   UNL A   1      38.555  32.909  37.853  1.00  0.00     0.131 A 
ATOM     79  C   UNL A   1      39.924  35.261  38.334  1.00  0.00     0.055 A 
ATOM     80  C   UNL A   1      38.253  33.661  38.990  1.00  0.00     0.041 A 
ATOM     81  F   UNL A   1      37.869  31.771  37.656  1.00  0.00    -0.206 F 
ATOM     82  C   UNL A   1      38.947  34.840  39.240  1.00  0.00     0.022 A 
BRANCH  79  83
ATOM     83  S   UNL A   1      40.897  36.753  38.679  1.00  0.00     0.124 S 
ATOM     84  O   UNL A   1      39.852  37.734  38.949  1.00  0.00    -0.237 OA
ATOM     85  O   UNL A   1      41.697  36.335  39.825  1.00  0.00    -0.237 OA
ATOM     86  O   UNL A   1      41.647  36.963  37.443  1.00  0.00    -0.744 OA
ENDBRANCH  79  83
ENDBRANCH  52  76
BRANCH  64  87
ATOM     87  C   UNL A   1      44.204  28.380  35.399  1.00  0.00     0.023 A 
ATOM     88  C   UNL A   1      44.045  27.351  36.344  1.00  0.00     0.031 A 
ATOM     89  C   UNL A   1      45.498  28.893  35.194  1.00  0.00     0.131 A 
ATOM     90  C   UNL A   1      45.150  26.903  37.085  1.00  0.00     0.055 A 
ATOM     91  C   UNL A   1      46.603  28.402  35.890  1.00  0.00     0.041 A 
ATOM     92  F   UNL A   1      45.709  29.880  34.308  1.00  0.00    -0.206 F 
ATOM     93  C   UNL A   1      46.431  27.410  36.852  1.00  0.00     0.022 A 
BRANCH  90  94
ATOM     94  S   UNL A   1      44.879  25.712  38.426  1.00  0.00     0.124 S 
ATOM     95  O   UNL A   1      44.109  24.671  37.754  1.00  0.00    -0.237 OA
ATOM     96  O   UNL A   1      46.242  25.353  38.805  1.00  0.00    -0.237 OA
ATOM     97  O   UNL A   1      44.141  26.481  39.426  1.00  0.00    -0.744 OA
ENDBRANCH  90  94
ENDBRANCH  64  87
ENDBRANCH  38  39
ENDBRANCH  30  33
ENDBRANCH  28  29
ENDBRANCH  27  28
ENDBRANCH   1  27
TORSDOF 19
ENDMDL
MODEL 2
REMARK VINA RESULT:     -11.4      5.254      8.654
REMARK SMILES Cc1noc(C)c1[C@H](C)NC(=O)NC[C@@](C)(O)C(=O)NCCCCNC(=O)c1ccc(-c2c3nc(c(-c4cc(S(=O)(=O)[O-])ccc4F)c4ccc([nH]4)c(-c4cc(S(=O)(=O)[O-])ccc4F)c4nc(c(-c5cc(S(=O)(=O)[O-])ccc5F)c5ccc2[nH]5)C=C4)C=C3)cc1
REMARK SMILES IDX 22 1 21 2 20 3 18 4 19 5 15 7 16 8 14 9 13 10 10 11 11 12
REMARK SMILES IDX 12 14 8 16 9 17 7 18 1 19 2 20 3 21 4 22 5 23 6 24 17 25
REMARK SMILES IDX 23 27 24 28 25 29 26 30 27 32 28 33 29 34 90 35 30 36 89 37
REMARK SMILES IDX 31 38 32 39 33 40 83 41 34 42 88 43 82 44 84 45 35 46 87 47
REMARK SMILES IDX 81 48 80 49 36 51 68 52 48 53 67 54 49 55 52 56 66 57 85 58
REMARK SMILES IDX 50 59 51 60 65 62 86 63 53 64 37 65 38 66 46 67 39 68 45 69
REMARK SMILES IDX 47 70 44 71 40 72 41 73 42 74 43 75 69 76 70 77 78 78 71 79
REMARK SMILES IDX 77 80 79 81 76 82 72 83 73 84 74 85 75 86 54 87 55 88 63 89
REMARK SMILES IDX 56 90 62 91 64 92 61 93 57 94 58 95 59 96 60 97
REMARK H PARENT 20 6 10 13 13 15 17 26 25 31 84 50 52 61
REMARK Flexibility Score: inf
ROOT
ATOM      1  C   UNL A   1      35.431  21.851  26.686  1.00  0.00     0.023 C 
ENDROOT
BRANCH   1   2
ATOM      2  C   UNL A   1      33.983  21.692  27.141  1.00  0.00     0.116 C 
BRANCH   2   3
ATOM      3  N   UNL A   1      33.386  20.442  26.714  1.00  0.00    -0.354 N 
ATOM      4  C   UNL A   1      32.775  20.083  25.544  1.00  0.00     0.253 C 
ATOM      5  O   UNL A   1      32.497  18.888  25.441  1.00  0.00    -0.272 OA
ATOM      6  H   UNL A   1      33.427  19.723  27.386  1.00  0.00     0.163 HD
BRANCH   4   7
ATOM      7  C   UNL A   1      32.566  21.107  24.386  1.00  0.00     0.157 C 
ATOM      8  C   UNL A   1      32.061  20.305  23.173  1.00  0.00     0.055 C 
BRANCH   7   9
ATOM      9  C   UNL A   1      31.570  22.278  24.671  1.00  0.00     0.162 C 
BRANCH   9  10
ATOM     10  N   UNL A   1      30.823  22.293  25.911  1.00  0.00    -0.335 N 
ATOM     11  N   UNL A   1      30.422  24.563  26.467  1.00  0.00    -0.331 N 
ATOM     12  C   UNL A   1      30.339  23.251  26.714  1.00  0.00     0.315 C 
ATOM     13  H   UNL A   1      30.131  25.117  27.227  1.00  0.00     0.165 HD
ATOM     14  O   UNL A   1      29.758  22.893  27.742  1.00  0.00    -0.249 OA
ATOM     15  H   UNL A   1      30.624  21.386  26.242  1.00  0.00     0.165 HD
BRANCH  11  16
ATOM     16  C   UNL A   1      30.849  25.348  25.322  1.00  0.00     0.116 C 
ATOM     17  C   UNL A   1      29.662  26.167  24.820  1.00  0.00     0.036 C 
BRANCH  16  18
ATOM     18  C   UNL A   1      32.058  26.155  25.711  1.00  0.00     0.040 A 
ATOM     19  C   UNL A   1      33.780  25.231  23.959  1.00  0.00     0.071 C 
ATOM     20  C   UNL A   1      33.346  26.087  25.086  1.00  0.00     0.086 A 
ATOM     21  N   UNL A   1      34.206  26.953  25.626  1.00  0.00    -0.085 NA
ATOM     22  O   UNL A   1      33.507  27.614  26.605  1.00  0.00    -0.361 OA
ATOM     23  C   UNL A   1      32.229  27.155  26.653  1.00  0.00     0.139 A 
ATOM     24  C   UNL A   1      31.378  27.832  27.650  1.00  0.00     0.091 C 
ENDBRANCH  16  18
ENDBRANCH  11  16
ENDBRANCH   9  10
ENDBRANCH   7   9
BRANCH   7  25
ATOM     25  O   UNL A   1      33.814  21.741  24.045  1.00  0.00    -0.378 OA
ATOM     26  H   UNL A   1      34.250  22.051  24.854  1.00  0.00     0.212 HD
ENDBRANCH   7  25
ENDBRANCH   4   7
ENDBRANCH   2   3
ENDBRANCH   1   2
BRANCH   1  27
ATOM     27  C   UNL A   1      35.871  23.273  26.329  1.00  0.00     0.023 C 
BRANCH  27  28
ATOM     28  C   UNL A   1      37.222  23.417  25.632  1.00  0.00     0.116 C 
BRANCH  28  29
ATOM     29  N   UNL A   1      38.147  22.333  25.922  1.00  0.00    -0.352 N 
ATOM     30  C   UNL A   1      39.416  22.374  26.453  1.00  0.00     0.251 C 
ATOM     31  H   UNL A   1      37.815  21.433  25.705  1.00  0.00     0.163 HD
ATOM     32  O   UNL A   1      40.058  21.330  26.545  1.00  0.00    -0.269 OA
BRANCH  30  33
ATOM     33  C   UNL A   1      40.024  23.661  26.864  1.00  0.00     0.039 A 
ATOM     34  C   UNL A   1      40.032  24.718  25.947  1.00  0.00     0.014 A 
ATOM     35  C   UNL A   1      40.575  23.841  28.135  1.00  0.00     0.014 A 
ATOM     36  C   UNL A   1      40.510  25.973  26.332  1.00  0.00     0.010 A 
ATOM     37  C   UNL A   1      40.984  25.111  28.541  1.00  0.00     0.010 A 
ATOM     38  C   UNL A   1      40.946  26.193  27.649  1.00  0.00    -0.014 A 
BRANCH  38  39
ATOM     39  C   UNL A   1      41.337  27.552  28.113  1.00  0.00     0.031 A 
ATOM     40  C   UNL A   1      42.787  27.937  28.217  1.00  0.00     0.074 A 
ATOM     41  C   UNL A   1      40.384  28.416  28.519  1.00  0.00     0.049 A 
ATOM     42  N   UNL A   1      43.323  29.040  28.676  1.00  0.00    -0.248 NA
ATOM     43  C   UNL A   1      43.761  26.930  27.778  1.00  0.00     0.031 C 
ATOM     44  C   UNL A   1      38.945  28.142  28.523  1.00  0.00     0.029 A 
ATOM     45  N   UNL A   1      40.481  29.689  29.024  1.00  0.00    -0.354 N 
ATOM     46  C   UNL A   1      44.699  28.858  28.590  1.00  0.00     0.074 A 
ATOM     47  C   UNL A   1      44.907  27.509  28.102  1.00  0.00     0.031 C 
ATOM     48  C   UNL A   1      38.296  29.215  28.998  1.00  0.00     0.029 A 
ATOM     49  C   UNL A   1      39.269  30.236  29.373  1.00  0.00     0.049 A 
ATOM     50  H   UNL A   1      41.336  30.164  29.128  1.00  0.00     0.167 HD
ATOM     51  C   UNL A   1      45.694  29.739  28.867  1.00  0.00     0.034 A 
ATOM     52  C   UNL A   1      38.969  31.417  29.950  1.00  0.00     0.034 A 
ATOM     53  C   UNL A   1      45.467  31.077  29.359  1.00  0.00     0.049 A 
ATOM     54  C   UNL A   1      40.084  32.375  30.276  1.00  0.00     0.074 A 
ATOM     55  C   UNL A   1      46.392  32.075  29.614  1.00  0.00     0.029 A 
ATOM     56  N   UNL A   1      44.223  31.604  29.692  1.00  0.00    -0.354 N 
ATOM     57  N   UNL A   1      41.379  32.217  30.124  1.00  0.00    -0.248 NA
ATOM     58  C   UNL A   1      39.697  33.674  30.838  1.00  0.00     0.031 C 
ATOM     59  C   UNL A   1      45.720  33.171  30.167  1.00  0.00     0.029 A 
ATOM     60  C   UNL A   1      44.362  32.894  30.185  1.00  0.00     0.049 A 
ATOM     61  H   UNL A   1      43.365  31.129  29.593  1.00  0.00     0.167 HD
ATOM     62  C   UNL A   1      41.960  33.405  30.557  1.00  0.00     0.074 A 
ATOM     63  C   UNL A   1      40.873  34.274  30.958  1.00  0.00     0.031 C 
ATOM     64  C   UNL A   1      43.274  33.745  30.612  1.00  0.00     0.034 A 
BRANCH  51  65
ATOM     65  C   UNL A   1      47.114  29.256  28.670  1.00  0.00     0.023 A 
ATOM     66  C   UNL A   1      47.669  29.104  27.385  1.00  0.00     0.031 A 
ATOM     67  C   UNL A   1      47.905  28.881  29.770  1.00  0.00     0.131 A 
ATOM     68  C   UNL A   1      48.921  28.492  27.228  1.00  0.00     0.055 A 
ATOM     69  C   UNL A   1      49.192  28.363  29.610  1.00  0.00     0.041 A 
ATOM     70  F   UNL A   1      47.431  28.985  31.021  1.00  0.00    -0.206 F 
ATOM     71  C   UNL A   1      49.699  28.144  28.332  1.00  0.00     0.022 A 
BRANCH  68  72
ATOM     72  S   UNL A   1      49.428  27.983  25.561  1.00  0.00     0.124 S 
ATOM     73  O   UNL A   1      50.526  28.909  25.290  1.00  0.00    -0.237 OA
ATOM     74  O   UNL A   1      49.801  26.588  25.758  1.00  0.00    -0.237 OA
ATOM     75  O   UNL A   1      48.228  28.202  24.757  1.00  0.00    -0.744 OA
ENDBRANCH  68  72
ENDBRANCH  51  65
BRANCH  52  76
ATOM     76  C   UNL A   1      37.553  31.745  30.277  1.00  0.00     0.023 A 
ATOM     77  C   UNL A   1      36.655  32.175  29.288  1.00  0.00     0.031 A 
ATOM     78  C   UNL A   1      37.078  31.624  31.595  1.00  0.00     0.131 A 
ATOM     79  C   UNL A   1      35.334  32.495  29.636  1.00  0.00     0.055 A 
ATOM     80  C   UNL A   1      35.751  31.901  31.929  1.00  0.00     0.041 A 
ATOM     81  F   UNL A   1      37.895  31.206  32.576  1.00  0.00    -0.206 F 
ATOM     82  C   UNL A   1      34.873  32.347  30.947  1.00  0.00     0.022 A 
BRANCH  79  83
ATOM     83  S   UNL A   1      34.229  33.151  28.356  1.00  0.00     0.124 S 
ATOM     84  O   UNL A   1      35.166  33.850  27.483  1.00  0.00    -0.237 OA
ATOM     85  O   UNL A   1      33.635  31.934  27.815  1.00  0.00    -0.237 OA
ATOM     86  O   UNL A   1      33.312  34.009  29.103  1.00  0.00    -0.744 OA
ENDBRANCH  79  83
ENDBRANCH  52  76
BRANCH  64  87
ATOM     87  C   UNL A   1      43.600  35.136  31.104  1.00  0.00     0.023 A 
ATOM     88  C   UNL A   1      43.677  36.233  30.227  1.00  0.00     0.031 A 
ATOM     89  C   UNL A   1      43.849  35.364  32.469  1.00  0.00     0.131 A 
ATOM     90  C   UNL A   1      44.046  37.496  30.716  1.00  0.00     0.055 A 
ATOM     91  C   UNL A   1      44.157  36.634  32.959  1.00  0.00     0.041 A 
ATOM     92  F   UNL A   1      43.795  34.353  33.352  1.00  0.00    -0.206 F 
ATOM     93  C   UNL A   1      44.269  37.707  32.079  1.00  0.00     0.022 A 
BRANCH  90  94
ATOM     94  S   UNL A   1      44.322  38.844  29.535  1.00  0.00     0.124 S 
ATOM     95  O   UNL A   1      43.907  40.011  30.307  1.00  0.00    -0.237 OA
ATOM     96  O   UNL A   1      45.752  38.735  29.263  1.00  0.00    -0.237 OA
ATOM     97  O   UNL A   1      43.451  38.503  28.412  1.00  0.00    -0.744 OA
ENDBRANCH  90  94
ENDBRANCH  64  87
ENDBRANCH  38  39
ENDBRANCH  30  33
ENDBRANCH  28  29
ENDBRANCH  27  28
ENDBRANCH   1  27
TORSDOF 19
ENDMDL
MODEL 3
REMARK VINA RESULT:     -11.4      2.531      3.077
REMARK SMILES Cc1noc(C)c1[C@H](C)NC(=O)NC[C@@](C)(O)C(=O)NCCCCNC(=O)c1ccc(-c2c3nc(c(-c4cc(S(=O)(=O)[O-])ccc4F)c4ccc([nH]4)c(-c4cc(S(=O)(=O)[O-])ccc4F)c4nc(c(-c5cc(S(=O)(=O)[O-])ccc5F)c5ccc2[nH]5)C=C4)C=C3)cc1
REMARK SMILES IDX 22 1 21 2 20 3 18 4 19 5 15 7 16 8 14 9 13 10 10 11 11 12
REMARK SMILES IDX 12 14 8 16 9 17 7 18 1 19 2 20 3 21 4 22 5 23 6 24 17 25
REMARK SMILES IDX 23 27 24 28 25 29 26 30 27 32 28 33 29 34 90 35 30 36 89 37
REMARK SMILES IDX 31 38 32 39 33 40 83 41 34 42 88 43 82 44 84 45 35 46 87 47
REMARK SMILES IDX 81 48 80 49 36 51 68 52 48 53 67 54 49 55 52 56 66 57 85 58
REMARK SMILES IDX 50 59 51 60 65 62 86 63 53 64 37 65 38 66 46 67 39 68 45 69
REMARK SMILES IDX 47 70 44 71 40 72 41 73 42 74 43 75 69 76 70 77 78 78 71 79
REMARK SMILES IDX 77 80 79 81 76 82 72 83 73 84 74 85 75 86 54 87 55 88 63 89
REMARK SMILES IDX 56 90 62 91 64 92 61 93 57 94 58 95 59 96 60 97
REMARK H PARENT 20 6 10 13 13 15 17 26 25 31 84 50 52 61
REMARK Flexibility Score: inf
ROOT
ATOM      1  C   UNL A   1      33.670  28.719  24.996  1.00  0.00     0.023 C 
ENDROOT
BRANCH   1   2
ATOM      2  C   UNL A   1      33.366  27.349  24.398  1.00  0.00     0.116 C 
BRANCH   2   3
ATOM      3  N   UNL A   1      32.480  27.412  23.253  1.00  0.00    -0.354 N 
ATOM      4  C   UNL A   1      31.183  27.010  23.089  1.00  0.00     0.253 C 
ATOM      5  O   UNL A   1      30.662  27.337  22.022  1.00  0.00    -0.272 OA
ATOM      6  H   UNL A   1      32.883  27.815  22.450  1.00  0.00     0.163 HD
BRANCH   4   7
ATOM      7  C   UNL A   1      30.399  26.297  24.233  1.00  0.00     0.157 C 
ATOM      8  C   UNL A   1      28.905  26.400  23.876  1.00  0.00     0.055 C 
BRANCH   7   9
ATOM      9  C   UNL A   1      30.759  24.797  24.487  1.00  0.00     0.162 C 
BRANCH   9  10
ATOM     10  N   UNL A   1      30.396  24.180  25.745  1.00  0.00    -0.335 N 
ATOM     11  N   UNL A   1      32.226  22.832  26.423  1.00  0.00    -0.331 N 
ATOM     12  C   UNL A   1      30.989  23.319  26.584  1.00  0.00     0.315 C 
ATOM     13  H   UNL A   1      32.443  22.116  27.063  1.00  0.00     0.165 HD
ATOM     14  O   UNL A   1      30.358  22.970  27.584  1.00  0.00    -0.249 OA
ATOM     15  H   UNL A   1      29.504  24.457  26.057  1.00  0.00     0.165 HD
BRANCH  11  16
ATOM     16  C   UNL A   1      33.316  23.130  25.511  1.00  0.00     0.116 C 
ATOM     17  C   UNL A   1      34.117  24.303  26.073  1.00  0.00     0.036 C 
BRANCH  16  18
ATOM     18  C   UNL A   1      34.109  21.873  25.277  1.00  0.00     0.040 A 
ATOM     19  C   UNL A   1      32.167  20.264  24.549  1.00  0.00     0.071 C 
ATOM     20  C   UNL A   1      33.574  20.616  24.845  1.00  0.00     0.086 A 
ATOM     21  N   UNL A   1      34.531  19.697  24.687  1.00  0.00    -0.085 NA
ATOM     22  O   UNL A   1      35.710  20.327  24.998  1.00  0.00    -0.361 OA
ATOM     23  C   UNL A   1      35.469  21.621  25.337  1.00  0.00     0.139 A 
ATOM     24  C   UNL A   1      36.681  22.402  25.652  1.00  0.00     0.091 C 
ENDBRANCH  16  18
ENDBRANCH  11  16
ENDBRANCH   9  10
ENDBRANCH   7   9
BRANCH   7  25
ATOM     25  O   UNL A   1      30.630  26.963  25.490  1.00  0.00    -0.378 OA
ATOM     26  H   UNL A   1      31.568  26.891  25.726  1.00  0.00     0.212 HD
ENDBRANCH   7  25
ENDBRANCH   4   7
ENDBRANCH   2   3
ENDBRANCH   1   2
BRANCH   1  27
ATOM     27  C   UNL A   1      32.498  29.704  25.048  1.00  0.00     0.023 C 
BRANCH  27  28
ATOM     28  C   UNL A   1      31.996  30.100  26.434  1.00  0.00     0.116 C 
BRANCH  28  29
ATOM     29  N   UNL A   1      31.917  31.537  26.639  1.00  0.00    -0.352 N 
ATOM     30  C   UNL A   1      32.800  32.389  27.261  1.00  0.00     0.251 C 
ATOM     31  H   UNL A   1      31.109  31.966  26.278  1.00  0.00     0.163 HD
ATOM     32  O   UNL A   1      32.496  33.574  27.390  1.00  0.00    -0.269 OA
BRANCH  30  33
ATOM     33  C   UNL A   1      34.078  31.885  27.815  1.00  0.00     0.039 A 
ATOM     34  C   UNL A   1      35.131  32.789  27.994  1.00  0.00     0.014 A 
ATOM     35  C   UNL A   1      34.249  30.544  28.167  1.00  0.00     0.014 A 
ATOM     36  C   UNL A   1      36.316  32.370  28.603  1.00  0.00     0.010 A 
ATOM     37  C   UNL A   1      35.403  30.144  28.840  1.00  0.00     0.010 A 
ATOM     38  C   UNL A   1      36.445  31.054  29.075  1.00  0.00    -0.014 A 
BRANCH  38  39
ATOM     39  C   UNL A   1      37.648  30.624  29.839  1.00  0.00     0.031 A 
ATOM     40  C   UNL A   1      38.628  29.654  29.240  1.00  0.00     0.074 A 
ATOM     41  C   UNL A   1      37.815  31.048  31.108  1.00  0.00     0.049 A 
ATOM     42  N   UNL A   1      39.685  29.102  29.779  1.00  0.00    -0.248 NA
ATOM     43  C   UNL A   1      38.360  29.224  27.862  1.00  0.00     0.031 C 
ATOM     44  C   UNL A   1      36.904  31.943  31.825  1.00  0.00     0.029 A 
ATOM     45  N   UNL A   1      38.795  30.767  32.028  1.00  0.00    -0.354 N 
ATOM     46  C   UNL A   1      40.205  28.251  28.810  1.00  0.00     0.074 A 
ATOM     47  C   UNL A   1      39.301  28.310  27.680  1.00  0.00     0.031 C 
ATOM     48  C   UNL A   1      37.372  32.145  33.065  1.00  0.00     0.029 A 
ATOM     49  C   UNL A   1      38.590  31.362  33.250  1.00  0.00     0.049 A 
ATOM     50  H   UNL A   1      39.571  30.194  31.831  1.00  0.00     0.167 HD
ATOM     51  C   UNL A   1      41.342  27.508  28.849  1.00  0.00     0.034 A 
ATOM     52  C   UNL A   1      39.287  31.273  34.400  1.00  0.00     0.034 A 
ATOM     53  C   UNL A   1      42.228  27.457  29.988  1.00  0.00     0.049 A 
ATOM     54  C   UNL A   1      40.532  30.426  34.438  1.00  0.00     0.074 A 
ATOM     55  C   UNL A   1      43.435  26.791  30.116  1.00  0.00     0.029 A 
ATOM     56  N   UNL A   1      41.994  28.081  31.209  1.00  0.00    -0.354 N 
ATOM     57  N   UNL A   1      41.051  29.680  33.490  1.00  0.00    -0.248 NA
ATOM     58  C   UNL A   1      41.290  30.420  35.694  1.00  0.00     0.031 C 
ATOM     59  C   UNL A   1      43.892  26.951  31.430  1.00  0.00     0.029 A 
ATOM     60  C   UNL A   1      43.012  27.784  32.105  1.00  0.00     0.049 A 
ATOM     61  H   UNL A   1      41.216  28.651  31.410  1.00  0.00     0.167 HD
ATOM     62  C   UNL A   1      42.208  29.128  34.032  1.00  0.00     0.074 A 
ATOM     63  C   UNL A   1      42.318  29.644  35.382  1.00  0.00     0.031 C 
ATOM     64  C   UNL A   1      43.100  28.277  33.461  1.00  0.00     0.034 A 
BRANCH  51  65
ATOM     65  C   UNL A   1      41.659  26.674  27.628  1.00  0.00     0.023 A 
ATOM     66  C   UNL A   1      41.313  25.311  27.556  1.00  0.00     0.031 A 
ATOM     67  C   UNL A   1      42.372  27.224  26.547  1.00  0.00     0.131 A 
ATOM     68  C   UNL A   1      41.772  24.524  26.489  1.00  0.00     0.055 A 
ATOM     69  C   UNL A   1      42.741  26.455  25.440  1.00  0.00     0.041 A 
ATOM     70  F   UNL A   1      42.747  28.512  26.559  1.00  0.00    -0.206 F 
ATOM     71  C   UNL A   1      42.462  25.092  25.418  1.00  0.00     0.022 A 
BRANCH  68  72
ATOM     72  S   UNL A   1      41.623  22.721  26.624  1.00  0.00     0.124 S 
ATOM     73  O   UNL A   1      40.172  22.547  26.679  1.00  0.00    -0.237 OA
ATOM     74  O   UNL A   1      42.275  22.259  25.404  1.00  0.00    -0.237 OA
ATOM     75  O   UNL A   1      42.327  22.410  27.865  1.00  0.00    -0.744 OA
ENDBRANCH  68  72
ENDBRANCH  51  65
BRANCH  52  76
ATOM     76  C   UNL A   1      38.807  31.988  35.616  1.00  0.00     0.023 A 
ATOM     77  C   UNL A   1      38.186  31.301  36.671  1.00  0.00     0.031 A 
ATOM     78  C   UNL A   1      38.972  33.379  35.739  1.00  0.00     0.131 A 
ATOM     79  C   UNL A   1      37.728  32.010  37.792  1.00  0.00     0.055 A 
ATOM     80  C   UNL A   1      38.555  34.074  36.876  1.00  0.00     0.041 A 
ATOM     81  F   UNL A   1      39.571  34.080  34.762  1.00  0.00    -0.206 F 
ATOM     82  C   UNL A   1      37.921  33.389  37.907  1.00  0.00     0.022 A 
BRANCH  79  83
ATOM     83  S   UNL A   1      36.833  31.109  39.088  1.00  0.00     0.124 S 
ATOM     84  O   UNL A   1      37.757  31.208  40.212  1.00  0.00    -0.237 OA
ATOM     85  O   UNL A   1      35.602  31.883  39.200  1.00  0.00    -0.237 OA
ATOM     86  O   UNL A   1      36.674  29.770  38.524  1.00  0.00    -0.744 OA
ENDBRANCH  79  83
ENDBRANCH  52  76
BRANCH  64  87
ATOM     87  C   UNL A   1      44.291  27.874  34.297  1.00  0.00     0.023 A 
ATOM     88  C   UNL A   1      44.272  26.726  35.109  1.00  0.00     0.031 A 
ATOM     89  C   UNL A   1      45.459  28.657  34.289  1.00  0.00     0.131 A 
ATOM     90  C   UNL A   1      45.377  26.423  35.920  1.00  0.00     0.055 A 
ATOM     91  C   UNL A   1      46.578  28.318  35.051  1.00  0.00     0.041 A 
ATOM     92  F   UNL A   1      45.533  29.767  33.537  1.00  0.00    -0.206 F 
ATOM     93  C   UNL A   1      46.537  27.202  35.883  1.00  0.00     0.022 A 
BRANCH  90  94
ATOM     94  S   UNL A   1      45.249  25.048  37.095  1.00  0.00     0.124 S 
ATOM     95  O   UNL A   1      43.946  25.290  37.704  1.00  0.00    -0.237 OA
ATOM     96  O   UNL A   1      45.338  23.881  36.222  1.00  0.00    -0.237 OA
ATOM     97  O   UNL A   1      46.395  25.245  37.982  1.00  0.00    -0.744 OA
ENDBRANCH  90  94
ENDBRANCH  64  87
ENDBRANCH  38  39
ENDBRANCH  30  33
ENDBRANCH  28  29
ENDBRANCH  27  28
ENDBRANCH   1  27
TORSDOF 19
ENDMDL
