MODEL 1
REMARK VINA RESULT:     -12.5      0.000      0.000
REMARK SMILES O=C(NCCCCNC(=O)[C@@H]1C[C@@H]2CC[C@H]1N2C(=O)c1ccncc1Cl)c1ccc(-c2c3nc(c(-c4cc(S(=O)(=O)[O-])ccc4F)c4ccc([nH]4)c(-c4cc(S(=O)(=O)[O-])ccc4F)c4nc(c(-c5cc(S(=O)(=O)[O-])ccc5F)c5ccc2[nH]5)C=C4)C=C3)cc1
REMARK SMILES IDX 5 1 4 2 3 3 1 4 2 5 27 7 28 8 89 9 29 10 88 11 30 12 31 13
REMARK SMILES IDX 32 14 82 15 33 16 87 17 81 18 83 19 34 20 86 21 80 22 79 23
REMARK SMILES IDX 35 25 67 26 47 27 66 28 48 29 51 30 65 31 84 32 49 33 50 34
REMARK SMILES IDX 64 36 85 37 52 38 36 39 37 40 45 41 38 42 44 43 46 44 43 45
REMARK SMILES IDX 39 46 40 47 41 48 42 49 68 50 69 51 77 52 70 53 76 54 78 55
REMARK SMILES IDX 75 56 71 57 72 58 73 59 74 60 53 61 54 62 62 63 55 64 61 65
REMARK SMILES IDX 63 66 60 67 56 68 57 69 58 70 59 71 6 72 7 73 8 74 9 75
REMARK SMILES IDX 10 77 11 78 12 79 16 80 13 81 15 82 17 83 14 84 18 85 19 86
REMARK SMILES IDX 20 87 21 88 25 89 22 90 24 91 26 92 23 93
REMARK H PARENT 3 6 83 24 51 35 8 76
REMARK Flexibility Score: inf
ROOT
ATOM      1  C   UNL A   1      31.532  28.771  26.024  1.00  0.00     0.023 C 
ENDROOT
BRANCH   1   2
ATOM      2  C   UNL A   1      32.783  29.640  26.103  1.00  0.00     0.116 C 
BRANCH   2   3
ATOM      3  N   UNL A   1      32.517  31.012  26.515  1.00  0.00    -0.352 N 
ATOM      4  O   UNL A   1      32.837  32.948  27.625  1.00  0.00    -0.269 OA
ATOM      5  C   UNL A   1      33.271  31.842  27.315  1.00  0.00     0.251 C 
ATOM      6  H   UNL A   1      31.680  31.400  26.174  1.00  0.00     0.163 HD
BRANCH   5   7
ATOM      7  C   UNL A   1      34.582  31.385  27.827  1.00  0.00     0.039 A 
ATOM      8  C   UNL A   1      34.790  30.048  28.169  1.00  0.00     0.014 A 
ATOM      9  C   UNL A   1      35.609  32.318  27.996  1.00  0.00     0.014 A 
ATOM     10  C   UNL A   1      35.955  29.680  28.837  1.00  0.00     0.010 A 
ATOM     11  C   UNL A   1      36.813  31.928  28.592  1.00  0.00     0.010 A 
ATOM     12  C   UNL A   1      36.977  30.617  29.066  1.00  0.00    -0.014 A 
BRANCH  12  13
ATOM     13  C   UNL A   1      38.197  30.197  29.808  1.00  0.00     0.031 A 
ATOM     14  C   UNL A   1      38.406  30.601  31.244  1.00  0.00     0.074 A 
ATOM     15  C   UNL A   1      39.095  29.402  29.195  1.00  0.00     0.049 A 
ATOM     16  N   UNL A   1      39.381  30.285  32.059  1.00  0.00    -0.248 NA
ATOM     17  C   UNL A   1      37.394  31.486  31.840  1.00  0.00     0.031 C 
ATOM     18  C   UNL A   1      39.005  28.949  27.804  1.00  0.00     0.029 A 
ATOM     19  N   UNL A   1      40.240  28.811  29.663  1.00  0.00    -0.354 N 
ATOM     20  C   UNL A   1      39.115  30.947  33.254  1.00  0.00     0.074 A 
ATOM     21  C   UNL A   1      37.903  31.711  33.042  1.00  0.00     0.031 C 
ATOM     22  C   UNL A   1      40.019  28.110  27.549  1.00  0.00     0.029 A 
ATOM     23  C   UNL A   1      40.864  28.008  28.735  1.00  0.00     0.049 A 
ATOM     24  H   UNL A   1      40.584  28.948  30.574  1.00  0.00     0.167 HD
ATOM     25  C   UNL A   1      39.812  30.915  34.420  1.00  0.00     0.034 A 
ATOM     26  C   UNL A   1      41.990  27.276  28.824  1.00  0.00     0.034 A 
ATOM     27  C   UNL A   1      41.011  30.136  34.620  1.00  0.00     0.049 A 
ATOM     28  C   UNL A   1      42.748  27.263  30.124  1.00  0.00     0.074 A 
ATOM     29  C   UNL A   1      41.773  30.002  35.769  1.00  0.00     0.029 A 
ATOM     30  N   UNL A   1      41.630  29.360  33.647  1.00  0.00    -0.354 N 
ATOM     31  N   UNL A   1      42.471  27.880  31.248  1.00  0.00    -0.248 NA
ATOM     32  C   UNL A   1      43.968  26.447  30.166  1.00  0.00     0.031 C 
ATOM     33  C   UNL A   1      42.881  29.197  35.474  1.00  0.00     0.029 A 
ATOM     34  C   UNL A   1      42.775  28.768  34.161  1.00  0.00     0.049 A 
ATOM     35  H   UNL A   1      41.303  29.246  32.725  1.00  0.00     0.167 HD
ATOM     36  C   UNL A   1      43.470  27.504  32.141  1.00  0.00     0.074 A 
ATOM     37  C   UNL A   1      44.344  26.596  31.427  1.00  0.00     0.031 C 
ATOM     38  C   UNL A   1      43.647  27.875  33.435  1.00  0.00     0.034 A 
BRANCH  25  39
ATOM     39  C   UNL A   1      39.316  31.786  35.550  1.00  0.00     0.023 A 
ATOM     40  C   UNL A   1      38.637  31.253  36.660  1.00  0.00     0.031 A 
ATOM     41  C   UNL A   1      39.500  33.180  35.502  1.00  0.00     0.131 A 
ATOM     42  C   UNL A   1      38.102  32.112  37.634  1.00  0.00     0.055 A 
ATOM     43  C   UNL A   1      39.035  34.022  36.515  1.00  0.00     0.041 A 
ATOM     44  F   UNL A   1      40.123  33.752  34.459  1.00  0.00    -0.206 F 
ATOM     45  C   UNL A   1      38.318  33.490  37.582  1.00  0.00     0.022 A 
BRANCH  42  46
ATOM     46  S   UNL A   1      36.997  31.413  38.892  1.00  0.00     0.124 S 
ATOM     47  O   UNL A   1      35.863  32.334  38.836  1.00  0.00    -0.237 OA
ATOM     48  O   UNL A   1      36.753  30.068  38.386  1.00  0.00    -0.237 OA
ATOM     49  O   UNL A   1      37.786  31.486  40.120  1.00  0.00    -0.744 OA
ENDBRANCH  42  46
ENDBRANCH  25  39
BRANCH  26  50
ATOM     50  C   UNL A   1      42.474  26.503  27.648  1.00  0.00     0.023 A 
ATOM     51  C   UNL A   1      42.413  25.101  27.627  1.00  0.00     0.031 A 
ATOM     52  C   UNL A   1      43.028  27.157  26.533  1.00  0.00     0.131 A 
ATOM     53  C   UNL A   1      42.929  24.395  26.531  1.00  0.00     0.055 A 
ATOM     54  C   UNL A   1      43.495  26.454  25.423  1.00  0.00     0.041 A 
ATOM     55  F   UNL A   1      43.102  28.497  26.501  1.00  0.00    -0.206 F 
ATOM     56  C   UNL A   1      43.458  25.063  25.422  1.00  0.00     0.022 A 
BRANCH  53  57
ATOM     57  S   UNL A   1      42.961  22.583  26.600  1.00  0.00     0.124 S 
ATOM     58  O   UNL A   1      44.393  22.311  26.633  1.00  0.00    -0.237 OA
ATOM     59  O   UNL A   1      42.228  22.315  27.833  1.00  0.00    -0.237 OA
ATOM     60  O   UNL A   1      42.276  22.184  25.372  1.00  0.00    -0.744 OA
ENDBRANCH  53  57
ENDBRANCH  26  50
BRANCH  38  61
ATOM     61  C   UNL A   1      44.811  27.251  34.165  1.00  0.00     0.023 A 
ATOM     62  C   UNL A   1      44.681  26.039  34.865  1.00  0.00     0.031 A 
ATOM     63  C   UNL A   1      46.057  27.901  34.190  1.00  0.00     0.131 A 
ATOM     64  C   UNL A   1      45.760  25.548  35.616  1.00  0.00     0.055 A 
ATOM     65  C   UNL A   1      47.145  27.378  34.891  1.00  0.00     0.041 A 
ATOM     66  F   UNL A   1      46.236  29.062  33.540  1.00  0.00    -0.206 F 
ATOM     67  C   UNL A   1      46.994  26.202  35.622  1.00  0.00     0.022 A 
BRANCH  64  68
ATOM     68  S   UNL A   1      45.498  24.096  36.672  1.00  0.00     0.124 S 
ATOM     69  O   UNL A   1      44.641  23.261  35.834  1.00  0.00    -0.237 OA
ATOM     70  O   UNL A   1      46.859  23.610  36.875  1.00  0.00    -0.237 OA
ATOM     71  O   UNL A   1      44.852  24.647  37.861  1.00  0.00    -0.744 OA
ENDBRANCH  64  68
ENDBRANCH  38  61
ENDBRANCH  12  13
ENDBRANCH   5   7
ENDBRANCH   2   3
ENDBRANCH   1   2
BRANCH   1  72
ATOM     72  C   UNL A   1      31.582  27.454  26.799  1.00  0.00     0.023 C 
BRANCH  72  73
ATOM     73  C   UNL A   1      31.603  26.192  25.944  1.00  0.00     0.116 C 
BRANCH  73  74
ATOM     74  N   UNL A   1      31.316  24.987  26.699  1.00  0.00    -0.356 N 
ATOM     75  C   UNL A   1      32.010  23.810  26.734  1.00  0.00     0.225 C 
ATOM     76  H   UNL A   1      30.510  25.021  27.264  1.00  0.00     0.163 HD
ATOM     77  O   UNL A   1      31.751  23.003  27.624  1.00  0.00    -0.275 OA
BRANCH  75  78
ATOM     78  C   UNL A   1      33.094  23.578  25.705  1.00  0.00     0.103 C 
ATOM     79  C   UNL A   1      32.570  23.293  24.270  1.00  0.00     0.040 C 
ATOM     80  C   UNL A   1      34.026  22.373  25.953  1.00  0.00     0.098 C 
ATOM     81  C   UNL A   1      33.402  22.065  23.842  1.00  0.00     0.086 C 
ATOM     82  C   UNL A   1      33.263  21.033  26.000  1.00  0.00     0.028 C 
ATOM     83  N   UNL A   1      34.604  22.273  24.617  1.00  0.00    -0.332 N 
ATOM     84  C   UNL A   1      32.829  20.825  24.533  1.00  0.00     0.027 C 
BRANCH  83  85
ATOM     85  C   UNL A   1      35.820  22.624  24.098  1.00  0.00     0.256 C 
ATOM     86  O   UNL A   1      35.986  22.953  22.925  1.00  0.00    -0.269 OA
BRANCH  85  87
ATOM     87  C   UNL A   1      36.981  22.697  25.000  1.00  0.00     0.061 A 
ATOM     88  C   UNL A   1      37.306  23.962  25.502  1.00  0.00     0.035 A 
ATOM     89  C   UNL A   1      37.789  21.602  25.288  1.00  0.00     0.072 A 
ATOM     90  C   UNL A   1      38.417  24.075  26.316  1.00  0.00     0.112 A 
ATOM     91  C   UNL A   1      38.874  21.823  26.125  1.00  0.00     0.132 A 
ATOM     92  Cl  UNL A   1      37.555  20.032  24.626  1.00  0.00    -0.082 Cl
ATOM     93  N   UNL A   1      39.202  23.030  26.650  1.00  0.00    -0.263 NA
ENDBRANCH  85  87
ENDBRANCH  83  85
ENDBRANCH  75  78
ENDBRANCH  73  74
ENDBRANCH  72  73
ENDBRANCH   1  72
TORSDOF 16
ENDMDL
MODEL 2
REMARK VINA RESULT:     -12.3      5.177     10.546
REMARK SMILES O=C(NCCCCNC(=O)[C@@H]1C[C@@H]2CC[C@H]1N2C(=O)c1ccncc1Cl)c1ccc(-c2c3nc(c(-c4cc(S(=O)(=O)[O-])ccc4F)c4ccc([nH]4)c(-c4cc(S(=O)(=O)[O-])ccc4F)c4nc(c(-c5cc(S(=O)(=O)[O-])ccc5F)c5ccc2[nH]5)C=C4)C=C3)cc1
REMARK SMILES IDX 5 1 4 2 3 3 1 4 2 5 27 7 28 8 89 9 29 10 88 11 30 12 31 13
REMARK SMILES IDX 32 14 82 15 33 16 87 17 81 18 83 19 34 20 86 21 80 22 79 23
REMARK SMILES IDX 35 25 67 26 47 27 66 28 48 29 51 30 65 31 84 32 49 33 50 34
REMARK SMILES IDX 64 36 85 37 52 38 36 39 37 40 45 41 38 42 44 43 46 44 43 45
REMARK SMILES IDX 39 46 40 47 41 48 42 49 68 50 69 51 77 52 70 53 76 54 78 55
REMARK SMILES IDX 75 56 71 57 72 58 73 59 74 60 53 61 54 62 62 63 55 64 61 65
REMARK SMILES IDX 63 66 60 67 56 68 57 69 58 70 59 71 6 72 7 73 8 74 9 75
REMARK SMILES IDX 10 77 11 78 12 79 16 80 13 81 15 82 17 83 14 84 18 85 19 86
REMARK SMILES IDX 20 87 21 88 25 89 22 90 24 91 26 92 23 93
REMARK H PARENT 3 6 83 24 51 35 8 76
REMARK Flexibility Score: inf
ROOT
ATOM      1  C   UNL A   1      35.916  22.555  24.248  1.00  0.00     0.023 C 
ENDROOT
BRANCH   1   2
ATOM      2  C   UNL A   1      36.491  22.249  25.628  1.00  0.00     0.116 C 
BRANCH   2   3
ATOM      3  N   UNL A   1      37.518  21.217  25.618  1.00  0.00    -0.352 N 
ATOM      4  O   UNL A   1      39.584  20.337  25.824  1.00  0.00    -0.269 OA
ATOM      5  C   UNL A   1      38.842  21.303  25.985  1.00  0.00     0.251 C 
ATOM      6  H   UNL A   1      37.223  20.331  25.305  1.00  0.00     0.163 HD
BRANCH   5   7
ATOM      7  C   UNL A   1      39.376  22.569  26.535  1.00  0.00     0.039 A 
ATOM      8  C   UNL A   1      38.902  23.803  26.084  1.00  0.00     0.014 A 
ATOM      9  C   UNL A   1      40.390  22.519  27.497  1.00  0.00     0.014 A 
ATOM     10  C   UNL A   1      39.555  24.972  26.460  1.00  0.00     0.010 A 
ATOM     11  C   UNL A   1      40.990  23.703  27.938  1.00  0.00     0.010 A 
ATOM     12  C   UNL A   1      40.613  24.937  27.384  1.00  0.00    -0.014 A 
BRANCH  12  13
ATOM     13  C   UNL A   1      41.308  26.204  27.743  1.00  0.00     0.031 A 
ATOM     14  C   UNL A   1      42.667  26.527  27.179  1.00  0.00     0.074 A 
ATOM     15  C   UNL A   1      40.683  27.090  28.543  1.00  0.00     0.049 A 
ATOM     16  N   UNL A   1      43.396  27.603  27.342  1.00  0.00    -0.248 NA
ATOM     17  C   UNL A   1      43.296  25.504  26.330  1.00  0.00     0.031 C 
ATOM     18  C   UNL A   1      39.369  26.886  29.157  1.00  0.00     0.029 A 
ATOM     19  N   UNL A   1      41.052  28.344  28.956  1.00  0.00    -0.354 N 
ATOM     20  C   UNL A   1      44.577  27.380  26.638  1.00  0.00     0.074 A 
ATOM     21  C   UNL A   1      44.476  26.048  26.076  1.00  0.00     0.031 C 
ATOM     22  C   UNL A   1      39.017  27.997  29.820  1.00  0.00     0.029 A 
ATOM     23  C   UNL A   1      40.101  28.969  29.731  1.00  0.00     0.049 A 
ATOM     24  H   UNL A   1      41.913  28.759  28.722  1.00  0.00     0.167 HD
ATOM     25  C   UNL A   1      45.638  28.209  26.470  1.00  0.00     0.034 A 
ATOM     26  C   UNL A   1      40.102  30.184  30.310  1.00  0.00     0.034 A 
ATOM     27  C   UNL A   1      45.716  29.540  27.025  1.00  0.00     0.049 A 
ATOM     28  C   UNL A   1      41.294  31.082  30.115  1.00  0.00     0.074 A 
ATOM     29  C   UNL A   1      46.727  30.477  26.885  1.00  0.00     0.029 A 
ATOM     30  N   UNL A   1      44.748  30.127  27.831  1.00  0.00    -0.354 N 
ATOM     31  N   UNL A   1      42.392  30.861  29.430  1.00  0.00    -0.248 NA
ATOM     32  C   UNL A   1      41.241  32.396  30.767  1.00  0.00     0.031 C 
ATOM     33  C   UNL A   1      46.399  31.601  27.654  1.00  0.00     0.029 A 
ATOM     34  C   UNL A   1      45.149  31.397  28.216  1.00  0.00     0.049 A 
ATOM     35  H   UNL A   1      43.898  29.701  28.092  1.00  0.00     0.167 HD
ATOM     36  C   UNL A   1      43.150  32.022  29.548  1.00  0.00     0.074 A 
ATOM     37  C   UNL A   1      42.375  32.943  30.356  1.00  0.00     0.031 C 
ATOM     38  C   UNL A   1      44.375  32.302  29.033  1.00  0.00     0.034 A 
BRANCH  25  39
ATOM     39  C   UNL A   1      46.820  27.677  25.693  1.00  0.00     0.023 A 
ATOM     40  C   UNL A   1      47.067  28.054  24.361  1.00  0.00     0.031 A 
ATOM     41  C   UNL A   1      47.699  26.752  26.286  1.00  0.00     0.131 A 
ATOM     42  C   UNL A   1      48.116  27.454  23.645  1.00  0.00     0.055 A 
ATOM     43  C   UNL A   1      48.788  26.219  25.594  1.00  0.00     0.041 A 
ATOM     44  F   UNL A   1      47.504  26.338  27.549  1.00  0.00    -0.206 F 
ATOM     45  C   UNL A   1      48.992  26.557  24.259  1.00  0.00     0.022 A 
BRANCH  42  46
ATOM     46  S   UNL A   1      48.227  27.752  21.858  1.00  0.00     0.124 S 
ATOM     47  O   UNL A   1      49.372  28.657  21.779  1.00  0.00    -0.237 OA
ATOM     48  O   UNL A   1      48.435  26.410  21.327  1.00  0.00    -0.237 OA
ATOM     49  O   UNL A   1      46.938  28.360  21.533  1.00  0.00    -0.744 OA
ENDBRANCH  42  46
ENDBRANCH  25  39
BRANCH  26  50
ATOM     50  C   UNL A   1      38.942  30.621  31.135  1.00  0.00     0.023 A 
ATOM     51  C   UNL A   1      37.995  31.525  30.631  1.00  0.00     0.031 A 
ATOM     52  C   UNL A   1      38.777  30.154  32.451  1.00  0.00     0.131 A 
ATOM     53  C   UNL A   1      36.944  31.964  31.450  1.00  0.00     0.055 A 
ATOM     54  C   UNL A   1      37.703  30.555  33.245  1.00  0.00     0.041 A 
ATOM     55  F   UNL A   1      39.651  29.282  32.976  1.00  0.00    -0.206 F 
ATOM     56  C   UNL A   1      36.784  31.475  32.749  1.00  0.00     0.022 A 
BRANCH  53  57
ATOM     57  S   UNL A   1      35.821  33.238  30.814  1.00  0.00     0.124 S 
ATOM     58  O   UNL A   1      34.534  32.553  30.863  1.00  0.00    -0.237 OA
ATOM     59  O   UNL A   1      36.010  34.317  31.779  1.00  0.00    -0.237 OA
ATOM     60  O   UNL A   1      36.336  33.508  29.473  1.00  0.00    -0.744 OA
ENDBRANCH  53  57
ENDBRANCH  26  50
BRANCH  38  61
ATOM     61  C   UNL A   1      44.920  33.684  29.297  1.00  0.00     0.023 A 
ATOM     62  C   UNL A   1      44.703  34.748  28.404  1.00  0.00     0.031 A 
ATOM     63  C   UNL A   1      45.700  33.927  30.440  1.00  0.00     0.131 A 
ATOM     64  C   UNL A   1      45.315  35.989  28.635  1.00  0.00     0.055 A 
ATOM     65  C   UNL A   1      46.259  35.181  30.695  1.00  0.00     0.041 A 
ATOM     66  F   UNL A   1      45.941  32.947  31.325  1.00  0.00    -0.206 F 
ATOM     67  C   UNL A   1      46.080  36.216  29.781  1.00  0.00     0.022 A 
BRANCH  64  68
ATOM     68  S   UNL A   1      45.185  37.275  27.362  1.00  0.00     0.124 S 
ATOM     69  O   UNL A   1      43.797  37.137  26.930  1.00  0.00    -0.237 OA
ATOM     70  O   UNL A   1      45.502  38.487  28.111  1.00  0.00    -0.237 OA
ATOM     71  O   UNL A   1      46.183  36.880  26.370  1.00  0.00    -0.744 OA
ENDBRANCH  64  68
ENDBRANCH  38  61
ENDBRANCH  12  13
ENDBRANCH   5   7
ENDBRANCH   2   3
ENDBRANCH   1   2
BRANCH   1  72
ATOM     72  C   UNL A   1      35.040  23.804  24.150  1.00  0.00     0.023 C 
BRANCH  72  73
ATOM     73  C   UNL A   1      33.544  23.544  24.010  1.00  0.00     0.116 C 
BRANCH  73  74
ATOM     74  N   UNL A   1      33.007  23.976  22.733  1.00  0.00    -0.356 N 
ATOM     75  C   UNL A   1      32.472  25.186  22.392  1.00  0.00     0.225 C 
ATOM     76  H   UNL A   1      33.033  23.305  22.012  1.00  0.00     0.163 HD
ATOM     77  O   UNL A   1      32.307  25.440  21.200  1.00  0.00    -0.275 OA
BRANCH  75  78
ATOM     78  C   UNL A   1      32.151  26.172  23.494  1.00  0.00     0.103 C 
ATOM     79  C   UNL A   1      30.982  27.143  23.170  1.00  0.00     0.040 C 
ATOM     80  C   UNL A   1      33.281  27.148  23.887  1.00  0.00     0.098 C 
ATOM     81  C   UNL A   1      31.554  28.515  23.585  1.00  0.00     0.086 C 
ATOM     82  C   UNL A   1      33.733  28.037  22.711  1.00  0.00     0.028 C 
ATOM     83  N   UNL A   1      32.477  28.117  24.625  1.00  0.00    -0.332 N 
ATOM     84  C   UNL A   1      32.531  28.982  22.502  1.00  0.00     0.027 C 
BRANCH  83  85
ATOM     85  C   UNL A   1      32.310  28.368  25.958  1.00  0.00     0.256 C 
ATOM     86  O   UNL A   1      31.439  27.836  26.644  1.00  0.00    -0.269 OA
BRANCH  85  87
ATOM     87  C   UNL A   1      33.268  29.255  26.637  1.00  0.00     0.061 A 
ATOM     88  C   UNL A   1      34.468  28.674  27.061  1.00  0.00     0.035 A 
ATOM     89  C   UNL A   1      32.991  30.585  26.938  1.00  0.00     0.072 A 
ATOM     90  C   UNL A   1      35.372  29.467  27.743  1.00  0.00     0.112 A 
ATOM     91  C   UNL A   1      33.972  31.295  27.616  1.00  0.00     0.132 A 
ATOM     92  Cl  UNL A   1      31.501  31.363  26.576  1.00  0.00    -0.082 Cl
ATOM     93  N   UNL A   1      35.156  30.770  28.019  1.00  0.00    -0.263 NA
ENDBRANCH  85  87
ENDBRANCH  83  85
ENDBRANCH  75  78
ENDBRANCH  73  74
ENDBRANCH  72  73
ENDBRANCH   1  72
TORSDOF 16
ENDMDL
MODEL 3
REMARK VINA RESULT:     -12.3      5.154     10.687
REMARK SMILES O=C(NCCCCNC(=O)[C@@H]1C[C@@H]2CC[C@H]1N2C(=O)c1ccncc1Cl)c1ccc(-c2c3nc(c(-c4cc(S(=O)(=O)[O-])ccc4F)c4ccc([nH]4)c(-c4cc(S(=O)(=O)[O-])ccc4F)c4nc(c(-c5cc(S(=O)(=O)[O-])ccc5F)c5ccc2[nH]5)C=C4)C=C3)cc1
REMARK SMILES IDX 5 1 4 2 3 3 1 4 2 5 27 7 28 8 89 9 29 10 88 11 30 12 31 13
REMARK SMILES IDX 32 14 82 15 33 16 87 17 81 18 83 19 34 20 86 21 80 22 79 23
REMARK SMILES IDX 35 25 67 26 47 27 66 28 48 29 51 30 65 31 84 32 49 33 50 34
REMARK SMILES IDX 64 36 85 37 52 38 36 39 37 40 45 41 38 42 44 43 46 44 43 45
REMARK SMILES IDX 39 46 40 47 41 48 42 49 68 50 69 51 77 52 70 53 76 54 78 55
REMARK SMILES IDX 75 56 71 57 72 58 73 59 74 60 53 61 54 62 62 63 55 64 61 65
REMARK SMILES IDX 63 66 60 67 56 68 57 69 58 70 59 71 6 72 7 73 8 74 9 75
REMARK SMILES IDX 10 77 11 78 12 79 16 80 13 81 15 82 17 83 14 84 18 85 19 86
REMARK SMILES IDX 20 87 21 88 25 89 22 90 24 91 26 92 23 93
REMARK H PARENT 3 6 83 24 51 35 8 76
REMARK Flexibility Score: inf
ROOT
ATOM      1  C   UNL A   1      35.618  21.732  24.297  1.00  0.00     0.023 C 
ENDROOT
BRANCH   1   2
ATOM      2  C   UNL A   1      36.819  22.145  25.141  1.00  0.00     0.116 C 
BRANCH   2   3
ATOM      3  N   UNL A   1      37.771  21.067  25.373  1.00  0.00    -0.352 N 
ATOM      4  O   UNL A   1      39.715  20.107  25.989  1.00  0.00    -0.269 OA
ATOM      5  C   UNL A   1      39.015  21.116  25.960  1.00  0.00     0.251 C 
ATOM      6  H   UNL A   1      37.483  20.178  25.065  1.00  0.00     0.163 HD
BRANCH   5   7
ATOM      7  C   UNL A   1      39.519  22.390  26.520  1.00  0.00     0.039 A 
ATOM      8  C   UNL A   1      38.969  23.612  26.129  1.00  0.00     0.014 A 
ATOM      9  C   UNL A   1      40.582  22.361  27.429  1.00  0.00     0.014 A 
ATOM     10  C   UNL A   1      39.587  24.800  26.507  1.00  0.00     0.010 A 
ATOM     11  C   UNL A   1      41.150  23.558  27.874  1.00  0.00     0.010 A 
ATOM     12  C   UNL A   1      40.691  24.788  27.376  1.00  0.00    -0.014 A 
BRANCH  12  13
ATOM     13  C   UNL A   1      41.346  26.076  27.737  1.00  0.00     0.031 A 
ATOM     14  C   UNL A   1      42.712  26.424  27.206  1.00  0.00     0.074 A 
ATOM     15  C   UNL A   1      40.679  26.956  28.509  1.00  0.00     0.049 A 
ATOM     16  N   UNL A   1      43.411  27.518  27.374  1.00  0.00    -0.248 NA
ATOM     17  C   UNL A   1      43.388  25.405  26.388  1.00  0.00     0.031 C 
ATOM     18  C   UNL A   1      39.353  26.729  29.088  1.00  0.00     0.029 A 
ATOM     19  N   UNL A   1      41.007  28.224  28.915  1.00  0.00    -0.354 N 
ATOM     20  C   UNL A   1      44.615  27.315  26.706  1.00  0.00     0.074 A 
ATOM     21  C   UNL A   1      44.561  25.974  26.159  1.00  0.00     0.031 C 
ATOM     22  C   UNL A   1      38.958  27.839  29.728  1.00  0.00     0.029 A 
ATOM     23  C   UNL A   1      40.021  28.836  29.655  1.00  0.00     0.049 A 
ATOM     24  H   UNL A   1      41.864  28.656  28.698  1.00  0.00     0.167 HD
ATOM     25  C   UNL A   1      45.662  28.167  26.556  1.00  0.00     0.034 A 
ATOM     26  C   UNL A   1      39.978  30.058  30.218  1.00  0.00     0.034 A 
ATOM     27  C   UNL A   1      45.693  29.506  27.095  1.00  0.00     0.049 A 
ATOM     28  C   UNL A   1      41.153  30.981  30.044  1.00  0.00     0.074 A 
ATOM     29  C   UNL A   1      46.685  30.464  26.971  1.00  0.00     0.029 A 
ATOM     30  N   UNL A   1      44.689  30.079  27.867  1.00  0.00    -0.354 N 
ATOM     31  N   UNL A   1      42.274  30.778  29.392  1.00  0.00    -0.248 NA
ATOM     32  C   UNL A   1      41.052  32.301  30.677  1.00  0.00     0.031 C 
ATOM     33  C   UNL A   1      46.310  31.590  27.716  1.00  0.00     0.029 A 
ATOM     34  C   UNL A   1      45.050  31.364  28.246  1.00  0.00     0.049 A 
ATOM     35  H   UNL A   1      43.844  29.637  28.110  1.00  0.00     0.167 HD
ATOM     36  C   UNL A   1      43.001  31.957  29.515  1.00  0.00     0.074 A 
ATOM     37  C   UNL A   1      42.184  32.870  30.290  1.00  0.00     0.031 C 
ATOM     38  C   UNL A   1      44.233  32.260  29.031  1.00  0.00     0.034 A 
BRANCH  25  39
ATOM     39  C   UNL A   1      46.876  27.653  25.818  1.00  0.00     0.023 A 
ATOM     40  C   UNL A   1      47.134  27.993  24.478  1.00  0.00     0.031 A 
ATOM     41  C   UNL A   1      47.777  26.782  26.458  1.00  0.00     0.131 A 
ATOM     42  C   UNL A   1      48.217  27.409  23.802  1.00  0.00     0.055 A 
ATOM     43  C   UNL A   1      48.898  26.267  25.803  1.00  0.00     0.041 A 
ATOM     44  F   UNL A   1      47.575  26.404  27.730  1.00  0.00    -0.206 F 
ATOM     45  C   UNL A   1      49.114  26.567  24.462  1.00  0.00     0.022 A 
BRANCH  42  46
ATOM     46  S   UNL A   1      48.350  27.651  22.008  1.00  0.00     0.124 S 
ATOM     47  O   UNL A   1      49.475  28.579  21.916  1.00  0.00    -0.237 OA
ATOM     48  O   UNL A   1      48.597  26.297  21.525  1.00  0.00    -0.237 OA
ATOM     49  O   UNL A   1      47.054  28.218  21.642  1.00  0.00    -0.744 OA
ENDBRANCH  42  46
ENDBRANCH  25  39
BRANCH  26  50
ATOM     50  C   UNL A   1      38.785  30.477  31.005  1.00  0.00     0.023 A 
ATOM     51  C   UNL A   1      37.708  31.136  30.393  1.00  0.00     0.031 A 
ATOM     52  C   UNL A   1      38.717  30.242  32.390  1.00  0.00     0.131 A 
ATOM     53  C   UNL A   1      36.624  31.571  31.169  1.00  0.00     0.055 A 
ATOM     54  C   UNL A   1      37.614  30.633  33.150  1.00  0.00     0.041 A 
ATOM     55  F   UNL A   1      39.718  29.609  33.021  1.00  0.00    -0.206 F 
ATOM     56  C   UNL A   1      36.563  31.313  32.541  1.00  0.00     0.022 A 
BRANCH  53  57
ATOM     57  S   UNL A   1      35.318  32.542  30.369  1.00  0.00     0.124 S 
ATOM     58  O   UNL A   1      34.955  31.686  29.246  1.00  0.00    -0.237 OA
ATOM     59  O   UNL A   1      34.328  32.653  31.436  1.00  0.00    -0.237 OA
ATOM     60  O   UNL A   1      35.990  33.790  30.013  1.00  0.00    -0.744 OA
ENDBRANCH  53  57
ENDBRANCH  26  50
BRANCH  38  61
ATOM     61  C   UNL A   1      44.738  33.657  29.291  1.00  0.00     0.023 A 
ATOM     62  C   UNL A   1      44.354  34.745  28.487  1.00  0.00     0.031 A 
ATOM     63  C   UNL A   1      45.649  33.894  30.335  1.00  0.00     0.131 A 
ATOM     64  C   UNL A   1      44.928  36.007  28.700  1.00  0.00     0.055 A 
ATOM     65  C   UNL A   1      46.173  35.165  30.579  1.00  0.00     0.041 A 
ATOM     66  F   UNL A   1      46.052  32.891  31.131  1.00  0.00    -0.206 F 
ATOM     67  C   UNL A   1      45.824  36.227  29.749  1.00  0.00     0.022 A 
BRANCH  64  68
ATOM     68  S   UNL A   1      44.568  37.338  27.520  1.00  0.00     0.124 S 
ATOM     69  O   UNL A   1      44.275  38.460  28.408  1.00  0.00    -0.237 OA
ATOM     70  O   UNL A   1      45.815  37.431  26.767  1.00  0.00    -0.237 OA
ATOM     71  O   UNL A   1      43.424  36.831  26.767  1.00  0.00    -0.744 OA
ENDBRANCH  64  68
ENDBRANCH  38  61
ENDBRANCH  12  13
ENDBRANCH   5   7
ENDBRANCH   2   3
ENDBRANCH   1   2
BRANCH   1  72
ATOM     72  C   UNL A   1      34.400  22.655  24.367  1.00  0.00     0.023 C 
BRANCH  72  73
ATOM     73  C   UNL A   1      34.576  23.905  25.222  1.00  0.00     0.116 C 
BRANCH  73  74
ATOM     74  N   UNL A   1      33.571  24.031  26.262  1.00  0.00    -0.356 N 
ATOM     75  C   UNL A   1      32.356  24.654  26.209  1.00  0.00     0.225 C 
ATOM     76  H   UNL A   1      33.795  23.609  27.122  1.00  0.00     0.163 HD
ATOM     77  O   UNL A   1      31.545  24.434  27.106  1.00  0.00    -0.275 OA
BRANCH  75  78
ATOM     78  C   UNL A   1      32.051  25.547  25.026  1.00  0.00     0.103 C 
ATOM     79  C   UNL A   1      33.260  26.383  24.522  1.00  0.00     0.040 C 
ATOM     80  C   UNL A   1      30.978  26.634  25.250  1.00  0.00     0.098 C 
ATOM     81  C   UNL A   1      32.656  27.795  24.368  1.00  0.00     0.086 C 
ATOM     82  C   UNL A   1      31.357  27.620  26.374  1.00  0.00     0.028 C 
ATOM     83  N   UNL A   1      31.276  27.467  24.089  1.00  0.00    -0.332 N 
ATOM     84  C   UNL A   1      32.524  28.422  25.759  1.00  0.00     0.027 C 
BRANCH  83  85
ATOM     85  C   UNL A   1      30.658  27.640  22.882  1.00  0.00     0.256 C 
ATOM     86  O   UNL A   1      30.991  27.043  21.860  1.00  0.00    -0.269 OA
BRANCH  85  87
ATOM     87  C   UNL A   1      29.481  28.520  22.808  1.00  0.00     0.061 A 
ATOM     88  C   UNL A   1      29.703  29.829  22.365  1.00  0.00     0.035 A 
ATOM     89  C   UNL A   1      28.214  28.132  23.233  1.00  0.00     0.072 A 
ATOM     90  C   UNL A   1      28.628  30.696  22.327  1.00  0.00     0.112 A 
ATOM     91  C   UNL A   1      27.203  29.078  23.142  1.00  0.00     0.132 A 
ATOM     92  Cl  UNL A   1      27.857  26.593  23.911  1.00  0.00    -0.082 Cl
ATOM     93  N   UNL A   1      27.378  30.345  22.694  1.00  0.00    -0.263 NA
ENDBRANCH  85  87
ENDBRANCH  83  85
ENDBRANCH  75  78
ENDBRANCH  73  74
ENDBRANCH  72  73
ENDBRANCH   1  72
TORSDOF 16
ENDMDL
