MODEL 1
REMARK VINA RESULT:     -10.1      0.000      0.000
REMARK SMILES O=C(CCCC[C@@H]1CCSS1)NCCCCNC(=O)c1ccc(-c2c3nc(c(-c4cc(S(=O)(=O)[O-])ccc4F)c4ccc([nH]4)c(-c4cc(S(=O)(=O)[O-])ccc4F)c4nc(c(-c5cc(S(=O)(=O)[O-])ccc5F)c5ccc2[nH]5)C=C4)C=C3)cc1
REMARK SMILES IDX 14 1 13 2 12 3 1 4 2 5 3 7 4 8 5 9 6 10 7 11 8 12 11 13 9 14
REMARK SMILES IDX 10 15 15 16 16 17 17 18 18 19 19 21 20 22 21 23 82 24 22 25
REMARK SMILES IDX 81 26 23 27 24 28 25 29 75 30 26 31 80 32 74 33 76 34 27 35
REMARK SMILES IDX 79 36 73 37 72 38 28 40 60 41 40 42 59 43 41 44 44 45 58 46
REMARK SMILES IDX 77 47 42 48 43 49 57 51 78 52 45 53 29 54 30 55 38 56 31 57
REMARK SMILES IDX 37 58 39 59 36 60 32 61 33 62 34 63 35 64 61 65 62 66 70 67
REMARK SMILES IDX 63 68 69 69 71 70 68 71 64 72 65 73 66 74 67 75 46 76 47 77
REMARK SMILES IDX 55 78 48 79 54 80 56 81 53 82 49 83 50 84 51 85 52 86
REMARK H PARENT 12 6 17 20 76 39 44 50
REMARK Flexibility Score: inf
ROOT
ATOM      1  C   UNL A   1      34.709  21.339  26.556  1.00  0.00     0.023 C 
ENDROOT
BRANCH   1   2
ATOM      2  C   UNL A   1      33.558  22.198  27.074  1.00  0.00     0.116 C 
BRANCH   2   3
ATOM      3  N   UNL A   1      32.613  22.527  26.026  1.00  0.00    -0.356 N 
ATOM      4  O   UNL A   1      31.332  23.976  27.264  1.00  0.00    -0.275 OA
ATOM      5  C   UNL A   1      31.591  23.429  26.197  1.00  0.00     0.219 C 
ATOM      6  H   UNL A   1      32.710  22.085  25.151  1.00  0.00     0.163 HD
BRANCH   5   7
ATOM      7  C   UNL A   1      30.781  23.694  24.941  1.00  0.00     0.100 C 
BRANCH   7   8
ATOM      8  C   UNL A   1      31.596  24.353  23.825  1.00  0.00     0.010 C 
BRANCH   8   9
ATOM      9  C   UNL A   1      32.055  25.798  24.072  1.00  0.00     0.002 C 
BRANCH   9  10
ATOM     10  C   UNL A   1      30.933  26.841  24.183  1.00  0.00     0.015 C 
BRANCH  10  11
ATOM     11  C   UNL A   1      31.247  28.033  25.098  1.00  0.00     0.059 C 
ATOM     12  C   UNL A   1      32.430  28.850  24.559  1.00  0.00     0.027 C 
ATOM     13  S   UNL A   1      31.694  27.481  26.779  1.00  0.00    -0.091 SA
ATOM     14  C   UNL A   1      32.951  29.800  25.630  1.00  0.00     0.083 C 
ATOM     15  S   UNL A   1      33.241  28.785  27.092  1.00  0.00    -0.094 SA
ENDBRANCH  10  11
ENDBRANCH   9  10
ENDBRANCH   8   9
ENDBRANCH   7   8
ENDBRANCH   5   7
ENDBRANCH   2   3
ENDBRANCH   1   2
BRANCH   1  16
ATOM     16  C   UNL A   1      35.102  21.578  25.094  1.00  0.00     0.023 C 
BRANCH  16  17
ATOM     17  C   UNL A   1      36.575  21.901  24.852  1.00  0.00     0.116 C 
BRANCH  17  18
ATOM     18  N   UNL A   1      37.453  20.804  25.225  1.00  0.00    -0.352 N 
ATOM     19  C   UNL A   1      38.715  20.833  25.770  1.00  0.00     0.251 C 
ATOM     20  H   UNL A   1      37.089  19.904  25.064  1.00  0.00     0.163 HD
ATOM     21  O   UNL A   1      39.362  19.788  25.840  1.00  0.00    -0.269 OA
BRANCH  19  22
ATOM     22  C   UNL A   1      39.309  22.105  26.243  1.00  0.00     0.039 A 
ATOM     23  C   UNL A   1      40.443  22.058  27.059  1.00  0.00     0.014 A 
ATOM     24  C   UNL A   1      38.751  23.341  25.904  1.00  0.00     0.014 A 
ATOM     25  C   UNL A   1      41.056  23.244  27.471  1.00  0.00     0.010 A 
ATOM     26  C   UNL A   1      39.406  24.522  26.254  1.00  0.00     0.010 A 
ATOM     27  C   UNL A   1      40.569  24.488  27.037  1.00  0.00    -0.014 A 
BRANCH  27  28
ATOM     28  C   UNL A   1      41.273  25.756  27.381  1.00  0.00     0.031 A 
ATOM     29  C   UNL A   1      40.592  26.802  28.225  1.00  0.00     0.074 A 
ATOM     30  C   UNL A   1      42.507  25.989  26.890  1.00  0.00     0.049 A 
ATOM     31  N   UNL A   1      41.018  27.990  28.574  1.00  0.00    -0.248 NA
ATOM     32  C   UNL A   1      39.246  26.479  28.723  1.00  0.00     0.031 C 
ATOM     33  C   UNL A   1      43.265  25.066  26.043  1.00  0.00     0.029 A 
ATOM     34  N   UNL A   1      43.342  27.071  27.027  1.00  0.00    -0.354 N 
ATOM     35  C   UNL A   1      39.990  28.562  29.317  1.00  0.00     0.074 A 
ATOM     36  C   UNL A   1      38.900  27.608  29.322  1.00  0.00     0.031 C 
ATOM     37  C   UNL A   1      44.466  25.602  25.771  1.00  0.00     0.029 A 
ATOM     38  C   UNL A   1      44.545  26.931  26.371  1.00  0.00     0.049 A 
ATOM     39  H   UNL A   1      43.103  27.872  27.547  1.00  0.00     0.167 HD
ATOM     40  C   UNL A   1      39.965  29.761  29.948  1.00  0.00     0.034 A 
ATOM     41  C   UNL A   1      45.588  27.777  26.256  1.00  0.00     0.034 A 
ATOM     42  C   UNL A   1      41.064  30.698  29.944  1.00  0.00     0.049 A 
ATOM     43  C   UNL A   1      45.513  29.124  26.929  1.00  0.00     0.074 A 
ATOM     44  C   UNL A   1      41.160  31.912  30.602  1.00  0.00     0.029 A 
ATOM     45  N   UNL A   1      42.250  30.534  29.241  1.00  0.00    -0.354 N 
ATOM     46  N   UNL A   1      44.549  29.632  27.661  1.00  0.00    -0.248 NA
ATOM     47  C   UNL A   1      46.673  30.011  26.763  1.00  0.00     0.031 C 
ATOM     48  C   UNL A   1      42.364  32.520  30.230  1.00  0.00     0.029 A 
ATOM     49  C   UNL A   1      43.064  31.644  29.416  1.00  0.00     0.049 A 
ATOM     50  H   UNL A   1      42.481  29.746  28.698  1.00  0.00     0.167 HD
ATOM     51  C   UNL A   1      45.005  30.882  28.074  1.00  0.00     0.074 A 
ATOM     52  C   UNL A   1      46.333  31.043  27.519  1.00  0.00     0.031 C 
ATOM     53  C   UNL A   1      44.384  31.806  28.850  1.00  0.00     0.034 A 
BRANCH  40  54
ATOM     54  C   UNL A   1      38.694  30.147  30.671  1.00  0.00     0.023 A 
ATOM     55  C   UNL A   1      37.660  30.856  30.032  1.00  0.00     0.031 A 
ATOM     56  C   UNL A   1      38.514  29.799  32.022  1.00  0.00     0.131 A 
ATOM     57  C   UNL A   1      36.526  31.248  30.760  1.00  0.00     0.055 A 
ATOM     58  C   UNL A   1      37.347  30.121  32.717  1.00  0.00     0.041 A 
ATOM     59  F   UNL A   1      39.474  29.142  32.692  1.00  0.00    -0.206 F 
ATOM     60  C   UNL A   1      36.350  30.861  32.090  1.00  0.00     0.022 A 
BRANCH  57  61
ATOM     61  S   UNL A   1      35.348  32.386  29.981  1.00  0.00     0.124 S 
ATOM     62  O   UNL A   1      34.850  31.579  28.870  1.00  0.00    -0.237 OA
ATOM     63  O   UNL A   1      34.401  32.645  31.058  1.00  0.00    -0.237 OA
ATOM     64  O   UNL A   1      36.177  33.524  29.591  1.00  0.00    -0.744 OA
ENDBRANCH  57  61
ENDBRANCH  40  54
BRANCH  41  65
ATOM     65  C   UNL A   1      46.797  27.388  25.472  1.00  0.00     0.023 A 
ATOM     66  C   UNL A   1      46.972  27.836  24.153  1.00  0.00     0.031 A 
ATOM     67  C   UNL A   1      47.771  26.529  26.011  1.00  0.00     0.131 A 
ATOM     68  C   UNL A   1      48.068  27.386  23.400  1.00  0.00     0.055 A 
ATOM     69  C   UNL A   1      48.890  26.130  25.277  1.00  0.00     0.041 A 
ATOM     70  F   UNL A   1      47.655  26.071  27.267  1.00  0.00    -0.206 F 
ATOM     71  C   UNL A   1      49.037  26.549  23.958  1.00  0.00     0.022 A 
BRANCH  68  72
ATOM     72  S   UNL A   1      48.163  27.841  21.647  1.00  0.00     0.124 S 
ATOM     73  O   UNL A   1      48.452  26.554  21.023  1.00  0.00    -0.237 OA
ATOM     74  O   UNL A   1      46.833  28.389  21.404  1.00  0.00    -0.237 OA
ATOM     75  O   UNL A   1      49.252  28.813  21.606  1.00  0.00    -0.744 OA
ENDBRANCH  68  72
ENDBRANCH  41  65
BRANCH  53  76
ATOM     76  C   UNL A   1      45.160  33.059  29.189  1.00  0.00     0.023 A 
ATOM     77  C   UNL A   1      45.090  34.216  28.394  1.00  0.00     0.031 A 
ATOM     78  C   UNL A   1      45.989  33.087  30.325  1.00  0.00     0.131 A 
ATOM     79  C   UNL A   1      45.880  35.331  28.712  1.00  0.00     0.055 A 
ATOM     80  C   UNL A   1      46.719  34.224  30.675  1.00  0.00     0.041 A 
ATOM     81  F   UNL A   1      46.101  32.010  31.119  1.00  0.00    -0.206 F 
ATOM     82  C   UNL A   1      46.679  35.350  29.858  1.00  0.00     0.022 A 
BRANCH  79  83
ATOM     83  S   UNL A   1      45.932  36.723  27.550  1.00  0.00     0.124 S 
ATOM     84  O   UNL A   1      46.848  37.642  28.219  1.00  0.00    -0.237 OA
ATOM     85  O   UNL A   1      46.436  36.096  26.333  1.00  0.00    -0.237 OA
ATOM     86  O   UNL A   1      44.541  37.170  27.486  1.00  0.00    -0.744 OA
ENDBRANCH  79  83
ENDBRANCH  53  76
ENDBRANCH  27  28
ENDBRANCH  19  22
ENDBRANCH  17  18
ENDBRANCH  16  17
ENDBRANCH   1  16
TORSDOF 18
ENDMDL
MODEL 2
REMARK VINA RESULT:     -10.1      1.112      7.886
REMARK SMILES O=C(CCCC[C@@H]1CCSS1)NCCCCNC(=O)c1ccc(-c2c3nc(c(-c4cc(S(=O)(=O)[O-])ccc4F)c4ccc([nH]4)c(-c4cc(S(=O)(=O)[O-])ccc4F)c4nc(c(-c5cc(S(=O)(=O)[O-])ccc5F)c5ccc2[nH]5)C=C4)C=C3)cc1
REMARK SMILES IDX 14 1 13 2 12 3 1 4 2 5 3 7 4 8 5 9 6 10 7 11 8 12 11 13 9 14
REMARK SMILES IDX 10 15 15 16 16 17 17 18 18 19 19 21 20 22 21 23 82 24 22 25
REMARK SMILES IDX 81 26 23 27 24 28 25 29 75 30 26 31 80 32 74 33 76 34 27 35
REMARK SMILES IDX 79 36 73 37 72 38 28 40 60 41 40 42 59 43 41 44 44 45 58 46
REMARK SMILES IDX 77 47 42 48 43 49 57 51 78 52 45 53 29 54 30 55 38 56 31 57
REMARK SMILES IDX 37 58 39 59 36 60 32 61 33 62 34 63 35 64 61 65 62 66 70 67
REMARK SMILES IDX 63 68 69 69 71 70 68 71 64 72 65 73 66 74 67 75 46 76 47 77
REMARK SMILES IDX 55 78 48 79 54 80 56 81 53 82 49 83 50 84 51 85 52 86
REMARK H PARENT 12 6 17 20 76 39 44 50
REMARK Flexibility Score: inf
ROOT
ATOM      1  C   UNL A   1      33.984  21.680  24.884  1.00  0.00     0.023 C 
ENDROOT
BRANCH   1   2
ATOM      2  C   UNL A   1      33.007  21.627  23.711  1.00  0.00     0.116 C 
BRANCH   2   3
ATOM      3  N   UNL A   1      32.404  22.918  23.450  1.00  0.00    -0.356 N 
ATOM      4  O   UNL A   1      34.000  23.668  21.980  1.00  0.00    -0.275 OA
ATOM      5  C   UNL A   1      32.934  23.827  22.566  1.00  0.00     0.219 C 
ATOM      6  H   UNL A   1      31.575  23.155  23.928  1.00  0.00     0.163 HD
BRANCH   5   7
ATOM      7  C   UNL A   1      32.090  25.073  22.375  1.00  0.00     0.100 C 
BRANCH   7   8
ATOM      8  C   UNL A   1      30.827  25.084  23.241  1.00  0.00     0.010 C 
BRANCH   8   9
ATOM      9  C   UNL A   1      30.377  26.450  23.780  1.00  0.00     0.002 C 
BRANCH   9  10
ATOM     10  C   UNL A   1      30.963  26.852  25.142  1.00  0.00     0.015 C 
BRANCH  10  11
ATOM     11  C   UNL A   1      32.152  27.819  25.074  1.00  0.00     0.059 C 
ATOM     12  C   UNL A   1      33.214  27.469  26.126  1.00  0.00     0.027 C 
ATOM     13  S   UNL A   1      31.629  29.540  25.388  1.00  0.00    -0.091 SA
ATOM     14  C   UNL A   1      34.202  28.617  26.287  1.00  0.00     0.083 C 
ATOM     15  S   UNL A   1      33.204  30.091  26.574  1.00  0.00    -0.094 SA
ENDBRANCH  10  11
ENDBRANCH   9  10
ENDBRANCH   8   9
ENDBRANCH   7   8
ENDBRANCH   5   7
ENDBRANCH   2   3
ENDBRANCH   1   2
BRANCH   1  16
ATOM     16  C   UNL A   1      35.466  21.573  24.509  1.00  0.00     0.023 C 
BRANCH  16  17
ATOM     17  C   UNL A   1      36.453  21.847  25.642  1.00  0.00     0.116 C 
BRANCH  17  18
ATOM     18  N   UNL A   1      37.521  20.863  25.699  1.00  0.00    -0.352 N 
ATOM     19  C   UNL A   1      38.863  21.033  25.941  1.00  0.00     0.251 C 
ATOM     20  H   UNL A   1      37.240  19.932  25.541  1.00  0.00     0.163 HD
ATOM     21  O   UNL A   1      39.630  20.086  25.761  1.00  0.00    -0.269 OA
BRANCH  19  22
ATOM     22  C   UNL A   1      39.395  22.344  26.382  1.00  0.00     0.039 A 
ATOM     23  C   UNL A   1      40.581  22.376  27.122  1.00  0.00     0.014 A 
ATOM     24  C   UNL A   1      38.730  23.537  26.090  1.00  0.00     0.014 A 
ATOM     25  C   UNL A   1      41.134  23.602  27.502  1.00  0.00     0.010 A 
ATOM     26  C   UNL A   1      39.320  24.761  26.404  1.00  0.00     0.010 A 
ATOM     27  C   UNL A   1      40.532  24.809  27.110  1.00  0.00    -0.014 A 
BRANCH  27  28
ATOM     28  C   UNL A   1      41.165  26.123  27.416  1.00  0.00     0.031 A 
ATOM     29  C   UNL A   1      42.543  26.445  26.899  1.00  0.00     0.074 A 
ATOM     30  C   UNL A   1      40.519  27.008  28.203  1.00  0.00     0.049 A 
ATOM     31  N   UNL A   1      43.280  27.506  27.114  1.00  0.00    -0.248 NA
ATOM     32  C   UNL A   1      43.186  25.431  26.050  1.00  0.00     0.031 C 
ATOM     33  C   UNL A   1      39.190  26.806  28.784  1.00  0.00     0.029 A 
ATOM     34  N   UNL A   1      40.890  28.251  28.655  1.00  0.00    -0.354 N 
ATOM     35  C   UNL A   1      44.477  27.282  26.441  1.00  0.00     0.074 A 
ATOM     36  C   UNL A   1      44.384  25.960  25.856  1.00  0.00     0.031 C 
ATOM     37  C   UNL A   1      38.842  27.901  29.478  1.00  0.00     0.029 A 
ATOM     38  C   UNL A   1      39.942  28.860  29.445  1.00  0.00     0.049 A 
ATOM     39  H   UNL A   1      41.754  28.667  28.432  1.00  0.00     0.167 HD
ATOM     40  C   UNL A   1      45.545  28.108  26.310  1.00  0.00     0.034 A 
ATOM     41  C   UNL A   1      39.957  30.049  30.081  1.00  0.00     0.034 A 
ATOM     42  C   UNL A   1      45.618  29.428  26.890  1.00  0.00     0.049 A 
ATOM     43  C   UNL A   1      41.178  30.927  29.957  1.00  0.00     0.074 A 
ATOM     44  C   UNL A   1      46.630  30.365  26.767  1.00  0.00     0.029 A 
ATOM     45  N   UNL A   1      44.653  29.995  27.711  1.00  0.00    -0.354 N 
ATOM     46  N   UNL A   1      42.284  30.716  29.283  1.00  0.00    -0.248 NA
ATOM     47  C   UNL A   1      41.147  32.207  30.677  1.00  0.00     0.031 C 
ATOM     48  C   UNL A   1      46.317  31.460  27.579  1.00  0.00     0.029 A 
ATOM     49  C   UNL A   1      45.065  31.251  28.135  1.00  0.00     0.049 A 
ATOM     50  H   UNL A   1      43.800  29.570  27.958  1.00  0.00     0.167 HD
ATOM     51  C   UNL A   1      43.064  31.856  29.469  1.00  0.00     0.074 A 
ATOM     52  C   UNL A   1      42.295  32.753  30.306  1.00  0.00     0.031 C 
ATOM     53  C   UNL A   1      44.299  32.137  28.981  1.00  0.00     0.034 A 
BRANCH  40  54
ATOM     54  C   UNL A   1      46.737  27.595  25.537  1.00  0.00     0.023 A 
ATOM     55  C   UNL A   1      46.998  28.001  24.216  1.00  0.00     0.031 A 
ATOM     56  C   UNL A   1      47.630  26.684  26.132  1.00  0.00     0.131 A 
ATOM     57  C   UNL A   1      48.082  27.449  23.514  1.00  0.00     0.055 A 
ATOM     58  C   UNL A   1      48.752  26.203  25.456  1.00  0.00     0.041 A 
ATOM     59  F   UNL A   1      47.422  26.242  27.383  1.00  0.00    -0.206 F 
ATOM     60  C   UNL A   1      48.977  26.575  24.134  1.00  0.00     0.022 A 
BRANCH  57  61
ATOM     61  S   UNL A   1      48.227  27.788  21.738  1.00  0.00     0.124 S 
ATOM     62  O   UNL A   1      49.296  28.784  21.715  1.00  0.00    -0.237 OA
ATOM     63  O   UNL A   1      48.561  26.478  21.193  1.00  0.00    -0.237 OA
ATOM     64  O   UNL A   1      46.905  28.296  21.377  1.00  0.00    -0.744 OA
ENDBRANCH  57  61
ENDBRANCH  40  54
BRANCH  41  65
ATOM     65  C   UNL A   1      38.789  30.489  30.896  1.00  0.00     0.023 A 
ATOM     66  C   UNL A   1      37.714  31.171  30.303  1.00  0.00     0.031 A 
ATOM     67  C   UNL A   1      38.747  30.277  32.286  1.00  0.00     0.131 A 
ATOM     68  C   UNL A   1      36.667  31.658  31.101  1.00  0.00     0.055 A 
ATOM     69  C   UNL A   1      37.675  30.713  33.067  1.00  0.00     0.041 A 
ATOM     70  F   UNL A   1      39.747  29.630  32.906  1.00  0.00    -0.206 F 
ATOM     71  C   UNL A   1      36.632  31.420  32.476  1.00  0.00     0.022 A 
BRANCH  68  72
ATOM     72  S   UNL A   1      35.392  32.689  30.326  1.00  0.00     0.124 S 
ATOM     73  O   UNL A   1      34.480  32.919  31.441  1.00  0.00    -0.237 OA
ATOM     74  O   UNL A   1      36.165  33.842  29.878  1.00  0.00    -0.237 OA
ATOM     75  O   UNL A   1      34.870  31.838  29.258  1.00  0.00    -0.744 OA
ENDBRANCH  68  72
ENDBRANCH  41  65
BRANCH  53  76
ATOM     76  C   UNL A   1      44.876  33.497  29.301  1.00  0.00     0.023 A 
ATOM     77  C   UNL A   1      44.656  34.612  28.474  1.00  0.00     0.031 A 
ATOM     78  C   UNL A   1      45.665  33.675  30.452  1.00  0.00     0.131 A 
ATOM     79  C   UNL A   1      45.267  35.839  28.776  1.00  0.00     0.055 A 
ATOM     80  C   UNL A   1      46.213  34.914  30.785  1.00  0.00     0.041 A 
ATOM     81  F   UNL A   1      45.914  32.645  31.277  1.00  0.00    -0.206 F 
ATOM     82  C   UNL A   1      46.027  36.002  29.938  1.00  0.00     0.022 A 
BRANCH  79  83
ATOM     83  S   UNL A   1      45.143  37.195  27.578  1.00  0.00     0.124 S 
ATOM     84  O   UNL A   1      45.648  38.327  28.349  1.00  0.00    -0.237 OA
ATOM     85  O   UNL A   1      45.998  36.732  26.491  1.00  0.00    -0.237 OA
ATOM     86  O   UNL A   1      43.715  37.246  27.264  1.00  0.00    -0.744 OA
ENDBRANCH  79  83
ENDBRANCH  53  76
ENDBRANCH  27  28
ENDBRANCH  19  22
ENDBRANCH  17  18
ENDBRANCH  16  17
ENDBRANCH   1  16
TORSDOF 18
ENDMDL
MODEL 3
REMARK VINA RESULT:     -10.0      5.569     10.197
REMARK SMILES O=C(CCCC[C@@H]1CCSS1)NCCCCNC(=O)c1ccc(-c2c3nc(c(-c4cc(S(=O)(=O)[O-])ccc4F)c4ccc([nH]4)c(-c4cc(S(=O)(=O)[O-])ccc4F)c4nc(c(-c5cc(S(=O)(=O)[O-])ccc5F)c5ccc2[nH]5)C=C4)C=C3)cc1
REMARK SMILES IDX 14 1 13 2 12 3 1 4 2 5 3 7 4 8 5 9 6 10 7 11 8 12 11 13 9 14
REMARK SMILES IDX 10 15 15 16 16 17 17 18 18 19 19 21 20 22 21 23 82 24 22 25
REMARK SMILES IDX 81 26 23 27 24 28 25 29 75 30 26 31 80 32 74 33 76 34 27 35
REMARK SMILES IDX 79 36 73 37 72 38 28 40 60 41 40 42 59 43 41 44 44 45 58 46
REMARK SMILES IDX 77 47 42 48 43 49 57 51 78 52 45 53 29 54 30 55 38 56 31 57
REMARK SMILES IDX 37 58 39 59 36 60 32 61 33 62 34 63 35 64 61 65 62 66 70 67
REMARK SMILES IDX 63 68 69 69 71 70 68 71 64 72 65 73 66 74 67 75 46 76 47 77
REMARK SMILES IDX 55 78 48 79 54 80 56 81 53 82 49 83 50 84 51 85 52 86
REMARK H PARENT 12 6 17 20 76 39 44 50
REMARK Flexibility Score: inf
ROOT
ATOM      1  C   UNL A   1      33.039  27.230  26.537  1.00  0.00     0.023 C 
ENDROOT
BRANCH   1   2
ATOM      2  C   UNL A   1      33.521  26.618  25.223  1.00  0.00     0.116 C 
BRANCH   2   3
ATOM      3  N   UNL A   1      32.469  26.571  24.229  1.00  0.00    -0.356 N 
ATOM      4  O   UNL A   1      33.605  27.700  22.583  1.00  0.00    -0.275 OA
ATOM      5  C   UNL A   1      32.613  27.086  22.963  1.00  0.00     0.219 C 
ATOM      6  H   UNL A   1      31.612  26.150  24.470  1.00  0.00     0.163 HD
BRANCH   5   7
ATOM      7  C   UNL A   1      31.422  26.844  22.055  1.00  0.00     0.100 C 
BRANCH   7   8
ATOM      8  C   UNL A   1      30.077  27.042  22.759  1.00  0.00     0.010 C 
BRANCH   8   9
ATOM      9  C   UNL A   1      29.625  28.493  22.981  1.00  0.00     0.002 C 
BRANCH   9  10
ATOM     10  C   UNL A   1      28.106  28.715  23.037  1.00  0.00     0.015 C 
BRANCH  10  11
ATOM     11  C   UNL A   1      27.626  30.052  22.455  1.00  0.00     0.059 C 
ATOM     12  C   UNL A   1      28.415  30.423  21.191  1.00  0.00     0.027 C 
ATOM     13  S   UNL A   1      27.848  31.415  23.649  1.00  0.00    -0.091 SA
ATOM     14  C   UNL A   1      28.183  31.884  20.829  1.00  0.00     0.083 C 
ATOM     15  S   UNL A   1      28.528  32.825  22.329  1.00  0.00    -0.094 SA
ENDBRANCH  10  11
ENDBRANCH   9  10
ENDBRANCH   8   9
ENDBRANCH   7   8
ENDBRANCH   5   7
ENDBRANCH   2   3
ENDBRANCH   1   2
BRANCH   1  16
ATOM     16  C   UNL A   1      32.302  28.567  26.407  1.00  0.00     0.023 C 
BRANCH  16  17
ATOM     17  C   UNL A   1      33.049  29.661  25.646  1.00  0.00     0.116 C 
BRANCH  17  18
ATOM     18  N   UNL A   1      32.705  30.995  26.110  1.00  0.00    -0.352 N 
ATOM     19  C   UNL A   1      33.287  31.762  27.091  1.00  0.00     0.251 C 
ATOM     20  H   UNL A   1      31.940  31.412  25.653  1.00  0.00     0.163 HD
ATOM     21  O   UNL A   1      32.725  32.795  27.456  1.00  0.00    -0.269 OA
BRANCH  19  22
ATOM     22  C   UNL A   1      34.558  31.345  27.728  1.00  0.00     0.039 A 
ATOM     23  C   UNL A   1      35.554  32.303  27.936  1.00  0.00     0.014 A 
ATOM     24  C   UNL A   1      34.784  30.018  28.105  1.00  0.00     0.014 A 
ATOM     25  C   UNL A   1      36.740  31.948  28.586  1.00  0.00     0.010 A 
ATOM     26  C   UNL A   1      35.934  29.682  28.819  1.00  0.00     0.010 A 
ATOM     27  C   UNL A   1      36.924  30.643  29.073  1.00  0.00    -0.014 A 
BRANCH  27  28
ATOM     28  C   UNL A   1      38.135  30.276  29.859  1.00  0.00     0.031 A 
ATOM     29  C   UNL A   1      39.138  29.298  29.304  1.00  0.00     0.074 A 
ATOM     30  C   UNL A   1      38.307  30.784  31.097  1.00  0.00     0.049 A 
ATOM     31  N   UNL A   1      40.216  28.810  29.866  1.00  0.00    -0.248 NA
ATOM     32  C   UNL A   1      38.883  28.785  27.950  1.00  0.00     0.031 C 
ATOM     33  C   UNL A   1      37.397  31.722  31.757  1.00  0.00     0.029 A 
ATOM     34  N   UNL A   1      39.300  30.582  32.024  1.00  0.00    -0.354 N 
ATOM     35  C   UNL A   1      40.758  27.922  28.942  1.00  0.00     0.074 A 
ATOM     36  C   UNL A   1      39.860  27.902  27.806  1.00  0.00     0.031 C 
ATOM     37  C   UNL A   1      37.895  32.046  32.961  1.00  0.00     0.029 A 
ATOM     38  C   UNL A   1      39.126  31.296  33.189  1.00  0.00     0.049 A 
ATOM     39  H   UNL A   1      40.067  29.984  31.869  1.00  0.00     0.167 HD
ATOM     40  C   UNL A   1      41.906  27.204  29.027  1.00  0.00     0.034 A 
ATOM     41  C   UNL A   1      39.865  31.335  34.316  1.00  0.00     0.034 A 
ATOM     42  C   UNL A   1      42.798  27.243  30.162  1.00  0.00     0.049 A 
ATOM     43  C   UNL A   1      41.111  30.490  34.402  1.00  0.00     0.074 A 
ATOM     44  C   UNL A   1      44.014  26.600  30.320  1.00  0.00     0.029 A 
ATOM     45  N   UNL A   1      42.570  27.950  31.334  1.00  0.00    -0.354 N 
ATOM     46  N   UNL A   1      41.630  29.687  33.502  1.00  0.00    -0.248 NA
ATOM     47  C   UNL A   1      41.873  30.562  35.656  1.00  0.00     0.031 C 
ATOM     48  C   UNL A   1      44.477  26.849  31.616  1.00  0.00     0.029 A 
ATOM     49  C   UNL A   1      43.601  27.725  32.235  1.00  0.00     0.049 A 
ATOM     50  H   UNL A   1      41.790  28.528  31.503  1.00  0.00     0.167 HD
ATOM     51  C   UNL A   1      42.801  29.189  34.070  1.00  0.00     0.074 A 
ATOM     52  C   UNL A   1      42.916  29.792  35.382  1.00  0.00     0.031 C 
ATOM     53  C   UNL A   1      43.704  28.320  33.548  1.00  0.00     0.034 A 
BRANCH  40  54
ATOM     54  C   UNL A   1      42.247  26.287  27.875  1.00  0.00     0.023 A 
ATOM     55  C   UNL A   1      41.836  24.942  27.847  1.00  0.00     0.031 A 
ATOM     56  C   UNL A   1      42.995  26.768  26.785  1.00  0.00     0.131 A 
ATOM     57  C   UNL A   1      42.230  24.112  26.786  1.00  0.00     0.055 A 
ATOM     58  C   UNL A   1      43.314  25.957  25.694  1.00  0.00     0.041 A 
ATOM     59  F   UNL A   1      43.435  28.037  26.764  1.00  0.00    -0.206 F 
ATOM     60  C   UNL A   1      42.942  24.617  25.696  1.00  0.00     0.022 A 
BRANCH  57  61
ATOM     61  S   UNL A   1      41.915  22.330  26.918  1.00  0.00     0.124 S 
ATOM     62  O   UNL A   1      43.053  21.888  27.720  1.00  0.00    -0.237 OA
ATOM     63  O   UNL A   1      40.614  22.288  27.575  1.00  0.00    -0.237 OA
ATOM     64  O   UNL A   1      41.928  21.876  25.529  1.00  0.00    -0.744 OA
ENDBRANCH  57  61
ENDBRANCH  40  54
BRANCH  41  65
ATOM     65  C   UNL A   1      39.455  32.198  35.462  1.00  0.00     0.023 A 
ATOM     66  C   UNL A   1      39.939  33.510  35.582  1.00  0.00     0.031 A 
ATOM     67  C   UNL A   1      38.613  31.711  36.477  1.00  0.00     0.131 A 
ATOM     68  C   UNL A   1      39.617  34.274  36.714  1.00  0.00     0.055 A 
ATOM     69  C   UNL A   1      38.248  32.495  37.573  1.00  0.00     0.041 A 
ATOM     70  F   UNL A   1      38.120  30.463  36.413  1.00  0.00    -0.206 F 
ATOM     71  C   UNL A   1      38.762  33.782  37.703  1.00  0.00     0.022 A 
BRANCH  68  72
ATOM     72  S   UNL A   1      40.405  35.895  36.922  1.00  0.00     0.124 S 
ATOM     73  O   UNL A   1      39.663  36.709  35.965  1.00  0.00    -0.237 OA
ATOM     74  O   UNL A   1      40.158  36.174  38.332  1.00  0.00    -0.237 OA
ATOM     75  O   UNL A   1      41.802  35.640  36.575  1.00  0.00    -0.744 OA
ENDBRANCH  68  72
ENDBRANCH  41  65
BRANCH  53  76
ATOM     76  C   UNL A   1      44.926  28.009  34.381  1.00  0.00     0.023 A 
ATOM     77  C   UNL A   1      44.957  26.935  35.288  1.00  0.00     0.031 A 
ATOM     78  C   UNL A   1      46.078  28.810  34.267  1.00  0.00     0.131 A 
ATOM     79  C   UNL A   1      46.091  26.727  36.087  1.00  0.00     0.055 A 
ATOM     80  C   UNL A   1      47.228  28.555  35.016  1.00  0.00     0.041 A 
ATOM     81  F   UNL A   1      46.106  29.853  33.423  1.00  0.00    -0.206 F 
ATOM     82  C   UNL A   1      47.234  27.518  35.942  1.00  0.00     0.022 A 
BRANCH  79  83
ATOM     83  S   UNL A   1      46.018  25.473  37.395  1.00  0.00     0.124 S 
ATOM     84  O   UNL A   1      45.299  24.388  36.734  1.00  0.00    -0.237 OA
ATOM     85  O   UNL A   1      47.428  25.227  37.673  1.00  0.00    -0.237 OA
ATOM     86  O   UNL A   1      45.282  26.139  38.470  1.00  0.00    -0.744 OA
ENDBRANCH  79  83
ENDBRANCH  53  76
ENDBRANCH  27  28
ENDBRANCH  19  22
ENDBRANCH  17  18
ENDBRANCH  16  17
ENDBRANCH   1  16
TORSDOF 18
ENDMDL
