MODEL 1
REMARK VINA RESULT:     -10.3      0.000      0.000
REMARK SMILES CCCc1sc(C(=O)NCCC(=O)NCCCCNC(=O)c2ccc(-c3c4nc(c(-c5cc(S(=O)(=O)[O-])ccc5F)c5ccc([nH]5)c(-c5cc(S(=O)(=O)[O-])ccc5F)c5nc(c(-c6cc(S(=O)(=O)[O-])ccc6F)c6ccc3[nH]6)C=C5)C=C4)cc2)cc1CC
REMARK SMILES IDX 15 1 14 2 12 3 13 4 11 6 10 7 9 8 7 9 8 10 6 12 4 13 5 14
REMARK SMILES IDX 86 15 85 16 3 17 2 18 1 19 87 20 88 21 16 22 17 23 18 24
REMARK SMILES IDX 19 25 20 26 21 28 22 29 23 30 84 31 24 32 83 33 25 34 26 35
REMARK SMILES IDX 27 36 77 37 28 38 82 39 76 40 78 41 29 42 81 43 75 44 74 45
REMARK SMILES IDX 30 47 62 48 42 49 61 50 43 51 46 52 60 53 79 54 44 55 45 56
REMARK SMILES IDX 59 58 80 59 47 60 31 61 32 62 40 63 33 64 39 65 41 66 38 67
REMARK SMILES IDX 34 68 35 69 36 70 37 71 63 72 64 73 72 74 65 75 71 76 73 77
REMARK SMILES IDX 70 78 66 79 67 80 68 81 69 82 48 83 49 84 57 85 50 86 56 87
REMARK SMILES IDX 58 88 55 89 51 90 52 91 53 92 54 93
REMARK H PARENT 14 5 9 11 19 27 78 46 46 57
REMARK Flexibility Score: inf
ROOT
ATOM      1  C   UNL A   1      31.395  30.063  25.117  1.00  0.00     0.116 C 
ENDROOT
BRANCH   1   2
ATOM      2  N   UNL A   1      32.563  29.568  24.414  1.00  0.00    -0.356 N 
ATOM      3  C   UNL A   1      33.023  28.292  24.298  1.00  0.00     0.221 C 
ATOM      4  O   UNL A   1      34.082  28.094  23.699  1.00  0.00    -0.275 OA
ATOM      5  H   UNL A   1      33.101  30.253  23.955  1.00  0.00     0.163 HD
BRANCH   3   6
ATOM      6  C   UNL A   1      32.261  27.135  24.913  1.00  0.00     0.121 C 
BRANCH   6   7
ATOM      7  C   UNL A   1      31.292  26.517  23.912  1.00  0.00     0.126 C 
BRANCH   7   8
ATOM      8  N   UNL A   1      31.936  26.034  22.706  1.00  0.00    -0.351 N 
ATOM      9  C   UNL A   1      32.764  24.982  22.403  1.00  0.00     0.261 C 
ATOM     10  O   UNL A   1      33.301  25.069  21.299  1.00  0.00    -0.268 OA
ATOM     11  H   UNL A   1      31.732  26.591  21.920  1.00  0.00     0.163 HD
BRANCH   9  12
ATOM     12  C   UNL A   1      32.945  23.844  23.294  1.00  0.00     0.092 A 
ATOM     13  C   UNL A   1      34.106  22.226  24.815  1.00  0.00     0.009 A 
ATOM     14  S   UNL A   1      34.389  23.803  24.226  1.00  0.00    -0.135 S 
ATOM     15  C   UNL A   1      32.887  21.738  24.361  1.00  0.00    -0.034 A 
ATOM     16  C   UNL A   1      32.215  22.701  23.530  1.00  0.00     0.029 A 
BRANCH  13  17
ATOM     17  C   UNL A   1      35.109  21.486  25.675  1.00  0.00     0.047 C 
BRANCH  17  18
ATOM     18  C   UNL A   1      36.090  20.522  25.001  1.00  0.00     0.002 C 
ATOM     19  C   UNL A   1      37.528  21.024  24.970  1.00  0.00     0.004 C 
ENDBRANCH  17  18
ENDBRANCH  13  17
BRANCH  15  20
ATOM     20  C   UNL A   1      32.337  20.359  24.613  1.00  0.00     0.033 C 
ATOM     21  C   UNL A   1      32.529  19.408  23.442  1.00  0.00     0.009 C 
ENDBRANCH  15  20
ENDBRANCH   9  12
ENDBRANCH   7   8
ENDBRANCH   6   7
ENDBRANCH   3   6
ENDBRANCH   1   2
BRANCH   1  22
ATOM     22  C   UNL A   1      31.741  30.507  26.537  1.00  0.00     0.023 C 
BRANCH  22  23
ATOM     23  C   UNL A   1      31.432  31.961  26.869  1.00  0.00     0.023 C 
BRANCH  23  24
ATOM     24  C   UNL A   1      32.624  32.901  26.835  1.00  0.00     0.116 C 
BRANCH  24  25
ATOM     25  N   UNL A   1      32.415  34.137  27.575  1.00  0.00    -0.352 N 
ATOM     26  C   UNL A   1      33.119  34.620  28.655  1.00  0.00     0.251 C 
ATOM     27  H   UNL A   1      31.674  34.702  27.260  1.00  0.00     0.163 HD
ATOM     28  O   UNL A   1      32.754  35.645  29.220  1.00  0.00    -0.269 OA
BRANCH  26  29
ATOM     29  C   UNL A   1      34.284  33.858  29.155  1.00  0.00     0.039 A 
ATOM     30  C   UNL A   1      35.567  34.348  28.909  1.00  0.00     0.014 A 
ATOM     31  C   UNL A   1      34.102  32.703  29.920  1.00  0.00     0.014 A 
ATOM     32  C   UNL A   1      36.667  33.720  29.496  1.00  0.00     0.010 A 
ATOM     33  C   UNL A   1      35.186  32.144  30.585  1.00  0.00     0.010 A 
ATOM     34  C   UNL A   1      36.481  32.638  30.372  1.00  0.00    -0.014 A 
BRANCH  34  35
ATOM     35  C   UNL A   1      37.629  31.983  31.050  1.00  0.00     0.031 A 
ATOM     36  C   UNL A   1      38.457  30.974  30.301  1.00  0.00     0.074 A 
ATOM     37  C   UNL A   1      37.877  32.239  32.350  1.00  0.00     0.049 A 
ATOM     38  N   UNL A   1      39.442  30.226  30.728  1.00  0.00    -0.248 NA
ATOM     39  C   UNL A   1      38.096  30.744  28.893  1.00  0.00     0.031 C 
ATOM     40  C   UNL A   1      37.103  33.148  33.199  1.00  0.00     0.029 A 
ATOM     41  N   UNL A   1      38.848  31.753  33.189  1.00  0.00    -0.354 N 
ATOM     42  C   UNL A   1      39.797  29.420  29.650  1.00  0.00     0.074 A 
ATOM     43  C   UNL A   1      38.872  29.720  28.579  1.00  0.00     0.031 C 
ATOM     44  C   UNL A   1      37.649  33.178  34.426  1.00  0.00     0.029 A 
ATOM     45  C   UNL A   1      38.784  32.263  34.466  1.00  0.00     0.049 A 
ATOM     46  H   UNL A   1      39.527  31.098  32.905  1.00  0.00     0.167 HD
ATOM     47  C   UNL A   1      40.820  28.535  29.553  1.00  0.00     0.034 A 
ATOM     48  C   UNL A   1      39.555  32.018  35.544  1.00  0.00     0.034 A 
ATOM     49  C   UNL A   1      41.752  28.278  30.622  1.00  0.00     0.049 A 
ATOM     50  C   UNL A   1      40.705  31.052  35.406  1.00  0.00     0.074 A 
ATOM     51  C   UNL A   1      42.866  27.456  30.619  1.00  0.00     0.029 A 
ATOM     52  N   UNL A   1      41.679  28.842  31.891  1.00  0.00    -0.354 N 
ATOM     53  N   UNL A   1      41.066  30.341  34.362  1.00  0.00    -0.248 NA
ATOM     54  C   UNL A   1      41.559  30.870  36.585  1.00  0.00     0.031 C 
ATOM     55  C   UNL A   1      43.433  27.482  31.898  1.00  0.00     0.029 A 
ATOM     56  C   UNL A   1      42.716  28.371  32.682  1.00  0.00     0.049 A 
ATOM     57  H   UNL A   1      40.992  29.484  32.184  1.00  0.00     0.167 HD
ATOM     58  C   UNL A   1      42.208  29.648  34.753  1.00  0.00     0.074 A 
ATOM     59  C   UNL A   1      42.483  30.041  36.121  1.00  0.00     0.031 C 
ATOM     60  C   UNL A   1      42.965  28.769  34.047  1.00  0.00     0.034 A 
BRANCH  47  61
ATOM     61  C   UNL A   1      40.960  27.780  28.252  1.00  0.00     0.023 A 
ATOM     62  C   UNL A   1      40.469  26.470  28.102  1.00  0.00     0.031 A 
ATOM     63  C   UNL A   1      41.636  28.356  27.162  1.00  0.00     0.131 A 
ATOM     64  C   UNL A   1      40.743  25.747  26.931  1.00  0.00     0.055 A 
ATOM     65  C   UNL A   1      41.826  27.662  25.965  1.00  0.00     0.041 A 
ATOM     66  F   UNL A   1      42.144  29.594  27.249  1.00  0.00    -0.206 F 
ATOM     67  C   UNL A   1      41.396  26.343  25.851  1.00  0.00     0.022 A 
BRANCH  64  68
ATOM     68  S   UNL A   1      40.379  23.971  26.907  1.00  0.00     0.124 S 
ATOM     69  O   UNL A   1      40.429  23.642  28.330  1.00  0.00    -0.237 OA
ATOM     70  O   UNL A   1      39.060  23.927  26.287  1.00  0.00    -0.237 OA
ATOM     71  O   UNL A   1      41.464  23.408  26.107  1.00  0.00    -0.744 OA
ENDBRANCH  64  68
ENDBRANCH  47  61
BRANCH  48  72
ATOM     72  C   UNL A   1      39.280  32.697  36.841  1.00  0.00     0.023 A 
ATOM     73  C   UNL A   1      38.444  32.108  37.803  1.00  0.00     0.031 A 
ATOM     74  C   UNL A   1      39.821  33.964  37.125  1.00  0.00     0.131 A 
ATOM     75  C   UNL A   1      38.136  32.802  38.984  1.00  0.00     0.055 A 
ATOM     76  C   UNL A   1      39.551  34.629  38.323  1.00  0.00     0.041 A 
ATOM     77  F   UNL A   1      40.634  34.568  36.244  1.00  0.00    -0.206 F 
ATOM     78  C   UNL A   1      38.692  34.054  39.255  1.00  0.00     0.022 A 
BRANCH  75  79
ATOM     79  S   UNL A   1      36.934  32.075  40.130  1.00  0.00     0.124 S 
ATOM     80  O   UNL A   1      37.707  30.991  40.726  1.00  0.00    -0.237 OA
ATOM     81  O   UNL A   1      36.627  33.202  41.004  1.00  0.00    -0.237 OA
ATOM     82  O   UNL A   1      35.842  31.654  39.255  1.00  0.00    -0.744 OA
ENDBRANCH  75  79
ENDBRANCH  48  72
BRANCH  60  83
ATOM     83  C   UNL A   1      44.186  28.215  34.737  1.00  0.00     0.023 A 
ATOM     84  C   UNL A   1      44.119  27.073  35.553  1.00  0.00     0.031 A 
ATOM     85  C   UNL A   1      45.432  28.849  34.584  1.00  0.00     0.131 A 
ATOM     86  C   UNL A   1      45.263  26.634  36.234  1.00  0.00     0.055 A 
ATOM     87  C   UNL A   1      46.580  28.372  35.216  1.00  0.00     0.041 A 
ATOM     88  F   UNL A   1      45.551  29.943  33.815  1.00  0.00    -0.206 F 
ATOM     89  C   UNL A   1      46.497  27.266  36.057  1.00  0.00     0.022 A 
BRANCH  86  90
ATOM     90  S   UNL A   1      45.100  25.277  37.426  1.00  0.00     0.124 S 
ATOM     91  O   UNL A   1      46.434  25.230  38.017  1.00  0.00    -0.237 OA
ATOM     92  O   UNL A   1      44.033  25.755  38.299  1.00  0.00    -0.237 OA
ATOM     93  O   UNL A   1      44.750  24.128  36.592  1.00  0.00    -0.744 OA
ENDBRANCH  86  90
ENDBRANCH  60  83
ENDBRANCH  34  35
ENDBRANCH  26  29
ENDBRANCH  24  25
ENDBRANCH  23  24
ENDBRANCH  22  23
ENDBRANCH   1  22
TORSDOF 20
ENDMDL
MODEL 2
REMARK VINA RESULT:     -10.1      1.751      7.817
REMARK SMILES CCCc1sc(C(=O)NCCC(=O)NCCCCNC(=O)c2ccc(-c3c4nc(c(-c5cc(S(=O)(=O)[O-])ccc5F)c5ccc([nH]5)c(-c5cc(S(=O)(=O)[O-])ccc5F)c5nc(c(-c6cc(S(=O)(=O)[O-])ccc6F)c6ccc3[nH]6)C=C5)C=C4)cc2)cc1CC
REMARK SMILES IDX 15 1 14 2 12 3 13 4 11 6 10 7 9 8 7 9 8 10 6 12 4 13 5 14
REMARK SMILES IDX 86 15 85 16 3 17 2 18 1 19 87 20 88 21 16 22 17 23 18 24
REMARK SMILES IDX 19 25 20 26 21 28 22 29 23 30 84 31 24 32 83 33 25 34 26 35
REMARK SMILES IDX 27 36 77 37 28 38 82 39 76 40 78 41 29 42 81 43 75 44 74 45
REMARK SMILES IDX 30 47 62 48 42 49 61 50 43 51 46 52 60 53 79 54 44 55 45 56
REMARK SMILES IDX 59 58 80 59 47 60 31 61 32 62 40 63 33 64 39 65 41 66 38 67
REMARK SMILES IDX 34 68 35 69 36 70 37 71 63 72 64 73 72 74 65 75 71 76 73 77
REMARK SMILES IDX 70 78 66 79 67 80 68 81 69 82 48 83 49 84 57 85 50 86 56 87
REMARK SMILES IDX 58 88 55 89 51 90 52 91 53 92 54 93
REMARK H PARENT 14 5 9 11 19 27 78 46 46 57
REMARK Flexibility Score: inf
ROOT
ATOM      1  C   UNL A   1      30.897  28.478  24.009  1.00  0.00     0.116 C 
ENDROOT
BRANCH   1   2
ATOM      2  N   UNL A   1      31.476  27.494  23.114  1.00  0.00    -0.356 N 
ATOM      3  C   UNL A   1      31.395  26.135  23.157  1.00  0.00     0.221 C 
ATOM      4  O   UNL A   1      32.021  25.476  22.324  1.00  0.00    -0.275 OA
ATOM      5  H   UNL A   1      32.005  27.861  22.369  1.00  0.00     0.163 HD
BRANCH   3   6
ATOM      6  C   UNL A   1      30.570  25.442  24.223  1.00  0.00     0.121 C 
BRANCH   6   7
ATOM      7  C   UNL A   1      31.218  25.574  25.596  1.00  0.00     0.126 C 
BRANCH   7   8
ATOM      8  N   UNL A   1      30.619  24.718  26.603  1.00  0.00    -0.351 N 
ATOM      9  C   UNL A   1      30.612  23.367  26.847  1.00  0.00     0.261 C 
ATOM     10  O   UNL A   1      29.765  23.011  27.666  1.00  0.00    -0.268 OA
ATOM     11  H   UNL A   1      30.095  25.223  27.265  1.00  0.00     0.163 HD
BRANCH   9  12
ATOM     12  C   UNL A   1      31.561  22.452  26.226  1.00  0.00     0.092 A 
ATOM     13  C   UNL A   1      33.764  21.510  25.495  1.00  0.00     0.009 A 
ATOM     14  S   UNL A   1      33.213  22.626  26.663  1.00  0.00    -0.135 S 
ATOM     15  C   UNL A   1      32.697  20.949  24.804  1.00  0.00    -0.034 A 
ATOM     16  C   UNL A   1      31.439  21.467  25.273  1.00  0.00     0.029 A 
BRANCH  13  17
ATOM     17  C   UNL A   1      35.235  21.242  25.253  1.00  0.00     0.047 C 
BRANCH  17  18
ATOM     18  C   UNL A   1      35.973  22.073  24.200  1.00  0.00     0.002 C 
ATOM     19  C   UNL A   1      35.077  23.040  23.436  1.00  0.00     0.004 C 
ENDBRANCH  17  18
ENDBRANCH  13  17
BRANCH  15  20
ATOM     20  C   UNL A   1      32.799  19.982  23.653  1.00  0.00     0.033 C 
ATOM     21  C   UNL A   1      33.061  18.550  24.089  1.00  0.00     0.009 C 
ENDBRANCH  15  20
ENDBRANCH   9  12
ENDBRANCH   7   8
ENDBRANCH   6   7
ENDBRANCH   3   6
ENDBRANCH   1   2
BRANCH   1  22
ATOM     22  C   UNL A   1      31.975  29.297  24.716  1.00  0.00     0.023 C 
BRANCH  22  23
ATOM     23  C   UNL A   1      31.471  30.393  25.645  1.00  0.00     0.023 C 
BRANCH  23  24
ATOM     24  C   UNL A   1      32.439  30.816  26.735  1.00  0.00     0.116 C 
BRANCH  24  25
ATOM     25  N   UNL A   1      32.475  32.253  26.961  1.00  0.00    -0.352 N 
ATOM     26  C   UNL A   1      33.452  33.000  27.579  1.00  0.00     0.251 C 
ATOM     27  H   UNL A   1      31.700  32.757  26.626  1.00  0.00     0.163 HD
ATOM     28  O   UNL A   1      33.284  34.201  27.766  1.00  0.00    -0.269 OA
BRANCH  26  29
ATOM     29  C   UNL A   1      34.678  32.327  28.060  1.00  0.00     0.039 A 
ATOM     30  C   UNL A   1      35.865  33.057  28.134  1.00  0.00     0.014 A 
ATOM     31  C   UNL A   1      34.634  31.001  28.498  1.00  0.00     0.014 A 
ATOM     32  C   UNL A   1      36.992  32.479  28.720  1.00  0.00     0.010 A 
ATOM     33  C   UNL A   1      35.724  30.465  29.173  1.00  0.00     0.010 A 
ATOM     34  C   UNL A   1      36.919  31.193  29.281  1.00  0.00    -0.014 A 
BRANCH  34  35
ATOM     35  C   UNL A   1      38.088  30.573  29.956  1.00  0.00     0.031 A 
ATOM     36  C   UNL A   1      38.394  30.927  31.386  1.00  0.00     0.074 A 
ATOM     37  C   UNL A   1      38.908  29.757  29.264  1.00  0.00     0.049 A 
ATOM     38  N   UNL A   1      39.408  30.570  32.131  1.00  0.00    -0.248 NA
ATOM     39  C   UNL A   1      37.454  31.843  32.051  1.00  0.00     0.031 C 
ATOM     40  C   UNL A   1      38.751  29.391  27.854  1.00  0.00     0.029 A 
ATOM     41  N   UNL A   1      40.043  29.090  29.652  1.00  0.00    -0.354 N 
ATOM     42  C   UNL A   1      39.242  31.240  33.339  1.00  0.00     0.074 A 
ATOM     43  C   UNL A   1      38.072  32.080  33.196  1.00  0.00     0.031 C 
ATOM     44  C   UNL A   1      39.733  28.543  27.506  1.00  0.00     0.029 A 
ATOM     45  C   UNL A   1      40.611  28.334  28.652  1.00  0.00     0.049 A 
ATOM     46  H   UNL A   1      40.417  29.148  30.561  1.00  0.00     0.167 HD
ATOM     47  C   UNL A   1      39.978  31.140  34.474  1.00  0.00     0.034 A 
ATOM     48  C   UNL A   1      41.715  27.562  28.661  1.00  0.00     0.034 A 
ATOM     49  C   UNL A   1      41.119  30.269  34.607  1.00  0.00     0.049 A 
ATOM     50  C   UNL A   1      42.503  27.441  29.941  1.00  0.00     0.074 A 
ATOM     51  C   UNL A   1      41.900  30.032  35.724  1.00  0.00     0.029 A 
ATOM     52  N   UNL A   1      41.644  29.488  33.583  1.00  0.00    -0.354 N 
ATOM     53  N   UNL A   1      42.300  28.035  31.095  1.00  0.00    -0.248 NA
ATOM     54  C   UNL A   1      43.657  26.534  29.924  1.00  0.00     0.031 C 
ATOM     55  C   UNL A   1      42.927  29.152  35.362  1.00  0.00     0.029 A 
ATOM     56  C   UNL A   1      42.748  28.785  34.038  1.00  0.00     0.049 A 
ATOM     57  H   UNL A   1      41.282  29.441  32.668  1.00  0.00     0.167 HD
ATOM     58  C   UNL A   1      43.286  27.550  31.949  1.00  0.00     0.074 A 
ATOM     59  C   UNL A   1      44.070  26.604  31.181  1.00  0.00     0.031 C 
ATOM     60  C   UNL A   1      43.522  27.854  33.252  1.00  0.00     0.034 A 
BRANCH  47  61
ATOM     61  C   UNL A   1      39.569  32.008  35.642  1.00  0.00     0.023 A 
ATOM     62  C   UNL A   1      38.831  31.492  36.723  1.00  0.00     0.031 A 
ATOM     63  C   UNL A   1      39.877  33.379  35.653  1.00  0.00     0.131 A 
ATOM     64  C   UNL A   1      38.346  32.355  37.717  1.00  0.00     0.055 A 
ATOM     65  C   UNL A   1      39.468  34.217  36.693  1.00  0.00     0.041 A 
ATOM     66  F   UNL A   1      40.562  33.935  34.642  1.00  0.00    -0.206 F 
ATOM     67  C   UNL A   1      38.680  33.710  37.723  1.00  0.00     0.022 A 
BRANCH  64  68
ATOM     68  S   UNL A   1      37.137  31.710  38.905  1.00  0.00     0.124 S 
ATOM     69  O   UNL A   1      36.914  30.360  38.394  1.00  0.00    -0.237 OA
ATOM     70  O   UNL A   1      37.857  31.803  40.170  1.00  0.00    -0.237 OA
ATOM     71  O   UNL A   1      36.000  32.617  38.765  1.00  0.00    -0.744 OA
ENDBRANCH  64  68
ENDBRANCH  47  61
BRANCH  48  72
ATOM     72  C   UNL A   1      42.141  26.835  27.432  1.00  0.00     0.023 A 
ATOM     73  C   UNL A   1      41.953  25.450  27.308  1.00  0.00     0.031 A 
ATOM     74  C   UNL A   1      42.775  27.511  26.373  1.00  0.00     0.131 A 
ATOM     75  C   UNL A   1      42.433  24.775  26.174  1.00  0.00     0.055 A 
ATOM     76  C   UNL A   1      43.207  26.843  25.226  1.00  0.00     0.041 A 
ATOM     77  F   UNL A   1      42.970  28.838  26.435  1.00  0.00    -0.206 F 
ATOM     78  C   UNL A   1      43.049  25.464  25.128  1.00  0.00     0.022 A 
BRANCH  75  79
ATOM     79  S   UNL A   1      42.308  22.966  26.123  1.00  0.00     0.124 S 
ATOM     80  O   UNL A   1      40.888  22.758  26.383  1.00  0.00    -0.237 OA
ATOM     81  O   UNL A   1      42.763  22.669  24.770  1.00  0.00    -0.237 OA
ATOM     82  O   UNL A   1      43.208  22.533  27.190  1.00  0.00    -0.744 OA
ENDBRANCH  75  79
ENDBRANCH  48  72
BRANCH  60  83
ATOM     83  C   UNL A   1      44.649  27.117  33.929  1.00  0.00     0.023 A 
ATOM     84  C   UNL A   1      44.419  25.970  34.708  1.00  0.00     0.031 A 
ATOM     85  C   UNL A   1      45.971  27.580  33.803  1.00  0.00     0.131 A 
ATOM     86  C   UNL A   1      45.487  25.357  35.379  1.00  0.00     0.055 A 
ATOM     87  C   UNL A   1      47.038  26.931  34.425  1.00  0.00     0.041 A 
ATOM     88  F   UNL A   1      46.246  28.671  33.071  1.00  0.00    -0.206 F 
ATOM     89  C   UNL A   1      46.797  25.821  35.229  1.00  0.00     0.022 A 
BRANCH  86  90
ATOM     90  S   UNL A   1      45.129  23.998  36.526  1.00  0.00     0.124 S 
ATOM     91  O   UNL A   1      44.338  24.669  37.553  1.00  0.00    -0.237 OA
ATOM     92  O   UNL A   1      44.406  23.057  35.678  1.00  0.00    -0.237 OA
ATOM     93  O   UNL A   1      46.454  23.554  36.955  1.00  0.00    -0.744 OA
ENDBRANCH  86  90
ENDBRANCH  60  83
ENDBRANCH  34  35
ENDBRANCH  26  29
ENDBRANCH  24  25
ENDBRANCH  23  24
ENDBRANCH  22  23
ENDBRANCH   1  22
TORSDOF 20
ENDMDL
MODEL 3
REMARK VINA RESULT:     -10.1      3.057      8.377
REMARK SMILES CCCc1sc(C(=O)NCCC(=O)NCCCCNC(=O)c2ccc(-c3c4nc(c(-c5cc(S(=O)(=O)[O-])ccc5F)c5ccc([nH]5)c(-c5cc(S(=O)(=O)[O-])ccc5F)c5nc(c(-c6cc(S(=O)(=O)[O-])ccc6F)c6ccc3[nH]6)C=C5)C=C4)cc2)cc1CC
REMARK SMILES IDX 15 1 14 2 12 3 13 4 11 6 10 7 9 8 7 9 8 10 6 12 4 13 5 14
REMARK SMILES IDX 86 15 85 16 3 17 2 18 1 19 87 20 88 21 16 22 17 23 18 24
REMARK SMILES IDX 19 25 20 26 21 28 22 29 23 30 84 31 24 32 83 33 25 34 26 35
REMARK SMILES IDX 27 36 77 37 28 38 82 39 76 40 78 41 29 42 81 43 75 44 74 45
REMARK SMILES IDX 30 47 62 48 42 49 61 50 43 51 46 52 60 53 79 54 44 55 45 56
REMARK SMILES IDX 59 58 80 59 47 60 31 61 32 62 40 63 33 64 39 65 41 66 38 67
REMARK SMILES IDX 34 68 35 69 36 70 37 71 63 72 64 73 72 74 65 75 71 76 73 77
REMARK SMILES IDX 70 78 66 79 67 80 68 81 69 82 48 83 49 84 57 85 50 86 56 87
REMARK SMILES IDX 58 88 55 89 51 90 52 91 53 92 54 93
REMARK H PARENT 14 5 9 11 19 27 78 46 46 57
REMARK Flexibility Score: inf
ROOT
ATOM      1  C   UNL A   1      31.412  29.174  25.187  1.00  0.00     0.116 C 
ENDROOT
BRANCH   1   2
ATOM      2  N   UNL A   1      32.349  28.588  24.247  1.00  0.00    -0.356 N 
ATOM      3  C   UNL A   1      32.111  27.753  23.198  1.00  0.00     0.221 C 
ATOM      4  O   UNL A   1      33.068  27.317  22.556  1.00  0.00    -0.275 OA
ATOM      5  H   UNL A   1      33.294  28.827  24.389  1.00  0.00     0.163 HD
BRANCH   3   6
ATOM      6  C   UNL A   1      30.695  27.348  22.837  1.00  0.00     0.121 C 
BRANCH   6   7
ATOM      7  C   UNL A   1      30.361  25.964  23.382  1.00  0.00     0.126 C 
BRANCH   7   8
ATOM      8  N   UNL A   1      30.473  25.868  24.824  1.00  0.00    -0.351 N 
ATOM      9  C   UNL A   1      31.164  25.059  25.692  1.00  0.00     0.261 C 
ATOM     10  O   UNL A   1      30.786  25.138  26.860  1.00  0.00    -0.268 OA
ATOM     11  H   UNL A   1      29.924  26.539  25.291  1.00  0.00     0.163 HD
BRANCH   9  12
ATOM     12  C   UNL A   1      32.279  24.224  25.266  1.00  0.00     0.092 A 
ATOM     13  C   UNL A   1      33.609  22.147  24.820  1.00  0.00     0.009 A 
ATOM     14  S   UNL A   1      31.967  22.545  25.071  1.00  0.00    -0.135 S 
ATOM     15  C   UNL A   1      34.401  23.289  24.821  1.00  0.00    -0.034 A 
ATOM     16  C   UNL A   1      33.612  24.473  25.029  1.00  0.00     0.029 A 
BRANCH  13  17
ATOM     17  C   UNL A   1      34.086  20.718  24.672  1.00  0.00     0.047 C 
BRANCH  17  18
ATOM     18  C   UNL A   1      33.247  19.592  25.282  1.00  0.00     0.002 C 
ATOM     19  C   UNL A   1      32.556  18.707  24.251  1.00  0.00     0.004 C 
ENDBRANCH  17  18
ENDBRANCH  13  17
BRANCH  15  20
ATOM     20  C   UNL A   1      35.902  23.322  24.703  1.00  0.00     0.033 C 
ATOM     21  C   UNL A   1      36.407  23.004  23.305  1.00  0.00     0.009 C 
ENDBRANCH  15  20
ENDBRANCH   9  12
ENDBRANCH   7   8
ENDBRANCH   6   7
ENDBRANCH   3   6
ENDBRANCH   1   2
BRANCH   1  22
ATOM     22  C   UNL A   1      31.806  28.876  26.632  1.00  0.00     0.023 C 
BRANCH  22  23
ATOM     23  C   UNL A   1      33.231  28.380  26.841  1.00  0.00     0.023 C 
BRANCH  23  24
ATOM     24  C   UNL A   1      34.318  29.412  26.602  1.00  0.00     0.116 C 
BRANCH  24  25
ATOM     25  N   UNL A   1      33.968  30.748  27.062  1.00  0.00    -0.352 N 
ATOM     26  C   UNL A   1      34.599  31.522  28.009  1.00  0.00     0.251 C 
ATOM     27  H   UNL A   1      33.177  31.151  26.638  1.00  0.00     0.163 HD
ATOM     28  O   UNL A   1      34.119  32.599  28.345  1.00  0.00    -0.269 OA
BRANCH  26  29
ATOM     29  C   UNL A   1      35.830  31.013  28.652  1.00  0.00     0.039 A 
ATOM     30  C   UNL A   1      35.742  29.914  29.506  1.00  0.00     0.014 A 
ATOM     31  C   UNL A   1      37.072  31.581  28.356  1.00  0.00     0.014 A 
ATOM     32  C   UNL A   1      36.910  29.335  30.005  1.00  0.00     0.010 A 
ATOM     33  C   UNL A   1      38.234  30.942  28.768  1.00  0.00     0.010 A 
ATOM     34  C   UNL A   1      38.168  29.819  29.607  1.00  0.00    -0.014 A 
BRANCH  34  35
ATOM     35  C   UNL A   1      39.427  29.191  30.081  1.00  0.00     0.031 A 
ATOM     36  C   UNL A   1      40.128  29.752  31.288  1.00  0.00     0.074 A 
ATOM     37  C   UNL A   1      39.973  28.172  29.387  1.00  0.00     0.049 A 
ATOM     38  N   UNL A   1      41.276  29.412  31.815  1.00  0.00    -0.248 NA
ATOM     39  C   UNL A   1      39.467  30.879  31.966  1.00  0.00     0.031 C 
ATOM     40  C   UNL A   1      39.420  27.585  28.164  1.00  0.00     0.029 A 
ATOM     41  N   UNL A   1      41.119  27.452  29.607  1.00  0.00    -0.354 N 
ATOM     42  C   UNL A   1      41.486  30.300  32.865  1.00  0.00     0.074 A 
ATOM     43  C   UNL A   1      40.384  31.237  32.851  1.00  0.00     0.031 C 
ATOM     44  C   UNL A   1      40.210  26.576  27.762  1.00  0.00     0.029 A 
ATOM     45  C   UNL A   1      41.345  26.468  28.672  1.00  0.00     0.049 A 
ATOM     46  H   UNL A   1      41.726  27.623  30.364  1.00  0.00     0.167 HD
ATOM     47  C   UNL A   1      42.489  30.313  33.779  1.00  0.00     0.034 A 
ATOM     48  C   UNL A   1      42.354  25.581  28.562  1.00  0.00     0.034 A 
ATOM     49  C   UNL A   1      43.559  29.348  33.797  1.00  0.00     0.049 A 
ATOM     50  C   UNL A   1      43.444  25.594  29.605  1.00  0.00     0.074 A 
ATOM     51  C   UNL A   1      44.591  29.219  34.709  1.00  0.00     0.029 A 
ATOM     52  N   UNL A   1      43.735  28.341  32.855  1.00  0.00    -0.354 N 
ATOM     53  N   UNL A   1      43.598  26.402  30.629  1.00  0.00    -0.248 NA
ATOM     54  C   UNL A   1      44.484  24.565  29.485  1.00  0.00     0.031 C 
ATOM     55  C   UNL A   1      45.419  28.171  34.290  1.00  0.00     0.029 A 
ATOM     56  C   UNL A   1      44.868  27.600  33.154  1.00  0.00     0.049 A 
ATOM     57  H   UNL A   1      43.140  28.177  32.087  1.00  0.00     0.167 HD
ATOM     58  C   UNL A   1      44.740  25.959  31.291  1.00  0.00     0.074 A 
ATOM     59  C   UNL A   1      45.221  24.805  30.560  1.00  0.00     0.031 C 
ATOM     60  C   UNL A   1      45.336  26.458  32.405  1.00  0.00     0.034 A 
BRANCH  47  61
ATOM     61  C   UNL A   1      42.470  31.417  34.811  1.00  0.00     0.023 A 
ATOM     62  C   UNL A   1      41.501  31.458  35.829  1.00  0.00     0.031 A 
ATOM     63  C   UNL A   1      43.400  32.468  34.747  1.00  0.00     0.131 A 
ATOM     64  C   UNL A   1      41.424  32.571  36.681  1.00  0.00     0.055 A 
ATOM     65  C   UNL A   1      43.374  33.529  35.656  1.00  0.00     0.041 A 
ATOM     66  F   UNL A   1      44.337  32.497  33.787  1.00  0.00    -0.206 F 
ATOM     67  C   UNL A   1      42.370  33.595  36.617  1.00  0.00     0.022 A 
BRANCH  64  68
ATOM     68  S   UNL A   1      39.974  32.735  37.758  1.00  0.00     0.124 S 
ATOM     69  O   UNL A   1      39.533  34.094  37.450  1.00  0.00    -0.237 OA
ATOM     70  O   UNL A   1      39.108  31.660  37.289  1.00  0.00    -0.237 OA
ATOM     71  O   UNL A   1      40.522  32.556  39.101  1.00  0.00    -0.744 OA
ENDBRANCH  64  68
ENDBRANCH  47  61
BRANCH  48  72
ATOM     72  C   UNL A   1      42.383  24.603  27.439  1.00  0.00     0.023 A 
ATOM     73  C   UNL A   1      41.594  23.442  27.469  1.00  0.00     0.031 A 
ATOM     74  C   UNL A   1      43.229  24.796  26.331  1.00  0.00     0.131 A 
ATOM     75  C   UNL A   1      41.697  22.497  26.436  1.00  0.00     0.055 A 
ATOM     76  C   UNL A   1      43.292  23.876  25.283  1.00  0.00     0.041 A 
ATOM     77  F   UNL A   1      43.997  25.894  26.248  1.00  0.00    -0.206 F 
ATOM     78  C   UNL A   1      42.533  22.711  25.339  1.00  0.00     0.022 A 
BRANCH  75  79
ATOM     79  S   UNL A   1      40.776  20.941  26.588  1.00  0.00     0.124 S 
ATOM     80  O   UNL A   1      40.798  20.722  28.030  1.00  0.00    -0.237 OA
ATOM     81  O   UNL A   1      39.485  21.297  26.012  1.00  0.00    -0.237 OA
ATOM     82  O   UNL A   1      41.569  19.999  25.801  1.00  0.00    -0.744 OA
ENDBRANCH  75  79
ENDBRANCH  48  72
BRANCH  60  83
ATOM     83  C   UNL A   1      46.547  25.721  32.916  1.00  0.00     0.023 A 
ATOM     84  C   UNL A   1      47.812  25.878  32.325  1.00  0.00     0.031 A 
ATOM     85  C   UNL A   1      46.428  24.837  34.004  1.00  0.00     0.131 A 
ATOM     86  C   UNL A   1      48.897  25.118  32.786  1.00  0.00     0.055 A 
ATOM     87  C   UNL A   1      47.524  24.128  34.497  1.00  0.00     0.041 A 
ATOM     88  F   UNL A   1      45.243  24.650  34.605  1.00  0.00    -0.206 F 
ATOM     89  C   UNL A   1      48.764  24.257  33.879  1.00  0.00     0.022 A 
BRANCH  86  90
ATOM     90  S   UNL A   1      50.466  25.202  31.880  1.00  0.00     0.124 S 
ATOM     91  O   UNL A   1      50.848  23.795  31.804  1.00  0.00    -0.237 OA
ATOM     92  O   UNL A   1      50.067  25.823  30.622  1.00  0.00    -0.237 OA
ATOM     93  O   UNL A   1      51.313  26.029  32.738  1.00  0.00    -0.744 OA
ENDBRANCH  86  90
ENDBRANCH  60  83
ENDBRANCH  34  35
ENDBRANCH  26  29
ENDBRANCH  24  25
ENDBRANCH  23  24
ENDBRANCH  22  23
ENDBRANCH   1  22
TORSDOF 20
ENDMDL
