MODEL 1
REMARK VINA RESULT:     -13.8      0.000      0.000
REMARK SMILES O=C(NCCCCNC(=O)c1ccc([C@H]2Nc3ccc(Cl)cc3[C@@H]3C=CC[C@@H]23)cc1)c1ccc(-c2c3nc(c(-c4cc(S(=O)(=O)[O-])ccc4F)c4ccc([nH]4)c(-c4cc(S(=O)(=O)[O-])ccc4F)c4nc(c(-c5cc(S(=O)(=O)[O-])ccc5F)c5ccc2[nH]5)C=C4)C=C3)cc1
REMARK SMILES IDX 4 1 3 2 1 3 2 4 31 6 32 7 93 8 33 9 92 10 34 11 35 12 36 13
REMARK SMILES IDX 86 14 37 15 91 16 85 17 87 18 38 19 90 20 84 21 83 22 39 24
REMARK SMILES IDX 71 25 51 26 70 27 52 28 55 29 69 30 88 31 53 32 54 33 68 35
REMARK SMILES IDX 89 36 56 37 40 38 41 39 49 40 42 41 48 42 50 43 47 44 43 45
REMARK SMILES IDX 44 46 45 47 46 48 72 49 73 50 81 51 74 52 80 53 82 54 79 55
REMARK SMILES IDX 75 56 76 57 77 58 78 59 57 60 58 61 66 62 59 63 65 64 67 65
REMARK SMILES IDX 64 66 60 67 61 68 62 69 63 70 5 71 6 72 7 73 8 74 9 75 10 77
REMARK SMILES IDX 11 78 12 79 30 80 13 81 29 82 14 83 15 84 16 85 28 86 17 87
REMARK SMILES IDX 24 89 27 90 18 91 23 92 25 93 26 94 19 95 22 96 20 97 21 98
REMARK H PARENT 3 5 87 23 55 34 8 76 16 88
REMARK Flexibility Score: inf
ROOT
ATOM      1  C   UNL A   1      37.038  21.765  24.446  1.00  0.00     0.116 C 
ENDROOT
BRANCH   1   2
ATOM      2  N   UNL A   1      37.822  20.681  25.024  1.00  0.00    -0.352 N 
ATOM      3  O   UNL A   1      39.528  19.665  26.083  1.00  0.00    -0.269 OA
ATOM      4  C   UNL A   1      38.974  20.721  25.778  1.00  0.00     0.251 C 
ATOM      5  H   UNL A   1      37.473  19.778  24.848  1.00  0.00     0.163 HD
BRANCH   4   6
ATOM      6  C   UNL A   1      39.564  22.012  26.207  1.00  0.00     0.039 A 
ATOM      7  C   UNL A   1      38.910  23.221  25.969  1.00  0.00     0.014 A 
ATOM      8  C   UNL A   1      40.789  22.013  26.886  1.00  0.00     0.014 A 
ATOM      9  C   UNL A   1      39.544  24.426  26.262  1.00  0.00     0.010 A 
ATOM     10  C   UNL A   1      41.385  23.226  27.262  1.00  0.00     0.010 A 
ATOM     11  C   UNL A   1      40.783  24.447  26.923  1.00  0.00    -0.014 A 
BRANCH  11  12
ATOM     12  C   UNL A   1      41.394  25.755  27.292  1.00  0.00     0.031 A 
ATOM     13  C   UNL A   1      42.765  26.144  26.804  1.00  0.00     0.074 A 
ATOM     14  C   UNL A   1      40.681  26.616  28.045  1.00  0.00     0.049 A 
ATOM     15  N   UNL A   1      43.434  27.249  27.018  1.00  0.00    -0.248 NA
ATOM     16  C   UNL A   1      43.478  25.163  25.973  1.00  0.00     0.031 C 
ATOM     17  C   UNL A   1      39.341  26.353  28.579  1.00  0.00     0.029 A 
ATOM     18  N   UNL A   1      40.963  27.886  28.482  1.00  0.00    -0.354 N 
ATOM     19  C   UNL A   1      44.648  27.099  26.354  1.00  0.00     0.074 A 
ATOM     20  C   UNL A   1      44.637  25.774  25.769  1.00  0.00     0.031 C 
ATOM     21  C   UNL A   1      38.902  27.442  29.225  1.00  0.00     0.029 A 
ATOM     22  C   UNL A   1      39.953  28.452  29.224  1.00  0.00     0.049 A 
ATOM     23  H   UNL A   1      41.809  28.348  28.281  1.00  0.00     0.167 HD
ATOM     24  C   UNL A   1      45.669  27.987  26.234  1.00  0.00     0.034 A 
ATOM     25  C   UNL A   1      39.885  29.639  29.858  1.00  0.00     0.034 A 
ATOM     26  C   UNL A   1      45.667  29.303  26.835  1.00  0.00     0.049 A 
ATOM     27  C   UNL A   1      41.060  30.577  29.771  1.00  0.00     0.074 A 
ATOM     28  C   UNL A   1      46.640  30.285  26.762  1.00  0.00     0.029 A 
ATOM     29  N   UNL A   1      44.649  29.819  27.628  1.00  0.00    -0.354 N 
ATOM     30  N   UNL A   1      42.194  30.422  29.125  1.00  0.00    -0.248 NA
ATOM     31  C   UNL A   1      40.946  31.848  30.494  1.00  0.00     0.031 C 
ATOM     32  C   UNL A   1      46.249  31.357  27.570  1.00  0.00     0.029 A 
ATOM     33  C   UNL A   1      44.988  31.087  28.078  1.00  0.00     0.049 A 
ATOM     34  H   UNL A   1      43.808  29.353  27.840  1.00  0.00     0.167 HD
ATOM     35  C   UNL A   1      42.914  31.592  29.342  1.00  0.00     0.074 A 
ATOM     36  C   UNL A   1      42.078  32.449  30.159  1.00  0.00     0.031 C 
ATOM     37  C   UNL A   1      44.155  31.930  28.904  1.00  0.00     0.034 A 
BRANCH  24  38
ATOM     38  C   UNL A   1      46.890  27.549  25.457  1.00  0.00     0.023 A 
ATOM     39  C   UNL A   1      47.100  27.943  24.124  1.00  0.00     0.031 A 
ATOM     40  C   UNL A   1      47.857  26.720  26.055  1.00  0.00     0.131 A 
ATOM     41  C   UNL A   1      48.207  27.453  23.413  1.00  0.00     0.055 A 
ATOM     42  C   UNL A   1      48.999  26.303  25.368  1.00  0.00     0.041 A 
ATOM     43  F   UNL A   1      47.706  26.295  27.319  1.00  0.00    -0.206 F 
ATOM     44  C   UNL A   1      49.172  26.657  24.033  1.00  0.00     0.022 A 
BRANCH  41  45
ATOM     45  S   UNL A   1      48.289  27.751  21.625  1.00  0.00     0.124 S 
ATOM     46  O   UNL A   1      48.652  26.429  21.121  1.00  0.00    -0.237 OA
ATOM     47  O   UNL A   1      46.937  28.203  21.318  1.00  0.00    -0.237 OA
ATOM     48  O   UNL A   1      49.333  28.767  21.494  1.00  0.00    -0.744 OA
ENDBRANCH  41  45
ENDBRANCH  24  38
BRANCH  25  49
ATOM     49  C   UNL A   1      38.682  29.994  30.666  1.00  0.00     0.023 A 
ATOM     50  C   UNL A   1      37.652  30.781  30.128  1.00  0.00     0.031 A 
ATOM     51  C   UNL A   1      38.568  29.589  32.009  1.00  0.00     0.131 A 
ATOM     52  C   UNL A   1      36.582  31.182  30.943  1.00  0.00     0.055 A 
ATOM     53  C   UNL A   1      37.468  29.934  32.795  1.00  0.00     0.041 A 
ATOM     54  F   UNL A   1      39.525  28.835  32.575  1.00  0.00    -0.206 F 
ATOM     55  C   UNL A   1      36.474  30.750  32.267  1.00  0.00     0.022 A 
BRANCH  52  56
ATOM     56  S   UNL A   1      35.384  32.370  30.277  1.00  0.00     0.124 S 
ATOM     57  O   UNL A   1      36.222  33.541  30.050  1.00  0.00    -0.237 OA
ATOM     58  O   UNL A   1      34.906  31.679  29.083  1.00  0.00    -0.237 OA
ATOM     59  O   UNL A   1      34.404  32.503  31.353  1.00  0.00    -0.744 OA
ENDBRANCH  52  56
ENDBRANCH  25  49
BRANCH  37  60
ATOM     60  C   UNL A   1      44.656  33.309  29.266  1.00  0.00     0.023 A 
ATOM     61  C   UNL A   1      44.399  34.428  28.455  1.00  0.00     0.031 A 
ATOM     62  C   UNL A   1      45.425  33.497  30.427  1.00  0.00     0.131 A 
ATOM     63  C   UNL A   1      44.962  35.671  28.782  1.00  0.00     0.055 A 
ATOM     64  C   UNL A   1      45.923  34.751  30.784  1.00  0.00     0.041 A 
ATOM     65  F   UNL A   1      45.707  32.464  31.237  1.00  0.00    -0.206 F 
ATOM     66  C   UNL A   1      45.706  35.844  29.951  1.00  0.00     0.022 A 
BRANCH  63  67
ATOM     67  S   UNL A   1      44.798  37.040  27.601  1.00  0.00     0.124 S 
ATOM     68  O   UNL A   1      44.767  38.200  28.485  1.00  0.00    -0.237 OA
ATOM     69  O   UNL A   1      45.997  36.892  26.783  1.00  0.00    -0.237 OA
ATOM     70  O   UNL A   1      43.540  36.751  26.914  1.00  0.00    -0.744 OA
ENDBRANCH  63  67
ENDBRANCH  37  60
ENDBRANCH  11  12
ENDBRANCH   4   6
ENDBRANCH   1   2
BRANCH   1  71
ATOM     71  C   UNL A   1      35.609  21.840  24.978  1.00  0.00     0.023 C 
BRANCH  71  72
ATOM     72  C   UNL A   1      35.444  21.829  26.500  1.00  0.00     0.023 C 
BRANCH  72  73
ATOM     73  C   UNL A   1      34.060  21.453  27.041  1.00  0.00     0.116 C 
BRANCH  73  74
ATOM     74  N   UNL A   1      33.485  20.273  26.408  1.00  0.00    -0.352 N 
ATOM     75  C   UNL A   1      32.611  20.130  25.352  1.00  0.00     0.251 C 
ATOM     76  H   UNL A   1      33.775  19.421  26.807  1.00  0.00     0.163 HD
ATOM     77  O   UNL A   1      32.196  19.009  25.065  1.00  0.00    -0.269 OA
BRANCH  75  78
ATOM     78  C   UNL A   1      32.109  21.291  24.576  1.00  0.00     0.039 A 
ATOM     79  C   UNL A   1      31.168  22.138  25.176  1.00  0.00     0.014 A 
ATOM     80  C   UNL A   1      32.526  21.556  23.273  1.00  0.00     0.014 A 
ATOM     81  C   UNL A   1      30.807  23.345  24.564  1.00  0.00     0.006 A 
ATOM     82  C   UNL A   1      32.179  22.770  22.668  1.00  0.00     0.006 A 
ATOM     83  C   UNL A   1      31.426  23.736  23.369  1.00  0.00    -0.025 A 
BRANCH  83  84
ATOM     84  C   UNL A   1      31.641  25.208  23.003  1.00  0.00     0.114 C 
ATOM     85  N   UNL A   1      30.439  26.073  23.128  1.00  0.00    -0.378 N 
ATOM     86  C   UNL A   1      32.780  25.803  23.864  1.00  0.00     0.031 C 
ATOM     87  C   UNL A   1      30.535  27.304  23.798  1.00  0.00     0.038 A 
ATOM     88  H   UNL A   1      29.579  25.785  22.743  1.00  0.00     0.161 HD
ATOM     89  C   UNL A   1      32.185  26.190  25.230  1.00  0.00     0.049 C 
ATOM     90  C   UNL A   1      34.089  25.074  24.157  1.00  0.00     0.034 C 
ATOM     91  C   UNL A   1      29.904  28.452  23.319  1.00  0.00     0.027 A 
ATOM     92  C   UNL A   1      31.423  27.438  24.900  1.00  0.00    -0.016 A 
ATOM     93  C   UNL A   1      33.370  26.166  26.126  1.00  0.00    -0.023 C 
ATOM     94  C   UNL A   1      34.389  25.504  25.563  1.00  0.00    -0.030 C 
ATOM     95  C   UNL A   1      30.166  29.701  23.908  1.00  0.00     0.022 A 
ATOM     96  C   UNL A   1      31.647  28.670  25.517  1.00  0.00     0.027 A 
ATOM     97  C   UNL A   1      31.029  29.801  25.001  1.00  0.00     0.041 A 
ATOM     98  Cl  UNL A   1      31.383  31.345  25.678  1.00  0.00    -0.084 Cl
ENDBRANCH  83  84
ENDBRANCH  75  78
ENDBRANCH  73  74
ENDBRANCH  72  73
ENDBRANCH  71  72
ENDBRANCH   1  71
TORSDOF 15
ENDMDL
MODEL 2
REMARK VINA RESULT:     -13.5      0.549      7.335
REMARK SMILES O=C(NCCCCNC(=O)c1ccc([C@H]2Nc3ccc(Cl)cc3[C@@H]3C=CC[C@@H]23)cc1)c1ccc(-c2c3nc(c(-c4cc(S(=O)(=O)[O-])ccc4F)c4ccc([nH]4)c(-c4cc(S(=O)(=O)[O-])ccc4F)c4nc(c(-c5cc(S(=O)(=O)[O-])ccc5F)c5ccc2[nH]5)C=C4)C=C3)cc1
REMARK SMILES IDX 4 1 3 2 1 3 2 4 31 6 32 7 93 8 33 9 92 10 34 11 35 12 36 13
REMARK SMILES IDX 86 14 37 15 91 16 85 17 87 18 38 19 90 20 84 21 83 22 39 24
REMARK SMILES IDX 71 25 51 26 70 27 52 28 55 29 69 30 88 31 53 32 54 33 68 35
REMARK SMILES IDX 89 36 56 37 40 38 41 39 49 40 42 41 48 42 50 43 47 44 43 45
REMARK SMILES IDX 44 46 45 47 46 48 72 49 73 50 81 51 74 52 80 53 82 54 79 55
REMARK SMILES IDX 75 56 76 57 77 58 78 59 57 60 58 61 66 62 59 63 65 64 67 65
REMARK SMILES IDX 64 66 60 67 61 68 62 69 63 70 5 71 6 72 7 73 8 74 9 75 10 77
REMARK SMILES IDX 11 78 12 79 30 80 13 81 29 82 14 83 15 84 16 85 28 86 17 87
REMARK SMILES IDX 24 89 27 90 18 91 23 92 25 93 26 94 19 95 22 96 20 97 21 98
REMARK H PARENT 3 5 87 23 55 34 8 76 16 88
REMARK Flexibility Score: inf
ROOT
ATOM      1  C   UNL A   1      37.372  21.170  24.782  1.00  0.00     0.116 C 
ENDROOT
BRANCH   1   2
ATOM      2  N   UNL A   1      38.303  20.135  25.211  1.00  0.00    -0.352 N 
ATOM      3  O   UNL A   1      40.211  19.224  25.986  1.00  0.00    -0.269 OA
ATOM      4  C   UNL A   1      39.547  20.244  25.793  1.00  0.00     0.251 C 
ATOM      5  H   UNL A   1      37.995  19.212  25.063  1.00  0.00     0.163 HD
BRANCH   4   6
ATOM      6  C   UNL A   1      40.105  21.566  26.167  1.00  0.00     0.039 A 
ATOM      7  C   UNL A   1      39.278  22.672  26.357  1.00  0.00     0.014 A 
ATOM      8  C   UNL A   1      41.487  21.697  26.358  1.00  0.00     0.014 A 
ATOM      9  C   UNL A   1      39.835  23.930  26.578  1.00  0.00     0.010 A 
ATOM     10  C   UNL A   1      42.039  22.948  26.669  1.00  0.00     0.010 A 
ATOM     11  C   UNL A   1      41.220  24.084  26.750  1.00  0.00    -0.014 A 
BRANCH  11  12
ATOM     12  C   UNL A   1      41.773  25.432  27.064  1.00  0.00     0.031 A 
ATOM     13  C   UNL A   1      41.004  26.414  27.909  1.00  0.00     0.074 A 
ATOM     14  C   UNL A   1      43.001  25.754  26.611  1.00  0.00     0.049 A 
ATOM     15  N   UNL A   1      41.347  27.620  28.291  1.00  0.00    -0.248 NA
ATOM     16  C   UNL A   1      39.679  25.991  28.383  1.00  0.00     0.031 C 
ATOM     17  C   UNL A   1      43.843  24.886  25.783  1.00  0.00     0.029 A 
ATOM     18  N   UNL A   1      43.766  26.878  26.790  1.00  0.00    -0.354 N 
ATOM     19  C   UNL A   1      40.281  28.103  29.044  1.00  0.00     0.074 A 
ATOM     20  C   UNL A   1      39.262  27.073  29.026  1.00  0.00     0.031 C 
ATOM     21  C   UNL A   1      45.021  25.488  25.569  1.00  0.00     0.029 A 
ATOM     22  C   UNL A   1      44.993  26.815  26.173  1.00  0.00     0.049 A 
ATOM     23  H   UNL A   1      43.465  27.657  27.312  1.00  0.00     0.167 HD
ATOM     24  C   UNL A   1      40.170  29.287  29.700  1.00  0.00     0.034 A 
ATOM     25  C   UNL A   1      45.979  27.728  26.077  1.00  0.00     0.034 A 
ATOM     26  C   UNL A   1      41.193  30.308  29.699  1.00  0.00     0.049 A 
ATOM     27  C   UNL A   1      45.800  29.063  26.751  1.00  0.00     0.074 A 
ATOM     28  C   UNL A   1      41.188  31.535  30.341  1.00  0.00     0.029 A 
ATOM     29  N   UNL A   1      42.401  30.231  29.014  1.00  0.00    -0.354 N 
ATOM     30  N   UNL A   1      44.791  29.494  27.473  1.00  0.00    -0.248 NA
ATOM     31  C   UNL A   1      46.893  30.030  26.602  1.00  0.00     0.031 C 
ATOM     32  C   UNL A   1      42.350  32.227  29.984  1.00  0.00     0.029 A 
ATOM     33  C   UNL A   1      43.127  31.400  29.190  1.00  0.00     0.049 A 
ATOM     34  H   UNL A   1      42.697  29.459  28.481  1.00  0.00     0.167 HD
ATOM     35  C   UNL A   1      45.144  30.775  27.887  1.00  0.00     0.074 A 
ATOM     36  C   UNL A   1      46.466  31.034  27.353  1.00  0.00     0.031 C 
ATOM     37  C   UNL A   1      44.440  31.657  28.643  1.00  0.00     0.034 A 
BRANCH  24  38
ATOM     38  C   UNL A   1      38.879  29.559  30.439  1.00  0.00     0.023 A 
ATOM     39  C   UNL A   1      37.889  30.407  29.913  1.00  0.00     0.031 A 
ATOM     40  C   UNL A   1      38.635  28.967  31.692  1.00  0.00     0.131 A 
ATOM     41  C   UNL A   1      36.738  30.695  30.665  1.00  0.00     0.055 A 
ATOM     42  C   UNL A   1      37.451  29.192  32.398  1.00  0.00     0.041 A 
ATOM     43  F   UNL A   1      39.549  28.162  32.257  1.00  0.00    -0.206 F 
ATOM     44  C   UNL A   1      36.500  30.073  31.892  1.00  0.00     0.022 A 
BRANCH  41  45
ATOM     45  S   UNL A   1      35.628  32.006  30.082  1.00  0.00     0.124 S 
ATOM     46  O   UNL A   1      36.569  33.086  29.796  1.00  0.00    -0.237 OA
ATOM     47  O   UNL A   1      34.992  31.389  28.924  1.00  0.00    -0.237 OA
ATOM     48  O   UNL A   1      34.748  32.244  31.225  1.00  0.00    -0.744 OA
ENDBRANCH  41  45
ENDBRANCH  24  38
BRANCH  25  49
ATOM     49  C   UNL A   1      47.206  27.433  25.279  1.00  0.00     0.023 A 
ATOM     50  C   UNL A   1      47.300  27.800  23.928  1.00  0.00     0.031 A 
ATOM     51  C   UNL A   1      48.286  26.733  25.848  1.00  0.00     0.131 A 
ATOM     52  C   UNL A   1      48.423  27.420  23.178  1.00  0.00     0.055 A 
ATOM     53  C   UNL A   1      49.430  26.417  25.115  1.00  0.00     0.041 A 
ATOM     54  F   UNL A   1      48.249  26.355  27.137  1.00  0.00    -0.206 F 
ATOM     55  C   UNL A   1      49.497  26.747  23.766  1.00  0.00     0.022 A 
BRANCH  52  56
ATOM     56  S   UNL A   1      48.415  27.725  21.390  1.00  0.00     0.124 S 
ATOM     57  O   UNL A   1      49.472  28.720  21.254  1.00  0.00    -0.237 OA
ATOM     58  O   UNL A   1      48.708  26.398  20.857  1.00  0.00    -0.237 OA
ATOM     59  O   UNL A   1      47.061  28.213  21.135  1.00  0.00    -0.744 OA
ENDBRANCH  52  56
ENDBRANCH  25  49
BRANCH  37  60
ATOM     60  C   UNL A   1      45.116  32.967  28.972  1.00  0.00     0.023 A 
ATOM     61  C   UNL A   1      44.973  34.102  28.154  1.00  0.00     0.031 A 
ATOM     62  C   UNL A   1      45.937  33.072  30.108  1.00  0.00     0.131 A 
ATOM     63  C   UNL A   1      45.693  35.270  28.448  1.00  0.00     0.055 A 
ATOM     64  C   UNL A   1      46.595  34.258  30.434  1.00  0.00     0.041 A 
ATOM     65  F   UNL A   1      46.115  32.019  30.923  1.00  0.00    -0.206 F 
ATOM     66  C   UNL A   1      46.488  35.362  29.593  1.00  0.00     0.022 A 
BRANCH  63  67
ATOM     67  S   UNL A   1      45.660  36.638  27.254  1.00  0.00     0.124 S 
ATOM     68  O   UNL A   1      46.309  37.708  28.003  1.00  0.00    -0.237 OA
ATOM     69  O   UNL A   1      46.420  36.092  26.134  1.00  0.00    -0.237 OA
ATOM     70  O   UNL A   1      44.235  36.836  26.998  1.00  0.00    -0.744 OA
ENDBRANCH  63  67
ENDBRANCH  37  60
ENDBRANCH  11  12
ENDBRANCH   4   6
ENDBRANCH   1   2
BRANCH   1  71
ATOM     71  C   UNL A   1      35.943  20.952  25.271  1.00  0.00     0.023 C 
BRANCH  71  72
ATOM     72  C   UNL A   1      35.461  21.861  26.406  1.00  0.00     0.023 C 
BRANCH  72  73
ATOM     73  C   UNL A   1      34.131  21.488  27.070  1.00  0.00     0.116 C 
BRANCH  73  74
ATOM     74  N   UNL A   1      33.498  20.309  26.492  1.00  0.00    -0.352 N 
ATOM     75  C   UNL A   1      32.611  20.161  25.449  1.00  0.00     0.251 C 
ATOM     76  H   UNL A   1      33.752  19.463  26.927  1.00  0.00     0.163 HD
ATOM     77  O   UNL A   1      32.143  19.049  25.213  1.00  0.00    -0.269 OA
BRANCH  75  78
ATOM     78  C   UNL A   1      32.158  21.309  24.625  1.00  0.00     0.039 A 
ATOM     79  C   UNL A   1      31.139  22.129  25.127  1.00  0.00     0.014 A 
ATOM     80  C   UNL A   1      32.695  21.587  23.370  1.00  0.00     0.014 A 
ATOM     81  C   UNL A   1      30.809  23.327  24.481  1.00  0.00     0.006 A 
ATOM     82  C   UNL A   1      32.378  22.792  22.732  1.00  0.00     0.006 A 
ATOM     83  C   UNL A   1      31.533  23.737  23.353  1.00  0.00    -0.025 A 
BRANCH  83  84
ATOM     84  C   UNL A   1      31.743  25.214  23.008  1.00  0.00     0.114 C 
ATOM     85  N   UNL A   1      30.534  26.070  23.126  1.00  0.00    -0.378 N 
ATOM     86  C   UNL A   1      32.865  25.806  23.894  1.00  0.00     0.031 C 
ATOM     87  C   UNL A   1      30.611  27.293  23.812  1.00  0.00     0.038 A 
ATOM     88  H   UNL A   1      29.682  25.781  22.724  1.00  0.00     0.161 HD
ATOM     89  C   UNL A   1      32.247  26.172  25.255  1.00  0.00     0.049 C 
ATOM     90  C   UNL A   1      34.175  25.082  24.198  1.00  0.00     0.034 C 
ATOM     91  C   UNL A   1      29.980  28.443  23.337  1.00  0.00     0.027 A 
ATOM     92  C   UNL A   1      31.482  27.419  24.929  1.00  0.00    -0.016 A 
ATOM     93  C   UNL A   1      33.419  26.145  26.169  1.00  0.00    -0.023 C 
ATOM     94  C   UNL A   1      34.450  25.497  25.613  1.00  0.00    -0.030 C 
ATOM     95  C   UNL A   1      30.224  29.686  23.945  1.00  0.00     0.022 A 
ATOM     96  C   UNL A   1      31.688  28.645  25.564  1.00  0.00     0.027 A 
ATOM     97  C   UNL A   1      31.071  29.779  25.053  1.00  0.00     0.041 A 
ATOM     98  Cl  UNL A   1      31.404  31.316  25.754  1.00  0.00    -0.084 Cl
ENDBRANCH  83  84
ENDBRANCH  75  78
ENDBRANCH  73  74
ENDBRANCH  72  73
ENDBRANCH  71  72
ENDBRANCH   1  71
TORSDOF 15
ENDMDL
MODEL 3
REMARK VINA RESULT:     -13.4      5.086     10.203
REMARK SMILES O=C(NCCCCNC(=O)c1ccc([C@H]2Nc3ccc(Cl)cc3[C@@H]3C=CC[C@@H]23)cc1)c1ccc(-c2c3nc(c(-c4cc(S(=O)(=O)[O-])ccc4F)c4ccc([nH]4)c(-c4cc(S(=O)(=O)[O-])ccc4F)c4nc(c(-c5cc(S(=O)(=O)[O-])ccc5F)c5ccc2[nH]5)C=C4)C=C3)cc1
REMARK SMILES IDX 4 1 3 2 1 3 2 4 31 6 32 7 93 8 33 9 92 10 34 11 35 12 36 13
REMARK SMILES IDX 86 14 37 15 91 16 85 17 87 18 38 19 90 20 84 21 83 22 39 24
REMARK SMILES IDX 71 25 51 26 70 27 52 28 55 29 69 30 88 31 53 32 54 33 68 35
REMARK SMILES IDX 89 36 56 37 40 38 41 39 49 40 42 41 48 42 50 43 47 44 43 45
REMARK SMILES IDX 44 46 45 47 46 48 72 49 73 50 81 51 74 52 80 53 82 54 79 55
REMARK SMILES IDX 75 56 76 57 77 58 78 59 57 60 58 61 66 62 59 63 65 64 67 65
REMARK SMILES IDX 64 66 60 67 61 68 62 69 63 70 5 71 6 72 7 73 8 74 9 75 10 77
REMARK SMILES IDX 11 78 12 79 30 80 13 81 29 82 14 83 15 84 16 85 28 86 17 87
REMARK SMILES IDX 24 89 27 90 18 91 23 92 25 93 26 94 19 95 22 96 20 97 21 98
REMARK H PARENT 3 5 87 23 55 34 8 76 16 88
REMARK Flexibility Score: inf
ROOT
ATOM      1  C   UNL A   1      32.512  29.490  26.642  1.00  0.00     0.116 C 
ENDROOT
BRANCH   1   2
ATOM      2  N   UNL A   1      32.437  30.944  26.710  1.00  0.00    -0.352 N 
ATOM      3  O   UNL A   1      32.985  33.042  27.312  1.00  0.00    -0.269 OA
ATOM      4  C   UNL A   1      33.298  31.851  27.287  1.00  0.00     0.251 C 
ATOM      5  H   UNL A   1      31.648  31.339  26.276  1.00  0.00     0.163 HD
BRANCH   4   6
ATOM      6  C   UNL A   1      34.579  31.414  27.894  1.00  0.00     0.039 A 
ATOM      7  C   UNL A   1      34.752  30.109  28.354  1.00  0.00     0.014 A 
ATOM      8  C   UNL A   1      35.641  32.324  27.982  1.00  0.00     0.014 A 
ATOM      9  C   UNL A   1      35.915  29.760  29.038  1.00  0.00     0.010 A 
ATOM     10  C   UNL A   1      36.845  31.944  28.592  1.00  0.00     0.010 A 
ATOM     11  C   UNL A   1      36.981  30.666  29.156  1.00  0.00    -0.014 A 
BRANCH  11  12
ATOM     12  C   UNL A   1      38.240  30.231  29.825  1.00  0.00     0.031 A 
ATOM     13  C   UNL A   1      38.595  30.707  31.210  1.00  0.00     0.074 A 
ATOM     14  C   UNL A   1      39.050  29.365  29.185  1.00  0.00     0.049 A 
ATOM     15  N   UNL A   1      39.641  30.412  31.941  1.00  0.00    -0.248 NA
ATOM     16  C   UNL A   1      37.657  31.638  31.854  1.00  0.00     0.031 C 
ATOM     17  C   UNL A   1      38.814  28.833  27.840  1.00  0.00     0.029 A 
ATOM     18  N   UNL A   1      40.221  28.764  29.574  1.00  0.00    -0.354 N 
ATOM     19  C   UNL A   1      39.493  31.121  33.129  1.00  0.00     0.074 A 
ATOM     20  C   UNL A   1      38.276  31.897  32.998  1.00  0.00     0.031 C 
ATOM     21  C   UNL A   1      39.778  27.951  27.539  1.00  0.00     0.029 A 
ATOM     22  C   UNL A   1      40.744  27.912  28.630  1.00  0.00     0.049 A 
ATOM     23  H   UNL A   1      40.645  28.927  30.448  1.00  0.00     0.167 HD
ATOM     24  C   UNL A   1      40.290  31.116  34.229  1.00  0.00     0.034 A 
ATOM     25  C   UNL A   1      41.887  27.197  28.625  1.00  0.00     0.034 A 
ATOM     26  C   UNL A   1      41.507  30.344  34.338  1.00  0.00     0.049 A 
ATOM     27  C   UNL A   1      42.791  27.266  29.827  1.00  0.00     0.074 A 
ATOM     28  C   UNL A   1      42.378  30.254  35.411  1.00  0.00     0.029 A 
ATOM     29  N   UNL A   1      42.035  29.536  33.337  1.00  0.00    -0.354 N 
ATOM     30  N   UNL A   1      42.625  27.931  30.948  1.00  0.00    -0.248 NA
ATOM     31  C   UNL A   1      44.032  26.486  29.766  1.00  0.00     0.031 C 
ATOM     32  C   UNL A   1      43.466  29.460  35.033  1.00  0.00     0.029 A 
ATOM     33  C   UNL A   1      43.234  28.977  33.755  1.00  0.00     0.049 A 
ATOM     34  H   UNL A   1      41.619  29.383  32.458  1.00  0.00     0.167 HD
ATOM     35  C   UNL A   1      43.729  27.624  31.736  1.00  0.00     0.074 A 
ATOM     36  C   UNL A   1      44.541  26.698  30.971  1.00  0.00     0.031 C 
ATOM     37  C   UNL A   1      44.045  28.065  32.981  1.00  0.00     0.034 A 
BRANCH  24  38
ATOM     38  C   UNL A   1      39.891  32.003  35.386  1.00  0.00     0.023 A 
ATOM     39  C   UNL A   1      39.072  31.537  36.429  1.00  0.00     0.031 A 
ATOM     40  C   UNL A   1      40.330  33.339  35.446  1.00  0.00     0.131 A 
ATOM     41  C   UNL A   1      38.661  32.414  37.446  1.00  0.00     0.055 A 
ATOM     42  C   UNL A   1      39.986  34.183  36.504  1.00  0.00     0.041 A 
ATOM     43  F   UNL A   1      41.099  33.851  34.472  1.00  0.00    -0.206 F 
ATOM     44  C   UNL A   1      39.133  33.727  37.505  1.00  0.00     0.022 A 
BRANCH  41  45
ATOM     45  S   UNL A   1      37.385  31.856  38.608  1.00  0.00     0.124 S 
ATOM     46  O   UNL A   1      36.323  32.830  38.373  1.00  0.00    -0.237 OA
ATOM     47  O   UNL A   1      37.117  30.496  38.154  1.00  0.00    -0.237 OA
ATOM     48  O   UNL A   1      38.038  31.961  39.912  1.00  0.00    -0.744 OA
ENDBRANCH  41  45
ENDBRANCH  24  38
BRANCH  25  49
ATOM     49  C   UNL A   1      42.265  26.389  27.429  1.00  0.00     0.023 A 
ATOM     50  C   UNL A   1      41.932  25.029  27.336  1.00  0.00     0.031 A 
ATOM     51  C   UNL A   1      43.009  26.957  26.379  1.00  0.00     0.131 A 
ATOM     52  C   UNL A   1      42.388  24.271  26.247  1.00  0.00     0.055 A 
ATOM     53  C   UNL A   1      43.403  26.215  25.265  1.00  0.00     0.041 A 
ATOM     54  F   UNL A   1      43.357  28.254  26.416  1.00  0.00    -0.206 F 
ATOM     55  C   UNL A   1      43.106  24.858  25.202  1.00  0.00     0.022 A 
BRANCH  52  56
ATOM     56  S   UNL A   1      42.121  22.477  26.267  1.00  0.00     0.124 S 
ATOM     57  O   UNL A   1      40.666  22.394  26.272  1.00  0.00    -0.237 OA
ATOM     58  O   UNL A   1      42.785  22.060  25.036  1.00  0.00    -0.237 OA
ATOM     59  O   UNL A   1      42.776  22.050  27.502  1.00  0.00    -0.744 OA
ENDBRANCH  52  56
ENDBRANCH  25  49
BRANCH  37  60
ATOM     60  C   UNL A   1      45.302  27.507  33.606  1.00  0.00     0.023 A 
ATOM     61  C   UNL A   1      45.318  26.260  34.255  1.00  0.00     0.031 A 
ATOM     62  C   UNL A   1      46.495  28.250  33.574  1.00  0.00     0.131 A 
ATOM     63  C   UNL A   1      46.485  25.824  34.901  1.00  0.00     0.055 A 
ATOM     64  C   UNL A   1      47.672  27.779  34.158  1.00  0.00     0.041 A 
ATOM     65  F   UNL A   1      46.539  29.450  32.973  1.00  0.00    -0.206 F 
ATOM     66  C   UNL A   1      47.667  26.566  34.841  1.00  0.00     0.022 A 
BRANCH  63  67
ATOM     67  S   UNL A   1      46.409  24.320  35.915  1.00  0.00     0.124 S 
ATOM     68  O   UNL A   1      47.396  23.466  35.263  1.00  0.00    -0.237 OA
ATOM     69  O   UNL A   1      46.771  24.818  37.238  1.00  0.00    -0.237 OA
ATOM     70  O   UNL A   1      45.022  23.882  35.776  1.00  0.00    -0.744 OA
ENDBRANCH  63  67
ENDBRANCH  37  60
ENDBRANCH  11  12
ENDBRANCH   4   6
ENDBRANCH   1   2
BRANCH   1  71
ATOM     71  C   UNL A   1      32.323  28.932  25.234  1.00  0.00     0.023 C 
BRANCH  71  72
ATOM     72  C   UNL A   1      33.500  29.099  24.268  1.00  0.00     0.023 C 
BRANCH  72  73
ATOM     73  C   UNL A   1      33.200  28.909  22.777  1.00  0.00     0.116 C 
BRANCH  73  74
ATOM     74  N   UNL A   1      31.848  29.297  22.397  1.00  0.00    -0.352 N 
ATOM     75  C   UNL A   1      30.661  28.598  22.382  1.00  0.00     0.251 C 
ATOM     76  H   UNL A   1      31.768  30.231  22.097  1.00  0.00     0.163 HD
ATOM     77  O   UNL A   1      29.656  29.134  21.920  1.00  0.00    -0.269 OA
BRANCH  75  78
ATOM     78  C   UNL A   1      30.561  27.197  22.859  1.00  0.00     0.039 A 
ATOM     79  C   UNL A   1      31.183  26.190  22.109  1.00  0.00     0.014 A 
ATOM     80  C   UNL A   1      29.859  26.847  24.011  1.00  0.00     0.014 A 
ATOM     81  C   UNL A   1      31.280  24.887  22.612  1.00  0.00     0.006 A 
ATOM     82  C   UNL A   1      29.969  25.548  24.523  1.00  0.00     0.006 A 
ATOM     83  C   UNL A   1      30.797  24.593  23.894  1.00  0.00    -0.025 A 
BRANCH  83  84
ATOM     84  C   UNL A   1      31.418  23.503  24.773  1.00  0.00     0.114 C 
ATOM     85  N   UNL A   1      31.589  22.182  24.115  1.00  0.00    -0.378 N 
ATOM     86  C   UNL A   1      32.789  23.979  25.310  1.00  0.00     0.031 C 
ATOM     87  C   UNL A   1      32.818  21.508  24.216  1.00  0.00     0.038 A 
ATOM     88  H   UNL A   1      30.844  21.780  23.610  1.00  0.00     0.161 HD
ATOM     89  C   UNL A   1      33.836  23.739  24.206  1.00  0.00     0.049 C 
ATOM     90  C   UNL A   1      33.047  25.384  25.848  1.00  0.00     0.034 C 
ATOM     91  C   UNL A   1      32.885  20.131  24.429  1.00  0.00     0.027 A 
ATOM     92  C   UNL A   1      34.027  22.254  24.269  1.00  0.00    -0.016 A 
ATOM     93  C   UNL A   1      34.902  24.718  24.543  1.00  0.00    -0.023 C 
ATOM     94  C   UNL A   1      34.451  25.649  25.393  1.00  0.00    -0.030 C 
ATOM     95  C   UNL A   1      34.118  19.517  24.706  1.00  0.00     0.022 A 
ATOM     96  C   UNL A   1      35.259  21.639  24.496  1.00  0.00     0.027 A 
ATOM     97  C   UNL A   1      35.293  20.271  24.734  1.00  0.00     0.041 A 
ATOM     98  Cl  UNL A   1      36.790  19.516  25.129  1.00  0.00    -0.084 Cl
ENDBRANCH  83  84
ENDBRANCH  75  78
ENDBRANCH  73  74
ENDBRANCH  72  73
ENDBRANCH  71  72
ENDBRANCH   1  71
TORSDOF 15
ENDMDL
