MODEL 1
REMARK VINA RESULT:     -11.9      0.000      0.000
REMARK SMILES CC(C)(C(=O)NCCCCNC(=O)c1ccc(-c2c3nc(c(-c4cc(S(=O)(=O)[O-])ccc4F)c4ccc([nH]4)c(-c4cc(S(=O)(=O)[O-])ccc4F)c4nc(c(-c5cc(S(=O)(=O)[O-])ccc5F)c5ccc2[nH]5)C=C4)C=C3)cc1)c1ccc(NS(=O)(=O)c2c(F)cc(F)cc2F)cc1
REMARK SMILES IDX 8 1 7 2 6 3 4 4 5 5 2 7 1 8 3 9 77 10 78 11 95 12 79 13
REMARK SMILES IDX 94 14 80 15 81 16 82 18 83 19 84 20 85 21 86 22 92 23 87 24
REMARK SMILES IDX 88 25 91 26 93 27 89 28 90 29 9 30 10 31 11 32 12 33 13 35
REMARK SMILES IDX 14 36 15 37 76 38 16 39 75 40 17 41 18 42 19 43 69 44 20 45
REMARK SMILES IDX 74 46 68 47 70 48 21 49 73 50 67 51 66 52 22 54 54 55 34 56
REMARK SMILES IDX 53 57 35 58 38 59 52 60 71 61 36 62 37 63 51 65 72 66 39 67
REMARK SMILES IDX 23 68 24 69 32 70 25 71 31 72 33 73 30 74 26 75 27 76 28 77
REMARK SMILES IDX 29 78 55 79 56 80 64 81 57 82 63 83 65 84 62 85 58 86 59 87
REMARK SMILES IDX 60 88 61 89 40 90 41 91 49 92 42 93 48 94 50 95 47 96 43 97
REMARK SMILES IDX 44 98 45 99 46 100
REMARK H PARENT 6 6 81 17 11 34 70 53 38 64
REMARK Flexibility Score: inf
ROOT
ATOM      1  C   UNL A   1      34.059  30.223  27.326  1.00  0.00     0.023 C 
ENDROOT
BRANCH   1   2
ATOM      2  C   UNL A   1      33.402  29.112  26.510  1.00  0.00     0.116 C 
BRANCH   2   3
ATOM      3  N   UNL A   1      33.871  29.115  25.143  1.00  0.00    -0.355 N 
ATOM      4  C   UNL A   1      33.238  29.007  23.947  1.00  0.00     0.230 C 
ATOM      5  O   UNL A   1      33.989  29.020  22.965  1.00  0.00    -0.274 OA
ATOM      6  H   UNL A   1      34.847  29.219  25.063  1.00  0.00     0.163 HD
BRANCH   4   7
ATOM      7  C   UNL A   1      31.685  28.912  23.796  1.00  0.00     0.068 C 
ATOM      8  C   UNL A   1      30.945  29.790  24.835  1.00  0.00     0.026 C 
ATOM      9  C   UNL A   1      31.283  29.385  22.385  1.00  0.00     0.026 C 
BRANCH   7  10
ATOM     10  C   UNL A   1      31.283  27.426  24.031  1.00  0.00    -0.033 A 
ATOM     11  C   UNL A   1      30.777  27.048  25.283  1.00  0.00     0.007 A 
ATOM     12  C   UNL A   1      31.544  26.396  23.107  1.00  0.00     0.007 A 
ATOM     13  C   UNL A   1      30.554  25.710  25.594  1.00  0.00     0.027 A 
ATOM     14  C   UNL A   1      31.253  25.051  23.405  1.00  0.00     0.027 A 
ATOM     15  C   UNL A   1      30.733  24.707  24.650  1.00  0.00     0.049 A 
BRANCH  15  16
ATOM     16  N   UNL A   1      30.501  23.337  25.014  1.00  0.00    -0.279 N 
ATOM     17  H   UNL A   1      29.661  22.891  24.761  1.00  0.00     0.180 HD
BRANCH  16  18
ATOM     18  S   UNL A   1      31.697  22.485  25.891  1.00  0.00     0.267 S 
ATOM     19  O   UNL A   1      31.596  22.941  27.265  1.00  0.00    -0.201 OA
ATOM     20  O   UNL A   1      31.505  21.081  25.608  1.00  0.00    -0.201 OA
BRANCH  18  21
ATOM     21  C   UNL A   1      33.246  22.970  25.228  1.00  0.00     0.159 A 
ATOM     22  C   UNL A   1      33.846  22.231  24.215  1.00  0.00     0.149 A 
ATOM     23  C   UNL A   1      33.932  24.046  25.789  1.00  0.00     0.149 A 
ATOM     24  F   UNL A   1      33.228  21.197  23.632  1.00  0.00    -0.205 F 
ATOM     25  C   UNL A   1      35.152  22.505  23.819  1.00  0.00     0.080 A 
ATOM     26  C   UNL A   1      35.243  24.325  25.405  1.00  0.00     0.080 A 
ATOM     27  F   UNL A   1      33.405  24.767  26.785  1.00  0.00    -0.205 F 
ATOM     28  C   UNL A   1      35.846  23.538  24.433  1.00  0.00     0.129 A 
ATOM     29  F   UNL A   1      37.124  23.761  24.101  1.00  0.00    -0.207 F 
ENDBRANCH  18  21
ENDBRANCH  16  18
ENDBRANCH  15  16
ENDBRANCH   7  10
ENDBRANCH   4   7
ENDBRANCH   2   3
ENDBRANCH   1   2
BRANCH   1  30
ATOM     30  C   UNL A   1      33.156  31.428  27.598  1.00  0.00     0.023 C 
BRANCH  30  31
ATOM     31  C   UNL A   1      33.741  32.782  27.205  1.00  0.00     0.116 C 
BRANCH  31  32
ATOM     32  N   UNL A   1      33.040  33.902  27.814  1.00  0.00    -0.352 N 
ATOM     33  C   UNL A   1      33.268  34.501  29.030  1.00  0.00     0.251 C 
ATOM     34  H   UNL A   1      32.303  34.282  27.283  1.00  0.00     0.163 HD
ATOM     35  O   UNL A   1      32.495  35.359  29.443  1.00  0.00    -0.269 OA
BRANCH  33  36
ATOM     36  C   UNL A   1      34.423  34.067  29.841  1.00  0.00     0.039 A 
ATOM     37  C   UNL A   1      34.209  33.184  30.902  1.00  0.00     0.014 A 
ATOM     38  C   UNL A   1      35.715  34.494  29.524  1.00  0.00     0.014 A 
ATOM     39  C   UNL A   1      35.302  32.672  31.600  1.00  0.00     0.010 A 
ATOM     40  C   UNL A   1      36.806  33.924  30.173  1.00  0.00     0.010 A 
ATOM     41  C   UNL A   1      36.612  33.006  31.215  1.00  0.00    -0.014 A 
BRANCH  41  42
ATOM     42  C   UNL A   1      37.790  32.404  31.893  1.00  0.00     0.031 A 
ATOM     43  C   UNL A   1      38.560  31.301  31.219  1.00  0.00     0.074 A 
ATOM     44  C   UNL A   1      38.123  32.805  33.135  1.00  0.00     0.049 A 
ATOM     45  N   UNL A   1      39.560  30.592  31.675  1.00  0.00    -0.248 NA
ATOM     46  C   UNL A   1      38.124  30.926  29.866  1.00  0.00     0.031 C 
ATOM     47  C   UNL A   1      37.422  33.837  33.906  1.00  0.00     0.029 A 
ATOM     48  N   UNL A   1      39.125  32.390  33.975  1.00  0.00    -0.354 N 
ATOM     49  C   UNL A   1      39.867  29.681  30.671  1.00  0.00     0.074 A 
ATOM     50  C   UNL A   1      38.902  29.885  29.611  1.00  0.00     0.031 C 
ATOM     51  C   UNL A   1      38.031  33.987  35.093  1.00  0.00     0.029 A 
ATOM     52  C   UNL A   1      39.132  33.035  35.191  1.00  0.00     0.049 A 
ATOM     53  H   UNL A   1      39.779  31.696  33.731  1.00  0.00     0.167 HD
ATOM     54  C   UNL A   1      40.879  28.778  30.624  1.00  0.00     0.034 A 
ATOM     55  C   UNL A   1      39.926  32.867  36.268  1.00  0.00     0.034 A 
ATOM     56  C   UNL A   1      41.837  28.595  31.688  1.00  0.00     0.049 A 
ATOM     57  C   UNL A   1      41.027  31.838  36.204  1.00  0.00     0.074 A 
ATOM     58  C   UNL A   1      42.926  27.743  31.729  1.00  0.00     0.029 A 
ATOM     59  N   UNL A   1      41.817  29.270  32.902  1.00  0.00    -0.354 N 
ATOM     60  N   UNL A   1      41.336  31.018  35.225  1.00  0.00    -0.248 NA
ATOM     61  C   UNL A   1      41.894  31.721  37.384  1.00  0.00     0.031 C 
ATOM     62  C   UNL A   1      43.523  27.853  32.989  1.00  0.00     0.029 A 
ATOM     63  C   UNL A   1      42.857  28.833  33.708  1.00  0.00     0.049 A 
ATOM     64  H   UNL A   1      41.159  29.959  33.153  1.00  0.00     0.167 HD
ATOM     65  C   UNL A   1      42.453  30.311  35.662  1.00  0.00     0.074 A 
ATOM     66  C   UNL A   1      42.771  30.813  36.983  1.00  0.00     0.031 C 
ATOM     67  C   UNL A   1      43.156  29.337  35.028  1.00  0.00     0.034 A 
BRANCH  54  68
ATOM     68  C   UNL A   1      40.978  27.912  29.390  1.00  0.00     0.023 A 
ATOM     69  C   UNL A   1      41.948  28.147  28.401  1.00  0.00     0.031 A 
ATOM     70  C   UNL A   1      40.074  26.854  29.185  1.00  0.00     0.131 A 
ATOM     71  C   UNL A   1      41.942  27.394  27.218  1.00  0.00     0.055 A 
ATOM     72  C   UNL A   1      40.128  26.051  28.044  1.00  0.00     0.041 A 
ATOM     73  F   UNL A   1      39.111  26.594  30.083  1.00  0.00    -0.206 F 
ATOM     74  C   UNL A   1      41.055  26.329  27.044  1.00  0.00     0.022 A 
BRANCH  71  75
ATOM     75  S   UNL A   1      43.009  27.923  25.850  1.00  0.00     0.124 S 
ATOM     76  O   UNL A   1      42.193  27.574  24.689  1.00  0.00    -0.237 OA
ATOM     77  O   UNL A   1      43.175  29.348  26.111  1.00  0.00    -0.237 OA
ATOM     78  O   UNL A   1      44.213  27.111  26.022  1.00  0.00    -0.744 OA
ENDBRANCH  71  75
ENDBRANCH  54  68
BRANCH  55  79
ATOM     79  C   UNL A   1      39.708  33.675  37.502  1.00  0.00     0.023 A 
ATOM     80  C   UNL A   1      38.924  33.187  38.561  1.00  0.00     0.031 A 
ATOM     81  C   UNL A   1      40.244  34.970  37.623  1.00  0.00     0.131 A 
ATOM     82  C   UNL A   1      38.657  34.005  39.669  1.00  0.00     0.055 A 
ATOM     83  C   UNL A   1      40.020  35.760  38.753  1.00  0.00     0.041 A 
ATOM     84  F   UNL A   1      41.004  35.484  36.644  1.00  0.00    -0.206 F 
ATOM     85  C   UNL A   1      39.210  35.283  39.779  1.00  0.00     0.022 A 
BRANCH  82  86
ATOM     86  S   UNL A   1      37.495  33.408  40.928  1.00  0.00     0.124 S 
ATOM     87  O   UNL A   1      38.340  32.516  41.712  1.00  0.00    -0.237 OA
ATOM     88  O   UNL A   1      37.092  34.650  41.580  1.00  0.00    -0.237 OA
ATOM     89  O   UNL A   1      36.451  32.753  40.143  1.00  0.00    -0.744 OA
ENDBRANCH  82  86
ENDBRANCH  55  79
BRANCH  67  90
ATOM     90  C   UNL A   1      44.367  28.789  35.742  1.00  0.00     0.023 A 
ATOM     91  C   UNL A   1      44.274  27.720  36.650  1.00  0.00     0.031 A 
ATOM     92  C   UNL A   1      45.635  29.355  35.516  1.00  0.00     0.131 A 
ATOM     93  C   UNL A   1      45.416  27.286  37.341  1.00  0.00     0.055 A 
ATOM     94  C   UNL A   1      46.778  28.879  36.158  1.00  0.00     0.041 A 
ATOM     95  F   UNL A   1      45.783  30.381  34.663  1.00  0.00    -0.206 F 
ATOM     96  C   UNL A   1      46.671  27.848  37.087  1.00  0.00     0.022 A 
BRANCH  93  97
ATOM     97  S   UNL A   1      45.226  26.042  38.646  1.00  0.00     0.124 S 
ATOM     98  O   UNL A   1      44.778  24.876  37.890  1.00  0.00    -0.237 OA
ATOM     99  O   UNL A   1      46.574  25.962  39.200  1.00  0.00    -0.237 OA
ATOM    100  O   UNL A   1      44.225  26.628  39.535  1.00  0.00    -0.744 OA
ENDBRANCH  93  97
ENDBRANCH  67  90
ENDBRANCH  41  42
ENDBRANCH  33  36
ENDBRANCH  31  32
ENDBRANCH  30  31
ENDBRANCH   1  30
TORSDOF 18
ENDMDL
MODEL 2
REMARK VINA RESULT:     -11.8      5.887     11.704
REMARK SMILES CC(C)(C(=O)NCCCCNC(=O)c1ccc(-c2c3nc(c(-c4cc(S(=O)(=O)[O-])ccc4F)c4ccc([nH]4)c(-c4cc(S(=O)(=O)[O-])ccc4F)c4nc(c(-c5cc(S(=O)(=O)[O-])ccc5F)c5ccc2[nH]5)C=C4)C=C3)cc1)c1ccc(NS(=O)(=O)c2c(F)cc(F)cc2F)cc1
REMARK SMILES IDX 8 1 7 2 6 3 4 4 5 5 2 7 1 8 3 9 77 10 78 11 95 12 79 13
REMARK SMILES IDX 94 14 80 15 81 16 82 18 83 19 84 20 85 21 86 22 92 23 87 24
REMARK SMILES IDX 88 25 91 26 93 27 89 28 90 29 9 30 10 31 11 32 12 33 13 35
REMARK SMILES IDX 14 36 15 37 76 38 16 39 75 40 17 41 18 42 19 43 69 44 20 45
REMARK SMILES IDX 74 46 68 47 70 48 21 49 73 50 67 51 66 52 22 54 54 55 34 56
REMARK SMILES IDX 53 57 35 58 38 59 52 60 71 61 36 62 37 63 51 65 72 66 39 67
REMARK SMILES IDX 23 68 24 69 32 70 25 71 31 72 33 73 30 74 26 75 27 76 28 77
REMARK SMILES IDX 29 78 55 79 56 80 64 81 57 82 63 83 65 84 62 85 58 86 59 87
REMARK SMILES IDX 60 88 61 89 40 90 41 91 49 92 42 93 48 94 50 95 47 96 43 97
REMARK SMILES IDX 44 98 45 99 46 100
REMARK H PARENT 6 6 81 17 11 34 70 53 38 64
REMARK Flexibility Score: inf
ROOT
ATOM      1  C   UNL A   1      39.138  22.983  26.301  1.00  0.00     0.023 C 
ENDROOT
BRANCH   1   2
ATOM      2  C   UNL A   1      37.800  23.664  26.025  1.00  0.00     0.116 C 
BRANCH   2   3
ATOM      3  N   UNL A   1      37.424  23.541  24.634  1.00  0.00    -0.355 N 
ATOM      4  C   UNL A   1      36.277  23.162  24.016  1.00  0.00     0.230 C 
ATOM      5  O   UNL A   1      36.338  23.148  22.781  1.00  0.00    -0.274 OA
ATOM      6  H   UNL A   1      38.146  23.782  24.009  1.00  0.00     0.163 HD
BRANCH   4   7
ATOM      7  C   UNL A   1      34.959  22.807  24.779  1.00  0.00     0.068 C 
ATOM      8  C   UNL A   1      34.217  21.612  24.131  1.00  0.00     0.026 C 
ATOM      9  C   UNL A   1      35.302  22.434  26.236  1.00  0.00     0.026 C 
BRANCH   7  10
ATOM     10  C   UNL A   1      34.032  24.056  24.717  1.00  0.00    -0.033 A 
ATOM     11  C   UNL A   1      34.140  25.033  25.716  1.00  0.00     0.007 A 
ATOM     12  C   UNL A   1      32.974  24.192  23.797  1.00  0.00     0.007 A 
ATOM     13  C   UNL A   1      33.231  26.084  25.794  1.00  0.00     0.027 A 
ATOM     14  C   UNL A   1      32.099  25.294  23.844  1.00  0.00     0.027 A 
ATOM     15  C   UNL A   1      32.242  26.260  24.835  1.00  0.00     0.049 A 
BRANCH  15  16
ATOM     16  N   UNL A   1      31.317  27.352  24.958  1.00  0.00    -0.279 N 
ATOM     17  H   UNL A   1      30.422  27.204  25.341  1.00  0.00     0.180 HD
BRANCH  16  18
ATOM     18  S   UNL A   1      31.780  28.911  24.431  1.00  0.00     0.267 S 
ATOM     19  O   UNL A   1      32.177  29.642  25.621  1.00  0.00    -0.201 OA
ATOM     20  O   UNL A   1      32.748  28.727  23.374  1.00  0.00    -0.201 OA
BRANCH  18  21
ATOM     21  C   UNL A   1      30.350  29.654  23.742  1.00  0.00     0.159 A 
ATOM     22  C   UNL A   1      29.711  29.080  22.648  1.00  0.00     0.149 A 
ATOM     23  C   UNL A   1      29.907  30.883  24.225  1.00  0.00     0.149 A 
ATOM     24  F   UNL A   1      30.085  27.896  22.151  1.00  0.00    -0.205 F 
ATOM     25  C   UNL A   1      28.692  29.761  21.987  1.00  0.00     0.080 A 
ATOM     26  C   UNL A   1      28.893  31.578  23.567  1.00  0.00     0.080 A 
ATOM     27  F   UNL A   1      30.511  31.486  25.256  1.00  0.00    -0.205 F 
ATOM     28  C   UNL A   1      28.306  31.014  22.442  1.00  0.00     0.129 A 
ATOM     29  F   UNL A   1      27.374  31.700  21.769  1.00  0.00    -0.207 F 
ENDBRANCH  18  21
ENDBRANCH  16  18
ENDBRANCH  15  16
ENDBRANCH   7  10
ENDBRANCH   4   7
ENDBRANCH   2   3
ENDBRANCH   1   2
BRANCH   1  30
ATOM     30  C   UNL A   1      39.206  21.518  25.861  1.00  0.00     0.023 C 
BRANCH  30  31
ATOM     31  C   UNL A   1      39.886  20.573  26.847  1.00  0.00     0.116 C 
BRANCH  31  32
ATOM     32  N   UNL A   1      40.815  19.655  26.206  1.00  0.00    -0.352 N 
ATOM     33  C   UNL A   1      42.109  19.883  25.802  1.00  0.00     0.251 C 
ATOM     34  H   UNL A   1      40.469  18.747  26.039  1.00  0.00     0.163 HD
ATOM     35  O   UNL A   1      42.709  19.027  25.160  1.00  0.00    -0.269 OA
BRANCH  33  36
ATOM     36  C   UNL A   1      42.743  21.179  26.113  1.00  0.00     0.039 A 
ATOM     37  C   UNL A   1      42.905  22.114  25.088  1.00  0.00     0.014 A 
ATOM     38  C   UNL A   1      43.130  21.486  27.420  1.00  0.00     0.014 A 
ATOM     39  C   UNL A   1      43.391  23.387  25.390  1.00  0.00     0.010 A 
ATOM     40  C   UNL A   1      43.543  22.778  27.730  1.00  0.00     0.010 A 
ATOM     41  C   UNL A   1      43.675  23.742  26.720  1.00  0.00    -0.014 A 
BRANCH  41  42
ATOM     42  C   UNL A   1      44.112  25.118  27.071  1.00  0.00     0.031 A 
ATOM     43  C   UNL A   1      43.123  26.097  27.643  1.00  0.00     0.074 A 
ATOM     44  C   UNL A   1      45.378  25.503  26.815  1.00  0.00     0.049 A 
ATOM     45  N   UNL A   1      43.284  27.361  27.935  1.00  0.00    -0.248 NA
ATOM     46  C   UNL A   1      41.764  25.591  27.887  1.00  0.00     0.031 C 
ATOM     47  C   UNL A   1      46.415  24.654  26.221  1.00  0.00     0.029 A 
ATOM     48  N   UNL A   1      46.008  26.706  27.009  1.00  0.00    -0.354 N 
ATOM     49  C   UNL A   1      42.046  27.805  28.388  1.00  0.00     0.074 A 
ATOM     50  C   UNL A   1      41.131  26.691  28.265  1.00  0.00     0.031 C 
ATOM     51  C   UNL A   1      47.555  25.357  26.122  1.00  0.00     0.029 A 
ATOM     52  C   UNL A   1      47.322  26.716  26.598  1.00  0.00     0.049 A 
ATOM     53  H   UNL A   1      45.563  27.489  27.406  1.00  0.00     0.167 HD
ATOM     54  C   UNL A   1      41.712  29.022  28.887  1.00  0.00     0.034 A 
ATOM     55  C   UNL A   1      48.230  27.713  26.590  1.00  0.00     0.034 A 
ATOM     56  C   UNL A   1      42.642  30.119  29.009  1.00  0.00     0.049 A 
ATOM     57  C   UNL A   1      47.829  29.065  27.124  1.00  0.00     0.074 A 
ATOM     58  C   UNL A   1      42.423  31.378  29.540  1.00  0.00     0.029 A 
ATOM     59  N   UNL A   1      43.965  30.092  28.588  1.00  0.00    -0.354 N 
ATOM     60  N   UNL A   1      46.666  29.455  27.597  1.00  0.00    -0.248 NA
ATOM     61  C   UNL A   1      48.864  30.106  27.137  1.00  0.00     0.031 C 
ATOM     62  C   UNL A   1      43.591  32.132  29.379  1.00  0.00     0.029 A 
ATOM     63  C   UNL A   1      44.566  31.320  28.821  1.00  0.00     0.049 A 
ATOM     64  H   UNL A   1      44.412  29.313  28.183  1.00  0.00     0.167 HD
ATOM     65  C   UNL A   1      46.842  30.779  27.991  1.00  0.00     0.074 A 
ATOM     66  C   UNL A   1      48.225  31.112  27.716  1.00  0.00     0.031 C 
ATOM     67  C   UNL A   1      45.944  31.640  28.534  1.00  0.00     0.034 A 
BRANCH  54  68
ATOM     68  C   UNL A   1      40.277  29.225  29.314  1.00  0.00     0.023 A 
ATOM     69  C   UNL A   1      39.891  29.140  30.663  1.00  0.00     0.031 A 
ATOM     70  C   UNL A   1      39.276  29.480  28.359  1.00  0.00     0.131 A 
ATOM     71  C   UNL A   1      38.534  29.224  31.011  1.00  0.00     0.055 A 
ATOM     72  C   UNL A   1      37.939  29.650  28.722  1.00  0.00     0.041 A 
ATOM     73  F   UNL A   1      39.580  29.552  27.053  1.00  0.00    -0.206 F 
ATOM     74  C   UNL A   1      37.558  29.506  30.053  1.00  0.00     0.022 A 
BRANCH  71  75
ATOM     75  S   UNL A   1      38.051  28.812  32.710  1.00  0.00     0.124 S 
ATOM     76  O   UNL A   1      36.710  29.389  32.782  1.00  0.00    -0.237 OA
ATOM     77  O   UNL A   1      38.122  27.356  32.714  1.00  0.00    -0.237 OA
ATOM     78  O   UNL A   1      39.057  29.489  33.526  1.00  0.00    -0.744 OA
ENDBRANCH  71  75
ENDBRANCH  54  68
BRANCH  55  79
ATOM     79  C   UNL A   1      49.601  27.482  26.051  1.00  0.00     0.023 A 
ATOM     80  C   UNL A   1      49.884  27.659  24.686  1.00  0.00     0.031 A 
ATOM     81  C   UNL A   1      50.642  27.036  26.886  1.00  0.00     0.131 A 
ATOM     82  C   UNL A   1      51.158  27.344  24.188  1.00  0.00     0.055 A 
ATOM     83  C   UNL A   1      51.923  26.777  26.395  1.00  0.00     0.041 A 
ATOM     84  F   UNL A   1      50.428  26.856  28.198  1.00  0.00    -0.206 F 
ATOM     85  C   UNL A   1      52.183  26.918  25.036  1.00  0.00     0.022 A 
BRANCH  82  86
ATOM     86  S   UNL A   1      51.430  27.412  22.397  1.00  0.00     0.124 S 
ATOM     87  O   UNL A   1      51.685  28.833  22.189  1.00  0.00    -0.237 OA
ATOM     88  O   UNL A   1      52.575  26.523  22.231  1.00  0.00    -0.237 OA
ATOM     89  O   UNL A   1      50.173  26.914  21.843  1.00  0.00    -0.744 OA
ENDBRANCH  82  86
ENDBRANCH  55  79
BRANCH  67  90
ATOM     90  C   UNL A   1      46.450  33.011  28.911  1.00  0.00     0.023 A 
ATOM     91  C   UNL A   1      46.335  34.110  28.042  1.00  0.00     0.031 A 
ATOM     92  C   UNL A   1      47.067  33.217  30.158  1.00  0.00     0.131 A 
ATOM     93  C   UNL A   1      46.878  35.351  28.407  1.00  0.00     0.055 A 
ATOM     94  C   UNL A   1      47.549  34.469  30.542  1.00  0.00     0.041 A 
ATOM     95  F   UNL A   1      47.207  32.203  31.027  1.00  0.00    -0.206 F 
ATOM     96  C   UNL A   1      47.469  35.541  29.659  1.00  0.00     0.022 A 
BRANCH  93  97
ATOM     97  S   UNL A   1      46.888  36.692  27.186  1.00  0.00     0.124 S 
ATOM     98  O   UNL A   1      45.577  37.299  27.391  1.00  0.00    -0.237 OA
ATOM     99  O   UNL A   1      48.034  37.492  27.610  1.00  0.00    -0.237 OA
ATOM    100  O   UNL A   1      47.058  35.995  25.912  1.00  0.00    -0.744 OA
ENDBRANCH  93  97
ENDBRANCH  67  90
ENDBRANCH  41  42
ENDBRANCH  33  36
ENDBRANCH  31  32
ENDBRANCH  30  31
ENDBRANCH   1  30
TORSDOF 18
ENDMDL
MODEL 3
REMARK VINA RESULT:     -11.7      1.623      2.296
REMARK SMILES CC(C)(C(=O)NCCCCNC(=O)c1ccc(-c2c3nc(c(-c4cc(S(=O)(=O)[O-])ccc4F)c4ccc([nH]4)c(-c4cc(S(=O)(=O)[O-])ccc4F)c4nc(c(-c5cc(S(=O)(=O)[O-])ccc5F)c5ccc2[nH]5)C=C4)C=C3)cc1)c1ccc(NS(=O)(=O)c2c(F)cc(F)cc2F)cc1
REMARK SMILES IDX 8 1 7 2 6 3 4 4 5 5 2 7 1 8 3 9 77 10 78 11 95 12 79 13
REMARK SMILES IDX 94 14 80 15 81 16 82 18 83 19 84 20 85 21 86 22 92 23 87 24
REMARK SMILES IDX 88 25 91 26 93 27 89 28 90 29 9 30 10 31 11 32 12 33 13 35
REMARK SMILES IDX 14 36 15 37 76 38 16 39 75 40 17 41 18 42 19 43 69 44 20 45
REMARK SMILES IDX 74 46 68 47 70 48 21 49 73 50 67 51 66 52 22 54 54 55 34 56
REMARK SMILES IDX 53 57 35 58 38 59 52 60 71 61 36 62 37 63 51 65 72 66 39 67
REMARK SMILES IDX 23 68 24 69 32 70 25 71 31 72 33 73 30 74 26 75 27 76 28 77
REMARK SMILES IDX 29 78 55 79 56 80 64 81 57 82 63 83 65 84 62 85 58 86 59 87
REMARK SMILES IDX 60 88 61 89 40 90 41 91 49 92 42 93 48 94 50 95 47 96 43 97
REMARK SMILES IDX 44 98 45 99 46 100
REMARK H PARENT 6 6 81 17 11 34 70 53 38 64
REMARK Flexibility Score: inf
ROOT
ATOM      1  C   UNL A   1      34.589  30.750  27.750  1.00  0.00     0.023 C 
ENDROOT
BRANCH   1   2
ATOM      2  C   UNL A   1      34.268  29.344  27.249  1.00  0.00     0.116 C 
BRANCH   2   3
ATOM      3  N   UNL A   1      34.084  29.326  25.815  1.00  0.00    -0.355 N 
ATOM      4  C   UNL A   1      33.260  28.623  24.997  1.00  0.00     0.230 C 
ATOM      5  O   UNL A   1      33.412  28.856  23.792  1.00  0.00    -0.274 OA
ATOM      6  H   UNL A   1      34.675  29.950  25.336  1.00  0.00     0.163 HD
BRANCH   4   7
ATOM      7  C   UNL A   1      32.172  27.626  25.513  1.00  0.00     0.068 C 
ATOM      8  C   UNL A   1      31.906  27.791  27.030  1.00  0.00     0.026 C 
ATOM      9  C   UNL A   1      30.853  27.880  24.758  1.00  0.00     0.026 C 
BRANCH   7  10
ATOM     10  C   UNL A   1      32.702  26.184  25.258  1.00  0.00    -0.033 A 
ATOM     11  C   UNL A   1      34.045  25.894  25.538  1.00  0.00     0.007 A 
ATOM     12  C   UNL A   1      31.950  25.184  24.612  1.00  0.00     0.007 A 
ATOM     13  C   UNL A   1      34.605  24.672  25.181  1.00  0.00     0.027 A 
ATOM     14  C   UNL A   1      32.507  23.926  24.313  1.00  0.00     0.027 A 
ATOM     15  C   UNL A   1      33.838  23.659  24.620  1.00  0.00     0.049 A 
BRANCH  15  16
ATOM     16  N   UNL A   1      34.457  22.414  24.256  1.00  0.00    -0.279 N 
ATOM     17  H   UNL A   1      34.702  22.238  23.319  1.00  0.00     0.180 HD
BRANCH  16  18
ATOM     18  S   UNL A   1      34.764  21.242  25.462  1.00  0.00     0.267 S 
ATOM     19  O   UNL A   1      36.202  21.221  25.654  1.00  0.00    -0.201 OA
ATOM     20  O   UNL A   1      33.917  21.566  26.587  1.00  0.00    -0.201 OA
BRANCH  18  21
ATOM     21  C   UNL A   1      34.241  19.702  24.809  1.00  0.00     0.159 A 
ATOM     22  C   UNL A   1      32.895  19.458  24.560  1.00  0.00     0.149 A 
ATOM     23  C   UNL A   1      35.166  18.675  24.633  1.00  0.00     0.149 A 
ATOM     24  F   UNL A   1      31.965  20.410  24.699  1.00  0.00    -0.205 F 
ATOM     25  C   UNL A   1      32.459  18.181  24.219  1.00  0.00     0.080 A 
ATOM     26  C   UNL A   1      34.740  17.390  24.299  1.00  0.00     0.080 A 
ATOM     27  F   UNL A   1      36.467  18.856  24.889  1.00  0.00    -0.205 F 
ATOM     28  C   UNL A   1      33.385  17.152  24.111  1.00  0.00     0.129 A 
ATOM     29  F   UNL A   1      32.962  15.910  23.849  1.00  0.00    -0.207 F 
ENDBRANCH  18  21
ENDBRANCH  16  18
ENDBRANCH  15  16
ENDBRANCH   7  10
ENDBRANCH   4   7
ENDBRANCH   2   3
ENDBRANCH   1   2
BRANCH   1  30
ATOM     30  C   UNL A   1      33.416  31.732  27.679  1.00  0.00     0.023 C 
BRANCH  30  31
ATOM     31  C   UNL A   1      33.791  33.171  27.338  1.00  0.00     0.116 C 
BRANCH  31  32
ATOM     32  N   UNL A   1      33.036  34.151  28.103  1.00  0.00    -0.352 N 
ATOM     33  C   UNL A   1      33.245  34.584  29.390  1.00  0.00     0.251 C 
ATOM     34  H   UNL A   1      32.272  34.559  27.634  1.00  0.00     0.163 HD
ATOM     35  O   UNL A   1      32.430  35.330  29.924  1.00  0.00    -0.269 OA
BRANCH  33  36
ATOM     36  C   UNL A   1      34.432  34.108  30.127  1.00  0.00     0.039 A 
ATOM     37  C   UNL A   1      34.254  33.235  31.202  1.00  0.00     0.014 A 
ATOM     38  C   UNL A   1      35.717  34.485  29.725  1.00  0.00     0.014 A 
ATOM     39  C   UNL A   1      35.370  32.682  31.831  1.00  0.00     0.010 A 
ATOM     40  C   UNL A   1      36.825  33.875  30.304  1.00  0.00     0.010 A 
ATOM     41  C   UNL A   1      36.664  32.966  31.360  1.00  0.00    -0.014 A 
BRANCH  41  42
ATOM     42  C   UNL A   1      37.860  32.320  31.962  1.00  0.00     0.031 A 
ATOM     43  C   UNL A   1      38.557  31.206  31.232  1.00  0.00     0.074 A 
ATOM     44  C   UNL A   1      38.273  32.693  33.189  1.00  0.00     0.049 A 
ATOM     45  N   UNL A   1      39.560  30.462  31.622  1.00  0.00    -0.248 NA
ATOM     46  C   UNL A   1      38.036  30.863  29.901  1.00  0.00     0.031 C 
ATOM     47  C   UNL A   1      37.648  33.733  34.012  1.00  0.00     0.029 A 
ATOM     48  N   UNL A   1      39.308  32.238  33.966  1.00  0.00    -0.354 N 
ATOM     49  C   UNL A   1      39.784  29.557  30.590  1.00  0.00     0.074 A 
ATOM     50  C   UNL A   1      38.767  29.804  29.589  1.00  0.00     0.031 C 
ATOM     51  C   UNL A   1      38.326  33.849  35.165  1.00  0.00     0.029 A 
ATOM     52  C   UNL A   1      39.402  32.864  35.188  1.00  0.00     0.049 A 
ATOM     53  H   UNL A   1      39.926  31.528  33.676  1.00  0.00     0.167 HD
ATOM     54  C   UNL A   1      40.764  28.626  30.474  1.00  0.00     0.034 A 
ATOM     55  C   UNL A   1      40.250  32.657  36.216  1.00  0.00     0.034 A 
ATOM     56  C   UNL A   1      41.774  28.400  31.480  1.00  0.00     0.049 A 
ATOM     57  C   UNL A   1      41.315  31.598  36.077  1.00  0.00     0.074 A 
ATOM     58  C   UNL A   1      42.838  27.517  31.448  1.00  0.00     0.029 A 
ATOM     59  N   UNL A   1      41.842  29.057  32.702  1.00  0.00    -0.354 N 
ATOM     60  N   UNL A   1      41.544  30.784  35.071  1.00  0.00    -0.248 NA
ATOM     61  C   UNL A   1      42.243  31.439  37.204  1.00  0.00     0.031 C 
ATOM     62  C   UNL A   1      43.508  27.590  32.674  1.00  0.00     0.029 A 
ATOM     63  C   UNL A   1      42.912  28.578  33.442  1.00  0.00     0.049 A 
ATOM     64  H   UNL A   1      41.220  29.761  32.999  1.00  0.00     0.167 HD
ATOM     65  C   UNL A   1      42.663  30.038  35.435  1.00  0.00     0.074 A 
ATOM     66  C   UNL A   1      43.069  30.512  36.742  1.00  0.00     0.031 C 
ATOM     67  C   UNL A   1      43.300  29.054  34.750  1.00  0.00     0.034 A 
BRANCH  54  68
ATOM     68  C   UNL A   1      40.768  27.776  29.226  1.00  0.00     0.023 A 
ATOM     69  C   UNL A   1      41.689  27.997  28.187  1.00  0.00     0.031 A 
ATOM     70  C   UNL A   1      39.823  26.748  29.057  1.00  0.00     0.131 A 
ATOM     71  C   UNL A   1      41.593  27.262  26.996  1.00  0.00     0.055 A 
ATOM     72  C   UNL A   1      39.789  25.960  27.905  1.00  0.00     0.041 A 
ATOM     73  F   UNL A   1      38.904  26.502  30.005  1.00  0.00    -0.206 F 
ATOM     74  C   UNL A   1      40.667  26.226  26.858  1.00  0.00     0.022 A 
BRANCH  71  75
ATOM     75  S   UNL A   1      42.598  27.780  25.578  1.00  0.00     0.124 S 
ATOM     76  O   UNL A   1      41.877  28.967  25.124  1.00  0.00    -0.237 OA
ATOM     77  O   UNL A   1      43.903  28.016  26.183  1.00  0.00    -0.237 OA
ATOM     78  O   UNL A   1      42.527  26.634  24.672  1.00  0.00    -0.744 OA
ENDBRANCH  71  75
ENDBRANCH  54  68
BRANCH  55  79
ATOM     79  C   UNL A   1      40.125  33.453  37.471  1.00  0.00     0.023 A 
ATOM     80  C   UNL A   1      39.478  32.929  38.602  1.00  0.00     0.031 A 
ATOM     81  C   UNL A   1      40.613  34.770  37.543  1.00  0.00     0.131 A 
ATOM     82  C   UNL A   1      39.290  33.733  39.737  1.00  0.00     0.055 A 
ATOM     83  C   UNL A   1      40.473  35.548  38.695  1.00  0.00     0.041 A 
ATOM     84  F   UNL A   1      41.245  35.319  36.494  1.00  0.00    -0.206 F 
ATOM     85  C   UNL A   1      39.796  35.034  39.796  1.00  0.00     0.022 A 
BRANCH  82  86
ATOM     86  S   UNL A   1      38.293  33.083  41.105  1.00  0.00     0.124 S 
ATOM     87  O   UNL A   1      38.696  33.951  42.205  1.00  0.00    -0.237 OA
ATOM     88  O   UNL A   1      36.935  33.269  40.604  1.00  0.00    -0.237 OA
ATOM     89  O   UNL A   1      38.730  31.693  41.213  1.00  0.00    -0.744 OA
ENDBRANCH  82  86
ENDBRANCH  55  79
BRANCH  67  90
ATOM     90  C   UNL A   1      44.532  28.461  35.387  1.00  0.00     0.023 A 
ATOM     91  C   UNL A   1      44.452  27.440  36.350  1.00  0.00     0.031 A 
ATOM     92  C   UNL A   1      45.808  28.935  35.031  1.00  0.00     0.131 A 
ATOM     93  C   UNL A   1      45.621  26.965  36.964  1.00  0.00     0.055 A 
ATOM     94  C   UNL A   1      46.971  28.414  35.599  1.00  0.00     0.041 A 
ATOM     95  F   UNL A   1      45.944  29.911  34.119  1.00  0.00    -0.206 F 
ATOM     96  C   UNL A   1      46.881  27.434  36.582  1.00  0.00     0.022 A 
BRANCH  93  97
ATOM     97  S   UNL A   1      45.468  25.792  38.339  1.00  0.00     0.124 S 
ATOM     98  O   UNL A   1      46.769  25.918  38.991  1.00  0.00    -0.237 OA
ATOM     99  O   UNL A   1      44.330  26.326  39.080  1.00  0.00    -0.237 OA
ATOM    100  O   UNL A   1      45.228  24.513  37.674  1.00  0.00    -0.744 OA
ENDBRANCH  93  97
ENDBRANCH  67  90
ENDBRANCH  41  42
ENDBRANCH  33  36
ENDBRANCH  31  32
ENDBRANCH  30  31
ENDBRANCH   1  30
TORSDOF 18
ENDMDL
