MODEL 1
REMARK VINA RESULT:     -12.6      0.000      0.000
REMARK SMILES Cc1cccc(CC(=O)N2CCCC[C@@H]2C(=O)NCCCCNC(=O)c2ccc(-c3c4nc(c(-c5cc(S(=O)(=O)[O-])ccc5F)c5ccc([nH]5)c(-c5cc(S(=O)(=O)[O-])ccc5F)c5nc(c(-c6cc(S(=O)(=O)[O-])ccc6F)c6ccc3[nH]6)C=C5)C=C4)cc2)c1
REMARK SMILES IDX 20 1 19 2 18 3 16 4 17 5 15 7 10 8 11 9 12 10 14 11 13 12
REMARK SMILES IDX 8 13 9 14 7 15 6 16 1 17 2 18 3 19 89 20 4 21 5 22 21 23
REMARK SMILES IDX 22 24 23 25 24 26 25 28 26 29 27 30 88 31 28 32 87 33 29 34
REMARK SMILES IDX 30 35 31 36 81 37 32 38 86 39 80 40 82 41 33 42 85 43 79 44
REMARK SMILES IDX 78 45 34 47 66 48 46 49 65 50 47 51 50 52 64 53 83 54 48 55
REMARK SMILES IDX 49 56 63 58 84 59 51 60 35 61 36 62 44 63 37 64 43 65 45 66
REMARK SMILES IDX 42 67 38 68 39 69 40 70 41 71 67 72 68 73 76 74 69 75 75 76
REMARK SMILES IDX 77 77 74 78 70 79 71 80 72 81 73 82 52 83 53 84 61 85 54 86
REMARK SMILES IDX 60 87 62 88 59 89 55 90 56 91 57 92 58 93
REMARK H PARENT 18 6 23 27 82 46 50 57
REMARK Flexibility Score: inf
ROOT
ATOM      1  C   UNL A   1      31.801  28.589  26.329  1.00  0.00     0.023 C 
ENDROOT
BRANCH   1   2
ATOM      2  C   UNL A   1      32.600  27.282  26.377  1.00  0.00     0.116 C 
BRANCH   2   3
ATOM      3  N   UNL A   1      31.786  26.174  26.859  1.00  0.00    -0.354 N 
ATOM      4  C   UNL A   1      31.917  24.832  26.666  1.00  0.00     0.242 C 
ATOM      5  O   UNL A   1      30.960  24.115  26.990  1.00  0.00    -0.273 OA
ATOM      6  H   UNL A   1      31.018  26.437  27.413  1.00  0.00     0.163 HD
BRANCH   4   7
ATOM      7  C   UNL A   1      33.073  24.232  25.836  1.00  0.00     0.174 C 
ATOM      8  N   UNL A   1      32.720  23.526  24.582  1.00  0.00    -0.330 N 
ATOM      9  C   UNL A   1      33.667  22.517  24.108  1.00  0.00     0.120 C 
ATOM     10  C   UNL A   1      34.089  21.531  25.179  1.00  0.00     0.022 C 
ATOM     11  C   UNL A   1      33.747  23.304  26.888  1.00  0.00     0.035 C 
ATOM     12  C   UNL A   1      34.718  22.277  26.341  1.00  0.00     0.004 C 
BRANCH   8  13
ATOM     13  C   UNL A   1      31.854  23.990  23.588  1.00  0.00     0.227 C 
ATOM     14  O   UNL A   1      30.689  23.581  23.546  1.00  0.00    -0.275 OA
BRANCH  13  15
ATOM     15  C   UNL A   1      32.368  24.832  22.433  1.00  0.00     0.135 C 
BRANCH  15  16
ATOM     16  C   UNL A   1      32.299  26.327  22.565  1.00  0.00    -0.038 A 
ATOM     17  C   UNL A   1      29.553  28.953  22.678  1.00  0.00     0.044 C 
ATOM     18  C   UNL A   1      30.915  28.330  22.718  1.00  0.00    -0.051 A 
ATOM     19  C   UNL A   1      32.070  29.117  22.712  1.00  0.00     0.003 A 
ATOM     20  C   UNL A   1      31.041  26.938  22.656  1.00  0.00     0.007 A 
ATOM     21  C   UNL A   1      33.331  28.517  22.686  1.00  0.00     0.001 A 
ATOM     22  C   UNL A   1      33.448  27.126  22.625  1.00  0.00     0.004 A 
ENDBRANCH  15  16
ENDBRANCH  13  15
ENDBRANCH   8  13
ENDBRANCH   4   7
ENDBRANCH   2   3
ENDBRANCH   1   2
BRANCH   1  23
ATOM     23  C   UNL A   1      32.651  29.860  26.351  1.00  0.00     0.023 C 
BRANCH  23  24
ATOM     24  C   UNL A   1      34.034  29.652  26.948  1.00  0.00     0.116 C 
BRANCH  24  25
ATOM     25  N   UNL A   1      34.722  30.883  27.289  1.00  0.00    -0.352 N 
ATOM     26  C   UNL A   1      35.923  31.083  27.949  1.00  0.00     0.251 C 
ATOM     27  H   UNL A   1      34.263  31.707  27.007  1.00  0.00     0.163 HD
ATOM     28  O   UNL A   1      36.210  32.202  28.340  1.00  0.00    -0.269 OA
BRANCH  26  29
ATOM     29  C   UNL A   1      36.905  29.972  28.093  1.00  0.00     0.039 A 
ATOM     30  C   UNL A   1      36.949  29.295  29.323  1.00  0.00     0.014 A 
ATOM     31  C   UNL A   1      37.860  29.689  27.123  1.00  0.00     0.014 A 
ATOM     32  C   UNL A   1      38.048  28.496  29.645  1.00  0.00     0.010 A 
ATOM     33  C   UNL A   1      38.993  28.992  27.472  1.00  0.00     0.010 A 
ATOM     34  C   UNL A   1      39.106  28.431  28.746  1.00  0.00    -0.014 A 
BRANCH  34  35
ATOM     35  C   UNL A   1      40.412  27.854  29.020  1.00  0.00     0.031 A 
ATOM     36  C   UNL A   1      40.704  26.470  28.601  1.00  0.00     0.074 A 
ATOM     37  C   UNL A   1      41.398  28.683  29.419  1.00  0.00     0.049 A 
ATOM     38  N   UNL A   1      41.761  25.817  28.932  1.00  0.00    -0.248 NA
ATOM     39  C   UNL A   1      39.784  25.686  27.785  1.00  0.00     0.031 C 
ATOM     40  C   UNL A   1      42.838  28.464  29.339  1.00  0.00     0.029 A 
ATOM     41  N   UNL A   1      41.261  29.820  30.215  1.00  0.00    -0.354 N 
ATOM     42  C   UNL A   1      41.813  24.672  28.170  1.00  0.00     0.074 A 
ATOM     43  C   UNL A   1      40.521  24.602  27.529  1.00  0.00     0.031 C 
ATOM     44  C   UNL A   1      43.445  29.241  30.248  1.00  0.00     0.029 A 
ATOM     45  C   UNL A   1      42.398  29.848  31.050  1.00  0.00     0.049 A 
ATOM     46  H   UNL A   1      40.523  30.470  30.199  1.00  0.00     0.167 HD
ATOM     47  C   UNL A   1      42.995  23.997  28.089  1.00  0.00     0.034 A 
ATOM     48  C   UNL A   1      42.268  29.697  32.401  1.00  0.00     0.034 A 
ATOM     49  C   UNL A   1      43.982  24.572  29.006  1.00  0.00     0.049 A 
ATOM     50  C   UNL A   1      43.008  28.495  32.948  1.00  0.00     0.074 A 
ATOM     51  C   UNL A   1      45.056  25.431  28.833  1.00  0.00     0.029 A 
ATOM     52  N   UNL A   1      43.748  24.507  30.374  1.00  0.00    -0.354 N 
ATOM     53  N   UNL A   1      43.393  27.474  32.231  1.00  0.00    -0.248 NA
ATOM     54  C   UNL A   1      43.384  28.361  34.350  1.00  0.00     0.031 C 
ATOM     55  C   UNL A   1      45.430  25.924  30.114  1.00  0.00     0.029 A 
ATOM     56  C   UNL A   1      44.608  25.337  31.061  1.00  0.00     0.049 A 
ATOM     57  H   UNL A   1      43.060  23.942  30.796  1.00  0.00     0.167 HD
ATOM     58  C   UNL A   1      44.055  26.568  33.024  1.00  0.00     0.074 A 
ATOM     59  C   UNL A   1      44.031  27.182  34.342  1.00  0.00     0.031 C 
ATOM     60  C   UNL A   1      44.560  25.398  32.518  1.00  0.00     0.034 A 
BRANCH  47  61
ATOM     61  C   UNL A   1      43.368  22.977  27.030  1.00  0.00     0.023 A 
ATOM     62  C   UNL A   1      42.757  21.703  27.075  1.00  0.00     0.031 A 
ATOM     63  C   UNL A   1      44.318  23.144  26.005  1.00  0.00     0.131 A 
ATOM     64  C   UNL A   1      43.146  20.662  26.209  1.00  0.00     0.055 A 
ATOM     65  C   UNL A   1      44.732  22.100  25.164  1.00  0.00     0.041 A 
ATOM     66  F   UNL A   1      44.863  24.330  25.721  1.00  0.00    -0.206 F 
ATOM     67  C   UNL A   1      44.153  20.847  25.269  1.00  0.00     0.022 A 
BRANCH  64  68
ATOM     68  S   UNL A   1      42.322  19.051  26.336  1.00  0.00     0.124 S 
ATOM     69  O   UNL A   1      42.430  18.761  27.762  1.00  0.00    -0.237 OA
ATOM     70  O   UNL A   1      40.987  19.343  25.831  1.00  0.00    -0.237 OA
ATOM     71  O   UNL A   1      43.130  18.190  25.473  1.00  0.00    -0.744 OA
ENDBRANCH  64  68
ENDBRANCH  47  61
BRANCH  48  72
ATOM     72  C   UNL A   1      40.983  30.254  32.919  1.00  0.00     0.023 A 
ATOM     73  C   UNL A   1      40.885  31.661  33.011  1.00  0.00     0.031 A 
ATOM     74  C   UNL A   1      39.793  29.516  32.882  1.00  0.00     0.131 A 
ATOM     75  C   UNL A   1      39.640  32.294  32.886  1.00  0.00     0.055 A 
ATOM     76  C   UNL A   1      38.545  30.153  32.824  1.00  0.00     0.041 A 
ATOM     77  F   UNL A   1      39.819  28.180  32.766  1.00  0.00    -0.206 F 
ATOM     78  C   UNL A   1      38.467  31.547  32.776  1.00  0.00     0.022 A 
BRANCH  75  79
ATOM     79  S   UNL A   1      39.609  34.091  32.601  1.00  0.00     0.124 S 
ATOM     80  O   UNL A   1      41.029  34.424  32.613  1.00  0.00    -0.237 OA
ATOM     81  O   UNL A   1      38.942  34.199  31.306  1.00  0.00    -0.237 OA
ATOM     82  O   UNL A   1      38.835  34.606  33.728  1.00  0.00    -0.744 OA
ENDBRANCH  75  79
ENDBRANCH  48  72
BRANCH  60  83
ATOM     83  C   UNL A   1      45.113  24.216  33.302  1.00  0.00     0.023 A 
ATOM     84  C   UNL A   1      46.380  24.194  33.902  1.00  0.00     0.031 A 
ATOM     85  C   UNL A   1      44.322  23.057  33.537  1.00  0.00     0.131 A 
ATOM     86  C   UNL A   1      46.835  23.072  34.624  1.00  0.00     0.055 A 
ATOM     87  C   UNL A   1      44.747  21.975  34.313  1.00  0.00     0.041 A 
ATOM     88  F   UNL A   1      43.087  22.923  33.033  1.00  0.00    -0.206 F 
ATOM     89  C   UNL A   1      46.018  21.970  34.855  1.00  0.00     0.022 A 
BRANCH  86  90
ATOM     90  S   UNL A   1      48.548  23.071  35.211  1.00  0.00     0.124 S 
ATOM     91  O   UNL A   1      48.534  21.976  36.178  1.00  0.00    -0.237 OA
ATOM     92  O   UNL A   1      49.300  22.822  33.985  1.00  0.00    -0.237 OA
ATOM     93  O   UNL A   1      48.719  24.403  35.785  1.00  0.00    -0.744 OA
ENDBRANCH  86  90
ENDBRANCH  60  83
ENDBRANCH  34  35
ENDBRANCH  26  29
ENDBRANCH  24  25
ENDBRANCH  23  24
ENDBRANCH   1  23
TORSDOF 17
ENDMDL
MODEL 2
REMARK VINA RESULT:     -12.5      4.083     10.440
REMARK SMILES Cc1cccc(CC(=O)N2CCCC[C@@H]2C(=O)NCCCCNC(=O)c2ccc(-c3c4nc(c(-c5cc(S(=O)(=O)[O-])ccc5F)c5ccc([nH]5)c(-c5cc(S(=O)(=O)[O-])ccc5F)c5nc(c(-c6cc(S(=O)(=O)[O-])ccc6F)c6ccc3[nH]6)C=C5)C=C4)cc2)c1
REMARK SMILES IDX 20 1 19 2 18 3 16 4 17 5 15 7 10 8 11 9 12 10 14 11 13 12
REMARK SMILES IDX 8 13 9 14 7 15 6 16 1 17 2 18 3 19 89 20 4 21 5 22 21 23
REMARK SMILES IDX 22 24 23 25 24 26 25 28 26 29 27 30 88 31 28 32 87 33 29 34
REMARK SMILES IDX 30 35 31 36 81 37 32 38 86 39 80 40 82 41 33 42 85 43 79 44
REMARK SMILES IDX 78 45 34 47 66 48 46 49 65 50 47 51 50 52 64 53 83 54 48 55
REMARK SMILES IDX 49 56 63 58 84 59 51 60 35 61 36 62 44 63 37 64 43 65 45 66
REMARK SMILES IDX 42 67 38 68 39 69 40 70 41 71 67 72 68 73 76 74 69 75 75 76
REMARK SMILES IDX 77 77 74 78 70 79 71 80 72 81 73 82 52 83 53 84 61 85 54 86
REMARK SMILES IDX 60 87 62 88 59 89 55 90 56 91 57 92 58 93
REMARK H PARENT 18 6 23 27 82 46 50 57
REMARK Flexibility Score: inf
ROOT
ATOM      1  C   UNL A   1      36.181  21.587  24.324  1.00  0.00     0.023 C 
ENDROOT
BRANCH   1   2
ATOM      2  C   UNL A   1      36.127  22.838  23.440  1.00  0.00     0.116 C 
BRANCH   2   3
ATOM      3  N   UNL A   1      34.812  23.010  22.836  1.00  0.00    -0.354 N 
ATOM      4  C   UNL A   1      33.645  23.463  23.372  1.00  0.00     0.242 C 
ATOM      5  O   UNL A   1      32.612  23.294  22.710  1.00  0.00    -0.273 OA
ATOM      6  H   UNL A   1      34.758  22.757  21.886  1.00  0.00     0.163 HD
BRANCH   4   7
ATOM      7  C   UNL A   1      33.543  23.921  24.843  1.00  0.00     0.174 C 
ATOM      8  N   UNL A   1      32.379  23.446  25.627  1.00  0.00    -0.330 N 
ATOM      9  C   UNL A   1      31.974  24.270  26.766  1.00  0.00     0.120 C 
ATOM     10  C   UNL A   1      31.830  25.741  26.428  1.00  0.00     0.022 C 
ATOM     11  C   UNL A   1      33.575  25.468  24.679  1.00  0.00     0.035 C 
ATOM     12  C   UNL A   1      33.145  26.272  25.890  1.00  0.00     0.004 C 
BRANCH   8  13
ATOM     13  C   UNL A   1      31.908  22.132  25.695  1.00  0.00     0.227 C 
ATOM     14  O   UNL A   1      30.695  21.916  25.775  1.00  0.00    -0.275 OA
BRANCH  13  15
ATOM     15  C   UNL A   1      32.864  20.966  25.875  1.00  0.00     0.135 C 
BRANCH  15  16
ATOM     16  C   UNL A   1      32.735  19.796  24.941  1.00  0.00    -0.038 A 
ATOM     17  C   UNL A   1      33.167  16.027  25.177  1.00  0.00     0.044 C 
ATOM     18  C   UNL A   1      32.852  17.381  24.618  1.00  0.00    -0.051 A 
ATOM     19  C   UNL A   1      32.611  17.562  23.253  1.00  0.00     0.003 A 
ATOM     20  C   UNL A   1      32.900  18.502  25.453  1.00  0.00     0.007 A 
ATOM     21  C   UNL A   1      32.382  18.841  22.741  1.00  0.00     0.001 A 
ATOM     22  C   UNL A   1      32.431  19.955  23.582  1.00  0.00     0.004 A 
ENDBRANCH  15  16
ENDBRANCH  13  15
ENDBRANCH   8  13
ENDBRANCH   4   7
ENDBRANCH   2   3
ENDBRANCH   1   2
BRANCH   1  23
ATOM     23  C   UNL A   1      36.790  21.809  25.710  1.00  0.00     0.023 C 
BRANCH  23  24
ATOM     24  C   UNL A   1      37.786  22.958  25.755  1.00  0.00     0.116 C 
BRANCH  24  25
ATOM     25  N   UNL A   1      39.062  22.611  26.353  1.00  0.00    -0.352 N 
ATOM     26  C   UNL A   1      40.060  23.422  26.864  1.00  0.00     0.251 C 
ATOM     27  H   UNL A   1      39.247  21.645  26.403  1.00  0.00     0.163 HD
ATOM     28  O   UNL A   1      41.154  22.941  27.109  1.00  0.00    -0.269 OA
BRANCH  26  29
ATOM     29  C   UNL A   1      39.780  24.843  27.213  1.00  0.00     0.039 A 
ATOM     30  C   UNL A   1      40.328  25.839  26.385  1.00  0.00     0.014 A 
ATOM     31  C   UNL A   1      39.133  25.212  28.386  1.00  0.00     0.014 A 
ATOM     32  C   UNL A   1      40.399  27.159  26.831  1.00  0.00     0.010 A 
ATOM     33  C   UNL A   1      39.294  26.486  28.877  1.00  0.00     0.010 A 
ATOM     34  C   UNL A   1      39.963  27.450  28.119  1.00  0.00    -0.014 A 
BRANCH  34  35
ATOM     35  C   UNL A   1      40.184  28.701  28.823  1.00  0.00     0.031 A 
ATOM     36  C   UNL A   1      39.131  29.734  28.831  1.00  0.00     0.074 A 
ATOM     37  C   UNL A   1      41.240  28.779  29.659  1.00  0.00     0.049 A 
ATOM     38  N   UNL A   1      39.284  30.928  29.284  1.00  0.00    -0.248 NA
ATOM     39  C   UNL A   1      37.801  29.503  28.279  1.00  0.00     0.031 C 
ATOM     40  C   UNL A   1      41.436  29.705  30.768  1.00  0.00     0.029 A 
ATOM     41  N   UNL A   1      42.479  28.158  29.498  1.00  0.00    -0.354 N 
ATOM     42  C   UNL A   1      38.044  31.521  29.356  1.00  0.00     0.074 A 
ATOM     43  C   UNL A   1      37.167  30.619  28.649  1.00  0.00     0.031 C 
ATOM     44  C   UNL A   1      42.750  29.805  31.021  1.00  0.00     0.029 A 
ATOM     45  C   UNL A   1      43.438  29.079  29.968  1.00  0.00     0.049 A 
ATOM     46  H   UNL A   1      42.650  27.261  29.130  1.00  0.00     0.167 HD
ATOM     47  C   UNL A   1      37.904  32.644  30.117  1.00  0.00     0.034 A 
ATOM     48  C   UNL A   1      44.347  29.630  29.111  1.00  0.00     0.034 A 
ATOM     49  C   UNL A   1      39.207  33.106  30.602  1.00  0.00     0.049 A 
ATOM     50  C   UNL A   1      44.259  31.139  29.025  1.00  0.00     0.074 A 
ATOM     51  C   UNL A   1      39.867  32.993  31.815  1.00  0.00     0.029 A 
ATOM     52  N   UNL A   1      40.151  33.542  29.680  1.00  0.00    -0.354 N 
ATOM     53  N   UNL A   1      43.215  31.840  29.377  1.00  0.00    -0.248 NA
ATOM     54  C   UNL A   1      45.352  31.976  28.546  1.00  0.00     0.031 C 
ATOM     55  C   UNL A   1      41.235  33.317  31.599  1.00  0.00     0.029 A 
ATOM     56  C   UNL A   1      41.394  33.658  30.266  1.00  0.00     0.049 A 
ATOM     57  H   UNL A   1      39.957  33.742  28.736  1.00  0.00     0.167 HD
ATOM     58  C   UNL A   1      43.468  33.179  29.196  1.00  0.00     0.074 A 
ATOM     59  C   UNL A   1      44.829  33.207  28.684  1.00  0.00     0.031 C 
ATOM     60  C   UNL A   1      42.530  34.136  29.486  1.00  0.00     0.034 A 
BRANCH  47  61
ATOM     61  C   UNL A   1      36.596  33.208  30.640  1.00  0.00     0.023 A 
ATOM     62  C   UNL A   1      35.744  33.885  29.737  1.00  0.00     0.031 A 
ATOM     63  C   UNL A   1      36.143  33.176  31.973  1.00  0.00     0.131 A 
ATOM     64  C   UNL A   1      34.580  34.548  30.171  1.00  0.00     0.055 A 
ATOM     65  C   UNL A   1      35.004  33.864  32.413  1.00  0.00     0.041 A 
ATOM     66  F   UNL A   1      36.741  32.440  32.913  1.00  0.00    -0.206 F 
ATOM     67  C   UNL A   1      34.218  34.563  31.513  1.00  0.00     0.022 A 
BRANCH  64  68
ATOM     68  S   UNL A   1      33.544  35.405  28.953  1.00  0.00     0.124 S 
ATOM     69  O   UNL A   1      34.528  35.862  27.978  1.00  0.00    -0.237 OA
ATOM     70  O   UNL A   1      32.639  34.349  28.516  1.00  0.00    -0.237 OA
ATOM     71  O   UNL A   1      32.914  36.469  29.734  1.00  0.00    -0.744 OA
ENDBRANCH  64  68
ENDBRANCH  47  61
BRANCH  48  72
ATOM     72  C   UNL A   1      44.725  28.703  28.002  1.00  0.00     0.023 A 
ATOM     73  C   UNL A   1      45.592  27.635  28.327  1.00  0.00     0.031 A 
ATOM     74  C   UNL A   1      43.946  28.585  26.844  1.00  0.00     0.131 A 
ATOM     75  C   UNL A   1      45.532  26.432  27.610  1.00  0.00     0.055 A 
ATOM     76  C   UNL A   1      43.939  27.402  26.091  1.00  0.00     0.041 A 
ATOM     77  F   UNL A   1      43.084  29.552  26.497  1.00  0.00    -0.206 F 
ATOM     78  C   UNL A   1      44.696  26.302  26.501  1.00  0.00     0.022 A 
BRANCH  75  79
ATOM     79  S   UNL A   1      46.356  24.968  28.309  1.00  0.00     0.124 S 
ATOM     80  O   UNL A   1      46.848  24.296  27.111  1.00  0.00    -0.237 OA
ATOM     81  O   UNL A   1      47.377  25.555  29.172  1.00  0.00    -0.237 OA
ATOM     82  O   UNL A   1      45.284  24.274  29.020  1.00  0.00    -0.744 OA
ENDBRANCH  75  79
ENDBRANCH  48  72
BRANCH  60  83
ATOM     83  C   UNL A   1      42.584  35.617  29.135  1.00  0.00     0.023 A 
ATOM     84  C   UNL A   1      43.339  36.565  29.839  1.00  0.00     0.031 A 
ATOM     85  C   UNL A   1      41.904  36.125  27.994  1.00  0.00     0.131 A 
ATOM     86  C   UNL A   1      43.356  37.923  29.462  1.00  0.00     0.055 A 
ATOM     87  C   UNL A   1      41.980  37.458  27.577  1.00  0.00     0.041 A 
ATOM     88  F   UNL A   1      41.141  35.347  27.213  1.00  0.00    -0.206 F 
ATOM     89  C   UNL A   1      42.701  38.373  28.321  1.00  0.00     0.022 A 
BRANCH  86  90
ATOM     90  S   UNL A   1      44.221  39.098  30.536  1.00  0.00     0.124 S 
ATOM     91  O   UNL A   1      45.615  38.878  30.160  1.00  0.00    -0.237 OA
ATOM     92  O   UNL A   1      43.650  40.377  30.125  1.00  0.00    -0.237 OA
ATOM     93  O   UNL A   1      43.865  38.662  31.884  1.00  0.00    -0.744 OA
ENDBRANCH  86  90
ENDBRANCH  60  83
ENDBRANCH  34  35
ENDBRANCH  26  29
ENDBRANCH  24  25
ENDBRANCH  23  24
ENDBRANCH   1  23
TORSDOF 17
ENDMDL
MODEL 3
REMARK VINA RESULT:     -12.4      0.959      2.608
REMARK SMILES Cc1cccc(CC(=O)N2CCCC[C@@H]2C(=O)NCCCCNC(=O)c2ccc(-c3c4nc(c(-c5cc(S(=O)(=O)[O-])ccc5F)c5ccc([nH]5)c(-c5cc(S(=O)(=O)[O-])ccc5F)c5nc(c(-c6cc(S(=O)(=O)[O-])ccc6F)c6ccc3[nH]6)C=C5)C=C4)cc2)c1
REMARK SMILES IDX 20 1 19 2 18 3 16 4 17 5 15 7 10 8 11 9 12 10 14 11 13 12
REMARK SMILES IDX 8 13 9 14 7 15 6 16 1 17 2 18 3 19 89 20 4 21 5 22 21 23
REMARK SMILES IDX 22 24 23 25 24 26 25 28 26 29 27 30 88 31 28 32 87 33 29 34
REMARK SMILES IDX 30 35 31 36 81 37 32 38 86 39 80 40 82 41 33 42 85 43 79 44
REMARK SMILES IDX 78 45 34 47 66 48 46 49 65 50 47 51 50 52 64 53 83 54 48 55
REMARK SMILES IDX 49 56 63 58 84 59 51 60 35 61 36 62 44 63 37 64 43 65 45 66
REMARK SMILES IDX 42 67 38 68 39 69 40 70 41 71 67 72 68 73 76 74 69 75 75 76
REMARK SMILES IDX 77 77 74 78 70 79 71 80 72 81 73 82 52 83 53 84 61 85 54 86
REMARK SMILES IDX 60 87 62 88 59 89 55 90 56 91 57 92 58 93
REMARK H PARENT 18 6 23 27 82 46 50 57
REMARK Flexibility Score: inf
ROOT
ATOM      1  C   UNL A   1      32.813  27.903  27.132  1.00  0.00     0.023 C 
ENDROOT
BRANCH   1   2
ATOM      2  C   UNL A   1      31.457  27.402  26.623  1.00  0.00     0.116 C 
BRANCH   2   3
ATOM      3  N   UNL A   1      31.366  25.949  26.681  1.00  0.00    -0.354 N 
ATOM      4  C   UNL A   1      31.003  25.048  25.727  1.00  0.00     0.242 C 
ATOM      5  O   UNL A   1      30.784  23.886  26.096  1.00  0.00    -0.273 OA
ATOM      6  H   UNL A   1      31.606  25.555  27.550  1.00  0.00     0.163 HD
BRANCH   4   7
ATOM      7  C   UNL A   1      30.609  25.481  24.298  1.00  0.00     0.174 C 
ATOM      8  N   UNL A   1      31.627  26.200  23.497  1.00  0.00    -0.330 N 
ATOM      9  C   UNL A   1      31.129  27.072  22.433  1.00  0.00     0.120 C 
ATOM     10  C   UNL A   1      30.036  28.018  22.888  1.00  0.00     0.022 C 
ATOM     11  C   UNL A   1      29.342  26.337  24.582  1.00  0.00     0.035 C 
ATOM     12  C   UNL A   1      28.871  27.223  23.445  1.00  0.00     0.004 C 
BRANCH   8  13
ATOM     13  C   UNL A   1      32.965  25.830  23.334  1.00  0.00     0.227 C 
ATOM     14  O   UNL A   1      33.864  26.588  23.711  1.00  0.00    -0.275 OA
BRANCH  13  15
ATOM     15  C   UNL A   1      33.344  24.605  22.521  1.00  0.00     0.135 C 
BRANCH  15  16
ATOM     16  C   UNL A   1      33.891  23.413  23.254  1.00  0.00    -0.038 A 
ATOM     17  C   UNL A   1      32.478  20.210  24.735  1.00  0.00     0.044 C 
ATOM     18  C   UNL A   1      33.463  21.252  24.303  1.00  0.00    -0.051 A 
ATOM     19  C   UNL A   1      34.800  21.195  24.708  1.00  0.00     0.003 A 
ATOM     20  C   UNL A   1      33.023  22.358  23.568  1.00  0.00     0.007 A 
ATOM     21  C   UNL A   1      35.690  22.209  24.346  1.00  0.00     0.001 A 
ATOM     22  C   UNL A   1      35.242  23.310  23.612  1.00  0.00     0.004 A 
ENDBRANCH  15  16
ENDBRANCH  13  15
ENDBRANCH   8  13
ENDBRANCH   4   7
ENDBRANCH   2   3
ENDBRANCH   1   2
BRANCH   1  23
ATOM     23  C   UNL A   1      32.936  29.424  27.235  1.00  0.00     0.023 C 
BRANCH  23  24
ATOM     24  C   UNL A   1      34.226  29.967  26.639  1.00  0.00     0.116 C 
BRANCH  24  25
ATOM     25  N   UNL A   1      34.782  31.096  27.363  1.00  0.00    -0.352 N 
ATOM     26  C   UNL A   1      35.826  31.150  28.270  1.00  0.00     0.251 C 
ATOM     27  H   UNL A   1      34.348  31.961  27.179  1.00  0.00     0.163 HD
ATOM     28  O   UNL A   1      35.984  32.158  28.939  1.00  0.00    -0.269 OA
BRANCH  26  29
ATOM     29  C   UNL A   1      36.812  30.038  28.361  1.00  0.00     0.039 A 
ATOM     30  C   UNL A   1      36.858  29.303  29.559  1.00  0.00     0.014 A 
ATOM     31  C   UNL A   1      37.768  29.803  27.380  1.00  0.00     0.014 A 
ATOM     32  C   UNL A   1      37.960  28.494  29.842  1.00  0.00     0.010 A 
ATOM     33  C   UNL A   1      38.903  29.095  27.695  1.00  0.00     0.010 A 
ATOM     34  C   UNL A   1      39.019  28.475  28.942  1.00  0.00    -0.014 A 
BRANCH  34  35
ATOM     35  C   UNL A   1      40.326  27.890  29.188  1.00  0.00     0.031 A 
ATOM     36  C   UNL A   1      40.610  26.514  28.738  1.00  0.00     0.074 A 
ATOM     37  C   UNL A   1      41.319  28.709  29.592  1.00  0.00     0.049 A 
ATOM     38  N   UNL A   1      41.669  25.853  29.043  1.00  0.00    -0.248 NA
ATOM     39  C   UNL A   1      39.679  25.748  27.919  1.00  0.00     0.031 C 
ATOM     40  C   UNL A   1      42.757  28.488  29.490  1.00  0.00     0.029 A 
ATOM     41  N   UNL A   1      41.194  29.831  30.412  1.00  0.00    -0.354 N 
ATOM     42  C   UNL A   1      41.710  24.722  28.259  1.00  0.00     0.074 A 
ATOM     43  C   UNL A   1      40.410  24.668  27.632  1.00  0.00     0.031 C 
ATOM     44  C   UNL A   1      43.377  29.246  30.407  1.00  0.00     0.029 A 
ATOM     45  C   UNL A   1      42.340  29.839  31.233  1.00  0.00     0.049 A 
ATOM     46  H   UNL A   1      40.456  30.482  30.417  1.00  0.00     0.167 HD
ATOM     47  C   UNL A   1      42.889  24.047  28.150  1.00  0.00     0.034 A 
ATOM     48  C   UNL A   1      42.227  29.662  32.582  1.00  0.00     0.034 A 
ATOM     49  C   UNL A   1      43.888  24.602  29.066  1.00  0.00     0.049 A 
ATOM     50  C   UNL A   1      42.970  28.448  33.097  1.00  0.00     0.074 A 
ATOM     51  C   UNL A   1      44.962  25.463  28.898  1.00  0.00     0.029 A 
ATOM     52  N   UNL A   1      43.670  24.510  30.435  1.00  0.00    -0.354 N 
ATOM     53  N   UNL A   1      43.344  27.441  32.355  1.00  0.00    -0.248 NA
ATOM     54  C   UNL A   1      43.363  28.286  34.491  1.00  0.00     0.031 C 
ATOM     55  C   UNL A   1      45.353  25.929  30.184  1.00  0.00     0.029 A 
ATOM     56  C   UNL A   1      44.541  25.325  31.128  1.00  0.00     0.049 A 
ATOM     57  H   UNL A   1      42.987  23.939  30.854  1.00  0.00     0.167 HD
ATOM     58  C   UNL A   1      44.014  26.518  33.122  1.00  0.00     0.074 A 
ATOM     59  C   UNL A   1      44.008  27.106  34.452  1.00  0.00     0.031 C 
ATOM     60  C   UNL A   1      44.510  25.357  32.587  1.00  0.00     0.034 A 
BRANCH  47  61
ATOM     61  C   UNL A   1      43.247  23.048  27.066  1.00  0.00     0.023 A 
ATOM     62  C   UNL A   1      42.661  21.762  27.113  1.00  0.00     0.031 A 
ATOM     63  C   UNL A   1      44.162  23.245  26.015  1.00  0.00     0.131 A 
ATOM     64  C   UNL A   1      43.041  20.740  26.222  1.00  0.00     0.055 A 
ATOM     65  C   UNL A   1      44.568  22.219  25.149  1.00  0.00     0.041 A 
ATOM     66  F   UNL A   1      44.677  24.444  25.730  1.00  0.00    -0.206 F 
ATOM     67  C   UNL A   1      44.015  20.955  25.254  1.00  0.00     0.022 A 
BRANCH  64  68
ATOM     68  S   UNL A   1      42.250  19.112  26.353  1.00  0.00     0.124 S 
ATOM     69  O   UNL A   1      43.105  18.285  25.508  1.00  0.00    -0.237 OA
ATOM     70  O   UNL A   1      42.307  18.853  27.786  1.00  0.00    -0.237 OA
ATOM     71  O   UNL A   1      40.907  19.346  25.824  1.00  0.00    -0.744 OA
ENDBRANCH  64  68
ENDBRANCH  47  61
BRANCH  48  72
ATOM     72  C   UNL A   1      40.949  30.212  33.127  1.00  0.00     0.023 A 
ATOM     73  C   UNL A   1      40.860  31.616  33.259  1.00  0.00     0.031 A 
ATOM     74  C   UNL A   1      39.755  29.480  33.080  1.00  0.00     0.131 A 
ATOM     75  C   UNL A   1      39.617  32.258  33.162  1.00  0.00     0.055 A 
ATOM     76  C   UNL A   1      38.510  30.126  33.050  1.00  0.00     0.041 A 
ATOM     77  F   UNL A   1      39.772  28.148  32.928  1.00  0.00    -0.206 F 
ATOM     78  C   UNL A   1      38.439  31.520  33.042  1.00  0.00     0.022 A 
BRANCH  75  79
ATOM     79  S   UNL A   1      39.593  34.062  32.927  1.00  0.00     0.124 S 
ATOM     80  O   UNL A   1      40.323  34.530  34.100  1.00  0.00    -0.237 OA
ATOM     81  O   UNL A   1      40.276  34.228  31.647  1.00  0.00    -0.237 OA
ATOM     82  O   UNL A   1      38.169  34.389  32.903  1.00  0.00    -0.744 OA
ENDBRANCH  75  79
ENDBRANCH  48  72
BRANCH  60  83
ATOM     83  C   UNL A   1      45.070  24.159  33.341  1.00  0.00     0.023 A 
ATOM     84  C   UNL A   1      46.385  24.075  33.819  1.00  0.00     0.031 A 
ATOM     85  C   UNL A   1      44.244  23.050  33.673  1.00  0.00     0.131 A 
ATOM     86  C   UNL A   1      46.845  22.941  34.519  1.00  0.00     0.055 A 
ATOM     87  C   UNL A   1      44.680  21.958  34.429  1.00  0.00     0.041 A 
ATOM     88  F   UNL A   1      42.961  22.977  33.290  1.00  0.00    -0.206 F 
ATOM     89  C   UNL A   1      45.995  21.891  34.849  1.00  0.00     0.022 A 
BRANCH  86  90
ATOM     90  S   UNL A   1      48.604  22.854  34.944  1.00  0.00     0.124 S 
ATOM     91  O   UNL A   1      48.569  22.983  36.398  1.00  0.00    -0.237 OA
ATOM     92  O   UNL A   1      48.984  21.540  34.435  1.00  0.00    -0.237 OA
ATOM     93  O   UNL A   1      49.189  23.989  34.234  1.00  0.00    -0.744 OA
ENDBRANCH  86  90
ENDBRANCH  60  83
ENDBRANCH  34  35
ENDBRANCH  26  29
ENDBRANCH  24  25
ENDBRANCH  23  24
ENDBRANCH   1  23
TORSDOF 17
ENDMDL
