MODEL 1
REMARK VINA RESULT:      -9.2      0.000      0.000
REMARK SMILES COc1ccc(-c2nc3cc(N4C[C@@H](C(=O)NCCCCNC(=O)c5ccc(-c6c7nc(c(-c8cc(S(=O)(=O)[O-])ccc8F)c8ccc([nH]8)c(-c8cc(S(=O)(=O)[O-])ccc8F)c8nc(c(-c9cc(S(=O)(=O)[O-])ccc9F)c9ccc6[nH]9)C=C8)C=C7)cc5)CC4=O)ccc3o2)cc1
REMARK SMILES IDX 19 1 18 2 17 3 15 4 16 5 14 7 12 8 13 9 89 10 88 11 90 12
REMARK SMILES IDX 11 13 7 14 8 15 94 16 9 17 93 18 10 19 92 20 91 21 6 22 3 23
REMARK SMILES IDX 4 24 96 25 5 26 95 27 2 28 1 29 20 30 21 31 22 32 23 33
REMARK SMILES IDX 24 35 25 36 26 37 87 38 27 39 86 40 28 41 29 42 30 43 80 44
REMARK SMILES IDX 31 45 85 46 79 47 81 48 32 49 84 50 78 51 77 52 33 54 65 55
REMARK SMILES IDX 45 56 64 57 46 58 49 59 63 60 82 61 47 62 48 63 62 65 83 66
REMARK SMILES IDX 50 67 34 68 35 69 43 70 36 71 42 72 44 73 41 74 37 75 38 76
REMARK SMILES IDX 39 77 40 78 66 79 67 80 75 81 68 82 74 83 76 84 73 85 69 86
REMARK SMILES IDX 70 87 71 88 72 89 51 90 52 91 60 92 53 93 59 94 61 95 58 96
REMARK SMILES IDX 54 97 55 98 56 99 57 100
REMARK H PARENT 17 6 22 34 81 53 49 64
REMARK Flexibility Score: inf
ROOT
ATOM      1  C   UNL A   1      38.692  33.961  37.644  1.00  0.00     0.023 C 
ENDROOT
BRANCH   1   2
ATOM      2  C   UNL A   1      37.724  32.795  37.455  1.00  0.00     0.116 C 
BRANCH   2   3
ATOM      3  N   UNL A   1      38.433  31.544  37.250  1.00  0.00    -0.356 N 
ATOM      4  C   UNL A   1      38.651  30.811  36.130  1.00  0.00     0.225 C 
ATOM      5  O   UNL A   1      39.283  29.758  36.248  1.00  0.00    -0.275 OA
ATOM      6  H   UNL A   1      38.824  31.162  38.069  1.00  0.00     0.163 HD
BRANCH   4   7
ATOM      7  C   UNL A   1      38.214  31.270  34.757  1.00  0.00     0.107 C 
ATOM      8  N   UNL A   1      38.844  30.747  32.543  1.00  0.00    -0.312 N 
ATOM      9  C   UNL A   1      38.311  30.150  33.744  1.00  0.00     0.139 C 
ATOM     10  C   UNL A   1      39.322  32.041  32.763  1.00  0.00     0.227 C 
ATOM     11  C   UNL A   1      38.955  32.456  34.168  1.00  0.00     0.116 C 
ATOM     12  O   UNL A   1      39.879  32.788  31.979  1.00  0.00    -0.274 OA
BRANCH   8  13
ATOM     13  C   UNL A   1      38.781  30.109  31.277  1.00  0.00     0.046 A 
ATOM     14  C   UNL A   1      39.777  26.875  28.406  1.00  0.00     0.227 A 
ATOM     15  N   UNL A   1      40.500  27.463  29.338  1.00  0.00    -0.209 NA
ATOM     16  O   UNL A   1      38.589  27.498  28.109  1.00  0.00    -0.436 OA
ATOM     17  C   UNL A   1      39.694  28.467  29.775  1.00  0.00     0.112 A 
ATOM     18  C   UNL A   1      38.525  28.505  29.039  1.00  0.00     0.155 A 
ATOM     19  C   UNL A   1      39.864  29.320  30.865  1.00  0.00     0.058 A 
ATOM     20  C   UNL A   1      37.479  29.376  29.304  1.00  0.00     0.051 A 
ATOM     21  C   UNL A   1      37.623  30.153  30.473  1.00  0.00     0.030 A 
BRANCH  14  22
ATOM     22  C   UNL A   1      39.991  25.535  27.890  1.00  0.00     0.037 A 
ATOM     23  C   UNL A   1      40.171  22.871  27.008  1.00  0.00     0.118 A 
ATOM     24  C   UNL A   1      41.266  23.502  27.613  1.00  0.00     0.047 A 
ATOM     25  C   UNL A   1      38.989  23.583  26.825  1.00  0.00     0.047 A 
ATOM     26  C   UNL A   1      41.186  24.834  28.043  1.00  0.00     0.017 A 
ATOM     27  C   UNL A   1      38.902  24.901  27.271  1.00  0.00     0.017 A 
BRANCH  23  28
ATOM     28  O   UNL A   1      40.366  21.561  26.662  1.00  0.00    -0.497 OA
ATOM     29  C   UNL A   1      41.658  21.221  26.171  1.00  0.00     0.278 C 
ENDBRANCH  23  28
ENDBRANCH  14  22
ENDBRANCH   8  13
ENDBRANCH   4   7
ENDBRANCH   2   3
ENDBRANCH   1   2
BRANCH   1  30
ATOM     30  C   UNL A   1      38.778  34.489  39.077  1.00  0.00     0.023 C 
BRANCH  30  31
ATOM     31  C   UNL A   1      40.190  34.638  39.627  1.00  0.00     0.116 C 
BRANCH  31  32
ATOM     32  N   UNL A   1      40.662  36.013  39.612  1.00  0.00    -0.352 N 
ATOM     33  C   UNL A   1      41.437  36.649  38.671  1.00  0.00     0.251 C 
ATOM     34  H   UNL A   1      40.389  36.564  40.381  1.00  0.00     0.163 HD
ATOM     35  O   UNL A   1      41.857  37.780  38.891  1.00  0.00    -0.269 OA
BRANCH  33  36
ATOM     36  C   UNL A   1      41.786  35.943  37.421  1.00  0.00     0.039 A 
ATOM     37  C   UNL A   1      42.976  35.213  37.367  1.00  0.00     0.014 A 
ATOM     38  C   UNL A   1      40.926  35.972  36.320  1.00  0.00     0.014 A 
ATOM     39  C   UNL A   1      43.266  34.451  36.234  1.00  0.00     0.010 A 
ATOM     40  C   UNL A   1      41.180  35.153  35.225  1.00  0.00     0.010 A 
ATOM     41  C   UNL A   1      42.351  34.383  35.171  1.00  0.00    -0.014 A 
BRANCH  41  42
ATOM     42  C   UNL A   1      42.602  33.516  33.991  1.00  0.00     0.031 A 
ATOM     43  C   UNL A   1      42.654  32.023  34.151  1.00  0.00     0.074 A 
ATOM     44  C   UNL A   1      42.847  34.078  32.791  1.00  0.00     0.049 A 
ATOM     45  N   UNL A   1      42.937  31.102  33.265  1.00  0.00    -0.248 NA
ATOM     46  C   UNL A   1      42.383  31.500  35.498  1.00  0.00     0.031 C 
ATOM     47  C   UNL A   1      42.862  35.517  32.516  1.00  0.00     0.029 A 
ATOM     48  N   UNL A   1      43.138  33.507  31.577  1.00  0.00    -0.354 N 
ATOM     49  C   UNL A   1      42.887  29.892  33.948  1.00  0.00     0.074 A 
ATOM     50  C   UNL A   1      42.622  30.208  35.336  1.00  0.00     0.031 C 
ATOM     51  C   UNL A   1      43.114  35.713  31.213  1.00  0.00     0.029 A 
ATOM     52  C   UNL A   1      43.326  34.422  30.567  1.00  0.00     0.049 A 
ATOM     53  H   UNL A   1      43.205  32.535  31.442  1.00  0.00     0.167 HD
ATOM     54  C   UNL A   1      43.022  28.633  33.460  1.00  0.00     0.034 A 
ATOM     55  C   UNL A   1      43.642  34.239  29.270  1.00  0.00     0.034 A 
ATOM     56  C   UNL A   1      43.283  28.336  32.072  1.00  0.00     0.049 A 
ATOM     57  C   UNL A   1      43.829  32.836  28.755  1.00  0.00     0.074 A 
ATOM     58  C   UNL A   1      43.396  27.102  31.459  1.00  0.00     0.029 A 
ATOM     59  N   UNL A   1      43.482  29.290  31.079  1.00  0.00    -0.354 N 
ATOM     60  N   UNL A   1      43.739  31.698  29.404  1.00  0.00    -0.248 NA
ATOM     61  C   UNL A   1      44.153  32.694  27.331  1.00  0.00     0.031 C 
ATOM     62  C   UNL A   1      43.727  27.306  30.114  1.00  0.00     0.029 A 
ATOM     63  C   UNL A   1      43.747  28.670  29.867  1.00  0.00     0.049 A 
ATOM     64  H   UNL A   1      43.441  30.264  31.218  1.00  0.00     0.167 HD
ATOM     65  C   UNL A   1      43.965  30.703  28.457  1.00  0.00     0.074 A 
ATOM     66  C   UNL A   1      44.183  31.376  27.193  1.00  0.00     0.031 C 
ATOM     67  C   UNL A   1      43.981  29.355  28.617  1.00  0.00     0.034 A 
BRANCH  54  68
ATOM     68  C   UNL A   1      42.911  27.496  34.451  1.00  0.00     0.023 A 
ATOM     69  C   UNL A   1      44.035  27.014  35.146  1.00  0.00     0.031 A 
ATOM     70  C   UNL A   1      41.683  26.846  34.662  1.00  0.00     0.131 A 
ATOM     71  C   UNL A   1      43.932  25.858  35.933  1.00  0.00     0.055 A 
ATOM     72  C   UNL A   1      41.567  25.752  35.523  1.00  0.00     0.041 A 
ATOM     73  F   UNL A   1      40.577  27.245  34.015  1.00  0.00    -0.206 F 
ATOM     74  C   UNL A   1      42.699  25.238  36.148  1.00  0.00     0.022 A 
BRANCH  71  75
ATOM     75  S   UNL A   1      45.460  25.075  36.518  1.00  0.00     0.124 S 
ATOM     76  O   UNL A   1      44.945  23.867  37.159  1.00  0.00    -0.237 OA
ATOM     77  O   UNL A   1      46.205  24.875  35.281  1.00  0.00    -0.237 OA
ATOM     78  O   UNL A   1      46.023  26.065  37.434  1.00  0.00    -0.744 OA
ENDBRANCH  71  75
ENDBRANCH  54  68
BRANCH  55  79
ATOM     79  C   UNL A   1      43.796  35.411  28.362  1.00  0.00     0.023 A 
ATOM     80  C   UNL A   1      45.058  35.983  28.135  1.00  0.00     0.031 A 
ATOM     81  C   UNL A   1      42.684  35.994  27.730  1.00  0.00     0.131 A 
ATOM     82  C   UNL A   1      45.174  37.126  27.329  1.00  0.00     0.055 A 
ATOM     83  C   UNL A   1      42.810  37.103  26.892  1.00  0.00     0.041 A 
ATOM     84  F   UNL A   1      41.456  35.481  27.908  1.00  0.00    -0.206 F 
ATOM     85  C   UNL A   1      44.060  37.682  26.697  1.00  0.00     0.022 A 
BRANCH  82  86
ATOM     86  S   UNL A   1      46.798  37.916  27.173  1.00  0.00     0.124 S 
ATOM     87  O   UNL A   1      46.730  38.943  28.207  1.00  0.00    -0.237 OA
ATOM     88  O   UNL A   1      47.704  36.802  27.434  1.00  0.00    -0.237 OA
ATOM     89  O   UNL A   1      46.804  38.412  25.799  1.00  0.00    -0.744 OA
ENDBRANCH  82  86
ENDBRANCH  55  79
BRANCH  67  90
ATOM     90  C   UNL A   1      44.200  28.523  27.376  1.00  0.00     0.023 A 
ATOM     91  C   UNL A   1      45.474  28.047  27.018  1.00  0.00     0.031 A 
ATOM     92  C   UNL A   1      43.119  28.215  26.532  1.00  0.00     0.131 A 
ATOM     93  C   UNL A   1      45.644  27.337  25.819  1.00  0.00     0.055 A 
ATOM     94  C   UNL A   1      43.283  27.459  25.371  1.00  0.00     0.041 A 
ATOM     95  F   UNL A   1      41.880  28.647  26.823  1.00  0.00    -0.206 F 
ATOM     96  C   UNL A   1      44.554  27.026  25.003  1.00  0.00     0.022 A 
BRANCH  93  97
ATOM     97  S   UNL A   1      47.325  26.903  25.294  1.00  0.00     0.124 S 
ATOM     98  O   UNL A   1      47.960  28.213  25.197  1.00  0.00    -0.237 OA
ATOM     99  O   UNL A   1      47.782  26.050  26.385  1.00  0.00    -0.237 OA
ATOM    100  O   UNL A   1      47.119  26.219  24.019  1.00  0.00    -0.744 OA
ENDBRANCH  93  97
ENDBRANCH  67  90
ENDBRANCH  41  42
ENDBRANCH  33  36
ENDBRANCH  31  32
ENDBRANCH  30  31
ENDBRANCH   1  30
TORSDOF 17
ENDMDL
MODEL 2
REMARK VINA RESULT:      -9.1      5.025      9.458
REMARK SMILES COc1ccc(-c2nc3cc(N4C[C@@H](C(=O)NCCCCNC(=O)c5ccc(-c6c7nc(c(-c8cc(S(=O)(=O)[O-])ccc8F)c8ccc([nH]8)c(-c8cc(S(=O)(=O)[O-])ccc8F)c8nc(c(-c9cc(S(=O)(=O)[O-])ccc9F)c9ccc6[nH]9)C=C8)C=C7)cc5)CC4=O)ccc3o2)cc1
REMARK SMILES IDX 19 1 18 2 17 3 15 4 16 5 14 7 12 8 13 9 89 10 88 11 90 12
REMARK SMILES IDX 11 13 7 14 8 15 94 16 9 17 93 18 10 19 92 20 91 21 6 22 3 23
REMARK SMILES IDX 4 24 96 25 5 26 95 27 2 28 1 29 20 30 21 31 22 32 23 33
REMARK SMILES IDX 24 35 25 36 26 37 87 38 27 39 86 40 28 41 29 42 30 43 80 44
REMARK SMILES IDX 31 45 85 46 79 47 81 48 32 49 84 50 78 51 77 52 33 54 65 55
REMARK SMILES IDX 45 56 64 57 46 58 49 59 63 60 82 61 47 62 48 63 62 65 83 66
REMARK SMILES IDX 50 67 34 68 35 69 43 70 36 71 42 72 44 73 41 74 37 75 38 76
REMARK SMILES IDX 39 77 40 78 66 79 67 80 75 81 68 82 74 83 76 84 73 85 69 86
REMARK SMILES IDX 70 87 71 88 72 89 51 90 52 91 60 92 53 93 59 94 61 95 58 96
REMARK SMILES IDX 54 97 55 98 56 99 57 100
REMARK H PARENT 17 6 22 34 81 53 49 64
REMARK Flexibility Score: inf
ROOT
ATOM      1  C   UNL A   1      36.140  30.996  27.797  1.00  0.00     0.023 C 
ENDROOT
BRANCH   1   2
ATOM      2  C   UNL A   1      35.381  29.743  27.368  1.00  0.00     0.116 C 
BRANCH   2   3
ATOM      3  N   UNL A   1      34.230  30.075  26.546  1.00  0.00    -0.356 N 
ATOM      4  C   UNL A   1      33.201  29.315  26.097  1.00  0.00     0.225 C 
ATOM      5  O   UNL A   1      32.352  29.860  25.387  1.00  0.00    -0.275 OA
ATOM      6  H   UNL A   1      34.191  31.018  26.267  1.00  0.00     0.163 HD
BRANCH   4   7
ATOM      7  C   UNL A   1      33.027  27.865  26.489  1.00  0.00     0.107 C 
ATOM      8  N   UNL A   1      32.433  25.886  25.345  1.00  0.00    -0.312 N 
ATOM      9  C   UNL A   1      33.423  26.937  25.361  1.00  0.00     0.139 C 
ATOM     10  C   UNL A   1      31.336  26.181  26.159  1.00  0.00     0.227 C 
ATOM     11  C   UNL A   1      31.638  27.442  26.933  1.00  0.00     0.116 C 
ATOM     12  O   UNL A   1      30.316  25.537  26.320  1.00  0.00    -0.274 OA
BRANCH   8  13
ATOM     13  C   UNL A   1      32.626  24.661  24.656  1.00  0.00     0.046 A 
ATOM     14  C   UNL A   1      33.655  20.350  24.435  1.00  0.00     0.227 A 
ATOM     15  N   UNL A   1      34.160  21.327  25.160  1.00  0.00    -0.209 NA
ATOM     16  O   UNL A   1      32.824  20.748  23.415  1.00  0.00    -0.436 OA
ATOM     17  C   UNL A   1      33.534  22.434  24.676  1.00  0.00     0.112 A 
ATOM     18  C   UNL A   1      32.716  22.101  23.612  1.00  0.00     0.155 A 
ATOM     19  C   UNL A   1      33.549  23.738  25.168  1.00  0.00     0.058 A 
ATOM     20  C   UNL A   1      31.895  23.011  22.963  1.00  0.00     0.051 A 
ATOM     21  C   UNL A   1      31.841  24.296  23.543  1.00  0.00     0.030 A 
BRANCH  14  22
ATOM     22  C   UNL A   1      33.681  18.940  24.780  1.00  0.00     0.037 A 
ATOM     23  C   UNL A   1      33.786  16.160  25.189  1.00  0.00     0.118 A 
ATOM     24  C   UNL A   1      32.730  16.922  25.706  1.00  0.00     0.047 A 
ATOM     25  C   UNL A   1      34.803  16.795  24.483  1.00  0.00     0.047 A 
ATOM     26  C   UNL A   1      32.680  18.310  25.517  1.00  0.00     0.017 A 
ATOM     27  C   UNL A   1      34.743  18.172  24.276  1.00  0.00     0.017 A 
BRANCH  23  28
ATOM     28  O   UNL A   1      33.702  14.812  25.415  1.00  0.00    -0.497 OA
ATOM     29  C   UNL A   1      32.416  14.305  25.754  1.00  0.00     0.278 C 
ENDBRANCH  23  28
ENDBRANCH  14  22
ENDBRANCH   8  13
ENDBRANCH   4   7
ENDBRANCH   2   3
ENDBRANCH   1   2
BRANCH   1  30
ATOM     30  C   UNL A   1      35.294  32.270  27.832  1.00  0.00     0.023 C 
BRANCH  30  31
ATOM     31  C   UNL A   1      34.190  32.283  28.883  1.00  0.00     0.116 C 
BRANCH  31  32
ATOM     32  N   UNL A   1      34.273  33.427  29.777  1.00  0.00    -0.352 N 
ATOM     33  C   UNL A   1      35.231  33.716  30.720  1.00  0.00     0.251 C 
ATOM     34  H   UNL A   1      33.544  34.084  29.696  1.00  0.00     0.163 HD
ATOM     35  O   UNL A   1      35.067  34.661  31.486  1.00  0.00    -0.269 OA
BRANCH  33  36
ATOM     36  C   UNL A   1      36.430  32.858  30.825  1.00  0.00     0.039 A 
ATOM     37  C   UNL A   1      37.631  33.308  30.272  1.00  0.00     0.014 A 
ATOM     38  C   UNL A   1      36.376  31.635  31.498  1.00  0.00     0.014 A 
ATOM     39  C   UNL A   1      38.796  32.562  30.459  1.00  0.00     0.010 A 
ATOM     40  C   UNL A   1      37.550  30.934  31.747  1.00  0.00     0.010 A 
ATOM     41  C   UNL A   1      38.774  31.390  31.232  1.00  0.00    -0.014 A 
BRANCH  41  42
ATOM     42  C   UNL A   1      40.015  30.624  31.511  1.00  0.00     0.031 A 
ATOM     43  C   UNL A   1      40.860  30.969  32.706  1.00  0.00     0.074 A 
ATOM     44  C   UNL A   1      40.414  29.665  30.653  1.00  0.00     0.049 A 
ATOM     45  N   UNL A   1      42.013  30.476  33.076  1.00  0.00    -0.248 NA
ATOM     46  C   UNL A   1      40.351  32.035  33.580  1.00  0.00     0.031 C 
ATOM     47  C   UNL A   1      39.700  29.264  29.439  1.00  0.00     0.029 A 
ATOM     48  N   UNL A   1      41.522  28.855  30.667  1.00  0.00    -0.354 N 
ATOM     49  C   UNL A   1      42.374  31.177  34.222  1.00  0.00     0.074 A 
ATOM     50  C   UNL A   1      41.351  32.179  34.436  1.00  0.00     0.031 C 
ATOM     51  C   UNL A   1      40.370  28.265  28.844  1.00  0.00     0.029 A 
ATOM     52  C   UNL A   1      41.583  27.984  29.604  1.00  0.00     0.049 A 
ATOM     53  H   UNL A   1      42.208  28.893  31.371  1.00  0.00     0.167 HD
ATOM     54  C   UNL A   1      43.443  30.986  35.036  1.00  0.00     0.034 A 
ATOM     55  C   UNL A   1      42.516  27.069  29.276  1.00  0.00     0.034 A 
ATOM     56  C   UNL A   1      44.452  29.980  34.808  1.00  0.00     0.049 A 
ATOM     57  C   UNL A   1      43.718  26.900  30.168  1.00  0.00     0.074 A 
ATOM     58  C   UNL A   1      45.553  29.668  35.586  1.00  0.00     0.029 A 
ATOM     59  N   UNL A   1      44.490  29.125  33.712  1.00  0.00    -0.354 N 
ATOM     60  N   UNL A   1      44.025  27.543  31.271  1.00  0.00    -0.248 NA
ATOM     61  C   UNL A   1      44.693  25.877  29.775  1.00  0.00     0.031 C 
ATOM     62  C   UNL A   1      46.289  28.674  34.931  1.00  0.00     0.029 A 
ATOM     63  C   UNL A   1      45.609  28.309  33.780  1.00  0.00     0.049 A 
ATOM     64  H   UNL A   1      43.818  29.102  32.993  1.00  0.00     0.167 HD
ATOM     65  C   UNL A   1      45.216  26.977  31.720  1.00  0.00     0.074 A 
ATOM     66  C   UNL A   1      45.562  25.936  30.774  1.00  0.00     0.031 C 
ATOM     67  C   UNL A   1      45.952  27.286  32.819  1.00  0.00     0.034 A 
BRANCH  54  68
ATOM     68  C   UNL A   1      43.573  31.908  36.227  1.00  0.00     0.023 A 
ATOM     69  C   UNL A   1      42.770  31.748  37.371  1.00  0.00     0.031 A 
ATOM     70  C   UNL A   1      44.464  32.994  36.200  1.00  0.00     0.131 A 
ATOM     71  C   UNL A   1      42.799  32.712  38.389  1.00  0.00     0.055 A 
ATOM     72  C   UNL A   1      44.557  33.899  37.260  1.00  0.00     0.041 A 
ATOM     73  F   UNL A   1      45.244  33.213  35.129  1.00  0.00    -0.206 F 
ATOM     74  C   UNL A   1      43.706  33.773  38.354  1.00  0.00     0.022 A 
BRANCH  71  75
ATOM     75  S   UNL A   1      41.509  32.658  39.664  1.00  0.00     0.124 S 
ATOM     76  O   UNL A   1      40.322  32.352  38.869  1.00  0.00    -0.237 OA
ATOM     77  O   UNL A   1      41.981  31.596  40.545  1.00  0.00    -0.237 OA
ATOM     78  O   UNL A   1      41.536  34.003  40.235  1.00  0.00    -0.744 OA
ENDBRANCH  71  75
ENDBRANCH  54  68
BRANCH  55  79
ATOM     79  C   UNL A   1      42.354  26.236  28.051  1.00  0.00     0.023 A 
ATOM     80  C   UNL A   1      41.861  24.924  28.135  1.00  0.00     0.031 A 
ATOM     81  C   UNL A   1      42.714  26.726  26.784  1.00  0.00     0.131 A 
ATOM     82  C   UNL A   1      41.778  24.132  26.979  1.00  0.00     0.055 A 
ATOM     83  C   UNL A   1      42.585  25.951  25.630  1.00  0.00     0.041 A 
ATOM     84  F   UNL A   1      43.183  27.976  26.648  1.00  0.00    -0.206 F 
ATOM     85  C   UNL A   1      42.125  24.641  25.726  1.00  0.00     0.022 A 
BRANCH  82  86
ATOM     86  S   UNL A   1      41.270  22.400  27.148  1.00  0.00     0.124 S 
ATOM     87  O   UNL A   1      39.877  22.537  27.557  1.00  0.00    -0.237 OA
ATOM     88  O   UNL A   1      41.496  21.885  25.802  1.00  0.00    -0.237 OA
ATOM     89  O   UNL A   1      42.174  21.879  28.171  1.00  0.00    -0.744 OA
ENDBRANCH  82  86
ENDBRANCH  55  79
BRANCH  67  90
ATOM     90  C   UNL A   1      47.182  26.448  33.074  1.00  0.00     0.023 A 
ATOM     91  C   UNL A   1      47.148  25.317  33.908  1.00  0.00     0.031 A 
ATOM     92  C   UNL A   1      48.409  26.798  32.484  1.00  0.00     0.131 A 
ATOM     93  C   UNL A   1      48.330  24.608  34.174  1.00  0.00     0.055 A 
ATOM     94  C   UNL A   1      49.569  26.055  32.705  1.00  0.00     0.041 A 
ATOM     95  F   UNL A   1      48.500  27.871  31.681  1.00  0.00    -0.206 F 
ATOM     96  C   UNL A   1      49.536  24.961  33.565  1.00  0.00     0.022 A 
BRANCH  93  97
ATOM     97  S   UNL A   1      48.289  23.273  35.401  1.00  0.00     0.124 S 
ATOM     98  O   UNL A   1      47.127  23.634  36.205  1.00  0.00    -0.237 OA
ATOM     99  O   UNL A   1      48.144  22.086  34.565  1.00  0.00    -0.237 OA
ATOM    100  O   UNL A   1      49.576  23.395  36.083  1.00  0.00    -0.744 OA
ENDBRANCH  93  97
ENDBRANCH  67  90
ENDBRANCH  41  42
ENDBRANCH  33  36
ENDBRANCH  31  32
ENDBRANCH  30  31
ENDBRANCH   1  30
TORSDOF 17
ENDMDL
MODEL 3
REMARK VINA RESULT:      -9.1      4.351     10.716
REMARK SMILES COc1ccc(-c2nc3cc(N4C[C@@H](C(=O)NCCCCNC(=O)c5ccc(-c6c7nc(c(-c8cc(S(=O)(=O)[O-])ccc8F)c8ccc([nH]8)c(-c8cc(S(=O)(=O)[O-])ccc8F)c8nc(c(-c9cc(S(=O)(=O)[O-])ccc9F)c9ccc6[nH]9)C=C8)C=C7)cc5)CC4=O)ccc3o2)cc1
REMARK SMILES IDX 19 1 18 2 17 3 15 4 16 5 14 7 12 8 13 9 89 10 88 11 90 12
REMARK SMILES IDX 11 13 7 14 8 15 94 16 9 17 93 18 10 19 92 20 91 21 6 22 3 23
REMARK SMILES IDX 4 24 96 25 5 26 95 27 2 28 1 29 20 30 21 31 22 32 23 33
REMARK SMILES IDX 24 35 25 36 26 37 87 38 27 39 86 40 28 41 29 42 30 43 80 44
REMARK SMILES IDX 31 45 85 46 79 47 81 48 32 49 84 50 78 51 77 52 33 54 65 55
REMARK SMILES IDX 45 56 64 57 46 58 49 59 63 60 82 61 47 62 48 63 62 65 83 66
REMARK SMILES IDX 50 67 34 68 35 69 43 70 36 71 42 72 44 73 41 74 37 75 38 76
REMARK SMILES IDX 39 77 40 78 66 79 67 80 75 81 68 82 74 83 76 84 73 85 69 86
REMARK SMILES IDX 70 87 71 88 72 89 51 90 52 91 60 92 53 93 59 94 61 95 58 96
REMARK SMILES IDX 54 97 55 98 56 99 57 100
REMARK H PARENT 17 6 22 34 81 53 49 64
REMARK Flexibility Score: inf
ROOT
ATOM      1  C   UNL A   1      46.426  23.866  25.307  1.00  0.00     0.023 C 
ENDROOT
BRANCH   1   2
ATOM      2  C   UNL A   1      46.256  22.908  24.130  1.00  0.00     0.116 C 
BRANCH   2   3
ATOM      3  N   UNL A   1      46.713  21.570  24.463  1.00  0.00    -0.356 N 
ATOM      4  C   UNL A   1      46.029  20.429  24.723  1.00  0.00     0.225 C 
ATOM      5  O   UNL A   1      46.681  19.420  25.001  1.00  0.00    -0.275 OA
ATOM      6  H   UNL A   1      47.692  21.477  24.507  1.00  0.00     0.163 HD
BRANCH   4   7
ATOM      7  C   UNL A   1      44.523  20.339  24.617  1.00  0.00     0.107 C 
ATOM      8  N   UNL A   1      42.714  20.884  26.033  1.00  0.00    -0.312 N 
ATOM      9  C   UNL A   1      43.849  21.471  25.360  1.00  0.00     0.139 C 
ATOM     10  C   UNL A   1      42.746  19.487  26.002  1.00  0.00     0.227 C 
ATOM     11  C   UNL A   1      43.883  19.053  25.108  1.00  0.00     0.116 C 
ATOM     12  O   UNL A   1      41.977  18.699  26.520  1.00  0.00    -0.274 OA
BRANCH   8  13
ATOM     13  C   UNL A   1      41.652  21.660  26.565  1.00  0.00     0.046 A 
ATOM     14  C   UNL A   1      39.917  25.362  28.293  1.00  0.00     0.227 A 
ATOM     15  N   UNL A   1      41.092  24.789  28.466  1.00  0.00    -0.209 NA
ATOM     16  O   UNL A   1      38.981  24.589  27.649  1.00  0.00    -0.436 OA
ATOM     17  C   UNL A   1      40.972  23.614  27.791  1.00  0.00     0.112 A 
ATOM     18  C   UNL A   1      39.693  23.474  27.286  1.00  0.00     0.155 A 
ATOM     19  C   UNL A   1      41.952  22.669  27.490  1.00  0.00     0.058 A 
ATOM     20  C   UNL A   1      39.294  22.410  26.491  1.00  0.00     0.051 A 
ATOM     21  C   UNL A   1      40.325  21.524  26.109  1.00  0.00     0.030 A 
BRANCH  14  22
ATOM     22  C   UNL A   1      39.631  26.774  28.468  1.00  0.00     0.037 A 
ATOM     23  C   UNL A   1      38.824  29.436  28.880  1.00  0.00     0.118 A 
ATOM     24  C   UNL A   1      39.514  29.067  27.718  1.00  0.00     0.047 A 
ATOM     25  C   UNL A   1      38.556  28.473  29.849  1.00  0.00     0.047 A 
ATOM     26  C   UNL A   1      39.930  27.744  27.514  1.00  0.00     0.017 A 
ATOM     27  C   UNL A   1      38.950  27.153  29.637  1.00  0.00     0.017 A 
BRANCH  23  28
ATOM     28  O   UNL A   1      38.447  30.750  28.946  1.00  0.00    -0.497 OA
ATOM     29  C   UNL A   1      37.340  31.049  29.790  1.00  0.00     0.278 C 
ENDBRANCH  23  28
ENDBRANCH  14  22
ENDBRANCH   8  13
ENDBRANCH   4   7
ENDBRANCH   2   3
ENDBRANCH   1   2
BRANCH   1  30
ATOM     30  C   UNL A   1      47.028  25.223  24.939  1.00  0.00     0.023 C 
BRANCH  30  31
ATOM     31  C   UNL A   1      46.052  26.392  24.973  1.00  0.00     0.116 C 
BRANCH  31  32
ATOM     32  N   UNL A   1      44.661  25.968  25.014  1.00  0.00    -0.352 N 
ATOM     33  C   UNL A   1      43.607  26.536  25.690  1.00  0.00     0.251 C 
ATOM     34  H   UNL A   1      44.446  25.165  24.488  1.00  0.00     0.163 HD
ATOM     35  O   UNL A   1      42.524  25.961  25.723  1.00  0.00    -0.269 OA
BRANCH  33  36
ATOM     36  C   UNL A   1      43.804  27.816  26.401  1.00  0.00     0.039 A 
ATOM     37  C   UNL A   1      42.965  28.892  26.101  1.00  0.00     0.014 A 
ATOM     38  C   UNL A   1      44.788  27.942  27.385  1.00  0.00     0.014 A 
ATOM     39  C   UNL A   1      43.065  30.071  26.841  1.00  0.00     0.010 A 
ATOM     40  C   UNL A   1      44.835  29.088  28.170  1.00  0.00     0.010 A 
ATOM     41  C   UNL A   1      43.973  30.165  27.908  1.00  0.00    -0.014 A 
BRANCH  41  42
ATOM     42  C   UNL A   1      44.042  31.380  28.760  1.00  0.00     0.031 A 
ATOM     43  C   UNL A   1      43.057  31.571  29.879  1.00  0.00     0.074 A 
ATOM     44  C   UNL A   1      44.948  32.338  28.483  1.00  0.00     0.049 A 
ATOM     45  N   UNL A   1      42.900  32.592  30.681  1.00  0.00    -0.248 NA
ATOM     46  C   UNL A   1      42.100  30.478  30.101  1.00  0.00     0.031 C 
ATOM     47  C   UNL A   1      45.933  32.285  27.400  1.00  0.00     0.029 A 
ATOM     48  N   UNL A   1      45.184  33.548  29.086  1.00  0.00    -0.354 N 
ATOM     49  C   UNL A   1      41.821  32.270  31.497  1.00  0.00     0.074 A 
ATOM     50  C   UNL A   1      41.320  30.992  31.038  1.00  0.00     0.031 C 
ATOM     51  C   UNL A   1      46.686  33.395  27.437  1.00  0.00     0.029 A 
ATOM     52  C   UNL A   1      46.212  34.261  28.512  1.00  0.00     0.049 A 
ATOM     53  H   UNL A   1      44.668  33.875  29.857  1.00  0.00     0.167 HD
ATOM     54  C   UNL A   1      41.314  32.962  32.549  1.00  0.00     0.034 A 
ATOM     55  C   UNL A   1      46.708  35.476  28.813  1.00  0.00     0.034 A 
ATOM     56  C   UNL A   1      41.829  34.234  32.994  1.00  0.00     0.049 A 
ATOM     57  C   UNL A   1      46.104  36.247  29.958  1.00  0.00     0.074 A 
ATOM     58  C   UNL A   1      41.422  35.002  34.071  1.00  0.00     0.029 A 
ATOM     59  N   UNL A   1      42.862  34.933  32.379  1.00  0.00    -0.354 N 
ATOM     60  N   UNL A   1      45.109  35.912  30.747  1.00  0.00    -0.248 NA
ATOM     61  C   UNL A   1      46.695  37.558  30.255  1.00  0.00     0.031 C 
ATOM     62  C   UNL A   1      42.161  36.191  34.068  1.00  0.00     0.029 A 
ATOM     63  C   UNL A   1      43.084  36.135  33.035  1.00  0.00     0.049 A 
ATOM     64  H   UNL A   1      43.363  34.619  31.591  1.00  0.00     0.167 HD
ATOM     65  C   UNL A   1      44.978  36.959  31.656  1.00  0.00     0.074 A 
ATOM     66  C   UNL A   1      46.001  37.929  31.322  1.00  0.00     0.031 C 
ATOM     67  C   UNL A   1      44.097  37.101  32.679  1.00  0.00     0.034 A 
BRANCH  54  68
ATOM     68  C   UNL A   1      40.127  32.354  33.262  1.00  0.00     0.023 A 
ATOM     69  C   UNL A   1      38.807  32.703  32.924  1.00  0.00     0.031 A 
ATOM     70  C   UNL A   1      40.314  31.461  34.332  1.00  0.00     0.131 A 
ATOM     71  C   UNL A   1      37.737  32.248  33.707  1.00  0.00     0.055 A 
ATOM     72  C   UNL A   1      39.236  30.936  35.050  1.00  0.00     0.041 A 
ATOM     73  F   UNL A   1      41.548  31.103  34.717  1.00  0.00    -0.206 F 
ATOM     74  C   UNL A   1      37.940  31.345  34.753  1.00  0.00     0.022 A 
BRANCH  71  75
ATOM     75  S   UNL A   1      36.104  32.998  33.455  1.00  0.00     0.124 S 
ATOM     76  O   UNL A   1      36.458  34.269  32.829  1.00  0.00    -0.237 OA
ATOM     77  O   UNL A   1      35.440  32.024  32.596  1.00  0.00    -0.237 OA
ATOM     78  O   UNL A   1      35.565  33.108  34.809  1.00  0.00    -0.744 OA
ENDBRANCH  71  75
ENDBRANCH  54  68
BRANCH  55  79
ATOM     79  C   UNL A   1      47.841  36.042  28.027  1.00  0.00     0.023 A 
ATOM     80  C   UNL A   1      49.170  35.758  28.378  1.00  0.00     0.031 A 
ATOM     81  C   UNL A   1      47.614  36.895  26.934  1.00  0.00     0.131 A 
ATOM     82  C   UNL A   1      50.224  36.352  27.666  1.00  0.00     0.055 A 
ATOM     83  C   UNL A   1      48.665  37.447  26.200  1.00  0.00     0.041 A 
ATOM     84  F   UNL A   1      46.361  37.192  26.553  1.00  0.00    -0.206 F 
ATOM     85  C   UNL A   1      49.980  37.185  26.572  1.00  0.00     0.022 A 
BRANCH  82  86
ATOM     86  S   UNL A   1      51.922  36.073  28.236  1.00  0.00     0.124 S 
ATOM     87  O   UNL A   1      52.661  36.065  26.978  1.00  0.00    -0.237 OA
ATOM     88  O   UNL A   1      52.145  37.224  29.103  1.00  0.00    -0.237 OA
ATOM     89  O   UNL A   1      51.843  34.785  28.922  1.00  0.00    -0.744 OA
ENDBRANCH  82  86
ENDBRANCH  55  79
BRANCH  67  90
ATOM     90  C   UNL A   1      44.239  38.336  33.536  1.00  0.00     0.023 A 
ATOM     91  C   UNL A   1      43.506  39.507  33.275  1.00  0.00     0.031 A 
ATOM     92  C   UNL A   1      45.133  38.343  34.621  1.00  0.00     0.131 A 
ATOM     93  C   UNL A   1      43.722  40.655  34.054  1.00  0.00     0.055 A 
ATOM     94  C   UNL A   1      45.300  39.469  35.429  1.00  0.00     0.041 A 
ATOM     95  F   UNL A   1      45.861  37.253  34.914  1.00  0.00    -0.206 F 
ATOM     96  C   UNL A   1      44.602  40.637  35.139  1.00  0.00     0.022 A 
BRANCH  93  97
ATOM     97  S   UNL A   1      42.903  42.201  33.574  1.00  0.00     0.124 S 
ATOM     98  O   UNL A   1      42.402  42.689  34.855  1.00  0.00    -0.237 OA
ATOM     99  O   UNL A   1      43.998  42.964  32.985  1.00  0.00    -0.237 OA
ATOM    100  O   UNL A   1      41.875  41.765  32.632  1.00  0.00    -0.744 OA
ENDBRANCH  93  97
ENDBRANCH  67  90
ENDBRANCH  41  42
ENDBRANCH  33  36
ENDBRANCH  31  32
ENDBRANCH  30  31
ENDBRANCH   1  30
TORSDOF 17
ENDMDL
