MODEL 1
REMARK VINA RESULT:     -11.9      0.000      0.000
REMARK SMILES Cc1oc(CNC(=O)c2ccnn2C)cc1C(=O)NCCCCNC(=O)c1ccc(-c2c3nc(c(-c4cc(S(=O)(=O)[O-])ccc4F)c4ccc([nH]4)c(-c4cc(S(=O)(=O)[O-])ccc4F)c4nc(c(-c5cc(S(=O)(=O)[O-])ccc5F)c5ccc2[nH]5)C=C4)C=C3)cc1
REMARK SMILES IDX 21 1 20 2 19 3 17 4 18 5 16 7 1 8 2 9 3 10 4 11 15 12 5 13
REMARK SMILES IDX 6 14 7 15 8 17 9 18 10 19 13 20 11 21 12 22 14 23 22 24
REMARK SMILES IDX 23 25 24 26 25 27 26 29 27 30 28 31 89 32 29 33 88 34 30 35
REMARK SMILES IDX 31 36 32 37 82 38 33 39 87 40 81 41 83 42 34 43 86 44 80 45
REMARK SMILES IDX 79 46 35 48 67 49 47 50 66 51 48 52 51 53 65 54 84 55 49 56
REMARK SMILES IDX 50 57 64 59 85 60 52 61 36 62 37 63 45 64 38 65 44 66 46 67
REMARK SMILES IDX 43 68 39 69 40 70 41 71 42 72 68 73 69 74 77 75 70 76 76 77
REMARK SMILES IDX 78 78 75 79 71 80 72 81 73 82 74 83 53 84 54 85 62 86 55 87
REMARK SMILES IDX 61 88 63 89 60 90 56 91 57 92 58 93 59 94
REMARK H PARENT 19 6 6 16 24 28 83 47 51 58
REMARK Flexibility Score: inf
ROOT
ATOM      1  C   UNL A   1      32.572  29.618  27.247  1.00  0.00     0.023 C 
ENDROOT
BRANCH   1   2
ATOM      2  C   UNL A   1      33.926  29.235  26.650  1.00  0.00     0.116 C 
BRANCH   2   3
ATOM      3  N   UNL A   1      34.043  27.802  26.538  1.00  0.00    -0.352 N 
ATOM      4  C   UNL A   1      33.277  26.845  25.938  1.00  0.00     0.254 C 
ATOM      5  O   UNL A   1      33.723  25.696  26.010  1.00  0.00    -0.269 OA
ATOM      6  H   UNL A   1      34.840  27.439  26.989  1.00  0.00     0.163 HD
BRANCH   4   7
ATOM      7  C   UNL A   1      32.043  27.088  25.187  1.00  0.00     0.081 A 
ATOM      8  C   UNL A   1      29.984  25.536  25.933  1.00  0.00     0.088 C 
ATOM      9  C   UNL A   1      30.749  26.571  25.206  1.00  0.00     0.113 A 
ATOM     10  O   UNL A   1      29.991  27.161  24.234  1.00  0.00    -0.464 OA
ATOM     11  C   UNL A   1      30.776  28.011  23.532  1.00  0.00     0.124 A 
ATOM     12  C   UNL A   1      32.035  28.010  24.074  1.00  0.00     0.061 A 
BRANCH  11  13
ATOM     13  C   UNL A   1      30.148  28.724  22.398  1.00  0.00     0.191 C 
BRANCH  13  14
ATOM     14  N   UNL A   1      28.706  28.620  22.511  1.00  0.00    -0.343 N 
ATOM     15  C   UNL A   1      27.796  29.606  22.784  1.00  0.00     0.269 C 
ATOM     16  H   UNL A   1      28.331  27.721  22.371  1.00  0.00     0.164 HD
ATOM     17  O   UNL A   1      26.645  29.282  23.066  1.00  0.00    -0.268 OA
BRANCH  15  18
ATOM     18  C   UNL A   1      28.225  30.977  22.734  1.00  0.00     0.125 A 
ATOM     19  C   UNL A   1      28.602  31.791  23.786  1.00  0.00     0.055 A 
ATOM     20  N   UNL A   1      28.254  31.790  21.630  1.00  0.00    -0.263 N 
ATOM     21  C   UNL A   1      28.922  33.026  23.203  1.00  0.00     0.136 A 
ATOM     22  N   UNL A   1      28.730  33.027  21.883  1.00  0.00    -0.181 NA
ATOM     23  C   UNL A   1      27.834  31.477  20.283  1.00  0.00     0.174 C 
ENDBRANCH  15  18
ENDBRANCH  13  14
ENDBRANCH  11  13
ENDBRANCH   4   7
ENDBRANCH   2   3
ENDBRANCH   1   2
BRANCH   1  24
ATOM     24  C   UNL A   1      32.174  31.086  27.061  1.00  0.00     0.023 C 
BRANCH  24  25
ATOM     25  C   UNL A   1      33.315  32.090  27.187  1.00  0.00     0.116 C 
BRANCH  25  26
ATOM     26  N   UNL A   1      32.865  33.425  27.543  1.00  0.00    -0.352 N 
ATOM     27  C   UNL A   1      33.348  34.258  28.524  1.00  0.00     0.251 C 
ATOM     28  H   UNL A   1      32.117  33.781  27.011  1.00  0.00     0.163 HD
ATOM     29  O   UNL A   1      32.779  35.319  28.757  1.00  0.00    -0.269 OA
BRANCH  27  30
ATOM     30  C   UNL A   1      34.515  33.839  29.331  1.00  0.00     0.039 A 
ATOM     31  C   UNL A   1      34.304  32.970  30.406  1.00  0.00     0.014 A 
ATOM     32  C   UNL A   1      35.803  34.283  29.023  1.00  0.00     0.014 A 
ATOM     33  C   UNL A   1      35.396  32.485  31.128  1.00  0.00     0.010 A 
ATOM     34  C   UNL A   1      36.894  33.766  29.716  1.00  0.00     0.010 A 
ATOM     35  C   UNL A   1      36.700  32.855  30.766  1.00  0.00    -0.014 A 
BRANCH  35  36
ATOM     36  C   UNL A   1      37.879  32.288  31.462  1.00  0.00     0.031 A 
ATOM     37  C   UNL A   1      38.685  31.202  30.813  1.00  0.00     0.074 A 
ATOM     38  C   UNL A   1      38.159  32.691  32.716  1.00  0.00     0.049 A 
ATOM     39  N   UNL A   1      39.670  30.496  31.304  1.00  0.00    -0.248 NA
ATOM     40  C   UNL A   1      38.306  30.843  29.440  1.00  0.00     0.031 C 
ATOM     41  C   UNL A   1      37.412  33.702  33.468  1.00  0.00     0.029 A 
ATOM     42  N   UNL A   1      39.134  32.280  33.587  1.00  0.00    -0.354 N 
ATOM     43  C   UNL A   1      40.014  29.586  30.311  1.00  0.00     0.074 A 
ATOM     44  C   UNL A   1      39.110  29.817  29.201  1.00  0.00     0.031 C 
ATOM     45  C   UNL A   1      37.955  33.829  34.690  1.00  0.00     0.029 A 
ATOM     46  C   UNL A   1      39.069  32.896  34.814  1.00  0.00     0.049 A 
ATOM     47  H   UNL A   1      39.815  31.608  33.357  1.00  0.00     0.167 HD
ATOM     48  C   UNL A   1      40.994  28.650  30.323  1.00  0.00     0.034 A 
ATOM     49  C   UNL A   1      39.817  32.718  35.919  1.00  0.00     0.034 A 
ATOM     50  C   UNL A   1      41.901  28.445  31.426  1.00  0.00     0.049 A 
ATOM     51  C   UNL A   1      40.937  31.717  35.889  1.00  0.00     0.074 A 
ATOM     52  C   UNL A   1      42.961  27.561  31.526  1.00  0.00     0.029 A 
ATOM     53  N   UNL A   1      41.851  29.141  32.627  1.00  0.00    -0.354 N 
ATOM     54  N   UNL A   1      41.270  30.883  34.932  1.00  0.00    -0.248 NA
ATOM     55  C   UNL A   1      41.789  31.643  37.084  1.00  0.00     0.031 C 
ATOM     56  C   UNL A   1      43.534  27.702  32.798  1.00  0.00     0.029 A 
ATOM     57  C   UNL A   1      42.854  28.701  33.476  1.00  0.00     0.049 A 
ATOM     58  H   UNL A   1      41.197  29.844  32.843  1.00  0.00     0.167 HD
ATOM     59  C   UNL A   1      42.382  30.195  35.404  1.00  0.00     0.074 A 
ATOM     60  C   UNL A   1      42.665  30.714  36.727  1.00  0.00     0.031 C 
ATOM     61  C   UNL A   1      43.110  29.226  34.794  1.00  0.00     0.034 A 
BRANCH  48  62
ATOM     62  C   UNL A   1      41.099  27.759  29.111  1.00  0.00     0.023 A 
ATOM     63  C   UNL A   1      42.104  27.947  28.147  1.00  0.00     0.031 A 
ATOM     64  C   UNL A   1      40.143  26.754  28.886  1.00  0.00     0.131 A 
ATOM     65  C   UNL A   1      42.081  27.197  26.961  1.00  0.00     0.055 A 
ATOM     66  C   UNL A   1      40.168  25.961  27.737  1.00  0.00     0.041 A 
ATOM     67  F   UNL A   1      39.150  26.546  29.765  1.00  0.00    -0.206 F 
ATOM     68  C   UNL A   1      41.133  26.192  26.759  1.00  0.00     0.022 A 
BRANCH  65  69
ATOM     69  S   UNL A   1      43.224  27.655  25.628  1.00  0.00     0.124 S 
ATOM     70  O   UNL A   1      42.298  28.094  24.586  1.00  0.00    -0.237 OA
ATOM     71  O   UNL A   1      44.032  28.698  26.248  1.00  0.00    -0.237 OA
ATOM     72  O   UNL A   1      43.928  26.407  25.339  1.00  0.00    -0.744 OA
ENDBRANCH  65  69
ENDBRANCH  48  62
BRANCH  49  73
ATOM     73  C   UNL A   1      39.526  33.498  37.147  1.00  0.00     0.023 A 
ATOM     74  C   UNL A   1      38.860  32.910  38.233  1.00  0.00     0.031 A 
ATOM     75  C   UNL A   1      39.908  34.847  37.245  1.00  0.00     0.131 A 
ATOM     76  C   UNL A   1      38.567  33.680  39.369  1.00  0.00     0.055 A 
ATOM     77  C   UNL A   1      39.636  35.602  38.387  1.00  0.00     0.041 A 
ATOM     78  F   UNL A   1      40.563  35.441  36.236  1.00  0.00    -0.206 F 
ATOM     79  C   UNL A   1      38.955  35.020  39.454  1.00  0.00     0.022 A 
BRANCH  76  80
ATOM     80  S   UNL A   1      37.641  32.907  40.725  1.00  0.00     0.124 S 
ATOM     81  O   UNL A   1      37.980  33.770  41.851  1.00  0.00    -0.237 OA
ATOM     82  O   UNL A   1      36.267  32.993  40.242  1.00  0.00    -0.237 OA
ATOM     83  O   UNL A   1      38.193  31.555  40.786  1.00  0.00    -0.744 OA
ENDBRANCH  76  80
ENDBRANCH  49  73
BRANCH  61  84
ATOM     84  C   UNL A   1      44.300  28.707  35.549  1.00  0.00     0.023 A 
ATOM     85  C   UNL A   1      44.177  27.663  36.481  1.00  0.00     0.031 A 
ATOM     86  C   UNL A   1      45.564  29.285  35.350  1.00  0.00     0.131 A 
ATOM     87  C   UNL A   1      45.300  27.251  37.212  1.00  0.00     0.055 A 
ATOM     88  C   UNL A   1      46.686  28.850  36.056  1.00  0.00     0.041 A 
ATOM     89  F   UNL A   1      45.725  30.288  34.471  1.00  0.00    -0.206 F 
ATOM     90  C   UNL A   1      46.555  27.832  36.999  1.00  0.00     0.022 A 
BRANCH  87  91
ATOM     91  S   UNL A   1      45.092  25.975  38.486  1.00  0.00     0.124 S 
ATOM     92  O   UNL A   1      44.290  24.975  37.788  1.00  0.00    -0.237 OA
ATOM     93  O   UNL A   1      46.472  25.595  38.777  1.00  0.00    -0.237 OA
ATOM     94  O   UNL A   1      44.405  26.677  39.567  1.00  0.00    -0.744 OA
ENDBRANCH  87  91
ENDBRANCH  61  84
ENDBRANCH  35  36
ENDBRANCH  27  30
ENDBRANCH  25  26
ENDBRANCH  24  25
ENDBRANCH   1  24
TORSDOF 17
ENDMDL
MODEL 2
REMARK VINA RESULT:     -11.8      3.648      9.212
REMARK SMILES Cc1oc(CNC(=O)c2ccnn2C)cc1C(=O)NCCCCNC(=O)c1ccc(-c2c3nc(c(-c4cc(S(=O)(=O)[O-])ccc4F)c4ccc([nH]4)c(-c4cc(S(=O)(=O)[O-])ccc4F)c4nc(c(-c5cc(S(=O)(=O)[O-])ccc5F)c5ccc2[nH]5)C=C4)C=C3)cc1
REMARK SMILES IDX 21 1 20 2 19 3 17 4 18 5 16 7 1 8 2 9 3 10 4 11 15 12 5 13
REMARK SMILES IDX 6 14 7 15 8 17 9 18 10 19 13 20 11 21 12 22 14 23 22 24
REMARK SMILES IDX 23 25 24 26 25 27 26 29 27 30 28 31 89 32 29 33 88 34 30 35
REMARK SMILES IDX 31 36 32 37 82 38 33 39 87 40 81 41 83 42 34 43 86 44 80 45
REMARK SMILES IDX 79 46 35 48 67 49 47 50 66 51 48 52 51 53 65 54 84 55 49 56
REMARK SMILES IDX 50 57 64 59 85 60 52 61 36 62 37 63 45 64 38 65 44 66 46 67
REMARK SMILES IDX 43 68 39 69 40 70 41 71 42 72 68 73 69 74 77 75 70 76 76 77
REMARK SMILES IDX 78 78 75 79 71 80 72 81 73 82 74 83 53 84 54 85 62 86 55 87
REMARK SMILES IDX 61 88 63 89 60 90 56 91 57 92 58 93 59 94
REMARK H PARENT 19 6 6 16 24 28 83 47 51 58
REMARK Flexibility Score: inf
ROOT
ATOM      1  C   UNL A   1      33.348  29.221  24.296  1.00  0.00     0.023 C 
ENDROOT
BRANCH   1   2
ATOM      2  C   UNL A   1      33.268  28.849  22.816  1.00  0.00     0.116 C 
BRANCH   2   3
ATOM      3  N   UNL A   1      31.894  28.774  22.386  1.00  0.00    -0.352 N 
ATOM      4  C   UNL A   1      30.938  27.802  22.474  1.00  0.00     0.254 C 
ATOM      5  O   UNL A   1      29.831  28.116  22.025  1.00  0.00    -0.269 OA
ATOM      6  H   UNL A   1      31.580  29.591  21.936  1.00  0.00     0.163 HD
BRANCH   4   7
ATOM      7  C   UNL A   1      31.113  26.490  23.099  1.00  0.00     0.081 A 
ATOM      8  C   UNL A   1      30.513  26.435  25.715  1.00  0.00     0.088 C 
ATOM      9  C   UNL A   1      30.929  25.965  24.376  1.00  0.00     0.113 A 
ATOM     10  O   UNL A   1      31.290  24.647  24.401  1.00  0.00    -0.464 OA
ATOM     11  C   UNL A   1      31.767  24.308  23.181  1.00  0.00     0.124 A 
ATOM     12  C   UNL A   1      31.677  25.392  22.348  1.00  0.00     0.061 A 
BRANCH  11  13
ATOM     13  C   UNL A   1      32.254  22.921  23.012  1.00  0.00     0.191 C 
BRANCH  13  14
ATOM     14  N   UNL A   1      33.636  22.951  22.576  1.00  0.00    -0.343 N 
ATOM     15  C   UNL A   1      34.772  23.036  23.336  1.00  0.00     0.269 C 
ATOM     16  H   UNL A   1      33.778  22.903  21.602  1.00  0.00     0.164 HD
ATOM     17  O   UNL A   1      35.838  23.281  22.776  1.00  0.00    -0.268 OA
BRANCH  15  18
ATOM     18  C   UNL A   1      34.670  22.839  24.756  1.00  0.00     0.125 A 
ATOM     19  C   UNL A   1      34.544  23.800  25.742  1.00  0.00     0.055 A 
ATOM     20  N   UNL A   1      34.775  21.651  25.432  1.00  0.00    -0.263 N 
ATOM     21  C   UNL A   1      34.491  23.087  26.949  1.00  0.00     0.136 A 
ATOM     22  N   UNL A   1      34.613  21.772  26.765  1.00  0.00    -0.181 NA
ATOM     23  C   UNL A   1      35.046  20.339  24.888  1.00  0.00     0.174 C 
ENDBRANCH  15  18
ENDBRANCH  13  14
ENDBRANCH  11  13
ENDBRANCH   4   7
ENDBRANCH   2   3
ENDBRANCH   1   2
BRANCH   1  24
ATOM     24  C   UNL A   1      33.830  28.098  25.221  1.00  0.00     0.023 C 
BRANCH  24  25
ATOM     25  C   UNL A   1      34.009  28.492  26.684  1.00  0.00     0.116 C 
BRANCH  25  26
ATOM     26  N   UNL A   1      33.714  29.892  26.939  1.00  0.00    -0.352 N 
ATOM     27  C   UNL A   1      34.440  30.800  27.672  1.00  0.00     0.251 C 
ATOM     28  H   UNL A   1      32.885  30.236  26.534  1.00  0.00     0.163 HD
ATOM     29  O   UNL A   1      33.989  31.923  27.870  1.00  0.00    -0.269 OA
BRANCH  27  30
ATOM     30  C   UNL A   1      35.735  30.396  28.263  1.00  0.00     0.039 A 
ATOM     31  C   UNL A   1      35.730  29.778  29.518  1.00  0.00     0.014 A 
ATOM     32  C   UNL A   1      36.937  30.606  27.583  1.00  0.00     0.014 A 
ATOM     33  C   UNL A   1      36.926  29.303  30.060  1.00  0.00     0.010 A 
ATOM     34  C   UNL A   1      38.122  30.095  28.105  1.00  0.00     0.010 A 
ATOM     35  C   UNL A   1      38.124  29.429  29.341  1.00  0.00    -0.014 A 
BRANCH  35  36
ATOM     36  C   UNL A   1      39.390  28.859  29.856  1.00  0.00     0.031 A 
ATOM     37  C   UNL A   1      40.101  29.519  31.002  1.00  0.00     0.074 A 
ATOM     38  C   UNL A   1      39.942  27.804  29.227  1.00  0.00     0.049 A 
ATOM     39  N   UNL A   1      41.272  29.249  31.516  1.00  0.00    -0.248 NA
ATOM     40  C   UNL A   1      39.411  30.655  31.627  1.00  0.00     0.031 C 
ATOM     41  C   UNL A   1      39.368  27.114  28.070  1.00  0.00     0.029 A 
ATOM     42  N   UNL A   1      41.120  27.144  29.459  1.00  0.00    -0.354 N 
ATOM     43  C   UNL A   1      41.477  30.200  32.508  1.00  0.00     0.074 A 
ATOM     44  C   UNL A   1      40.315  31.068  32.502  1.00  0.00     0.031 C 
ATOM     45  C   UNL A   1      40.199  26.128  27.691  1.00  0.00     0.029 A 
ATOM     46  C   UNL A   1      41.369  26.134  28.562  1.00  0.00     0.049 A 
ATOM     47  H   UNL A   1      41.729  27.372  30.198  1.00  0.00     0.167 HD
ATOM     48  C   UNL A   1      42.532  30.333  33.350  1.00  0.00     0.034 A 
ATOM     49  C   UNL A   1      42.430  25.312  28.447  1.00  0.00     0.034 A 
ATOM     50  C   UNL A   1      43.671  29.449  33.359  1.00  0.00     0.049 A 
ATOM     51  C   UNL A   1      43.561  25.439  29.428  1.00  0.00     0.074 A 
ATOM     52  C   UNL A   1      44.772  29.459  34.199  1.00  0.00     0.029 A 
ATOM     53  N   UNL A   1      43.855  28.389  32.481  1.00  0.00    -0.354 N 
ATOM     54  N   UNL A   1      43.728  26.325  30.381  1.00  0.00    -0.248 NA
ATOM     55  C   UNL A   1      44.639  24.446  29.323  1.00  0.00     0.031 C 
ATOM     56  C   UNL A   1      45.634  28.424  33.810  1.00  0.00     0.029 A 
ATOM     57  C   UNL A   1      45.052  27.745  32.752  1.00  0.00     0.049 A 
ATOM     58  H   UNL A   1      43.225  28.133  31.768  1.00  0.00     0.167 HD
ATOM     59  C   UNL A   1      44.925  25.986  31.002  1.00  0.00     0.074 A 
ATOM     60  C   UNL A   1      45.435  24.814  30.319  1.00  0.00     0.031 C 
ATOM     61  C   UNL A   1      45.543  26.586  32.050  1.00  0.00     0.034 A 
BRANCH  48  62
ATOM     62  C   UNL A   1      42.503  31.504  34.297  1.00  0.00     0.023 A 
ATOM     63  C   UNL A   1      41.695  31.498  35.448  1.00  0.00     0.031 A 
ATOM     64  C   UNL A   1      43.242  32.665  34.012  1.00  0.00     0.131 A 
ATOM     65  C   UNL A   1      41.579  32.661  36.225  1.00  0.00     0.055 A 
ATOM     66  C   UNL A   1      43.179  33.795  34.829  1.00  0.00     0.041 A 
ATOM     67  F   UNL A   1      44.013  32.732  32.915  1.00  0.00    -0.206 F 
ATOM     68  C   UNL A   1      42.331  33.802  35.935  1.00  0.00     0.022 A 
BRANCH  65  69
ATOM     69  S   UNL A   1      40.325  32.703  37.534  1.00  0.00     0.124 S 
ATOM     70  O   UNL A   1      41.115  32.345  38.710  1.00  0.00    -0.237 OA
ATOM     71  O   UNL A   1      39.853  34.082  37.476  1.00  0.00    -0.237 OA
ATOM     72  O   UNL A   1      39.356  31.693  37.112  1.00  0.00    -0.744 OA
ENDBRANCH  65  69
ENDBRANCH  48  62
BRANCH  49  73
ATOM     73  C   UNL A   1      42.476  24.305  27.358  1.00  0.00     0.023 A 
ATOM     74  C   UNL A   1      41.693  23.143  27.418  1.00  0.00     0.031 A 
ATOM     75  C   UNL A   1      43.312  24.493  26.244  1.00  0.00     0.131 A 
ATOM     76  C   UNL A   1      41.781  22.191  26.391  1.00  0.00     0.055 A 
ATOM     77  C   UNL A   1      43.379  23.556  25.213  1.00  0.00     0.041 A 
ATOM     78  F   UNL A   1      44.064  25.600  26.140  1.00  0.00    -0.206 F 
ATOM     79  C   UNL A   1      42.615  22.393  25.287  1.00  0.00     0.022 A 
BRANCH  76  80
ATOM     80  S   UNL A   1      40.807  20.666  26.536  1.00  0.00     0.124 S 
ATOM     81  O   UNL A   1      40.916  20.374  27.961  1.00  0.00    -0.237 OA
ATOM     82  O   UNL A   1      39.495  21.098  26.067  1.00  0.00    -0.237 OA
ATOM     83  O   UNL A   1      41.504  19.733  25.652  1.00  0.00    -0.744 OA
ENDBRANCH  76  80
ENDBRANCH  49  73
BRANCH  61  84
ATOM     84  C   UNL A   1      46.814  25.947  32.532  1.00  0.00     0.023 A 
ATOM     85  C   UNL A   1      46.802  24.946  33.518  1.00  0.00     0.031 A 
ATOM     86  C   UNL A   1      48.051  26.366  32.014  1.00  0.00     0.131 A 
ATOM     87  C   UNL A   1      48.014  24.420  33.986  1.00  0.00     0.055 A 
ATOM     88  C   UNL A   1      49.253  25.816  32.460  1.00  0.00     0.041 A 
ATOM     89  F   UNL A   1      48.108  27.322  31.073  1.00  0.00    -0.206 F 
ATOM     90  C   UNL A   1      49.239  24.843  33.458  1.00  0.00     0.022 A 
BRANCH  87  91
ATOM     91  S   UNL A   1      47.975  23.207  35.335  1.00  0.00     0.124 S 
ATOM     92  O   UNL A   1      49.073  23.659  36.185  1.00  0.00    -0.237 OA
ATOM     93  O   UNL A   1      46.633  23.386  35.880  1.00  0.00    -0.237 OA
ATOM     94  O   UNL A   1      48.200  21.932  34.658  1.00  0.00    -0.744 OA
ENDBRANCH  87  91
ENDBRANCH  61  84
ENDBRANCH  35  36
ENDBRANCH  27  30
ENDBRANCH  25  26
ENDBRANCH  24  25
ENDBRANCH   1  24
TORSDOF 17
ENDMDL
MODEL 3
REMARK VINA RESULT:     -11.8      2.147      3.876
REMARK SMILES Cc1oc(CNC(=O)c2ccnn2C)cc1C(=O)NCCCCNC(=O)c1ccc(-c2c3nc(c(-c4cc(S(=O)(=O)[O-])ccc4F)c4ccc([nH]4)c(-c4cc(S(=O)(=O)[O-])ccc4F)c4nc(c(-c5cc(S(=O)(=O)[O-])ccc5F)c5ccc2[nH]5)C=C4)C=C3)cc1
REMARK SMILES IDX 21 1 20 2 19 3 17 4 18 5 16 7 1 8 2 9 3 10 4 11 15 12 5 13
REMARK SMILES IDX 6 14 7 15 8 17 9 18 10 19 13 20 11 21 12 22 14 23 22 24
REMARK SMILES IDX 23 25 24 26 25 27 26 29 27 30 28 31 89 32 29 33 88 34 30 35
REMARK SMILES IDX 31 36 32 37 82 38 33 39 87 40 81 41 83 42 34 43 86 44 80 45
REMARK SMILES IDX 79 46 35 48 67 49 47 50 66 51 48 52 51 53 65 54 84 55 49 56
REMARK SMILES IDX 50 57 64 59 85 60 52 61 36 62 37 63 45 64 38 65 44 66 46 67
REMARK SMILES IDX 43 68 39 69 40 70 41 71 42 72 68 73 69 74 77 75 70 76 76 77
REMARK SMILES IDX 78 78 75 79 71 80 72 81 73 82 74 83 53 84 54 85 62 86 55 87
REMARK SMILES IDX 61 88 63 89 60 90 56 91 57 92 58 93 59 94
REMARK H PARENT 19 6 6 16 24 28 83 47 51 58
REMARK Flexibility Score: inf
ROOT
ATOM      1  C   UNL A   1      31.360  30.623  25.759  1.00  0.00     0.023 C 
ENDROOT
BRANCH   1   2
ATOM      2  C   UNL A   1      32.667  29.861  25.987  1.00  0.00     0.116 C 
BRANCH   2   3
ATOM      3  N   UNL A   1      33.378  29.693  24.744  1.00  0.00    -0.352 N 
ATOM      4  C   UNL A   1      33.173  28.905  23.648  1.00  0.00     0.254 C 
ATOM      5  O   UNL A   1      33.984  29.066  22.730  1.00  0.00    -0.269 OA
ATOM      6  H   UNL A   1      34.178  30.263  24.672  1.00  0.00     0.163 HD
BRANCH   4   7
ATOM      7  C   UNL A   1      32.063  27.968  23.468  1.00  0.00     0.081 A 
ATOM      8  C   UNL A   1      29.870  29.065  22.374  1.00  0.00     0.088 C 
ATOM      9  C   UNL A   1      30.771  28.045  22.953  1.00  0.00     0.113 A 
ATOM     10  O   UNL A   1      30.144  26.835  23.067  1.00  0.00    -0.464 OA
ATOM     11  C   UNL A   1      30.975  25.980  23.706  1.00  0.00     0.124 A 
ATOM     12  C   UNL A   1      32.160  26.616  23.968  1.00  0.00     0.061 A 
BRANCH  11  13
ATOM     13  C   UNL A   1      30.462  24.616  23.968  1.00  0.00     0.191 C 
BRANCH  13  14
ATOM     14  N   UNL A   1      30.314  24.430  25.399  1.00  0.00    -0.343 N 
ATOM     15  C   UNL A   1      30.882  23.477  26.201  1.00  0.00     0.269 C 
ATOM     16  H   UNL A   1      29.727  25.077  25.854  1.00  0.00     0.164 HD
ATOM     17  O   UNL A   1      30.454  23.341  27.345  1.00  0.00    -0.268 OA
BRANCH  15  18
ATOM     18  C   UNL A   1      31.948  22.673  25.671  1.00  0.00     0.125 A 
ATOM     19  C   UNL A   1      31.880  21.383  25.180  1.00  0.00     0.055 A 
ATOM     20  N   UNL A   1      33.281  22.994  25.636  1.00  0.00    -0.263 N 
ATOM     21  C   UNL A   1      33.190  21.062  24.796  1.00  0.00     0.136 A 
ATOM     22  N   UNL A   1      34.049  22.049  25.055  1.00  0.00    -0.181 NA
ATOM     23  C   UNL A   1      33.924  24.183  26.148  1.00  0.00     0.174 C 
ENDBRANCH  15  18
ENDBRANCH  13  14
ENDBRANCH  11  13
ENDBRANCH   4   7
ENDBRANCH   2   3
ENDBRANCH   1   2
BRANCH   1  24
ATOM     24  C   UNL A   1      31.252  31.959  26.501  1.00  0.00     0.023 C 
BRANCH  24  25
ATOM     25  C   UNL A   1      32.577  32.555  26.965  1.00  0.00     0.116 C 
BRANCH  25  26
ATOM     26  N   UNL A   1      32.431  33.862  27.582  1.00  0.00    -0.352 N 
ATOM     27  C   UNL A   1      33.207  34.440  28.558  1.00  0.00     0.251 C 
ATOM     28  H   UNL A   1      31.677  34.407  27.258  1.00  0.00     0.163 HD
ATOM     29  O   UNL A   1      32.877  35.518  29.040  1.00  0.00    -0.269 OA
BRANCH  27  30
ATOM     30  C   UNL A   1      34.403  33.727  29.060  1.00  0.00     0.039 A 
ATOM     31  C   UNL A   1      35.664  34.260  28.774  1.00  0.00     0.014 A 
ATOM     32  C   UNL A   1      34.283  32.559  29.817  1.00  0.00     0.014 A 
ATOM     33  C   UNL A   1      36.806  33.661  29.311  1.00  0.00     0.010 A 
ATOM     34  C   UNL A   1      35.419  31.988  30.386  1.00  0.00     0.010 A 
ATOM     35  C   UNL A   1      36.686  32.541  30.147  1.00  0.00    -0.014 A 
BRANCH  35  36
ATOM     36  C   UNL A   1      37.874  31.940  30.796  1.00  0.00     0.031 A 
ATOM     37  C   UNL A   1      38.684  30.905  30.071  1.00  0.00     0.074 A 
ATOM     38  C   UNL A   1      38.162  32.261  32.072  1.00  0.00     0.049 A 
ATOM     39  N   UNL A   1      39.678  30.177  30.506  1.00  0.00    -0.248 NA
ATOM     40  C   UNL A   1      38.297  30.634  28.679  1.00  0.00     0.031 C 
ATOM     41  C   UNL A   1      37.413  33.214  32.894  1.00  0.00     0.029 A 
ATOM     42  N   UNL A   1      39.146  31.802  32.907  1.00  0.00    -0.354 N 
ATOM     43  C   UNL A   1      40.021  29.337  29.453  1.00  0.00     0.074 A 
ATOM     44  C   UNL A   1      39.106  29.633  28.368  1.00  0.00     0.031 C 
ATOM     45  C   UNL A   1      37.965  33.265  34.118  1.00  0.00     0.029 A 
ATOM     46  C   UNL A   1      39.087  32.335  34.172  1.00  0.00     0.049 A 
ATOM     47  H   UNL A   1      39.830  31.151  32.627  1.00  0.00     0.167 HD
ATOM     48  C   UNL A   1      41.009  28.410  29.396  1.00  0.00     0.034 A 
ATOM     49  C   UNL A   1      39.845  32.090  35.257  1.00  0.00     0.034 A 
ATOM     50  C   UNL A   1      41.925  28.140  30.477  1.00  0.00     0.049 A 
ATOM     51  C   UNL A   1      40.972  31.103  35.153  1.00  0.00     0.074 A 
ATOM     52  C   UNL A   1      42.993  27.260  30.511  1.00  0.00     0.029 A 
ATOM     53  N   UNL A   1      41.880  28.755  31.721  1.00  0.00    -0.354 N 
ATOM     54  N   UNL A   1      41.304  30.336  34.140  1.00  0.00    -0.248 NA
ATOM     55  C   UNL A   1      41.834  30.957  36.334  1.00  0.00     0.031 C 
ATOM     56  C   UNL A   1      43.575  27.322  31.785  1.00  0.00     0.029 A 
ATOM     57  C   UNL A   1      42.893  28.268  32.532  1.00  0.00     0.049 A 
ATOM     58  H   UNL A   1      41.222  29.437  31.989  1.00  0.00     0.167 HD
ATOM     59  C   UNL A   1      42.425  29.628  34.557  1.00  0.00     0.074 A 
ATOM     60  C   UNL A   1      42.714  30.060  35.910  1.00  0.00     0.031 C 
ATOM     61  C   UNL A   1      43.154  28.707  33.880  1.00  0.00     0.034 A 
BRANCH  48  62
ATOM     62  C   UNL A   1      41.111  27.602  28.128  1.00  0.00     0.023 A 
ATOM     63  C   UNL A   1      40.694  26.260  28.077  1.00  0.00     0.031 A 
ATOM     64  C   UNL A   1      41.692  28.160  26.976  1.00  0.00     0.131 A 
ATOM     65  C   UNL A   1      40.941  25.497  26.926  1.00  0.00     0.055 A 
ATOM     66  C   UNL A   1      41.869  27.415  25.809  1.00  0.00     0.041 A 
ATOM     67  F   UNL A   1      42.126  29.430  26.977  1.00  0.00    -0.206 F 
ATOM     68  C   UNL A   1      41.507  26.070  25.785  1.00  0.00     0.022 A 
BRANCH  65  69
ATOM     69  S   UNL A   1      40.642  23.709  26.995  1.00  0.00     0.124 S 
ATOM     70  O   UNL A   1      41.605  23.212  26.015  1.00  0.00    -0.237 OA
ATOM     71  O   UNL A   1      40.927  23.393  28.390  1.00  0.00    -0.237 OA
ATOM     72  O   UNL A   1      39.240  23.582  26.600  1.00  0.00    -0.744 OA
ENDBRANCH  65  69
ENDBRANCH  48  62
BRANCH  49  73
ATOM     73  C   UNL A   1      39.558  32.785  36.536  1.00  0.00     0.023 A 
ATOM     74  C   UNL A   1      38.592  32.289  37.425  1.00  0.00     0.031 A 
ATOM     75  C   UNL A   1      40.244  33.963  36.881  1.00  0.00     0.131 A 
ATOM     76  C   UNL A   1      38.317  32.984  38.612  1.00  0.00     0.055 A 
ATOM     77  C   UNL A   1      39.983  34.638  38.074  1.00  0.00     0.041 A 
ATOM     78  F   UNL A   1      41.187  34.461  36.066  1.00  0.00    -0.206 F 
ATOM     79  C   UNL A   1      39.010  34.152  38.944  1.00  0.00     0.022 A 
BRANCH  76  80
ATOM     80  S   UNL A   1      37.012  32.352  39.704  1.00  0.00     0.124 S 
ATOM     81  O   UNL A   1      37.490  31.005  39.996  1.00  0.00    -0.237 OA
ATOM     82  O   UNL A   1      37.056  33.302  40.811  1.00  0.00    -0.237 OA
ATOM     83  O   UNL A   1      35.811  32.422  38.875  1.00  0.00    -0.744 OA
ENDBRANCH  76  80
ENDBRANCH  49  73
BRANCH  61  84
ATOM     84  C   UNL A   1      44.354  28.149  34.590  1.00  0.00     0.023 A 
ATOM     85  C   UNL A   1      44.243  27.062  35.473  1.00  0.00     0.031 A 
ATOM     86  C   UNL A   1      45.618  28.733  34.399  1.00  0.00     0.131 A 
ATOM     87  C   UNL A   1      45.375  26.612  36.165  1.00  0.00     0.055 A 
ATOM     88  C   UNL A   1      46.748  28.261  35.066  1.00  0.00     0.041 A 
ATOM     89  F   UNL A   1      45.768  29.776  33.567  1.00  0.00    -0.206 F 
ATOM     90  C   UNL A   1      46.629  27.199  35.961  1.00  0.00     0.022 A 
BRANCH  87  91
ATOM     91  S   UNL A   1      45.183  25.277  37.380  1.00  0.00     0.124 S 
ATOM     92  O   UNL A   1      46.568  24.994  37.745  1.00  0.00    -0.237 OA
ATOM     93  O   UNL A   1      44.367  25.908  38.413  1.00  0.00    -0.237 OA
ATOM     94  O   UNL A   1      44.512  24.220  36.625  1.00  0.00    -0.744 OA
ENDBRANCH  87  91
ENDBRANCH  61  84
ENDBRANCH  35  36
ENDBRANCH  27  30
ENDBRANCH  25  26
ENDBRANCH  24  25
ENDBRANCH   1  24
TORSDOF 17
ENDMDL
