MODEL 1
REMARK VINA RESULT:     -13.0      0.000      0.000
REMARK SMILES COc1cccc([C@H](CC(=O)NCCCCNC(=O)c2ccc(-c3c4nc(c(-c5cc(S(=O)(=O)[O-])ccc5F)c5ccc([nH]5)c(-c5cc(S(=O)(=O)[O-])ccc5F)c5nc(c(-c6cc(S(=O)(=O)[O-])ccc6F)c6ccc3[nH]6)C=C5)C=C4)cc2)NS(=O)(=O)c2ccc3c(c2)C[C@@H](C)N3C(C)=O)c1
REMARK SMILES IDX 13 1 12 2 10 3 11 4 9 6 8 7 7 8 3 9 4 10 100 11 5 12 6 13
REMARK SMILES IDX 2 14 1 15 83 16 84 18 85 19 86 20 87 21 88 22 92 23 89 24
REMARK SMILES IDX 91 25 90 26 93 27 96 28 94 29 95 30 97 31 98 32 99 33 14 34
REMARK SMILES IDX 15 35 16 36 17 37 18 38 19 40 20 41 21 42 82 43 22 44 81 45
REMARK SMILES IDX 23 46 24 47 25 48 75 49 26 50 80 51 74 52 76 53 27 54 79 55
REMARK SMILES IDX 73 56 72 57 28 59 60 60 40 61 59 62 41 63 44 64 58 65 77 66
REMARK SMILES IDX 42 67 43 68 57 70 78 71 45 72 29 73 30 74 38 75 31 76 37 77
REMARK SMILES IDX 39 78 36 79 32 80 33 81 34 82 35 83 61 84 62 85 70 86 63 87
REMARK SMILES IDX 69 88 71 89 68 90 64 91 65 92 66 93 67 94 46 95 47 96 55 97
REMARK SMILES IDX 48 98 54 99 56 100 53 101 49 102 50 103 51 104 52 105
REMARK H PARENT 12 5 83 17 17 39 76 58 44 69
REMARK Flexibility Score: inf
ROOT
ATOM      1  C   UNL A   1      33.773  27.276  25.149  1.00  0.00     0.116 C 
ENDROOT
BRANCH   1   2
ATOM      2  N   UNL A   1      33.027  26.222  25.788  1.00  0.00    -0.356 N 
ATOM      3  C   UNL A   1      31.687  26.168  26.014  1.00  0.00     0.221 C 
ATOM      4  O   UNL A   1      31.261  25.338  26.819  1.00  0.00    -0.275 OA
ATOM      5  H   UNL A   1      33.550  25.448  26.099  1.00  0.00     0.163 HD
BRANCH   3   6
ATOM      6  C   UNL A   1      30.734  27.053  25.241  1.00  0.00     0.124 C 
BRANCH   6   7
ATOM      7  C   UNL A   1      30.650  26.943  23.702  1.00  0.00     0.109 C 
BRANCH   7   8
ATOM      8  C   UNL A   1      29.584  27.898  23.195  1.00  0.00    -0.026 A 
ATOM      9  C   UNL A   1      28.986  30.063  22.284  1.00  0.00     0.119 A 
ATOM     10  C   UNL A   1      27.653  29.835  22.627  1.00  0.00     0.046 A 
ATOM     11  C   UNL A   1      29.952  29.098  22.568  1.00  0.00     0.051 A 
ATOM     12  C   UNL A   1      27.268  28.621  23.192  1.00  0.00     0.004 A 
ATOM     13  C   UNL A   1      28.227  27.648  23.463  1.00  0.00     0.005 A 
BRANCH   9  14
ATOM     14  O   UNL A   1      29.267  31.299  21.767  1.00  0.00    -0.497 OA
ATOM     15  C   UNL A   1      28.128  32.135  21.591  1.00  0.00     0.278 C 
ENDBRANCH   9  14
ENDBRANCH   7   8
BRANCH   7  16
ATOM     16  N   UNL A   1      31.922  27.110  22.983  1.00  0.00    -0.203 NA
ATOM     17  H   UNL A   1      32.654  27.084  23.693  1.00  0.00     0.142 HD
BRANCH  16  18
ATOM     18  S   UNL A   1      32.424  26.052  21.753  1.00  0.00     0.241 S 
ATOM     19  O   UNL A   1      31.410  25.924  20.739  1.00  0.00    -0.207 OA
ATOM     20  O   UNL A   1      33.763  26.490  21.407  1.00  0.00    -0.207 OA
BRANCH  18  21
ATOM     21  C   UNL A   1      32.582  24.481  22.577  1.00  0.00     0.082 A 
ATOM     22  C   UNL A   1      31.452  23.840  23.143  1.00  0.00     0.024 A 
ATOM     23  C   UNL A   1      33.857  23.942  22.708  1.00  0.00     0.027 A 
ATOM     24  C   UNL A   1      31.601  22.680  23.927  1.00  0.00     0.028 A 
ATOM     25  C   UNL A   1      33.990  22.884  23.580  1.00  0.00    -0.021 A 
ATOM     26  C   UNL A   1      32.888  22.244  24.162  1.00  0.00     0.047 A 
ATOM     27  C   UNL A   1      35.250  22.382  24.219  1.00  0.00     0.063 C 
ATOM     28  N   UNL A   1      33.354  21.372  25.180  1.00  0.00    -0.309 N 
ATOM     29  C   UNL A   1      34.658  21.951  25.583  1.00  0.00     0.092 C 
ATOM     30  C   UNL A   1      34.345  23.086  26.594  1.00  0.00     0.032 C 
BRANCH  28  31
ATOM     31  C   UNL A   1      33.137  20.008  25.057  1.00  0.00     0.224 C 
ATOM     32  C   UNL A   1      34.364  19.191  24.678  1.00  0.00     0.115 C 
ATOM     33  O   UNL A   1      32.021  19.496  25.121  1.00  0.00    -0.275 OA
ENDBRANCH  28  31
ENDBRANCH  18  21
ENDBRANCH  16  18
ENDBRANCH   7  16
ENDBRANCH   6   7
ENDBRANCH   3   6
ENDBRANCH   1   2
BRANCH   1  34
ATOM     34  C   UNL A   1      33.963  28.429  26.119  1.00  0.00     0.023 C 
BRANCH  34  35
ATOM     35  C   UNL A   1      33.146  29.694  25.875  1.00  0.00     0.023 C 
BRANCH  35  36
ATOM     36  C   UNL A   1      32.399  30.246  27.083  1.00  0.00     0.116 C 
BRANCH  36  37
ATOM     37  N   UNL A   1      32.333  31.702  27.089  1.00  0.00    -0.352 N 
ATOM     38  C   UNL A   1      33.198  32.641  27.602  1.00  0.00     0.251 C 
ATOM     39  H   UNL A   1      31.535  32.078  26.652  1.00  0.00     0.163 HD
ATOM     40  O   UNL A   1      32.857  33.810  27.731  1.00  0.00    -0.269 OA
BRANCH  38  41
ATOM     41  C   UNL A   1      34.532  32.193  28.000  1.00  0.00     0.039 A 
ATOM     42  C   UNL A   1      35.641  33.023  27.831  1.00  0.00     0.014 A 
ATOM     43  C   UNL A   1      34.626  30.965  28.652  1.00  0.00     0.014 A 
ATOM     44  C   UNL A   1      36.841  32.660  28.433  1.00  0.00     0.010 A 
ATOM     45  C   UNL A   1      35.771  30.677  29.355  1.00  0.00     0.010 A 
ATOM     46  C   UNL A   1      36.888  31.519  29.248  1.00  0.00    -0.014 A 
BRANCH  46  47
ATOM     47  C   UNL A   1      38.093  31.127  30.003  1.00  0.00     0.031 A 
ATOM     48  C   UNL A   1      38.978  30.065  29.423  1.00  0.00     0.074 A 
ATOM     49  C   UNL A   1      38.280  31.605  31.246  1.00  0.00     0.049 A 
ATOM     50  N   UNL A   1      39.930  29.380  29.992  1.00  0.00    -0.248 NA
ATOM     51  C   UNL A   1      38.694  29.674  28.032  1.00  0.00     0.031 C 
ATOM     52  C   UNL A   1      37.434  32.603  31.909  1.00  0.00     0.029 A 
ATOM     53  N   UNL A   1      39.222  31.291  32.189  1.00  0.00    -0.354 N 
ATOM     54  C   UNL A   1      40.344  28.461  29.035  1.00  0.00     0.074 A 
ATOM     55  C   UNL A   1      39.469  28.612  27.893  1.00  0.00     0.031 C 
ATOM     56  C   UNL A   1      37.905  32.826  33.145  1.00  0.00     0.029 A 
ATOM     57  C   UNL A   1      39.041  31.945  33.385  1.00  0.00     0.049 A 
ATOM     58  H   UNL A   1      39.958  30.657  32.026  1.00  0.00     0.167 HD
ATOM     59  C   UNL A   1      41.384  27.597  29.097  1.00  0.00     0.034 A 
ATOM     60  C   UNL A   1      39.704  31.817  34.552  1.00  0.00     0.034 A 
ATOM     61  C   UNL A   1      42.230  27.482  30.256  1.00  0.00     0.049 A 
ATOM     62  C   UNL A   1      40.842  30.831  34.617  1.00  0.00     0.074 A 
ATOM     63  C   UNL A   1      43.339  26.680  30.441  1.00  0.00     0.029 A 
ATOM     64  N   UNL A   1      42.049  28.195  31.439  1.00  0.00    -0.354 N 
ATOM     65  N   UNL A   1      41.260  29.994  33.693  1.00  0.00    -0.248 NA
ATOM     66  C   UNL A   1      41.604  30.777  35.869  1.00  0.00     0.031 C 
ATOM     67  C   UNL A   1      43.781  26.850  31.757  1.00  0.00     0.029 A 
ATOM     68  C   UNL A   1      43.008  27.830  32.366  1.00  0.00     0.049 A 
ATOM     69  H   UNL A   1      41.340  28.861  31.592  1.00  0.00     0.167 HD
ATOM     70  C   UNL A   1      42.359  29.340  34.241  1.00  0.00     0.074 A 
ATOM     71  C   UNL A   1      42.535  29.880  35.575  1.00  0.00     0.031 C 
ATOM     72  C   UNL A   1      43.158  28.391  33.689  1.00  0.00     0.034 A 
BRANCH  59  73
ATOM     73  C   UNL A   1      41.621  26.717  27.892  1.00  0.00     0.023 A 
ATOM     74  C   UNL A   1      41.047  25.436  27.795  1.00  0.00     0.031 A 
ATOM     75  C   UNL A   1      42.496  27.119  26.869  1.00  0.00     0.131 A 
ATOM     76  C   UNL A   1      41.445  24.562  26.773  1.00  0.00     0.055 A 
ATOM     77  C   UNL A   1      42.803  26.283  25.792  1.00  0.00     0.041 A 
ATOM     78  F   UNL A   1      43.099  28.316  26.914  1.00  0.00    -0.206 F 
ATOM     79  C   UNL A   1      42.295  24.987  25.753  1.00  0.00     0.022 A 
BRANCH  76  80
ATOM     80  S   UNL A   1      41.001  22.809  26.922  1.00  0.00     0.124 S 
ATOM     81  O   UNL A   1      41.556  22.477  28.233  1.00  0.00    -0.237 OA
ATOM     82  O   UNL A   1      39.546  22.842  26.834  1.00  0.00    -0.237 OA
ATOM     83  O   UNL A   1      41.684  22.186  25.791  1.00  0.00    -0.744 OA
ENDBRANCH  76  80
ENDBRANCH  59  73
BRANCH  60  84
ATOM     84  C   UNL A   1      39.298  32.629  35.734  1.00  0.00     0.023 A 
ATOM     85  C   UNL A   1      39.765  33.940  35.910  1.00  0.00     0.031 A 
ATOM     86  C   UNL A   1      38.425  32.104  36.706  1.00  0.00     0.131 A 
ATOM     87  C   UNL A   1      39.388  34.670  37.048  1.00  0.00     0.055 A 
ATOM     88  C   UNL A   1      38.010  32.855  37.808  1.00  0.00     0.041 A 
ATOM     89  F   UNL A   1      37.939  30.859  36.582  1.00  0.00    -0.206 F 
ATOM     90  C   UNL A   1      38.501  34.143  37.989  1.00  0.00     0.022 A 
BRANCH  87  91
ATOM     91  S   UNL A   1      40.134  36.302  37.318  1.00  0.00     0.124 S 
ATOM     92  O   UNL A   1      41.493  35.944  37.707  1.00  0.00    -0.237 OA
ATOM     93  O   UNL A   1      39.983  36.924  36.008  1.00  0.00    -0.237 OA
ATOM     94  O   UNL A   1      39.311  36.879  38.379  1.00  0.00    -0.744 OA
ENDBRANCH  87  91
ENDBRANCH  60  84
BRANCH  72  95
ATOM     95  C   UNL A   1      44.339  27.924  34.501  1.00  0.00     0.023 A 
ATOM     96  C   UNL A   1      44.200  27.025  35.571  1.00  0.00     0.031 A 
ATOM     97  C   UNL A   1      45.633  28.354  34.154  1.00  0.00     0.131 A 
ATOM     98  C   UNL A   1      45.338  26.608  36.277  1.00  0.00     0.055 A 
ATOM     99  C   UNL A   1      46.764  27.887  34.819  1.00  0.00     0.041 A 
ATOM    100  F   UNL A   1      45.817  29.216  33.141  1.00  0.00    -0.206 F 
ATOM    101  C   UNL A   1      46.620  27.014  35.893  1.00  0.00     0.022 A 
BRANCH  98 102
ATOM    102  S   UNL A   1      45.119  25.572  37.749  1.00  0.00     0.124 S 
ATOM    103  O   UNL A   1      46.482  25.486  38.263  1.00  0.00    -0.237 OA
ATOM    104  O   UNL A   1      44.184  26.358  38.548  1.00  0.00    -0.237 OA
ATOM    105  O   UNL A   1      44.578  24.325  37.211  1.00  0.00    -0.744 OA
ENDBRANCH  98 102
ENDBRANCH  72  95
ENDBRANCH  46  47
ENDBRANCH  38  41
ENDBRANCH  36  37
ENDBRANCH  35  36
ENDBRANCH  34  35
ENDBRANCH   1  34
TORSDOF 21
ENDMDL
MODEL 2
REMARK VINA RESULT:     -12.9      2.101      2.562
REMARK SMILES COc1cccc([C@H](CC(=O)NCCCCNC(=O)c2ccc(-c3c4nc(c(-c5cc(S(=O)(=O)[O-])ccc5F)c5ccc([nH]5)c(-c5cc(S(=O)(=O)[O-])ccc5F)c5nc(c(-c6cc(S(=O)(=O)[O-])ccc6F)c6ccc3[nH]6)C=C5)C=C4)cc2)NS(=O)(=O)c2ccc3c(c2)C[C@@H](C)N3C(C)=O)c1
REMARK SMILES IDX 13 1 12 2 10 3 11 4 9 6 8 7 7 8 3 9 4 10 100 11 5 12 6 13
REMARK SMILES IDX 2 14 1 15 83 16 84 18 85 19 86 20 87 21 88 22 92 23 89 24
REMARK SMILES IDX 91 25 90 26 93 27 96 28 94 29 95 30 97 31 98 32 99 33 14 34
REMARK SMILES IDX 15 35 16 36 17 37 18 38 19 40 20 41 21 42 82 43 22 44 81 45
REMARK SMILES IDX 23 46 24 47 25 48 75 49 26 50 80 51 74 52 76 53 27 54 79 55
REMARK SMILES IDX 73 56 72 57 28 59 60 60 40 61 59 62 41 63 44 64 58 65 77 66
REMARK SMILES IDX 42 67 43 68 57 70 78 71 45 72 29 73 30 74 38 75 31 76 37 77
REMARK SMILES IDX 39 78 36 79 32 80 33 81 34 82 35 83 61 84 62 85 70 86 63 87
REMARK SMILES IDX 69 88 71 89 68 90 64 91 65 92 66 93 67 94 46 95 47 96 55 97
REMARK SMILES IDX 48 98 54 99 56 100 53 101 49 102 50 103 51 104 52 105
REMARK H PARENT 12 5 83 17 17 39 76 58 44 69
REMARK Flexibility Score: inf
ROOT
ATOM      1  C   UNL A   1      31.979  30.277  26.990  1.00  0.00     0.116 C 
ENDROOT
BRANCH   1   2
ATOM      2  N   UNL A   1      32.996  29.566  26.258  1.00  0.00    -0.356 N 
ATOM      3  C   UNL A   1      32.921  28.316  25.728  1.00  0.00     0.221 C 
ATOM      4  O   UNL A   1      33.967  27.758  25.390  1.00  0.00    -0.275 OA
ATOM      5  H   UNL A   1      33.848  30.042  26.127  1.00  0.00     0.163 HD
BRANCH   3   6
ATOM      6  C   UNL A   1      31.582  27.655  25.487  1.00  0.00     0.124 C 
BRANCH   6   7
ATOM      7  C   UNL A   1      31.240  27.080  24.094  1.00  0.00     0.109 C 
BRANCH   7   8
ATOM      8  C   UNL A   1      29.975  27.744  23.581  1.00  0.00    -0.026 A 
ATOM      9  C   UNL A   1      28.831  29.737  22.810  1.00  0.00     0.119 A 
ATOM     10  C   UNL A   1      27.604  29.109  23.018  1.00  0.00     0.046 A 
ATOM     11  C   UNL A   1      30.017  29.059  23.091  1.00  0.00     0.051 A 
ATOM     12  C   UNL A   1      27.553  27.783  23.444  1.00  0.00     0.004 A 
ATOM     13  C   UNL A   1      28.734  27.096  23.711  1.00  0.00     0.005 A 
BRANCH   9  14
ATOM     14  O   UNL A   1      28.774  31.050  22.425  1.00  0.00    -0.497 OA
ATOM     15  C   UNL A   1      28.767  31.979  23.504  1.00  0.00     0.278 C 
ENDBRANCH   9  14
ENDBRANCH   7   8
BRANCH   7  16
ATOM     16  N   UNL A   1      32.326  27.130  23.104  1.00  0.00    -0.203 NA
ATOM     17  H   UNL A   1      33.195  27.049  23.632  1.00  0.00     0.142 HD
BRANCH  16  18
ATOM     18  S   UNL A   1      32.449  26.020  21.824  1.00  0.00     0.241 S 
ATOM     19  O   UNL A   1      31.247  26.013  21.031  1.00  0.00    -0.207 OA
ATOM     20  O   UNL A   1      33.734  26.297  21.211  1.00  0.00    -0.207 OA
BRANCH  18  21
ATOM     21  C   UNL A   1      32.583  24.442  22.637  1.00  0.00     0.082 A 
ATOM     22  C   UNL A   1      31.429  23.757  23.093  1.00  0.00     0.024 A 
ATOM     23  C   UNL A   1      33.858  23.939  22.871  1.00  0.00     0.027 A 
ATOM     24  C   UNL A   1      31.546  22.590  23.871  1.00  0.00     0.028 A 
ATOM     25  C   UNL A   1      33.948  22.871  23.738  1.00  0.00    -0.021 A 
ATOM     26  C   UNL A   1      32.819  22.189  24.212  1.00  0.00     0.047 A 
ATOM     27  C   UNL A   1      35.162  22.396  24.478  1.00  0.00     0.063 C 
ATOM     28  N   UNL A   1      33.222  21.315  25.254  1.00  0.00    -0.309 N 
ATOM     29  C   UNL A   1      34.468  21.926  25.779  1.00  0.00     0.092 C 
ATOM     30  C   UNL A   1      34.033  23.034  26.773  1.00  0.00     0.032 C 
BRANCH  28  31
ATOM     31  C   UNL A   1      33.060  19.948  25.094  1.00  0.00     0.224 C 
ATOM     32  C   UNL A   1      34.290  19.205  24.593  1.00  0.00     0.115 C 
ATOM     33  O   UNL A   1      31.977  19.379  25.221  1.00  0.00    -0.275 OA
ENDBRANCH  28  31
ENDBRANCH  18  21
ENDBRANCH  16  18
ENDBRANCH   7  16
ENDBRANCH   6   7
ENDBRANCH   3   6
ENDBRANCH   1   2
BRANCH   1  34
ATOM     34  C   UNL A   1      31.351  31.333  26.096  1.00  0.00     0.023 C 
BRANCH  34  35
ATOM     35  C   UNL A   1      31.472  32.789  26.535  1.00  0.00     0.023 C 
BRANCH  35  36
ATOM     36  C   UNL A   1      32.749  33.152  27.283  1.00  0.00     0.116 C 
BRANCH  36  37
ATOM     37  N   UNL A   1      32.609  34.363  28.083  1.00  0.00    -0.352 N 
ATOM     38  C   UNL A   1      33.287  34.787  29.202  1.00  0.00     0.251 C 
ATOM     39  H   UNL A   1      31.911  34.983  27.769  1.00  0.00     0.163 HD
ATOM     40  O   UNL A   1      32.866  35.715  29.882  1.00  0.00    -0.269 OA
BRANCH  38  41
ATOM     41  C   UNL A   1      34.519  34.084  29.559  1.00  0.00     0.039 A 
ATOM     42  C   UNL A   1      35.742  34.465  29.004  1.00  0.00     0.014 A 
ATOM     43  C   UNL A   1      34.434  33.110  30.552  1.00  0.00     0.014 A 
ATOM     44  C   UNL A   1      36.910  33.935  29.543  1.00  0.00     0.010 A 
ATOM     45  C   UNL A   1      35.589  32.693  31.168  1.00  0.00     0.010 A 
ATOM     46  C   UNL A   1      36.835  33.098  30.667  1.00  0.00    -0.014 A 
BRANCH  46  47
ATOM     47  C   UNL A   1      38.032  32.583  31.357  1.00  0.00     0.031 A 
ATOM     48  C   UNL A   1      38.744  31.408  30.758  1.00  0.00     0.074 A 
ATOM     49  C   UNL A   1      38.356  33.064  32.571  1.00  0.00     0.049 A 
ATOM     50  N   UNL A   1      39.643  30.627  31.288  1.00  0.00    -0.248 NA
ATOM     51  C   UNL A   1      38.326  31.021  29.400  1.00  0.00     0.031 C 
ATOM     52  C   UNL A   1      37.679  34.172  33.252  1.00  0.00     0.029 A 
ATOM     53  N   UNL A   1      39.313  32.662  33.463  1.00  0.00    -0.354 N 
ATOM     54  C   UNL A   1      39.882  29.643  30.336  1.00  0.00     0.074 A 
ATOM     55  C   UNL A   1      38.959  29.870  29.247  1.00  0.00     0.031 C 
ATOM     56  C   UNL A   1      38.253  34.367  34.449  1.00  0.00     0.029 A 
ATOM     57  C   UNL A   1      39.290  33.362  34.646  1.00  0.00     0.049 A 
ATOM     58  H   UNL A   1      39.956  31.941  33.275  1.00  0.00     0.167 HD
ATOM     59  C   UNL A   1      40.814  28.661  30.361  1.00  0.00     0.034 A 
ATOM     60  C   UNL A   1      40.008  33.183  35.773  1.00  0.00     0.034 A 
ATOM     61  C   UNL A   1      41.714  28.473  31.469  1.00  0.00     0.049 A 
ATOM     62  C   UNL A   1      41.022  32.069  35.799  1.00  0.00     0.074 A 
ATOM     63  C   UNL A   1      42.731  27.548  31.610  1.00  0.00     0.029 A 
ATOM     64  N   UNL A   1      41.697  29.231  32.637  1.00  0.00    -0.354 N 
ATOM     65  N   UNL A   1      41.277  31.166  34.878  1.00  0.00    -0.248 NA
ATOM     66  C   UNL A   1      41.853  31.954  37.002  1.00  0.00     0.031 C 
ATOM     67  C   UNL A   1      43.275  27.695  32.890  1.00  0.00     0.029 A 
ATOM     68  C   UNL A   1      42.665  28.775  33.513  1.00  0.00     0.049 A 
ATOM     69  H   UNL A   1      41.084  29.981  32.813  1.00  0.00     0.167 HD
ATOM     70  C   UNL A   1      42.324  30.398  35.376  1.00  0.00     0.074 A 
ATOM     71  C   UNL A   1      42.650  30.944  36.680  1.00  0.00     0.031 C 
ATOM     72  C   UNL A   1      42.967  29.346  34.807  1.00  0.00     0.034 A 
BRANCH  59  73
ATOM     73  C   UNL A   1      40.865  27.730  29.173  1.00  0.00     0.023 A 
ATOM     74  C   UNL A   1      41.820  27.894  28.152  1.00  0.00     0.031 A 
ATOM     75  C   UNL A   1      39.901  26.721  29.008  1.00  0.00     0.131 A 
ATOM     76  C   UNL A   1      41.718  27.152  26.967  1.00  0.00     0.055 A 
ATOM     77  C   UNL A   1      39.872  25.908  27.871  1.00  0.00     0.041 A 
ATOM     78  F   UNL A   1      38.945  26.529  29.930  1.00  0.00    -0.206 F 
ATOM     79  C   UNL A   1      40.769  26.138  26.832  1.00  0.00     0.022 A 
BRANCH  76  80
ATOM     80  S   UNL A   1      42.702  27.679  25.537  1.00  0.00     0.124 S 
ATOM     81  O   UNL A   1      43.986  27.990  26.163  1.00  0.00    -0.237 OA
ATOM     82  O   UNL A   1      42.678  26.497  24.683  1.00  0.00    -0.237 OA
ATOM     83  O   UNL A   1      41.972  28.836  25.026  1.00  0.00    -0.744 OA
ENDBRANCH  76  80
ENDBRANCH  59  73
BRANCH  60  84
ATOM     84  C   UNL A   1      39.779  34.066  36.952  1.00  0.00     0.023 A 
ATOM     85  C   UNL A   1      39.182  33.574  38.122  1.00  0.00     0.031 A 
ATOM     86  C   UNL A   1      40.164  35.419  36.928  1.00  0.00     0.131 A 
ATOM     87  C   UNL A   1      38.953  34.436  39.207  1.00  0.00     0.055 A 
ATOM     88  C   UNL A   1      39.985  36.259  38.029  1.00  0.00     0.041 A 
ATOM     89  F   UNL A   1      40.750  35.939  35.837  1.00  0.00    -0.206 F 
ATOM     90  C   UNL A   1      39.366  35.770  39.174  1.00  0.00     0.022 A 
BRANCH  87  91
ATOM     91  S   UNL A   1      38.041  33.803  40.641  1.00  0.00     0.124 S 
ATOM     92  O   UNL A   1      37.872  35.012  41.439  1.00  0.00    -0.237 OA
ATOM     93  O   UNL A   1      36.834  33.269  40.021  1.00  0.00    -0.237 OA
ATOM     94  O   UNL A   1      38.946  32.803  41.204  1.00  0.00    -0.744 OA
ENDBRANCH  87  91
ENDBRANCH  60  84
BRANCH  72  95
ATOM     95  C   UNL A   1      44.135  28.760  35.558  1.00  0.00     0.023 A 
ATOM     96  C   UNL A   1      43.977  27.718  36.486  1.00  0.00     0.031 A 
ATOM     97  C   UNL A   1      45.435  29.226  35.293  1.00  0.00     0.131 A 
ATOM     98  C   UNL A   1      45.104  27.197  37.139  1.00  0.00     0.055 A 
ATOM     99  C   UNL A   1      46.555  28.662  35.898  1.00  0.00     0.041 A 
ATOM    100  F   UNL A   1      45.636  30.224  34.416  1.00  0.00    -0.206 F 
ATOM    101  C   UNL A   1      46.392  27.645  36.833  1.00  0.00     0.022 A 
BRANCH  98 102
ATOM    102  S   UNL A   1      44.861  25.962  38.444  1.00  0.00     0.124 S 
ATOM    103  O   UNL A   1      46.146  25.994  39.134  1.00  0.00    -0.237 OA
ATOM    104  O   UNL A   1      43.727  26.507  39.184  1.00  0.00    -0.237 OA
ATOM    105  O   UNL A   1      44.583  24.732  37.704  1.00  0.00    -0.744 OA
ENDBRANCH  98 102
ENDBRANCH  72  95
ENDBRANCH  46  47
ENDBRANCH  38  41
ENDBRANCH  36  37
ENDBRANCH  35  36
ENDBRANCH  34  35
ENDBRANCH   1  34
TORSDOF 21
ENDMDL
MODEL 3
REMARK VINA RESULT:     -12.9      1.935      2.573
REMARK SMILES COc1cccc([C@H](CC(=O)NCCCCNC(=O)c2ccc(-c3c4nc(c(-c5cc(S(=O)(=O)[O-])ccc5F)c5ccc([nH]5)c(-c5cc(S(=O)(=O)[O-])ccc5F)c5nc(c(-c6cc(S(=O)(=O)[O-])ccc6F)c6ccc3[nH]6)C=C5)C=C4)cc2)NS(=O)(=O)c2ccc3c(c2)C[C@@H](C)N3C(C)=O)c1
REMARK SMILES IDX 13 1 12 2 10 3 11 4 9 6 8 7 7 8 3 9 4 10 100 11 5 12 6 13
REMARK SMILES IDX 2 14 1 15 83 16 84 18 85 19 86 20 87 21 88 22 92 23 89 24
REMARK SMILES IDX 91 25 90 26 93 27 96 28 94 29 95 30 97 31 98 32 99 33 14 34
REMARK SMILES IDX 15 35 16 36 17 37 18 38 19 40 20 41 21 42 82 43 22 44 81 45
REMARK SMILES IDX 23 46 24 47 25 48 75 49 26 50 80 51 74 52 76 53 27 54 79 55
REMARK SMILES IDX 73 56 72 57 28 59 60 60 40 61 59 62 41 63 44 64 58 65 77 66
REMARK SMILES IDX 42 67 43 68 57 70 78 71 45 72 29 73 30 74 38 75 31 76 37 77
REMARK SMILES IDX 39 78 36 79 32 80 33 81 34 82 35 83 61 84 62 85 70 86 63 87
REMARK SMILES IDX 69 88 71 89 68 90 64 91 65 92 66 93 67 94 46 95 47 96 55 97
REMARK SMILES IDX 48 98 54 99 56 100 53 101 49 102 50 103 51 104 52 105
REMARK H PARENT 12 5 83 17 17 39 76 58 44 69
REMARK Flexibility Score: inf
ROOT
ATOM      1  C   UNL A   1      34.339  28.789  26.488  1.00  0.00     0.116 C 
ENDROOT
BRANCH   1   2
ATOM      2  N   UNL A   1      33.234  28.136  27.142  1.00  0.00    -0.356 N 
ATOM      3  C   UNL A   1      31.910  28.239  26.844  1.00  0.00     0.221 C 
ATOM      4  O   UNL A   1      31.090  27.845  27.674  1.00  0.00    -0.275 OA
ATOM      5  H   UNL A   1      33.463  27.545  27.895  1.00  0.00     0.163 HD
BRANCH   3   6
ATOM      6  C   UNL A   1      31.457  28.753  25.495  1.00  0.00     0.124 C 
BRANCH   6   7
ATOM      7  C   UNL A   1      30.893  27.774  24.442  1.00  0.00     0.109 C 
BRANCH   7   8
ATOM      8  C   UNL A   1      29.817  28.479  23.636  1.00  0.00    -0.026 A 
ATOM      9  C   UNL A   1      29.003  30.488  22.551  1.00  0.00     0.119 A 
ATOM     10  C   UNL A   1      27.720  29.941  22.509  1.00  0.00     0.046 A 
ATOM     11  C   UNL A   1      30.051  29.761  23.114  1.00  0.00     0.051 A 
ATOM     12  C   UNL A   1      27.490  28.645  22.967  1.00  0.00     0.004 A 
ATOM     13  C   UNL A   1      28.537  27.909  23.516  1.00  0.00     0.005 A 
BRANCH   9  14
ATOM     14  O   UNL A   1      29.117  31.778  22.109  1.00  0.00    -0.497 OA
ATOM     15  C   UNL A   1      28.774  32.763  23.078  1.00  0.00     0.278 C 
ENDBRANCH   9  14
ENDBRANCH   7   8
BRANCH   7  16
ATOM     16  N   UNL A   1      31.892  27.128  23.576  1.00  0.00    -0.203 NA
ATOM     17  H   UNL A   1      32.771  27.152  24.092  1.00  0.00     0.142 HD
BRANCH  16  18
ATOM     18  S   UNL A   1      31.722  25.536  23.012  1.00  0.00     0.241 S 
ATOM     19  O   UNL A   1      30.550  24.914  23.571  1.00  0.00    -0.207 OA
ATOM     20  O   UNL A   1      31.893  25.628  21.575  1.00  0.00    -0.207 OA
BRANCH  18  21
ATOM     21  C   UNL A   1      33.153  24.697  23.659  1.00  0.00     0.082 A 
ATOM     22  C   UNL A   1      34.098  24.095  22.791  1.00  0.00     0.024 A 
ATOM     23  C   UNL A   1      33.274  24.592  25.040  1.00  0.00     0.027 A 
ATOM     24  C   UNL A   1      35.141  23.301  23.304  1.00  0.00     0.028 A 
ATOM     25  C   UNL A   1      34.224  23.710  25.508  1.00  0.00    -0.021 A 
ATOM     26  C   UNL A   1      35.159  23.093  24.666  1.00  0.00     0.047 A 
ATOM     27  C   UNL A   1      34.305  23.097  26.874  1.00  0.00     0.063 C 
ATOM     28  N   UNL A   1      35.827  22.077  25.397  1.00  0.00    -0.309 N 
ATOM     29  C   UNL A   1      34.870  21.713  26.470  1.00  0.00     0.092 C 
ATOM     30  C   UNL A   1      33.865  20.710  25.846  1.00  0.00     0.032 C 
BRANCH  28  31
ATOM     31  C   UNL A   1      37.194  22.178  25.606  1.00  0.00     0.224 C 
ATOM     32  C   UNL A   1      37.705  23.586  25.869  1.00  0.00     0.115 C 
ATOM     33  O   UNL A   1      37.967  21.231  25.468  1.00  0.00    -0.275 OA
ENDBRANCH  28  31
ENDBRANCH  18  21
ENDBRANCH  16  18
ENDBRANCH   7  16
ENDBRANCH   6   7
ENDBRANCH   3   6
ENDBRANCH   1   2
BRANCH   1  34
ATOM     34  C   UNL A   1      35.035  29.719  27.468  1.00  0.00     0.023 C 
BRANCH  34  35
ATOM     35  C   UNL A   1      34.687  31.202  27.397  1.00  0.00     0.023 C 
BRANCH  35  36
ATOM     36  C   UNL A   1      33.274  31.574  27.829  1.00  0.00     0.116 C 
BRANCH  36  37
ATOM     37  N   UNL A   1      33.025  33.009  27.768  1.00  0.00    -0.352 N 
ATOM     38  C   UNL A   1      33.464  34.034  28.572  1.00  0.00     0.251 C 
ATOM     39  H   UNL A   1      32.444  33.293  27.025  1.00  0.00     0.163 HD
ATOM     40  O   UNL A   1      32.953  35.147  28.515  1.00  0.00    -0.269 OA
BRANCH  38  41
ATOM     41  C   UNL A   1      34.552  33.749  29.507  1.00  0.00     0.039 A 
ATOM     42  C   UNL A   1      34.350  32.900  30.596  1.00  0.00     0.014 A 
ATOM     43  C   UNL A   1      35.811  34.261  29.199  1.00  0.00     0.014 A 
ATOM     44  C   UNL A   1      35.458  32.469  31.318  1.00  0.00     0.010 A 
ATOM     45  C   UNL A   1      36.912  33.731  29.827  1.00  0.00     0.010 A 
ATOM     46  C   UNL A   1      36.745  32.834  30.894  1.00  0.00    -0.014 A 
BRANCH  46  47
ATOM     47  C   UNL A   1      37.970  32.333  31.542  1.00  0.00     0.031 A 
ATOM     48  C   UNL A   1      38.709  31.207  30.883  1.00  0.00     0.074 A 
ATOM     49  C   UNL A   1      38.301  32.777  32.768  1.00  0.00     0.049 A 
ATOM     50  N   UNL A   1      39.643  30.437  31.365  1.00  0.00    -0.248 NA
ATOM     51  C   UNL A   1      38.278  30.860  29.518  1.00  0.00     0.031 C 
ATOM     52  C   UNL A   1      37.602  33.833  33.505  1.00  0.00     0.029 A 
ATOM     53  N   UNL A   1      39.288  32.372  33.626  1.00  0.00    -0.354 N 
ATOM     54  C   UNL A   1      39.896  29.499  30.371  1.00  0.00     0.074 A 
ATOM     55  C   UNL A   1      38.945  29.738  29.308  1.00  0.00     0.031 C 
ATOM     56  C   UNL A   1      38.192  34.000  34.699  1.00  0.00     0.029 A 
ATOM     57  C   UNL A   1      39.265  33.023  34.837  1.00  0.00     0.049 A 
ATOM     58  H   UNL A   1      39.951  31.680  33.397  1.00  0.00     0.167 HD
ATOM     59  C   UNL A   1      40.860  28.549  30.340  1.00  0.00     0.034 A 
ATOM     60  C   UNL A   1      40.009  32.824  35.942  1.00  0.00     0.034 A 
ATOM     61  C   UNL A   1      41.787  28.347  31.423  1.00  0.00     0.049 A 
ATOM     62  C   UNL A   1      41.060  31.745  35.905  1.00  0.00     0.074 A 
ATOM     63  C   UNL A   1      42.836  27.452  31.509  1.00  0.00     0.029 A 
ATOM     64  N   UNL A   1      41.767  29.057  32.621  1.00  0.00    -0.354 N 
ATOM     65  N   UNL A   1      41.327  30.888  34.944  1.00  0.00    -0.248 NA
ATOM     66  C   UNL A   1      41.918  31.610  37.088  1.00  0.00     0.031 C 
ATOM     67  C   UNL A   1      43.399  27.567  32.784  1.00  0.00     0.029 A 
ATOM     68  C   UNL A   1      42.766  28.600  33.461  1.00  0.00     0.049 A 
ATOM     69  H   UNL A   1      41.133  29.780  32.837  1.00  0.00     0.167 HD
ATOM     70  C   UNL A   1      42.408  30.136  35.393  1.00  0.00     0.074 A 
ATOM     71  C   UNL A   1      42.741  30.641  36.711  1.00  0.00     0.031 C 
ATOM     72  C   UNL A   1      43.073  29.130  34.770  1.00  0.00     0.034 A 
BRANCH  59  73
ATOM     73  C   UNL A   1      40.919  27.668  29.115  1.00  0.00     0.023 A 
ATOM     74  C   UNL A   1      41.852  27.900  28.087  1.00  0.00     0.031 A 
ATOM     75  C   UNL A   1      39.981  26.638  28.923  1.00  0.00     0.131 A 
ATOM     76  C   UNL A   1      41.752  27.203  26.875  1.00  0.00     0.055 A 
ATOM     77  C   UNL A   1      39.958  25.870  27.756  1.00  0.00     0.041 A 
ATOM     78  F   UNL A   1      39.047  26.382  29.851  1.00  0.00    -0.206 F 
ATOM     79  C   UNL A   1      40.831  26.168  26.713  1.00  0.00     0.022 A 
BRANCH  76  80
ATOM     80  S   UNL A   1      42.698  27.815  25.453  1.00  0.00     0.124 S 
ATOM     81  O   UNL A   1      42.722  26.637  24.588  1.00  0.00    -0.237 OA
ATOM     82  O   UNL A   1      41.883  28.932  24.987  1.00  0.00    -0.237 OA
ATOM     83  O   UNL A   1      43.989  28.179  26.031  1.00  0.00    -0.744 OA
ENDBRANCH  76  80
ENDBRANCH  59  73
BRANCH  60  84
ATOM     84  C   UNL A   1      39.775  33.652  37.159  1.00  0.00     0.023 A 
ATOM     85  C   UNL A   1      40.563  34.779  37.433  1.00  0.00     0.031 A 
ATOM     86  C   UNL A   1      38.748  33.329  38.066  1.00  0.00     0.131 A 
ATOM     87  C   UNL A   1      40.337  35.524  38.602  1.00  0.00     0.055 A 
ATOM     88  C   UNL A   1      38.492  34.104  39.199  1.00  0.00     0.041 A 
ATOM     89  F   UNL A   1      37.957  32.267  37.847  1.00  0.00    -0.206 F 
ATOM     90  C   UNL A   1      39.296  35.203  39.478  1.00  0.00     0.022 A 
BRANCH  87  91
ATOM     91  S   UNL A   1      41.472  36.881  39.001  1.00  0.00     0.124 S 
ATOM     92  O   UNL A   1      40.544  37.940  39.380  1.00  0.00    -0.237 OA
ATOM     93  O   UNL A   1      42.266  36.305  40.081  1.00  0.00    -0.237 OA
ATOM     94  O   UNL A   1      42.192  37.099  37.748  1.00  0.00    -0.744 OA
ENDBRANCH  87  91
ENDBRANCH  60  84
BRANCH  72  95
ATOM     95  C   UNL A   1      44.274  28.554  35.477  1.00  0.00     0.023 A 
ATOM     96  C   UNL A   1      44.155  27.564  36.466  1.00  0.00     0.031 A 
ATOM     97  C   UNL A   1      45.565  28.975  35.107  1.00  0.00     0.131 A 
ATOM     98  C   UNL A   1      45.309  27.049  37.073  1.00  0.00     0.055 A 
ATOM     99  C   UNL A   1      46.709  28.414  35.670  1.00  0.00     0.041 A 
ATOM    100  F   UNL A   1      45.731  29.921  34.169  1.00  0.00    -0.206 F 
ATOM    101  C   UNL A   1      46.584  27.450  36.665  1.00  0.00     0.022 A 
BRANCH  98 102
ATOM    102  S   UNL A   1      45.123  25.888  38.453  1.00  0.00     0.124 S 
ATOM    103  O   UNL A   1      44.891  24.627  37.758  1.00  0.00    -0.237 OA
ATOM    104  O   UNL A   1      46.405  26.010  39.140  1.00  0.00    -0.237 OA
ATOM    105  O   UNL A   1      43.974  26.412  39.189  1.00  0.00    -0.744 OA
ENDBRANCH  98 102
ENDBRANCH  72  95
ENDBRANCH  46  47
ENDBRANCH  38  41
ENDBRANCH  36  37
ENDBRANCH  35  36
ENDBRANCH  34  35
ENDBRANCH   1  34
TORSDOF 21
ENDMDL
