MODEL 1
REMARK VINA RESULT:     -11.7      0.000      0.000
REMARK SMILES CC[C@@H](C)[C@H](NC(=O)CCc1ccc(F)c(F)c1)C(=O)NCCCCNC(=O)c1ccc(-c2c3nc(c(-c4cc(S(=O)(=O)[O-])ccc4F)c4ccc([nH]4)c(-c4cc(S(=O)(=O)[O-])ccc4F)c4nc(c(-c5cc(S(=O)(=O)[O-])ccc5F)c5ccc2[nH]5)C=C4)C=C3)cc1
REMARK SMILES IDX 23 1 22 2 21 3 19 4 20 5 5 7 3 8 4 9 2 10 1 11 6 12 7 13
REMARK SMILES IDX 8 15 9 16 10 17 11 18 12 19 18 20 13 21 16 22 14 23 17 24
REMARK SMILES IDX 15 25 24 26 25 27 26 28 27 29 28 31 29 32 30 33 91 34 31 35
REMARK SMILES IDX 90 36 32 37 33 38 34 39 84 40 35 41 89 42 83 43 85 44 36 45
REMARK SMILES IDX 88 46 82 47 81 48 37 50 69 51 49 52 68 53 50 54 53 55 67 56
REMARK SMILES IDX 86 57 51 58 52 59 66 61 87 62 54 63 38 64 39 65 47 66 40 67
REMARK SMILES IDX 46 68 48 69 45 70 41 71 42 72 43 73 44 74 70 75 71 76 79 77
REMARK SMILES IDX 72 78 78 79 80 80 77 81 73 82 74 83 75 84 76 85 55 86 56 87
REMARK SMILES IDX 64 88 57 89 63 90 65 91 62 92 58 93 59 94 60 95 61 96
REMARK H PARENT 21 6 6 14 26 30 85 49 53 60
REMARK Flexibility Score: inf
ROOT
ATOM      1  C   UNL A   1      34.764  20.946  25.143  1.00  0.00     0.023 C 
ENDROOT
BRANCH   1   2
ATOM      2  C   UNL A   1      33.253  20.993  25.310  1.00  0.00     0.116 C 
BRANCH   2   3
ATOM      3  N   UNL A   1      32.531  20.656  24.103  1.00  0.00    -0.354 N 
ATOM      4  C   UNL A   1      32.127  21.468  23.085  1.00  0.00     0.242 C 
ATOM      5  O   UNL A   1      31.785  20.930  22.026  1.00  0.00    -0.273 OA
ATOM      6  H   UNL A   1      32.297  19.704  24.001  1.00  0.00     0.163 HD
BRANCH   4   7
ATOM      7  C   UNL A   1      32.173  23.006  23.199  1.00  0.00     0.174 C 
BRANCH   7   8
ATOM      8  C   UNL A   1      31.023  23.658  24.026  1.00  0.00     0.018 C 
ATOM      9  C   UNL A   1      30.205  24.725  23.298  1.00  0.00     0.010 C 
BRANCH   8  10
ATOM     10  C   UNL A   1      31.529  24.199  25.385  1.00  0.00     0.002 C 
ATOM     11  C   UNL A   1      30.524  25.086  26.108  1.00  0.00     0.004 C 
ENDBRANCH   8  10
ENDBRANCH   7   8
BRANCH   7  12
ATOM     12  N   UNL A   1      32.481  23.679  21.934  1.00  0.00    -0.344 N 
ATOM     13  C   UNL A   1      33.132  24.860  21.739  1.00  0.00     0.220 C 
ATOM     14  H   UNL A   1      32.177  23.218  21.119  1.00  0.00     0.164 HD
ATOM     15  O   UNL A   1      33.173  25.321  20.597  1.00  0.00    -0.275 OA
BRANCH  13  16
ATOM     16  C   UNL A   1      33.793  25.591  22.894  1.00  0.00     0.105 C 
BRANCH  16  17
ATOM     17  C   UNL A   1      33.696  27.117  22.771  1.00  0.00     0.045 C 
BRANCH  17  18
ATOM     18  C   UNL A   1      33.210  27.790  24.035  1.00  0.00    -0.044 A 
ATOM     19  C   UNL A   1      33.620  27.313  25.294  1.00  0.00     0.007 A 
ATOM     20  C   UNL A   1      32.265  28.824  23.975  1.00  0.00     0.046 A 
ATOM     21  C   UNL A   1      33.039  27.807  26.466  1.00  0.00     0.043 A 
ATOM     22  C   UNL A   1      31.696  29.314  25.148  1.00  0.00     0.159 A 
ATOM     23  C   UNL A   1      32.069  28.799  26.383  1.00  0.00     0.158 A 
ATOM     24  F   UNL A   1      30.743  30.253  25.071  1.00  0.00    -0.204 F 
ATOM     25  F   UNL A   1      31.477  29.236  27.503  1.00  0.00    -0.204 F 
ENDBRANCH  17  18
ENDBRANCH  16  17
ENDBRANCH  13  16
ENDBRANCH   7  12
ENDBRANCH   4   7
ENDBRANCH   2   3
ENDBRANCH   1   2
BRANCH   1  26
ATOM     26  C   UNL A   1      35.469  22.296  25.271  1.00  0.00     0.023 C 
BRANCH  26  27
ATOM     27  C   UNL A   1      36.906  22.343  24.764  1.00  0.00     0.116 C 
BRANCH  27  28
ATOM     28  N   UNL A   1      37.664  21.135  25.060  1.00  0.00    -0.352 N 
ATOM     29  C   UNL A   1      38.825  21.004  25.794  1.00  0.00     0.251 C 
ATOM     30  H   UNL A   1      37.300  20.301  24.686  1.00  0.00     0.163 HD
ATOM     31  O   UNL A   1      39.381  19.927  25.888  1.00  0.00    -0.269 OA
BRANCH  29  32
ATOM     32  C   UNL A   1      39.395  22.217  26.416  1.00  0.00     0.039 A 
ATOM     33  C   UNL A   1      40.479  22.081  27.286  1.00  0.00     0.014 A 
ATOM     34  C   UNL A   1      38.920  23.479  26.053  1.00  0.00     0.014 A 
ATOM     35  C   UNL A   1      41.148  23.223  27.727  1.00  0.00     0.010 A 
ATOM     36  C   UNL A   1      39.634  24.608  26.435  1.00  0.00     0.010 A 
ATOM     37  C   UNL A   1      40.759  24.490  27.268  1.00  0.00    -0.014 A 
BRANCH  37  38
ATOM     38  C   UNL A   1      41.497  25.722  27.649  1.00  0.00     0.031 A 
ATOM     39  C   UNL A   1      40.796  26.777  28.456  1.00  0.00     0.074 A 
ATOM     40  C   UNL A   1      42.742  25.937  27.181  1.00  0.00     0.049 A 
ATOM     41  N   UNL A   1      41.174  27.996  28.741  1.00  0.00    -0.248 NA
ATOM     42  C   UNL A   1      39.466  26.421  28.970  1.00  0.00     0.031 C 
ATOM     43  C   UNL A   1      43.511  25.003  26.356  1.00  0.00     0.029 A 
ATOM     44  N   UNL A   1      43.572  27.022  27.314  1.00  0.00    -0.354 N 
ATOM     45  C   UNL A   1      40.114  28.565  29.438  1.00  0.00     0.074 A 
ATOM     46  C   UNL A   1      39.058  27.574  29.477  1.00  0.00     0.031 C 
ATOM     47  C   UNL A   1      44.702  25.553  26.063  1.00  0.00     0.029 A 
ATOM     48  C   UNL A   1      44.763  26.892  26.639  1.00  0.00     0.049 A 
ATOM     49  H   UNL A   1      43.336  27.818  27.843  1.00  0.00     0.167 HD
ATOM     50  C   UNL A   1      40.037  29.794  30.008  1.00  0.00     0.034 A 
ATOM     51  C   UNL A   1      45.780  27.764  26.484  1.00  0.00     0.034 A 
ATOM     52  C   UNL A   1      41.111  30.755  29.979  1.00  0.00     0.049 A 
ATOM     53  C   UNL A   1      45.681  29.121  27.132  1.00  0.00     0.074 A 
ATOM     54  C   UNL A   1      41.168  32.006  30.566  1.00  0.00     0.029 A 
ATOM     55  N   UNL A   1      42.323  30.570  29.323  1.00  0.00    -0.354 N 
ATOM     56  N   UNL A   1      44.685  29.638  27.814  1.00  0.00    -0.248 NA
ATOM     57  C   UNL A   1      46.845  30.006  26.998  1.00  0.00     0.031 C 
ATOM     58  C   UNL A   1      42.390  32.598  30.222  1.00  0.00     0.029 A 
ATOM     59  C   UNL A   1      43.125  31.689  29.476  1.00  0.00     0.049 A 
ATOM     60  H   UNL A   1      42.575  29.760  28.822  1.00  0.00     0.167 HD
ATOM     61  C   UNL A   1      45.117  30.898  28.218  1.00  0.00     0.074 A 
ATOM     62  C   UNL A   1      46.462  31.061  27.706  1.00  0.00     0.031 C 
ATOM     63  C   UNL A   1      44.464  31.832  28.956  1.00  0.00     0.034 A 
BRANCH  50  64
ATOM     64  C   UNL A   1      38.733  30.159  30.677  1.00  0.00     0.023 A 
ATOM     65  C   UNL A   1      37.745  30.906  30.011  1.00  0.00     0.031 A 
ATOM     66  C   UNL A   1      38.501  29.816  32.021  1.00  0.00     0.131 A 
ATOM     67  C   UNL A   1      36.628  31.376  30.715  1.00  0.00     0.055 A 
ATOM     68  C   UNL A   1      37.339  30.208  32.691  1.00  0.00     0.041 A 
ATOM     69  F   UNL A   1      39.414  29.122  32.718  1.00  0.00    -0.206 F 
ATOM     70  C   UNL A   1      36.403  31.011  32.044  1.00  0.00     0.022 A 
BRANCH  67  71
ATOM     71  S   UNL A   1      35.571  32.620  29.922  1.00  0.00     0.124 S 
ATOM     72  O   UNL A   1      34.363  32.543  30.740  1.00  0.00    -0.237 OA
ATOM     73  O   UNL A   1      36.361  33.838  30.061  1.00  0.00    -0.237 OA
ATOM     74  O   UNL A   1      35.422  32.122  28.556  1.00  0.00    -0.744 OA
ENDBRANCH  67  71
ENDBRANCH  50  64
BRANCH  51  75
ATOM     75  C   UNL A   1      46.973  27.389  25.676  1.00  0.00     0.023 A 
ATOM     76  C   UNL A   1      47.084  27.774  24.330  1.00  0.00     0.031 A 
ATOM     77  C   UNL A   1      48.013  26.623  26.232  1.00  0.00     0.131 A 
ATOM     78  C   UNL A   1      48.193  27.364  23.575  1.00  0.00     0.055 A 
ATOM     79  C   UNL A   1      49.135  26.253  25.488  1.00  0.00     0.041 A 
ATOM     80  F   UNL A   1      47.960  26.239  27.518  1.00  0.00    -0.206 F 
ATOM     81  C   UNL A   1      49.224  26.615  24.148  1.00  0.00     0.022 A 
BRANCH  78  82
ATOM     82  S   UNL A   1      48.244  27.778  21.810  1.00  0.00     0.124 S 
ATOM     83  O   UNL A   1      48.435  26.466  21.202  1.00  0.00    -0.237 OA
ATOM     84  O   UNL A   1      46.937  28.396  21.606  1.00  0.00    -0.237 OA
ATOM     85  O   UNL A   1      49.383  28.688  21.706  1.00  0.00    -0.744 OA
ENDBRANCH  78  82
ENDBRANCH  51  75
BRANCH  63  86
ATOM     86  C   UNL A   1      45.224  33.087  29.303  1.00  0.00     0.023 A 
ATOM     87  C   UNL A   1      45.249  34.202  28.448  1.00  0.00     0.031 A 
ATOM     88  C   UNL A   1      45.929  33.164  30.518  1.00  0.00     0.131 A 
ATOM     89  C   UNL A   1      45.998  35.335  28.803  1.00  0.00     0.055 A 
ATOM     90  C   UNL A   1      46.631  34.311  30.888  1.00  0.00     0.041 A 
ATOM     91  F   UNL A   1      45.937  32.125  31.369  1.00  0.00    -0.206 F 
ATOM     92  C   UNL A   1      46.676  35.401  30.024  1.00  0.00     0.022 A 
BRANCH  89  93
ATOM     93  S   UNL A   1      46.129  36.701  27.617  1.00  0.00     0.124 S 
ATOM     94  O   UNL A   1      45.099  37.618  28.095  1.00  0.00    -0.237 OA
ATOM     95  O   UNL A   1      47.509  37.142  27.799  1.00  0.00    -0.237 OA
ATOM     96  O   UNL A   1      45.847  36.067  26.330  1.00  0.00    -0.744 OA
ENDBRANCH  89  93
ENDBRANCH  63  86
ENDBRANCH  37  38
ENDBRANCH  29  32
ENDBRANCH  27  28
ENDBRANCH  26  27
ENDBRANCH   1  26
TORSDOF 20
ENDMDL
MODEL 2
REMARK VINA RESULT:     -11.6      2.777      4.085
REMARK SMILES CC[C@@H](C)[C@H](NC(=O)CCc1ccc(F)c(F)c1)C(=O)NCCCCNC(=O)c1ccc(-c2c3nc(c(-c4cc(S(=O)(=O)[O-])ccc4F)c4ccc([nH]4)c(-c4cc(S(=O)(=O)[O-])ccc4F)c4nc(c(-c5cc(S(=O)(=O)[O-])ccc5F)c5ccc2[nH]5)C=C4)C=C3)cc1
REMARK SMILES IDX 23 1 22 2 21 3 19 4 20 5 5 7 3 8 4 9 2 10 1 11 6 12 7 13
REMARK SMILES IDX 8 15 9 16 10 17 11 18 12 19 18 20 13 21 16 22 14 23 17 24
REMARK SMILES IDX 15 25 24 26 25 27 26 28 27 29 28 31 29 32 30 33 91 34 31 35
REMARK SMILES IDX 90 36 32 37 33 38 34 39 84 40 35 41 89 42 83 43 85 44 36 45
REMARK SMILES IDX 88 46 82 47 81 48 37 50 69 51 49 52 68 53 50 54 53 55 67 56
REMARK SMILES IDX 86 57 51 58 52 59 66 61 87 62 54 63 38 64 39 65 47 66 40 67
REMARK SMILES IDX 46 68 48 69 45 70 41 71 42 72 43 73 44 74 70 75 71 76 79 77
REMARK SMILES IDX 72 78 78 79 80 80 77 81 73 82 74 83 75 84 76 85 55 86 56 87
REMARK SMILES IDX 64 88 57 89 63 90 65 91 62 92 58 93 59 94 60 95 61 96
REMARK H PARENT 21 6 6 14 26 30 85 49 53 60
REMARK Flexibility Score: inf
ROOT
ATOM      1  C   UNL A   1      35.506  23.641  23.941  1.00  0.00     0.023 C 
ENDROOT
BRANCH   1   2
ATOM      2  C   UNL A   1      34.179  24.382  24.000  1.00  0.00     0.116 C 
BRANCH   2   3
ATOM      3  N   UNL A   1      34.215  25.558  24.842  1.00  0.00    -0.354 N 
ATOM      4  C   UNL A   1      33.209  26.139  25.554  1.00  0.00     0.242 C 
ATOM      5  O   UNL A   1      33.524  26.956  26.426  1.00  0.00    -0.273 OA
ATOM      6  H   UNL A   1      35.092  26.001  24.911  1.00  0.00     0.163 HD
BRANCH   4   7
ATOM      7  C   UNL A   1      31.732  25.740  25.358  1.00  0.00     0.174 C 
BRANCH   7   8
ATOM      8  C   UNL A   1      30.813  26.833  24.730  1.00  0.00     0.018 C 
ATOM      9  C   UNL A   1      29.451  26.349  24.232  1.00  0.00     0.010 C 
BRANCH   8  10
ATOM     10  C   UNL A   1      31.543  27.627  23.619  1.00  0.00     0.002 C 
ATOM     11  C   UNL A   1      30.723  27.807  22.349  1.00  0.00     0.004 C 
ENDBRANCH   8  10
ENDBRANCH   7   8
BRANCH   7  12
ATOM     12  N   UNL A   1      31.156  25.037  26.507  1.00  0.00    -0.344 N 
ATOM     13  C   UNL A   1      30.760  23.736  26.594  1.00  0.00     0.220 C 
ATOM     14  H   UNL A   1      31.039  25.575  27.324  1.00  0.00     0.164 HD
ATOM     15  O   UNL A   1      30.175  23.372  27.615  1.00  0.00    -0.275 OA
BRANCH  13  16
ATOM     16  C   UNL A   1      31.033  22.757  25.466  1.00  0.00     0.105 C 
BRANCH  16  17
ATOM     17  C   UNL A   1      32.129  21.740  25.808  1.00  0.00     0.045 C 
BRANCH  17  18
ATOM     18  C   UNL A   1      32.324  20.687  24.740  1.00  0.00    -0.044 A 
ATOM     19  C   UNL A   1      32.161  21.016  23.382  1.00  0.00     0.007 A 
ATOM     20  C   UNL A   1      32.564  19.351  25.091  1.00  0.00     0.046 A 
ATOM     21  C   UNL A   1      32.159  20.019  22.403  1.00  0.00     0.043 A 
ATOM     22  C   UNL A   1      32.567  18.365  24.108  1.00  0.00     0.159 A 
ATOM     23  C   UNL A   1      32.350  18.694  22.776  1.00  0.00     0.158 A 
ATOM     24  F   UNL A   1      32.726  17.083  24.466  1.00  0.00    -0.204 F 
ATOM     25  F   UNL A   1      32.298  17.733  21.843  1.00  0.00    -0.204 F 
ENDBRANCH  17  18
ENDBRANCH  16  17
ENDBRANCH  13  16
ENDBRANCH   7  12
ENDBRANCH   4   7
ENDBRANCH   2   3
ENDBRANCH   1   2
BRANCH   1  26
ATOM     26  C   UNL A   1      35.499  22.253  24.581  1.00  0.00     0.023 C 
BRANCH  26  27
ATOM     27  C   UNL A   1      36.433  22.069  25.772  1.00  0.00     0.116 C 
BRANCH  27  28
ATOM     28  N   UNL A   1      37.417  21.013  25.579  1.00  0.00    -0.352 N 
ATOM     29  C   UNL A   1      38.764  21.026  25.872  1.00  0.00     0.251 C 
ATOM     30  H   UNL A   1      37.074  20.177  25.187  1.00  0.00     0.163 HD
ATOM     31  O   UNL A   1      39.473  20.080  25.581  1.00  0.00    -0.269 OA
BRANCH  29  32
ATOM     32  C   UNL A   1      39.327  22.237  26.503  1.00  0.00     0.039 A 
ATOM     33  C   UNL A   1      40.361  22.095  27.430  1.00  0.00     0.014 A 
ATOM     34  C   UNL A   1      38.899  23.502  26.094  1.00  0.00     0.014 A 
ATOM     35  C   UNL A   1      41.031  23.230  27.887  1.00  0.00     0.010 A 
ATOM     36  C   UNL A   1      39.616  24.623  26.493  1.00  0.00     0.010 A 
ATOM     37  C   UNL A   1      40.694  24.497  27.386  1.00  0.00    -0.014 A 
BRANCH  37  38
ATOM     38  C   UNL A   1      41.438  25.720  27.784  1.00  0.00     0.031 A 
ATOM     39  C   UNL A   1      40.710  26.820  28.502  1.00  0.00     0.074 A 
ATOM     40  C   UNL A   1      42.720  25.884  27.406  1.00  0.00     0.049 A 
ATOM     41  N   UNL A   1      41.102  28.037  28.777  1.00  0.00    -0.248 NA
ATOM     42  C   UNL A   1      39.334  26.518  28.924  1.00  0.00     0.031 C 
ATOM     43  C   UNL A   1      43.521  24.904  26.672  1.00  0.00     0.029 A 
ATOM     44  N   UNL A   1      43.570  26.950  27.568  1.00  0.00    -0.354 N 
ATOM     45  C   UNL A   1      40.010  28.658  29.373  1.00  0.00     0.074 A 
ATOM     46  C   UNL A   1      38.925  27.698  29.362  1.00  0.00     0.031 C 
ATOM     47  C   UNL A   1      44.747  25.410  26.454  1.00  0.00     0.029 A 
ATOM     48  C   UNL A   1      44.805  26.765  26.991  1.00  0.00     0.049 A 
ATOM     49  H   UNL A   1      43.319  27.769  28.053  1.00  0.00     0.167 HD
ATOM     50  C   UNL A   1      39.927  29.906  29.897  1.00  0.00     0.034 A 
ATOM     51  C   UNL A   1      45.856  27.603  26.887  1.00  0.00     0.034 A 
ATOM     52  C   UNL A   1      41.028  30.836  29.921  1.00  0.00     0.049 A 
ATOM     53  C   UNL A   1      45.749  28.983  27.484  1.00  0.00     0.074 A 
ATOM     54  C   UNL A   1      41.079  32.104  30.471  1.00  0.00     0.029 A 
ATOM     55  N   UNL A   1      42.280  30.596  29.365  1.00  0.00    -0.354 N 
ATOM     56  N   UNL A   1      44.720  29.550  28.071  1.00  0.00    -0.248 NA
ATOM     57  C   UNL A   1      46.946  29.831  27.412  1.00  0.00     0.031 C 
ATOM     58  C   UNL A   1      42.339  32.650  30.204  1.00  0.00     0.029 A 
ATOM     59  C   UNL A   1      43.102  31.698  29.545  1.00  0.00     0.049 A 
ATOM     60  H   UNL A   1      42.544  29.763  28.910  1.00  0.00     0.167 HD
ATOM     61  C   UNL A   1      45.158  30.810  28.468  1.00  0.00     0.074 A 
ATOM     62  C   UNL A   1      46.543  30.919  28.055  1.00  0.00     0.031 C 
ATOM     63  C   UNL A   1      44.480  31.786  29.124  1.00  0.00     0.034 A 
BRANCH  50  64
ATOM     64  C   UNL A   1      38.587  30.329  30.453  1.00  0.00     0.023 A 
ATOM     65  C   UNL A   1      37.663  31.055  29.680  1.00  0.00     0.031 A 
ATOM     66  C   UNL A   1      38.256  30.065  31.794  1.00  0.00     0.131 A 
ATOM     67  C   UNL A   1      36.510  31.581  30.279  1.00  0.00     0.055 A 
ATOM     68  C   UNL A   1      37.059  30.512  32.359  1.00  0.00     0.041 A 
ATOM     69  F   UNL A   1      39.105  29.394  32.589  1.00  0.00    -0.206 F 
ATOM     70  C   UNL A   1      36.187  31.294  31.606  1.00  0.00     0.022 A 
BRANCH  67  71
ATOM     71  S   UNL A   1      35.536  32.797  29.348  1.00  0.00     0.124 S 
ATOM     72  O   UNL A   1      35.788  32.383  27.970  1.00  0.00    -0.237 OA
ATOM     73  O   UNL A   1      34.185  32.568  29.847  1.00  0.00    -0.237 OA
ATOM     74  O   UNL A   1      36.134  34.076  29.725  1.00  0.00    -0.744 OA
ENDBRANCH  67  71
ENDBRANCH  50  64
BRANCH  51  75
ATOM     75  C   UNL A   1      47.095  27.169  26.185  1.00  0.00     0.023 A 
ATOM     76  C   UNL A   1      48.108  26.477  26.868  1.00  0.00     0.031 A 
ATOM     77  C   UNL A   1      47.293  27.455  24.823  1.00  0.00     0.131 A 
ATOM     78  C   UNL A   1      49.288  26.124  26.197  1.00  0.00     0.055 A 
ATOM     79  C   UNL A   1      48.452  27.065  24.148  1.00  0.00     0.041 A 
ATOM     80  F   UNL A   1      46.349  28.104  24.122  1.00  0.00    -0.206 F 
ATOM     81  C   UNL A   1      49.463  26.405  24.839  1.00  0.00     0.022 A 
BRANCH  78  82
ATOM     82  S   UNL A   1      50.624  25.340  27.141  1.00  0.00     0.124 S 
ATOM     83  O   UNL A   1      51.563  24.979  26.085  1.00  0.00    -0.237 OA
ATOM     84  O   UNL A   1      51.040  26.420  28.030  1.00  0.00    -0.237 OA
ATOM     85  O   UNL A   1      49.961  24.216  27.799  1.00  0.00    -0.744 OA
ENDBRANCH  78  82
ENDBRANCH  51  75
BRANCH  63  86
ATOM     86  C   UNL A   1      45.249  33.030  29.489  1.00  0.00     0.023 A 
ATOM     87  C   UNL A   1      45.285  34.156  28.649  1.00  0.00     0.031 A 
ATOM     88  C   UNL A   1      45.951  33.086  30.707  1.00  0.00     0.131 A 
ATOM     89  C   UNL A   1      46.041  35.278  29.021  1.00  0.00     0.055 A 
ATOM     90  C   UNL A   1      46.661  34.222  31.093  1.00  0.00     0.041 A 
ATOM     91  F   UNL A   1      45.949  32.036  31.544  1.00  0.00    -0.206 F 
ATOM     92  C   UNL A   1      46.717  35.323  30.244  1.00  0.00     0.022 A 
BRANCH  89  93
ATOM     93  S   UNL A   1      46.186  36.659  27.853  1.00  0.00     0.124 S 
ATOM     94  O   UNL A   1      47.529  36.461  27.315  1.00  0.00    -0.237 OA
ATOM     95  O   UNL A   1      45.085  36.405  26.929  1.00  0.00    -0.237 OA
ATOM     96  O   UNL A   1      46.024  37.841  28.698  1.00  0.00    -0.744 OA
ENDBRANCH  89  93
ENDBRANCH  63  86
ENDBRANCH  37  38
ENDBRANCH  29  32
ENDBRANCH  27  28
ENDBRANCH  26  27
ENDBRANCH   1  26
TORSDOF 20
ENDMDL
MODEL 3
REMARK VINA RESULT:     -11.6      2.434      3.860
REMARK SMILES CC[C@@H](C)[C@H](NC(=O)CCc1ccc(F)c(F)c1)C(=O)NCCCCNC(=O)c1ccc(-c2c3nc(c(-c4cc(S(=O)(=O)[O-])ccc4F)c4ccc([nH]4)c(-c4cc(S(=O)(=O)[O-])ccc4F)c4nc(c(-c5cc(S(=O)(=O)[O-])ccc5F)c5ccc2[nH]5)C=C4)C=C3)cc1
REMARK SMILES IDX 23 1 22 2 21 3 19 4 20 5 5 7 3 8 4 9 2 10 1 11 6 12 7 13
REMARK SMILES IDX 8 15 9 16 10 17 11 18 12 19 18 20 13 21 16 22 14 23 17 24
REMARK SMILES IDX 15 25 24 26 25 27 26 28 27 29 28 31 29 32 30 33 91 34 31 35
REMARK SMILES IDX 90 36 32 37 33 38 34 39 84 40 35 41 89 42 83 43 85 44 36 45
REMARK SMILES IDX 88 46 82 47 81 48 37 50 69 51 49 52 68 53 50 54 53 55 67 56
REMARK SMILES IDX 86 57 51 58 52 59 66 61 87 62 54 63 38 64 39 65 47 66 40 67
REMARK SMILES IDX 46 68 48 69 45 70 41 71 42 72 43 73 44 74 70 75 71 76 79 77
REMARK SMILES IDX 72 78 78 79 80 80 77 81 73 82 74 83 75 84 76 85 55 86 56 87
REMARK SMILES IDX 64 88 57 89 63 90 65 91 62 92 58 93 59 94 60 95 61 96
REMARK H PARENT 21 6 6 14 26 30 85 49 53 60
REMARK Flexibility Score: inf
ROOT
ATOM      1  C   UNL A   1      36.085  22.859  23.475  1.00  0.00     0.023 C 
ENDROOT
BRANCH   1   2
ATOM      2  C   UNL A   1      34.765  23.615  23.464  1.00  0.00     0.116 C 
BRANCH   2   3
ATOM      3  N   UNL A   1      34.683  24.641  24.481  1.00  0.00    -0.354 N 
ATOM      4  C   UNL A   1      33.582  25.179  25.076  1.00  0.00     0.242 C 
ATOM      5  O   UNL A   1      33.751  25.826  26.114  1.00  0.00    -0.273 OA
ATOM      6  H   UNL A   1      35.547  25.003  24.786  1.00  0.00     0.163 HD
BRANCH   4   7
ATOM      7  C   UNL A   1      32.157  24.925  24.540  1.00  0.00     0.174 C 
BRANCH   7   8
ATOM      8  C   UNL A   1      31.465  26.144  23.856  1.00  0.00     0.018 C 
ATOM      9  C   UNL A   1      29.950  26.033  23.678  1.00  0.00     0.010 C 
BRANCH   8  10
ATOM     10  C   UNL A   1      32.141  26.508  22.512  1.00  0.00     0.002 C 
ATOM     11  C   UNL A   1      32.969  27.785  22.564  1.00  0.00     0.004 C 
ENDBRANCH   8  10
ENDBRANCH   7   8
BRANCH   7  12
ATOM     12  N   UNL A   1      31.307  24.173  25.466  1.00  0.00    -0.344 N 
ATOM     13  C   UNL A   1      31.081  22.830  25.510  1.00  0.00     0.220 C 
ATOM     14  H   UNL A   1      30.836  24.708  26.146  1.00  0.00     0.164 HD
ATOM     15  O   UNL A   1      30.223  22.408  26.288  1.00  0.00    -0.275 OA
BRANCH  13  16
ATOM     16  C   UNL A   1      31.865  21.874  24.628  1.00  0.00     0.105 C 
BRANCH  16  17
ATOM     17  C   UNL A   1      32.741  20.903  25.429  1.00  0.00     0.045 C 
BRANCH  17  18
ATOM     18  C   UNL A   1      32.998  19.597  24.710  1.00  0.00    -0.044 A 
ATOM     19  C   UNL A   1      33.940  18.683  25.218  1.00  0.00     0.007 A 
ATOM     20  C   UNL A   1      32.386  19.328  23.478  1.00  0.00     0.046 A 
ATOM     21  C   UNL A   1      34.318  17.563  24.471  1.00  0.00     0.043 A 
ATOM     22  C   UNL A   1      32.764  18.206  22.745  1.00  0.00     0.159 A 
ATOM     23  C   UNL A   1      33.734  17.339  23.231  1.00  0.00     0.158 A 
ATOM     24  F   UNL A   1      32.222  18.001  21.536  1.00  0.00    -0.204 F 
ATOM     25  F   UNL A   1      34.134  16.293  22.494  1.00  0.00    -0.204 F 
ENDBRANCH  17  18
ENDBRANCH  16  17
ENDBRANCH  13  16
ENDBRANCH   7  12
ENDBRANCH   4   7
ENDBRANCH   2   3
ENDBRANCH   1   2
BRANCH   1  26
ATOM     26  C   UNL A   1      36.110  21.618  24.367  1.00  0.00     0.023 C 
BRANCH  26  27
ATOM     27  C   UNL A   1      37.025  21.698  25.584  1.00  0.00     0.116 C 
BRANCH  27  28
ATOM     28  N   UNL A   1      38.028  20.642  25.625  1.00  0.00    -0.352 N 
ATOM     29  C   UNL A   1      39.328  20.706  26.080  1.00  0.00     0.251 C 
ATOM     30  H   UNL A   1      37.738  19.766  25.283  1.00  0.00     0.163 HD
ATOM     31  O   UNL A   1      40.070  19.747  25.978  1.00  0.00    -0.269 OA
BRANCH  29  32
ATOM     32  C   UNL A   1      39.805  21.984  26.647  1.00  0.00     0.039 A 
ATOM     33  C   UNL A   1      40.788  21.956  27.638  1.00  0.00     0.014 A 
ATOM     34  C   UNL A   1      39.353  23.195  26.119  1.00  0.00     0.014 A 
ATOM     35  C   UNL A   1      41.385  23.151  28.043  1.00  0.00     0.010 A 
ATOM     36  C   UNL A   1      40.001  24.373  26.471  1.00  0.00     0.010 A 
ATOM     37  C   UNL A   1      41.028  24.361  27.429  1.00  0.00    -0.014 A 
BRANCH  37  38
ATOM     38  C   UNL A   1      41.699  25.641  27.772  1.00  0.00     0.031 A 
ATOM     39  C   UNL A   1      40.936  26.688  28.534  1.00  0.00     0.074 A 
ATOM     40  C   UNL A   1      42.937  25.901  27.310  1.00  0.00     0.049 A 
ATOM     41  N   UNL A   1      41.249  27.933  28.778  1.00  0.00    -0.248 NA
ATOM     42  C   UNL A   1      39.619  26.283  29.046  1.00  0.00     0.031 C 
ATOM     43  C   UNL A   1      43.762  24.979  26.528  1.00  0.00     0.029 A 
ATOM     44  N   UNL A   1      43.710  27.031  27.413  1.00  0.00    -0.354 N 
ATOM     45  C   UNL A   1      40.153  28.473  29.442  1.00  0.00     0.074 A 
ATOM     46  C   UNL A   1      39.148  27.432  29.505  1.00  0.00     0.031 C 
ATOM     47  C   UNL A   1      44.928  25.578  26.229  1.00  0.00     0.029 A 
ATOM     48  C   UNL A   1      44.915  26.938  26.757  1.00  0.00     0.049 A 
ATOM     49  H   UNL A   1      43.428  27.832  27.910  1.00  0.00     0.167 HD
ATOM     50  C   UNL A   1      40.007  29.716  29.966  1.00  0.00     0.034 A 
ATOM     51  C   UNL A   1      45.889  27.853  26.580  1.00  0.00     0.034 A 
ATOM     52  C   UNL A   1      41.032  30.728  29.914  1.00  0.00     0.049 A 
ATOM     53  C   UNL A   1      45.714  29.226  27.178  1.00  0.00     0.074 A 
ATOM     54  C   UNL A   1      41.020  32.001  30.456  1.00  0.00     0.029 A 
ATOM     55  N   UNL A   1      42.260  30.581  29.278  1.00  0.00    -0.354 N 
ATOM     56  N   UNL A   1      44.685  29.717  27.830  1.00  0.00    -0.248 NA
ATOM     57  C   UNL A   1      46.834  30.164  27.024  1.00  0.00     0.031 C 
ATOM     58  C   UNL A   1      42.214  32.641  30.104  1.00  0.00     0.029 A 
ATOM     59  C   UNL A   1      43.003  31.745  29.400  1.00  0.00     0.049 A 
ATOM     60  H   UNL A   1      42.558  29.767  28.809  1.00  0.00     0.167 HD
ATOM     61  C   UNL A   1      45.048  31.010  28.193  1.00  0.00     0.074 A 
ATOM     62  C   UNL A   1      46.390  31.222  27.689  1.00  0.00     0.031 C 
ATOM     63  C   UNL A   1      44.340  31.936  28.889  1.00  0.00     0.034 A 
BRANCH  50  64
ATOM     64  C   UNL A   1      38.678  30.038  30.608  1.00  0.00     0.023 A 
ATOM     65  C   UNL A   1      37.647  30.672  29.891  1.00  0.00     0.031 A 
ATOM     66  C   UNL A   1      38.462  29.773  31.971  1.00  0.00     0.131 A 
ATOM     67  C   UNL A   1      36.498  31.113  30.561  1.00  0.00     0.055 A 
ATOM     68  C   UNL A   1      37.273  30.131  32.612  1.00  0.00     0.041 A 
ATOM     69  F   UNL A   1      39.415  29.188  32.714  1.00  0.00    -0.206 F 
ATOM     70  C   UNL A   1      36.290  30.825  31.911  1.00  0.00     0.022 A 
BRANCH  67  71
ATOM     71  S   UNL A   1      35.366  32.228  29.684  1.00  0.00     0.124 S 
ATOM     72  O   UNL A   1      36.265  33.313  29.295  1.00  0.00    -0.237 OA
ATOM     73  O   UNL A   1      34.872  31.388  28.599  1.00  0.00    -0.237 OA
ATOM     74  O   UNL A   1      34.378  32.583  30.700  1.00  0.00    -0.744 OA
ENDBRANCH  67  71
ENDBRANCH  50  64
BRANCH  51  75
ATOM     75  C   UNL A   1      47.109  27.510  25.799  1.00  0.00     0.023 A 
ATOM     76  C   UNL A   1      47.195  27.801  24.428  1.00  0.00     0.031 A 
ATOM     77  C   UNL A   1      48.203  26.870  26.409  1.00  0.00     0.131 A 
ATOM     78  C   UNL A   1      48.334  27.420  23.703  1.00  0.00     0.055 A 
ATOM     79  C   UNL A   1      49.352  26.532  25.692  1.00  0.00     0.041 A 
ATOM     80  F   UNL A   1      48.175  26.582  27.720  1.00  0.00    -0.206 F 
ATOM     81  C   UNL A   1      49.417  26.797  24.328  1.00  0.00     0.022 A 
BRANCH  78  82
ATOM     82  S   UNL A   1      48.358  27.702  21.912  1.00  0.00     0.124 S 
ATOM     83  O   UNL A   1      49.491  28.608  21.768  1.00  0.00    -0.237 OA
ATOM     84  O   UNL A   1      48.547  26.350  21.395  1.00  0.00    -0.237 OA
ATOM     85  O   UNL A   1      47.048  28.290  21.642  1.00  0.00    -0.744 OA
ENDBRANCH  78  82
ENDBRANCH  51  75
BRANCH  63  86
ATOM     86  C   UNL A   1      45.032  33.239  29.198  1.00  0.00     0.023 A 
ATOM     87  C   UNL A   1      44.914  34.361  28.360  1.00  0.00     0.031 A 
ATOM     88  C   UNL A   1      45.816  33.355  30.359  1.00  0.00     0.131 A 
ATOM     89  C   UNL A   1      45.604  35.541  28.677  1.00  0.00     0.055 A 
ATOM     90  C   UNL A   1      46.459  34.547  30.695  1.00  0.00     0.041 A 
ATOM     91  F   UNL A   1      45.961  32.312  31.193  1.00  0.00    -0.206 F 
ATOM     92  C   UNL A   1      46.363  35.645  29.846  1.00  0.00     0.022 A 
BRANCH  89  93
ATOM     93  S   UNL A   1      45.550  36.925  27.505  1.00  0.00     0.124 S 
ATOM     94  O   UNL A   1      46.259  37.970  28.236  1.00  0.00    -0.237 OA
ATOM     95  O   UNL A   1      46.243  36.378  26.342  1.00  0.00    -0.237 OA
ATOM     96  O   UNL A   1      44.119  37.161  27.317  1.00  0.00    -0.744 OA
ENDBRANCH  89  93
ENDBRANCH  63  86
ENDBRANCH  37  38
ENDBRANCH  29  32
ENDBRANCH  27  28
ENDBRANCH  26  27
ENDBRANCH   1  26
TORSDOF 20
ENDMDL
