MODEL 1
REMARK VINA RESULT:     -12.2      0.000      0.000
REMARK SMILES C[C@H]1[C@@H]([NH2+]C[C@H]2CC[C@@H](C(=O)NCCCCNC(=O)c3ccc(-c4c5nc(c(-c6cc(S(=O)(=O)[O-])ccc6F)c6ccc([nH]6)c(-c6cc(S(=O)(=O)[O-])ccc6F)c6nc(c(-c7cc(S(=O)(=O)[O-])ccc7F)c7ccc4[nH]7)C=C6)C=C5)cc3)CC2)CCC[C@@H]1C
REMARK SMILES IDX 14 1 13 2 12 3 10 4 11 5 9 7 6 8 7 9 84 10 8 11 83 12 5 13
REMARK SMILES IDX 4 14 3 17 1 18 2 19 88 20 85 21 87 22 89 23 86 24 15 25
REMARK SMILES IDX 16 26 17 27 18 28 19 30 20 31 21 32 82 33 22 34 81 35 23 36
REMARK SMILES IDX 24 37 25 38 75 39 26 40 80 41 74 42 76 43 27 44 79 45 73 46
REMARK SMILES IDX 72 47 28 49 60 50 40 51 59 52 41 53 44 54 58 55 77 56 42 57
REMARK SMILES IDX 43 58 57 60 78 61 45 62 29 63 30 64 38 65 31 66 37 67 39 68
REMARK SMILES IDX 36 69 32 70 33 71 34 72 35 73 61 74 62 75 70 76 63 77 69 78
REMARK SMILES IDX 71 79 68 80 64 81 65 82 66 83 67 84 46 85 47 86 55 87 48 88
REMARK SMILES IDX 54 89 56 90 53 91 49 92 50 93 51 94 52 95
REMARK H PARENT 12 6 4 15 4 16 17 29 76 48 44 59
REMARK Flexibility Score: inf
ROOT
ATOM      1  C   UNL A   1      33.728  28.027  24.229  1.00  0.00     0.023 C 
ENDROOT
BRANCH   1   2
ATOM      2  C   UNL A   1      33.300  27.328  22.940  1.00  0.00     0.116 C 
BRANCH   2   3
ATOM      3  N   UNL A   1      32.065  27.851  22.394  1.00  0.00    -0.356 N 
ATOM      4  C   UNL A   1      30.769  27.488  22.600  1.00  0.00     0.223 C 
ATOM      5  O   UNL A   1      29.898  28.153  22.033  1.00  0.00    -0.275 OA
ATOM      6  H   UNL A   1      32.183  28.597  21.763  1.00  0.00     0.163 HD
BRANCH   4   7
ATOM      7  C   UNL A   1      30.364  26.319  23.507  1.00  0.00     0.078 C 
ATOM      8  C   UNL A   1      31.140  24.290  25.577  1.00  0.00     0.044 C 
ATOM      9  C   UNL A   1      30.217  25.479  25.907  1.00  0.00     0.010 C 
ATOM     10  C   UNL A   1      30.863  23.864  24.127  1.00  0.00     0.010 C 
ATOM     11  C   UNL A   1      30.451  26.683  24.995  1.00  0.00     0.014 C 
ATOM     12  C   UNL A   1      31.038  24.997  23.109  1.00  0.00     0.014 C 
BRANCH   8  13
ATOM     13  C   UNL A   1      32.612  24.672  25.845  1.00  0.00     0.264 C 
BRANCH  13  14
ATOM     14  N   UNL A   1      33.628  23.792  25.261  1.00  0.00    -0.343 N 
ATOM     15  H   UNL A   1      33.193  23.210  24.544  1.00  0.00     0.346 HD
ATOM     16  H   UNL A   1      34.364  24.371  24.857  1.00  0.00     0.346 HD
BRANCH  14  17
ATOM     17  C   UNL A   1      34.237  22.913  26.294  1.00  0.00     0.185 C 
ATOM     18  C   UNL A   1      36.554  23.875  25.824  1.00  0.00     0.014 C 
ATOM     19  C   UNL A   1      35.731  22.594  26.001  1.00  0.00     0.047 C 
ATOM     20  C   UNL A   1      35.910  21.602  24.817  1.00  0.00    -0.006 C 
ATOM     21  C   UNL A   1      33.490  21.579  26.518  1.00  0.00     0.065 C 
ATOM     22  C   UNL A   1      35.049  20.340  25.001  1.00  0.00     0.004 C 
ATOM     23  C   UNL A   1      37.373  21.174  24.644  1.00  0.00     0.008 C 
ATOM     24  C   UNL A   1      33.591  20.655  25.310  1.00  0.00     0.006 C 
ENDBRANCH  14  17
ENDBRANCH  13  14
ENDBRANCH   8  13
ENDBRANCH   4   7
ENDBRANCH   2   3
ENDBRANCH   1   2
BRANCH   1  25
ATOM     25  C   UNL A   1      32.993  29.334  24.515  1.00  0.00     0.023 C 
BRANCH  25  26
ATOM     26  C   UNL A   1      32.526  29.517  25.955  1.00  0.00     0.116 C 
BRANCH  26  27
ATOM     27  N   UNL A   1      32.176  30.892  26.281  1.00  0.00    -0.352 N 
ATOM     28  C   UNL A   1      32.851  31.775  27.092  1.00  0.00     0.251 C 
ATOM     29  H   UNL A   1      31.350  31.233  25.868  1.00  0.00     0.163 HD
ATOM     30  O   UNL A   1      32.358  32.871  27.350  1.00  0.00    -0.269 OA
BRANCH  28  31
ATOM     31  C   UNL A   1      34.147  31.373  27.677  1.00  0.00     0.039 A 
ATOM     32  C   UNL A   1      35.097  32.357  27.960  1.00  0.00     0.014 A 
ATOM     33  C   UNL A   1      34.398  30.037  27.999  1.00  0.00     0.014 A 
ATOM     34  C   UNL A   1      36.270  32.010  28.636  1.00  0.00     0.010 A 
ATOM     35  C   UNL A   1      35.532  29.706  28.736  1.00  0.00     0.010 A 
ATOM     36  C   UNL A   1      36.477  30.689  29.068  1.00  0.00    -0.014 A 
BRANCH  36  37
ATOM     37  C   UNL A   1      37.672  30.314  29.867  1.00  0.00     0.031 A 
ATOM     38  C   UNL A   1      38.704  29.387  29.285  1.00  0.00     0.074 A 
ATOM     39  C   UNL A   1      37.788  30.743  31.139  1.00  0.00     0.049 A 
ATOM     40  N   UNL A   1      39.767  28.872  29.847  1.00  0.00    -0.248 NA
ATOM     41  C   UNL A   1      38.490  28.957  27.897  1.00  0.00     0.031 C 
ATOM     42  C   UNL A   1      36.831  31.610  31.831  1.00  0.00     0.029 A 
ATOM     43  N   UNL A   1      38.757  30.503  32.082  1.00  0.00    -0.354 N 
ATOM     44  C   UNL A   1      40.340  28.043  28.888  1.00  0.00     0.074 A 
ATOM     45  C   UNL A   1      39.466  28.079  27.732  1.00  0.00     0.031 C 
ATOM     46  C   UNL A   1      37.273  31.849  33.076  1.00  0.00     0.029 A 
ATOM     47  C   UNL A   1      38.519  31.120  33.290  1.00  0.00     0.049 A 
ATOM     48  H   UNL A   1      39.546  29.942  31.911  1.00  0.00     0.167 HD
ATOM     49  C   UNL A   1      41.497  27.338  28.955  1.00  0.00     0.034 A 
ATOM     50  C   UNL A   1      39.221  31.092  34.440  1.00  0.00     0.034 A 
ATOM     51  C   UNL A   1      42.363  27.328  30.108  1.00  0.00     0.049 A 
ATOM     52  C   UNL A   1      40.491  30.283  34.499  1.00  0.00     0.074 A 
ATOM     53  C   UNL A   1      43.589  26.705  30.261  1.00  0.00     0.029 A 
ATOM     54  N   UNL A   1      42.090  27.964  31.314  1.00  0.00    -0.354 N 
ATOM     55  N   UNL A   1      41.050  29.551  33.563  1.00  0.00    -0.248 NA
ATOM     56  C   UNL A   1      41.231  30.305  35.768  1.00  0.00     0.031 C 
ATOM     57  C   UNL A   1      44.026  26.909  31.575  1.00  0.00     0.029 A 
ATOM     58  C   UNL A   1      43.108  27.721  32.223  1.00  0.00     0.049 A 
ATOM     59  H   UNL A   1      41.290  28.509  31.495  1.00  0.00     0.167 HD
ATOM     60  C   UNL A   1      42.224  29.053  34.123  1.00  0.00     0.074 A 
ATOM     61  C   UNL A   1      42.296  29.577  35.471  1.00  0.00     0.031 C 
ATOM     62  C   UNL A   1      43.162  28.242  33.569  1.00  0.00     0.034 A 
BRANCH  49  63
ATOM     63  C   UNL A   1      41.867  26.502  27.751  1.00  0.00     0.023 A 
ATOM     64  C   UNL A   1      41.543  25.136  27.671  1.00  0.00     0.031 A 
ATOM     65  C   UNL A   1      42.592  27.067  26.687  1.00  0.00     0.131 A 
ATOM     66  C   UNL A   1      42.019  24.362  26.602  1.00  0.00     0.055 A 
ATOM     67  C   UNL A   1      42.987  26.310  25.581  1.00  0.00     0.041 A 
ATOM     68  F   UNL A   1      42.949  28.361  26.713  1.00  0.00    -0.206 F 
ATOM     69  C   UNL A   1      42.717  24.946  25.543  1.00  0.00     0.022 A 
BRANCH  66  70
ATOM     70  S   UNL A   1      41.854  22.559  26.700  1.00  0.00     0.124 S 
ATOM     71  O   UNL A   1      42.781  22.237  27.783  1.00  0.00    -0.237 OA
ATOM     72  O   UNL A   1      40.438  22.388  27.000  1.00  0.00    -0.237 OA
ATOM     73  O   UNL A   1      42.273  22.104  25.376  1.00  0.00    -0.744 OA
ENDBRANCH  66  70
ENDBRANCH  49  63
BRANCH  50  74
ATOM     74  C   UNL A   1      38.748  31.848  35.634  1.00  0.00     0.023 A 
ATOM     75  C   UNL A   1      38.155  31.183  36.719  1.00  0.00     0.031 A 
ATOM     76  C   UNL A   1      38.842  33.250  35.692  1.00  0.00     0.131 A 
ATOM     77  C   UNL A   1      37.637  31.920  37.794  1.00  0.00     0.055 A 
ATOM     78  C   UNL A   1      38.370  33.976  36.787  1.00  0.00     0.041 A 
ATOM     79  F   UNL A   1      39.406  33.935  34.684  1.00  0.00    -0.206 F 
ATOM     80  C   UNL A   1      37.751  33.312  37.842  1.00  0.00     0.022 A 
BRANCH  77  81
ATOM     81  S   UNL A   1      36.738  31.037  39.099  1.00  0.00     0.124 S 
ATOM     82  O   UNL A   1      36.574  29.715  38.504  1.00  0.00    -0.237 OA
ATOM     83  O   UNL A   1      37.669  31.126  40.220  1.00  0.00    -0.237 OA
ATOM     84  O   UNL A   1      35.508  31.811  39.249  1.00  0.00    -0.744 OA
ENDBRANCH  77  81
ENDBRANCH  50  74
BRANCH  62  85
ATOM     85  C   UNL A   1      44.369  27.917  34.414  1.00  0.00     0.023 A 
ATOM     86  C   UNL A   1      44.427  26.759  35.209  1.00  0.00     0.031 A 
ATOM     87  C   UNL A   1      45.470  28.791  34.434  1.00  0.00     0.131 A 
ATOM     88  C   UNL A   1      45.541  26.532  36.033  1.00  0.00     0.055 A 
ATOM     89  C   UNL A   1      46.600  28.531  35.212  1.00  0.00     0.041 A 
ATOM     90  F   UNL A   1      45.466  29.912  33.697  1.00  0.00    -0.206 F 
ATOM     91  C   UNL A   1      46.634  27.403  36.027  1.00  0.00     0.022 A 
BRANCH  88  92
ATOM     92  S   UNL A   1      45.505  25.130  37.182  1.00  0.00     0.124 S 
ATOM     93  O   UNL A   1      44.104  24.722  37.120  1.00  0.00    -0.237 OA
ATOM     94  O   UNL A   1      46.463  24.209  36.582  1.00  0.00    -0.237 OA
ATOM     95  O   UNL A   1      45.923  25.716  38.454  1.00  0.00    -0.744 OA
ENDBRANCH  88  92
ENDBRANCH  62  85
ENDBRANCH  36  37
ENDBRANCH  28  31
ENDBRANCH  26  27
ENDBRANCH  25  26
ENDBRANCH   1  25
TORSDOF 17
ENDMDL
MODEL 2
REMARK VINA RESULT:     -12.0      2.251      3.108
REMARK SMILES C[C@H]1[C@@H]([NH2+]C[C@H]2CC[C@@H](C(=O)NCCCCNC(=O)c3ccc(-c4c5nc(c(-c6cc(S(=O)(=O)[O-])ccc6F)c6ccc([nH]6)c(-c6cc(S(=O)(=O)[O-])ccc6F)c6nc(c(-c7cc(S(=O)(=O)[O-])ccc7F)c7ccc4[nH]7)C=C6)C=C5)cc3)CC2)CCC[C@@H]1C
REMARK SMILES IDX 14 1 13 2 12 3 10 4 11 5 9 7 6 8 7 9 84 10 8 11 83 12 5 13
REMARK SMILES IDX 4 14 3 17 1 18 2 19 88 20 85 21 87 22 89 23 86 24 15 25
REMARK SMILES IDX 16 26 17 27 18 28 19 30 20 31 21 32 82 33 22 34 81 35 23 36
REMARK SMILES IDX 24 37 25 38 75 39 26 40 80 41 74 42 76 43 27 44 79 45 73 46
REMARK SMILES IDX 72 47 28 49 60 50 40 51 59 52 41 53 44 54 58 55 77 56 42 57
REMARK SMILES IDX 43 58 57 60 78 61 45 62 29 63 30 64 38 65 31 66 37 67 39 68
REMARK SMILES IDX 36 69 32 70 33 71 34 72 35 73 61 74 62 75 70 76 63 77 69 78
REMARK SMILES IDX 71 79 68 80 64 81 65 82 66 83 67 84 46 85 47 86 55 87 48 88
REMARK SMILES IDX 54 89 56 90 53 91 49 92 50 93 51 94 52 95
REMARK H PARENT 12 6 4 15 4 16 17 29 76 48 44 59
REMARK Flexibility Score: inf
ROOT
ATOM      1  C   UNL A   1      32.090  30.139  26.767  1.00  0.00     0.023 C 
ENDROOT
BRANCH   1   2
ATOM      2  C   UNL A   1      33.474  29.706  26.289  1.00  0.00     0.116 C 
BRANCH   2   3
ATOM      3  N   UNL A   1      33.546  29.510  24.856  1.00  0.00    -0.356 N 
ATOM      4  C   UNL A   1      32.710  28.862  23.997  1.00  0.00     0.223 C 
ATOM      5  O   UNL A   1      32.994  28.898  22.797  1.00  0.00    -0.275 OA
ATOM      6  H   UNL A   1      34.335  29.914  24.429  1.00  0.00     0.163 HD
BRANCH   4   7
ATOM      7  C   UNL A   1      31.448  28.122  24.459  1.00  0.00     0.078 C 
ATOM      8  C   UNL A   1      29.756  25.646  24.388  1.00  0.00     0.044 C 
ATOM      9  C   UNL A   1      30.541  26.060  25.647  1.00  0.00     0.010 C 
ATOM     10  C   UNL A   1      29.301  26.927  23.671  1.00  0.00     0.010 C 
ATOM     11  C   UNL A   1      31.778  26.900  25.326  1.00  0.00     0.014 C 
ATOM     12  C   UNL A   1      30.453  27.873  23.315  1.00  0.00     0.014 C 
BRANCH   8  13
ATOM     13  C   UNL A   1      30.616  24.711  23.510  1.00  0.00     0.264 C 
BRANCH  13  14
ATOM     14  N   UNL A   1      30.967  23.413  24.094  1.00  0.00    -0.343 N 
ATOM     15  H   UNL A   1      30.711  23.412  25.081  1.00  0.00     0.346 HD
ATOM     16  H   UNL A   1      30.462  22.685  23.589  1.00  0.00     0.346 HD
BRANCH  14  17
ATOM     17  C   UNL A   1      32.424  23.143  23.971  1.00  0.00     0.185 C 
ATOM     18  C   UNL A   1      31.992  21.284  22.275  1.00  0.00     0.014 C 
ATOM     19  C   UNL A   1      32.727  21.673  23.564  1.00  0.00     0.047 C 
ATOM     20  C   UNL A   1      32.472  20.667  24.721  1.00  0.00    -0.006 C 
ATOM     21  C   UNL A   1      33.244  23.475  25.237  1.00  0.00     0.065 C 
ATOM     22  C   UNL A   1      33.192  21.095  26.012  1.00  0.00     0.004 C 
ATOM     23  C   UNL A   1      32.925  19.247  24.358  1.00  0.00     0.008 C 
ATOM     24  C   UNL A   1      32.912  22.542  26.396  1.00  0.00     0.006 C 
ENDBRANCH  14  17
ENDBRANCH  13  14
ENDBRANCH   8  13
ENDBRANCH   4   7
ENDBRANCH   2   3
ENDBRANCH   1   2
BRANCH   1  25
ATOM     25  C   UNL A   1      31.874  31.650  26.795  1.00  0.00     0.023 C 
BRANCH  25  26
ATOM     26  C   UNL A   1      32.986  32.455  27.458  1.00  0.00     0.116 C 
BRANCH  26  27
ATOM     27  N   UNL A   1      32.647  33.855  27.661  1.00  0.00    -0.352 N 
ATOM     28  C   UNL A   1      33.209  34.751  28.542  1.00  0.00     0.251 C 
ATOM     29  H   UNL A   1      31.921  34.208  27.096  1.00  0.00     0.163 HD
ATOM     30  O   UNL A   1      32.729  35.875  28.665  1.00  0.00    -0.269 OA
BRANCH  28  31
ATOM     31  C   UNL A   1      34.364  34.328  29.362  1.00  0.00     0.039 A 
ATOM     32  C   UNL A   1      34.130  33.693  30.585  1.00  0.00     0.014 A 
ATOM     33  C   UNL A   1      35.670  34.507  28.899  1.00  0.00     0.014 A 
ATOM     34  C   UNL A   1      35.205  33.168  31.307  1.00  0.00     0.010 A 
ATOM     35  C   UNL A   1      36.731  33.920  29.583  1.00  0.00     0.010 A 
ATOM     36  C   UNL A   1      36.510  33.240  30.790  1.00  0.00    -0.014 A 
BRANCH  36  37
ATOM     37  C   UNL A   1      37.657  32.610  31.494  1.00  0.00     0.031 A 
ATOM     38  C   UNL A   1      38.386  31.456  30.860  1.00  0.00     0.074 A 
ATOM     39  C   UNL A   1      37.991  33.024  32.732  1.00  0.00     0.049 A 
ATOM     40  N   UNL A   1      39.350  30.717  31.345  1.00  0.00    -0.248 NA
ATOM     41  C   UNL A   1      37.945  31.063  29.515  1.00  0.00     0.031 C 
ATOM     42  C   UNL A   1      37.332  34.102  33.471  1.00  0.00     0.029 A 
ATOM     43  N   UNL A   1      38.964  32.581  33.594  1.00  0.00    -0.354 N 
ATOM     44  C   UNL A   1      39.620  29.760  30.373  1.00  0.00     0.074 A 
ATOM     45  C   UNL A   1      38.672  29.978  29.300  1.00  0.00     0.031 C 
ATOM     46  C   UNL A   1      37.935  34.255  34.661  1.00  0.00     0.029 A 
ATOM     47  C   UNL A   1      38.994  33.258  34.792  1.00  0.00     0.049 A 
ATOM     48  H   UNL A   1      39.583  31.847  33.376  1.00  0.00     0.167 HD
ATOM     49  C   UNL A   1      40.584  28.805  30.365  1.00  0.00     0.034 A 
ATOM     50  C   UNL A   1      39.777  33.088  35.875  1.00  0.00     0.034 A 
ATOM     51  C   UNL A   1      41.531  28.614  31.435  1.00  0.00     0.049 A 
ATOM     52  C   UNL A   1      40.826  32.006  35.853  1.00  0.00     0.074 A 
ATOM     53  C   UNL A   1      42.589  27.724  31.503  1.00  0.00     0.029 A 
ATOM     54  N   UNL A   1      41.531  29.318  32.634  1.00  0.00    -0.354 N 
ATOM     55  N   UNL A   1      41.107  31.146  34.901  1.00  0.00    -0.248 NA
ATOM     56  C   UNL A   1      41.669  31.878  37.049  1.00  0.00     0.031 C 
ATOM     57  C   UNL A   1      43.186  27.845  32.764  1.00  0.00     0.029 A 
ATOM     58  C   UNL A   1      42.548  28.861  33.458  1.00  0.00     0.049 A 
ATOM     59  H   UNL A   1      40.899  30.038  32.864  1.00  0.00     0.167 HD
ATOM     60  C   UNL A   1      42.182  30.398  35.373  1.00  0.00     0.074 A 
ATOM     61  C   UNL A   1      42.504  30.916  36.687  1.00  0.00     0.031 C 
ATOM     62  C   UNL A   1      42.850  29.380  34.771  1.00  0.00     0.034 A 
BRANCH  49  63
ATOM     63  C   UNL A   1      40.633  27.883  29.168  1.00  0.00     0.023 A 
ATOM     64  C   UNL A   1      41.592  28.042  28.152  1.00  0.00     0.031 A 
ATOM     65  C   UNL A   1      39.682  26.859  29.017  1.00  0.00     0.131 A 
ATOM     66  C   UNL A   1      41.524  27.254  26.992  1.00  0.00     0.055 A 
ATOM     67  C   UNL A   1      39.674  26.019  27.901  1.00  0.00     0.041 A 
ATOM     68  F   UNL A   1      38.728  26.669  29.943  1.00  0.00    -0.206 F 
ATOM     69  C   UNL A   1      40.587  26.226  26.872  1.00  0.00     0.022 A 
BRANCH  66  70
ATOM     70  S   UNL A   1      42.570  27.703  25.580  1.00  0.00     0.124 S 
ATOM     71  O   UNL A   1      43.856  27.943  26.231  1.00  0.00    -0.237 OA
ATOM     72  O   UNL A   1      42.490  26.515  24.739  1.00  0.00    -0.237 OA
ATOM     73  O   UNL A   1      41.922  28.896  25.039  1.00  0.00    -0.744 OA
ENDBRANCH  66  70
ENDBRANCH  49  63
BRANCH  50  74
ATOM     74  C   UNL A   1      39.609  33.957  37.075  1.00  0.00     0.023 A 
ATOM     75  C   UNL A   1      39.037  33.452  38.253  1.00  0.00     0.031 A 
ATOM     76  C   UNL A   1      39.978  35.313  37.049  1.00  0.00     0.131 A 
ATOM     77  C   UNL A   1      38.806  34.307  39.341  1.00  0.00     0.055 A 
ATOM     78  C   UNL A   1      39.793  36.148  38.153  1.00  0.00     0.041 A 
ATOM     79  F   UNL A   1      40.536  35.845  35.949  1.00  0.00    -0.206 F 
ATOM     80  C   UNL A   1      39.192  35.649  39.304  1.00  0.00     0.022 A 
BRANCH  77  81
ATOM     81  S   UNL A   1      37.922  33.656  40.785  1.00  0.00     0.124 S 
ATOM     82  O   UNL A   1      38.780  32.545  41.183  1.00  0.00    -0.237 OA
ATOM     83  O   UNL A   1      37.909  34.810  41.678  1.00  0.00    -0.237 OA
ATOM     84  O   UNL A   1      36.620  33.275  40.242  1.00  0.00    -0.744 OA
ENDBRANCH  77  81
ENDBRANCH  50  74
BRANCH  62  85
ATOM     85  C   UNL A   1      44.024  28.797  35.517  1.00  0.00     0.023 A 
ATOM     86  C   UNL A   1      43.881  27.703  36.389  1.00  0.00     0.031 A 
ATOM     87  C   UNL A   1      45.305  29.358  35.364  1.00  0.00     0.131 A 
ATOM     88  C   UNL A   1      44.988  27.239  37.116  1.00  0.00     0.055 A 
ATOM     89  C   UNL A   1      46.414  28.855  36.047  1.00  0.00     0.041 A 
ATOM     90  F   UNL A   1      45.498  30.406  34.548  1.00  0.00    -0.206 F 
ATOM     91  C   UNL A   1      46.256  27.798  36.937  1.00  0.00     0.022 A 
BRANCH  88  92
ATOM     92  S   UNL A   1      44.732  25.950  38.367  1.00  0.00     0.124 S 
ATOM     93  O   UNL A   1      43.676  25.145  37.760  1.00  0.00    -0.237 OA
ATOM     94  O   UNL A   1      46.047  25.324  38.443  1.00  0.00    -0.237 OA
ATOM     95  O   UNL A   1      44.334  26.700  39.556  1.00  0.00    -0.744 OA
ENDBRANCH  88  92
ENDBRANCH  62  85
ENDBRANCH  36  37
ENDBRANCH  28  31
ENDBRANCH  26  27
ENDBRANCH  25  26
ENDBRANCH   1  25
TORSDOF 17
ENDMDL
MODEL 3
REMARK VINA RESULT:     -11.9      0.969      7.560
REMARK SMILES C[C@H]1[C@@H]([NH2+]C[C@H]2CC[C@@H](C(=O)NCCCCNC(=O)c3ccc(-c4c5nc(c(-c6cc(S(=O)(=O)[O-])ccc6F)c6ccc([nH]6)c(-c6cc(S(=O)(=O)[O-])ccc6F)c6nc(c(-c7cc(S(=O)(=O)[O-])ccc7F)c7ccc4[nH]7)C=C6)C=C5)cc3)CC2)CCC[C@@H]1C
REMARK SMILES IDX 14 1 13 2 12 3 10 4 11 5 9 7 6 8 7 9 84 10 8 11 83 12 5 13
REMARK SMILES IDX 4 14 3 17 1 18 2 19 88 20 85 21 87 22 89 23 86 24 15 25
REMARK SMILES IDX 16 26 17 27 18 28 19 30 20 31 21 32 82 33 22 34 81 35 23 36
REMARK SMILES IDX 24 37 25 38 75 39 26 40 80 41 74 42 76 43 27 44 79 45 73 46
REMARK SMILES IDX 72 47 28 49 60 50 40 51 59 52 41 53 44 54 58 55 77 56 42 57
REMARK SMILES IDX 43 58 57 60 78 61 45 62 29 63 30 64 38 65 31 66 37 67 39 68
REMARK SMILES IDX 36 69 32 70 33 71 34 72 35 73 61 74 62 75 70 76 63 77 69 78
REMARK SMILES IDX 71 79 68 80 64 81 65 82 66 83 67 84 46 85 47 86 55 87 48 88
REMARK SMILES IDX 54 89 56 90 53 91 49 92 50 93 51 94 52 95
REMARK H PARENT 12 6 4 15 4 16 17 29 76 48 44 59
REMARK Flexibility Score: inf
ROOT
ATOM      1  C   UNL A   1      33.097  28.942  25.044  1.00  0.00     0.023 C 
ENDROOT
BRANCH   1   2
ATOM      2  C   UNL A   1      33.227  28.765  23.532  1.00  0.00     0.116 C 
BRANCH   2   3
ATOM      3  N   UNL A   1      32.094  29.289  22.798  1.00  0.00    -0.356 N 
ATOM      4  C   UNL A   1      30.903  28.722  22.462  1.00  0.00     0.223 C 
ATOM      5  O   UNL A   1      30.086  29.431  21.869  1.00  0.00    -0.275 OA
ATOM      6  H   UNL A   1      32.205  30.216  22.487  1.00  0.00     0.163 HD
BRANCH   4   7
ATOM      7  C   UNL A   1      30.543  27.270  22.806  1.00  0.00     0.078 C 
ATOM      8  C   UNL A   1      31.183  24.758  24.316  1.00  0.00     0.044 C 
ATOM      9  C   UNL A   1      29.969  25.637  24.674  1.00  0.00     0.010 C 
ATOM     10  C   UNL A   1      31.390  24.832  22.795  1.00  0.00     0.010 C 
ATOM     11  C   UNL A   1      30.162  27.102  24.283  1.00  0.00     0.014 C 
ATOM     12  C   UNL A   1      31.570  26.261  22.269  1.00  0.00     0.014 C 
BRANCH   8  13
ATOM     13  C   UNL A   1      32.417  25.198  25.135  1.00  0.00     0.264 C 
BRANCH  13  14
ATOM     14  N   UNL A   1      33.640  24.417  24.936  1.00  0.00    -0.343 N 
ATOM     15  H   UNL A   1      33.511  23.791  24.141  1.00  0.00     0.346 HD
ATOM     16  H   UNL A   1      34.411  25.062  24.766  1.00  0.00     0.346 HD
BRANCH  14  17
ATOM     17  C   UNL A   1      33.964  23.607  26.140  1.00  0.00     0.185 C 
ATOM     18  C   UNL A   1      36.466  23.836  25.688  1.00  0.00     0.014 C 
ATOM     19  C   UNL A   1      35.325  22.864  26.012  1.00  0.00     0.047 C 
ATOM     20  C   UNL A   1      35.263  21.667  25.023  1.00  0.00    -0.006 C 
ATOM     21  C   UNL A   1      32.882  22.574  26.526  1.00  0.00     0.065 C 
ATOM     22  C   UNL A   1      34.091  20.724  25.349  1.00  0.00     0.004 C 
ATOM     23  C   UNL A   1      36.562  20.850  25.028  1.00  0.00     0.008 C 
ATOM     24  C   UNL A   1      32.763  21.457  25.497  1.00  0.00     0.006 C 
ENDBRANCH  14  17
ENDBRANCH  13  14
ENDBRANCH   8  13
ENDBRANCH   4   7
ENDBRANCH   2   3
ENDBRANCH   1   2
BRANCH   1  25
ATOM     25  C   UNL A   1      32.209  30.109  25.469  1.00  0.00     0.023 C 
BRANCH  25  26
ATOM     26  C   UNL A   1      32.402  30.584  26.905  1.00  0.00     0.116 C 
BRANCH  26  27
ATOM     27  N   UNL A   1      32.478  32.031  27.032  1.00  0.00    -0.352 N 
ATOM     28  C   UNL A   1      33.488  32.788  27.581  1.00  0.00     0.251 C 
ATOM     29  H   UNL A   1      31.707  32.534  26.682  1.00  0.00     0.163 HD
ATOM     30  O   UNL A   1      33.345  34.002  27.710  1.00  0.00    -0.269 OA
BRANCH  28  31
ATOM     31  C   UNL A   1      34.720  32.118  28.049  1.00  0.00     0.039 A 
ATOM     32  C   UNL A   1      35.897  32.864  28.155  1.00  0.00     0.014 A 
ATOM     33  C   UNL A   1      34.697  30.776  28.435  1.00  0.00     0.014 A 
ATOM     34  C   UNL A   1      37.033  32.281  28.722  1.00  0.00     0.010 A 
ATOM     35  C   UNL A   1      35.807  30.221  29.065  1.00  0.00     0.010 A 
ATOM     36  C   UNL A   1      36.985  30.969  29.221  1.00  0.00    -0.014 A 
BRANCH  36  37
ATOM     37  C   UNL A   1      38.151  30.358  29.910  1.00  0.00     0.031 A 
ATOM     38  C   UNL A   1      38.483  30.757  31.323  1.00  0.00     0.074 A 
ATOM     39  C   UNL A   1      38.954  29.507  29.241  1.00  0.00     0.049 A 
ATOM     40  N   UNL A   1      39.502  30.409  32.065  1.00  0.00    -0.248 NA
ATOM     41  C   UNL A   1      37.562  31.701  31.970  1.00  0.00     0.031 C 
ATOM     42  C   UNL A   1      38.763  29.077  27.854  1.00  0.00     0.029 A 
ATOM     43  N   UNL A   1      40.098  28.857  29.633  1.00  0.00    -0.354 N 
ATOM     44  C   UNL A   1      39.355  31.104  33.261  1.00  0.00     0.074 A 
ATOM     45  C   UNL A   1      38.182  31.940  33.115  1.00  0.00     0.031 C 
ATOM     46  C   UNL A   1      39.737  28.216  27.521  1.00  0.00     0.029 A 
ATOM     47  C   UNL A   1      40.649  28.065  28.651  1.00  0.00     0.049 A 
ATOM     48  H   UNL A   1      40.487  28.948  30.532  1.00  0.00     0.167 HD
ATOM     49  C   UNL A   1      40.113  31.033  34.384  1.00  0.00     0.034 A 
ATOM     50  C   UNL A   1      41.767  27.313  28.658  1.00  0.00     0.034 A 
ATOM     51  C   UNL A   1      41.268  30.180  34.518  1.00  0.00     0.049 A 
ATOM     52  C   UNL A   1      42.606  27.267  29.909  1.00  0.00     0.074 A 
ATOM     53  C   UNL A   1      42.069  29.979  35.629  1.00  0.00     0.029 A 
ATOM     54  N   UNL A   1      41.799  29.392  33.502  1.00  0.00    -0.354 N 
ATOM     55  N   UNL A   1      42.422  27.885  31.053  1.00  0.00    -0.248 NA
ATOM     56  C   UNL A   1      43.801  26.413  29.872  1.00  0.00     0.031 C 
ATOM     57  C   UNL A   1      43.116  29.123  35.268  1.00  0.00     0.029 A 
ATOM     58  C   UNL A   1      42.931  28.731  33.952  1.00  0.00     0.049 A 
ATOM     59  H   UNL A   1      41.423  29.315  32.595  1.00  0.00     0.167 HD
ATOM     60  C   UNL A   1      43.460  27.467  31.881  1.00  0.00     0.074 A 
ATOM     61  C   UNL A   1      44.258  26.538  31.109  1.00  0.00     0.031 C 
ATOM     62  C   UNL A   1      43.724  27.814  33.167  1.00  0.00     0.034 A 
BRANCH  49  63
ATOM     63  C   UNL A   1      39.721  31.925  35.539  1.00  0.00     0.023 A 
ATOM     64  C   UNL A   1      38.931  31.454  36.603  1.00  0.00     0.031 A 
ATOM     65  C   UNL A   1      40.106  33.277  35.558  1.00  0.00     0.131 A 
ATOM     66  C   UNL A   1      38.475  32.343  37.588  1.00  0.00     0.055 A 
ATOM     67  C   UNL A   1      39.723  34.138  36.589  1.00  0.00     0.041 A 
ATOM     68  F   UNL A   1      40.844  33.793  34.562  1.00  0.00    -0.206 F 
ATOM     69  C   UNL A   1      38.887  33.677  37.602  1.00  0.00     0.022 A 
BRANCH  66  70
ATOM     70  S   UNL A   1      37.207  31.769  38.750  1.00  0.00     0.124 S 
ATOM     71  O   UNL A   1      36.127  32.722  38.502  1.00  0.00    -0.237 OA
ATOM     72  O   UNL A   1      36.968  30.401  38.305  1.00  0.00    -0.237 OA
ATOM     73  O   UNL A   1      37.855  31.898  40.054  1.00  0.00    -0.744 OA
ENDBRANCH  66  70
ENDBRANCH  49  63
BRANCH  50  74
ATOM     74  C   UNL A   1      42.166  26.539  27.449  1.00  0.00     0.023 A 
ATOM     75  C   UNL A   1      41.893  25.165  27.351  1.00  0.00     0.031 A 
ATOM     76  C   UNL A   1      42.863  27.149  26.391  1.00  0.00     0.131 A 
ATOM     77  C   UNL A   1      42.354  24.437  26.244  1.00  0.00     0.055 A 
ATOM     78  C   UNL A   1      43.276  26.430  25.268  1.00  0.00     0.041 A 
ATOM     79  F   UNL A   1      43.144  28.462  26.430  1.00  0.00    -0.206 F 
ATOM     80  C   UNL A   1      43.033  25.062  25.195  1.00  0.00     0.022 A 
BRANCH  77  81
ATOM     81  S   UNL A   1      42.120  22.638  26.231  1.00  0.00     0.124 S 
ATOM     82  O   UNL A   1      42.855  22.234  27.424  1.00  0.00    -0.237 OA
ATOM     83  O   UNL A   1      40.667  22.521  26.302  1.00  0.00    -0.237 OA
ATOM     84  O   UNL A   1      42.716  22.227  24.961  1.00  0.00    -0.744 OA
ENDBRANCH  77  81
ENDBRANCH  50  74
BRANCH  62  85
ATOM     85  C   UNL A   1      44.903  27.142  33.827  1.00  0.00     0.023 A 
ATOM     86  C   UNL A   1      44.782  25.896  34.468  1.00  0.00     0.031 A 
ATOM     87  C   UNL A   1      46.161  27.769  33.830  1.00  0.00     0.131 A 
ATOM     88  C   UNL A   1      45.888  25.342  35.131  1.00  0.00     0.055 A 
ATOM     89  C   UNL A   1      47.272  27.185  34.441  1.00  0.00     0.041 A 
ATOM     90  F   UNL A   1      46.332  28.961  33.236  1.00  0.00    -0.206 F 
ATOM     91  C   UNL A   1      47.136  25.971  35.106  1.00  0.00     0.022 A 
BRANCH  88  92
ATOM     92  S   UNL A   1      45.654  23.828  36.102  1.00  0.00     0.124 S 
ATOM     93  O   UNL A   1      46.983  23.225  36.047  1.00  0.00    -0.237 OA
ATOM     94  O   UNL A   1      45.244  24.350  37.400  1.00  0.00    -0.237 OA
ATOM     95  O   UNL A   1      44.616  23.107  35.368  1.00  0.00    -0.744 OA
ENDBRANCH  88  92
ENDBRANCH  62  85
ENDBRANCH  36  37
ENDBRANCH  28  31
ENDBRANCH  26  27
ENDBRANCH  25  26
ENDBRANCH   1  25
TORSDOF 17
ENDMDL
