MODEL 1
REMARK VINA RESULT:     -11.9      0.000      0.000
REMARK SMILES CC[C@H]([NH2+][C@@H](C)c1c(C)noc1C)C(=O)NCCCCNC(=O)c1ccc(-c2c3nc(c(-c4cc(S(=O)(=O)[O-])ccc4F)c4ccc([nH]4)c(-c4cc(S(=O)(=O)[O-])ccc4F)c4nc(c(-c5cc(S(=O)(=O)[O-])ccc5F)c5ccc2[nH]5)C=C4)C=C3)cc1
REMARK SMILES IDX 18 1 17 2 16 3 14 4 15 5 3 7 2 8 1 9 4 10 5 13 6 14 7 15
REMARK SMILES IDX 8 16 12 17 9 18 10 19 11 20 13 21 19 22 20 23 21 24 22 25
REMARK SMILES IDX 23 27 24 28 25 29 86 30 26 31 85 32 27 33 28 34 29 35 79 36
REMARK SMILES IDX 30 37 84 38 78 39 80 40 31 41 83 42 77 43 76 44 32 46 64 47
REMARK SMILES IDX 44 48 63 49 45 50 48 51 62 52 81 53 46 54 47 55 61 57 82 58
REMARK SMILES IDX 49 59 33 60 34 61 42 62 35 63 41 64 43 65 40 66 36 67 37 68
REMARK SMILES IDX 38 69 39 70 65 71 66 72 74 73 67 74 73 75 75 76 72 77 68 78
REMARK SMILES IDX 69 79 70 80 71 81 50 82 51 83 59 84 52 85 58 86 60 87 57 88
REMARK SMILES IDX 53 89 54 90 55 91 56 92
REMARK H PARENT 16 6 4 11 4 12 21 26 80 45 48 56
REMARK Flexibility Score: inf
ROOT
ATOM      1  C   UNL A   1      35.108  21.632  26.293  1.00  0.00     0.023 C 
ENDROOT
BRANCH   1   2
ATOM      2  C   UNL A   1      33.564  22.585  27.648  1.00  0.00     0.116 C 
BRANCH   2   3
ATOM      3  N   UNL A   1      31.992  22.532  27.594  1.00  0.00    -0.351 N 
ATOM      4  C   UNL A   1      31.087  23.332  26.968  1.00  0.00     0.278 C 
ATOM      5  O   UNL A   1      29.890  23.156  27.213  1.00  0.00    -0.268 OA
ATOM      6  H   UNL A   1      31.594  21.791  28.103  1.00  0.00     0.163 HD
BRANCH   4   7
ATOM      7  C   UNL A   1      31.545  24.458  26.002  1.00  0.00     0.272 C 
BRANCH   7   8
ATOM      8  C   UNL A   1      32.391  23.870  24.847  1.00  0.00     0.072 C 
ATOM      9  C   UNL A   1      31.767  22.832  23.938  1.00  0.00     0.011 C 
ENDBRANCH   7   8
BRANCH   7  10
ATOM     10  N   UNL A   1      31.832  25.736  26.715  1.00  0.00    -0.330 N 
ATOM     11  H   UNL A   1      32.803  25.967  26.511  1.00  0.00     0.347 HD
ATOM     12  H   UNL A   1      31.572  25.512  27.675  1.00  0.00     0.347 HD
BRANCH  10  13
ATOM     13  C   UNL A   1      31.058  26.944  26.455  1.00  0.00     0.216 C 
ATOM     14  C   UNL A   1      31.541  28.105  27.324  1.00  0.00     0.081 C 
BRANCH  13  15
ATOM     15  C   UNL A   1      31.128  27.260  25.010  1.00  0.00     0.074 A 
ATOM     16  C   UNL A   1      32.736  27.666  24.120  1.00  0.00     0.090 A 
ATOM     17  C   UNL A   1      29.859  27.066  23.895  1.00  0.00     0.143 A 
ATOM     18  C   UNL A   1      33.995  28.194  24.702  1.00  0.00     0.071 C 
ATOM     19  N   UNL A   1      32.556  27.547  22.433  1.00  0.00    -0.085 NA
ATOM     20  O   UNL A   1      30.608  27.229  22.204  1.00  0.00    -0.361 OA
ATOM     21  C   UNL A   1      28.435  26.670  23.875  1.00  0.00     0.091 C 
ENDBRANCH  13  15
ENDBRANCH  10  13
ENDBRANCH   7  10
ENDBRANCH   4   7
ENDBRANCH   2   3
ENDBRANCH   1   2
BRANCH   1  22
ATOM     22  C   UNL A   1      36.211  22.434  25.256  1.00  0.00     0.023 C 
BRANCH  22  23
ATOM     23  C   UNL A   1      37.371  23.076  25.991  1.00  0.00     0.116 C 
BRANCH  23  24
ATOM     24  N   UNL A   1      38.486  22.128  26.072  1.00  0.00    -0.352 N 
ATOM     25  C   UNL A   1      39.788  22.421  26.348  1.00  0.00     0.251 C 
ATOM     26  H   UNL A   1      38.272  21.181  25.909  1.00  0.00     0.163 HD
ATOM     27  O   UNL A   1      40.697  21.637  26.121  1.00  0.00    -0.269 OA
BRANCH  25  28
ATOM     28  C   UNL A   1      40.002  23.739  26.943  1.00  0.00     0.039 A 
ATOM     29  C   UNL A   1      40.472  23.832  28.247  1.00  0.00     0.014 A 
ATOM     30  C   UNL A   1      39.953  24.843  26.081  1.00  0.00     0.014 A 
ATOM     31  C   UNL A   1      40.888  25.074  28.703  1.00  0.00     0.010 A 
ATOM     32  C   UNL A   1      40.496  26.039  26.497  1.00  0.00     0.010 A 
ATOM     33  C   UNL A   1      40.910  26.176  27.827  1.00  0.00    -0.014 A 
BRANCH  33  34
ATOM     34  C   UNL A   1      41.270  27.517  28.322  1.00  0.00     0.031 A 
ATOM     35  C   UNL A   1      42.712  27.933  28.286  1.00  0.00     0.074 A 
ATOM     36  C   UNL A   1      40.311  28.336  28.782  1.00  0.00     0.049 A 
ATOM     37  N   UNL A   1      43.249  29.070  28.640  1.00  0.00    -0.248 NA
ATOM     38  C   UNL A   1      43.685  26.930  27.821  1.00  0.00     0.031 C 
ATOM     39  C   UNL A   1      38.888  28.002  28.880  1.00  0.00     0.029 A 
ATOM     40  N   UNL A   1      40.382  29.627  29.230  1.00  0.00    -0.354 N 
ATOM     41  C   UNL A   1      44.615  28.910  28.445  1.00  0.00     0.074 A 
ATOM     42  C   UNL A   1      44.834  27.541  28.041  1.00  0.00     0.031 C 
ATOM     43  C   UNL A   1      38.212  29.086  29.291  1.00  0.00     0.029 A 
ATOM     44  C   UNL A   1      39.160  30.165  29.549  1.00  0.00     0.049 A 
ATOM     45  H   UNL A   1      41.229  30.121  29.316  1.00  0.00     0.167 HD
ATOM     46  C   UNL A   1      45.595  29.836  28.559  1.00  0.00     0.034 A 
ATOM     47  C   UNL A   1      38.847  31.394  30.002  1.00  0.00     0.034 A 
ATOM     48  C   UNL A   1      45.343  31.191  28.975  1.00  0.00     0.049 A 
ATOM     49  C   UNL A   1      39.962  32.388  30.195  1.00  0.00     0.074 A 
ATOM     50  C   UNL A   1      46.243  32.231  29.104  1.00  0.00     0.029 A 
ATOM     51  N   UNL A   1      44.100  31.686  29.353  1.00  0.00    -0.354 N 
ATOM     52  N   UNL A   1      41.249  32.243  29.969  1.00  0.00    -0.248 NA
ATOM     53  C   UNL A   1      39.582  33.713  30.694  1.00  0.00     0.031 C 
ATOM     54  C   UNL A   1      45.568  33.318  29.664  1.00  0.00     0.029 A 
ATOM     55  C   UNL A   1      44.221  33.003  29.764  1.00  0.00     0.049 A 
ATOM     56  H   UNL A   1      43.259  31.176  29.331  1.00  0.00     0.167 HD
ATOM     57  C   UNL A   1      41.827  33.474  30.261  1.00  0.00     0.074 A 
ATOM     58  C   UNL A   1      40.744  34.347  30.671  1.00  0.00     0.031 C 
ATOM     59  C   UNL A   1      43.130  33.854  30.184  1.00  0.00     0.034 A 
BRANCH  46  60
ATOM     60  C   UNL A   1      47.008  29.385  28.284  1.00  0.00     0.023 A 
ATOM     61  C   UNL A   1      47.456  29.094  26.982  1.00  0.00     0.031 A 
ATOM     62  C   UNL A   1      47.901  29.166  29.347  1.00  0.00     0.131 A 
ATOM     63  C   UNL A   1      48.713  28.502  26.790  1.00  0.00     0.055 A 
ATOM     64  C   UNL A   1      49.192  28.682  29.138  1.00  0.00     0.041 A 
ATOM     65  F   UNL A   1      47.521  29.389  30.615  1.00  0.00    -0.206 F 
ATOM     66  C   UNL A   1      49.598  28.326  27.855  1.00  0.00     0.022 A 
BRANCH  63  67
ATOM     67  S   UNL A   1      49.085  27.772  25.171  1.00  0.00     0.124 S 
ATOM     68  O   UNL A   1      50.319  28.469  24.809  1.00  0.00    -0.237 OA
ATOM     69  O   UNL A   1      49.221  26.355  25.484  1.00  0.00    -0.237 OA
ATOM     70  O   UNL A   1      47.921  28.126  24.361  1.00  0.00    -0.744 OA
ENDBRANCH  63  67
ENDBRANCH  46  60
BRANCH  47  71
ATOM     71  C   UNL A   1      37.431  31.744  30.300  1.00  0.00     0.023 A 
ATOM     72  C   UNL A   1      36.564  32.182  29.286  1.00  0.00     0.031 A 
ATOM     73  C   UNL A   1      36.928  31.668  31.611  1.00  0.00     0.131 A 
ATOM     74  C   UNL A   1      35.255  32.569  29.608  1.00  0.00     0.055 A 
ATOM     75  C   UNL A   1      35.605  31.990  31.915  1.00  0.00     0.041 A 
ATOM     76  F   UNL A   1      37.716  31.260  32.618  1.00  0.00    -0.206 F 
ATOM     77  C   UNL A   1      34.764  32.456  30.911  1.00  0.00     0.022 A 
BRANCH  74  78
ATOM     78  S   UNL A   1      34.232  33.325  28.316  1.00  0.00     0.124 S 
ATOM     79  O   UNL A   1      35.238  33.988  27.493  1.00  0.00    -0.237 OA
ATOM     80  O   UNL A   1      33.581  32.162  27.723  1.00  0.00    -0.237 OA
ATOM     81  O   UNL A   1      33.348  34.218  29.062  1.00  0.00    -0.744 OA
ENDBRANCH  74  78
ENDBRANCH  47  71
BRANCH  59  82
ATOM     82  C   UNL A   1      43.446  35.298  30.490  1.00  0.00     0.023 A 
ATOM     83  C   UNL A   1      43.686  35.751  31.797  1.00  0.00     0.031 A 
ATOM     84  C   UNL A   1      43.501  36.238  29.444  1.00  0.00     0.131 A 
ATOM     85  C   UNL A   1      43.895  37.117  32.033  1.00  0.00     0.055 A 
ATOM     86  C   UNL A   1      43.802  37.579  29.675  1.00  0.00     0.041 A 
ATOM     87  F   UNL A   1      43.270  35.866  28.174  1.00  0.00    -0.206 F 
ATOM     88  C   UNL A   1      43.982  38.030  30.978  1.00  0.00     0.022 A 
BRANCH  85  89
ATOM     89  S   UNL A   1      43.900  37.709  33.746  1.00  0.00     0.124 S 
ATOM     90  O   UNL A   1      42.966  38.830  33.680  1.00  0.00    -0.237 OA
ATOM     91  O   UNL A   1      43.438  36.539  34.484  1.00  0.00    -0.237 OA
ATOM     92  O   UNL A   1      45.296  38.078  33.977  1.00  0.00    -0.744 OA
ENDBRANCH  85  89
ENDBRANCH  59  82
ENDBRANCH  33  34
ENDBRANCH  25  28
ENDBRANCH  23  24
ENDBRANCH  22  23
ENDBRANCH   1  22
TORSDOF 18
ENDMDL
MODEL 2
REMARK VINA RESULT:     -11.9      1.341      1.719
REMARK SMILES CC[C@H]([NH2+][C@@H](C)c1c(C)noc1C)C(=O)NCCCCNC(=O)c1ccc(-c2c3nc(c(-c4cc(S(=O)(=O)[O-])ccc4F)c4ccc([nH]4)c(-c4cc(S(=O)(=O)[O-])ccc4F)c4nc(c(-c5cc(S(=O)(=O)[O-])ccc5F)c5ccc2[nH]5)C=C4)C=C3)cc1
REMARK SMILES IDX 18 1 17 2 16 3 14 4 15 5 3 7 2 8 1 9 4 10 5 13 6 14 7 15
REMARK SMILES IDX 8 16 12 17 9 18 10 19 11 20 13 21 19 22 20 23 21 24 22 25
REMARK SMILES IDX 23 27 24 28 25 29 86 30 26 31 85 32 27 33 28 34 29 35 79 36
REMARK SMILES IDX 30 37 84 38 78 39 80 40 31 41 83 42 77 43 76 44 32 46 64 47
REMARK SMILES IDX 44 48 63 49 45 50 48 51 62 52 81 53 46 54 47 55 61 57 82 58
REMARK SMILES IDX 49 59 33 60 34 61 42 62 35 63 41 64 43 65 40 66 36 67 37 68
REMARK SMILES IDX 38 69 39 70 65 71 66 72 74 73 67 74 73 75 75 76 72 77 68 78
REMARK SMILES IDX 69 79 70 80 71 81 50 82 51 83 59 84 52 85 58 86 60 87 57 88
REMARK SMILES IDX 53 89 54 90 55 91 56 92
REMARK H PARENT 16 6 4 11 4 12 21 26 80 45 48 56
REMARK Flexibility Score: inf
ROOT
ATOM      1  C   UNL A   1      34.774  22.787  24.762  1.00  0.00     0.023 C 
ENDROOT
BRANCH   1   2
ATOM      2  C   UNL A   1      33.659  22.967  26.725  1.00  0.00     0.116 C 
BRANCH   2   3
ATOM      3  N   UNL A   1      32.132  22.766  27.050  1.00  0.00    -0.351 N 
ATOM      4  C   UNL A   1      31.052  23.557  26.813  1.00  0.00     0.278 C 
ATOM      5  O   UNL A   1      29.971  23.227  27.310  1.00  0.00    -0.268 OA
ATOM      6  H   UNL A   1      31.923  21.920  27.506  1.00  0.00     0.163 HD
BRANCH   4   7
ATOM      7  C   UNL A   1      31.178  24.858  25.973  1.00  0.00     0.272 C 
BRANCH   7   8
ATOM      8  C   UNL A   1      31.619  24.527  24.527  1.00  0.00     0.072 C 
ATOM      9  C   UNL A   1      30.662  23.780  23.623  1.00  0.00     0.011 C 
ENDBRANCH   7   8
BRANCH   7  10
ATOM     10  N   UNL A   1      31.671  26.009  26.782  1.00  0.00    -0.330 N 
ATOM     11  H   UNL A   1      32.673  26.074  26.608  1.00  0.00     0.347 HD
ATOM     12  H   UNL A   1      31.351  25.770  27.720  1.00  0.00     0.347 HD
BRANCH  10  13
ATOM     13  C   UNL A   1      31.135  27.353  26.601  1.00  0.00     0.216 C 
ATOM     14  C   UNL A   1      31.398  28.222  27.830  1.00  0.00     0.081 C 
BRANCH  13  15
ATOM     15  C   UNL A   1      31.708  27.940  25.368  1.00  0.00     0.074 A 
ATOM     16  C   UNL A   1      33.528  28.386  25.188  1.00  0.00     0.090 A 
ATOM     17  C   UNL A   1      30.910  28.067  23.872  1.00  0.00     0.143 A 
ATOM     18  C   UNL A   1      34.505  28.690  26.263  1.00  0.00     0.071 C 
ATOM     19  N   UNL A   1      33.950  28.614  23.557  1.00  0.00    -0.085 NA
ATOM     20  O   UNL A   1      32.205  28.499  22.614  1.00  0.00    -0.361 OA
ATOM     21  C   UNL A   1      29.582  27.794  23.283  1.00  0.00     0.091 C 
ENDBRANCH  13  15
ENDBRANCH  10  13
ENDBRANCH   7  10
ENDBRANCH   4   7
ENDBRANCH   2   3
ENDBRANCH   1   2
BRANCH   1  22
ATOM     22  C   UNL A   1      36.382  22.241  24.532  1.00  0.00     0.023 C 
BRANCH  22  23
ATOM     23  C   UNL A   1      37.303  22.575  25.689  1.00  0.00     0.116 C 
BRANCH  23  24
ATOM     24  N   UNL A   1      38.222  21.458  25.923  1.00  0.00    -0.352 N 
ATOM     25  C   UNL A   1      39.521  21.541  26.329  1.00  0.00     0.251 C 
ATOM     26  H   UNL A   1      37.865  20.554  25.771  1.00  0.00     0.163 HD
ATOM     27  O   UNL A   1      40.298  20.604  26.229  1.00  0.00    -0.269 OA
BRANCH  25  28
ATOM     28  C   UNL A   1      39.898  22.834  26.898  1.00  0.00     0.039 A 
ATOM     29  C   UNL A   1      40.786  22.876  27.967  1.00  0.00     0.014 A 
ATOM     30  C   UNL A   1      39.533  23.978  26.178  1.00  0.00     0.014 A 
ATOM     31  C   UNL A   1      41.307  24.109  28.331  1.00  0.00     0.010 A 
ATOM     32  C   UNL A   1      40.162  25.172  26.458  1.00  0.00     0.010 A 
ATOM     33  C   UNL A   1      41.004  25.256  27.572  1.00  0.00    -0.014 A 
BRANCH  33  34
ATOM     34  C   UNL A   1      41.485  26.582  28.000  1.00  0.00     0.031 A 
ATOM     35  C   UNL A   1      42.892  26.982  27.658  1.00  0.00     0.074 A 
ATOM     36  C   UNL A   1      40.661  27.404  28.671  1.00  0.00     0.049 A 
ATOM     37  N   UNL A   1      43.511  28.104  27.905  1.00  0.00    -0.248 NA
ATOM     38  C   UNL A   1      43.723  25.975  26.976  1.00  0.00     0.031 C 
ATOM     39  C   UNL A   1      39.288  27.085  29.069  1.00  0.00     0.029 A 
ATOM     40  N   UNL A   1      40.849  28.685  29.113  1.00  0.00    -0.354 N 
ATOM     41  C   UNL A   1      44.799  27.932  27.416  1.00  0.00     0.074 A 
ATOM     42  C   UNL A   1      44.903  26.569  26.951  1.00  0.00     0.031 C 
ATOM     43  C   UNL A   1      38.736  28.170  29.635  1.00  0.00     0.029 A 
ATOM     44  C   UNL A   1      39.734  29.232  29.698  1.00  0.00     0.049 A 
ATOM     45  H   UNL A   1      41.702  29.167  29.021  1.00  0.00     0.167 HD
ATOM     46  C   UNL A   1      45.795  28.843  27.329  1.00  0.00     0.034 A 
ATOM     47  C   UNL A   1      39.547  30.455  30.229  1.00  0.00     0.034 A 
ATOM     48  C   UNL A   1      45.662  30.193  27.812  1.00  0.00     0.049 A 
ATOM     49  C   UNL A   1      40.693  31.432  30.191  1.00  0.00     0.074 A 
ATOM     50  C   UNL A   1      46.585  31.219  27.759  1.00  0.00     0.029 A 
ATOM     51  N   UNL A   1      44.538  30.696  28.459  1.00  0.00    -0.354 N 
ATOM     52  N   UNL A   1      41.898  31.275  29.688  1.00  0.00    -0.248 NA
ATOM     53  C   UNL A   1      40.452  32.751  30.782  1.00  0.00     0.031 C 
ATOM     54  C   UNL A   1      46.065  32.303  28.470  1.00  0.00     0.029 A 
ATOM     55  C   UNL A   1      44.767  32.003  28.855  1.00  0.00     0.049 A 
ATOM     56  H   UNL A   1      43.704  30.197  28.612  1.00  0.00     0.167 HD
ATOM     57  C   UNL A   1      42.546  32.494  29.867  1.00  0.00     0.074 A 
ATOM     58  C   UNL A   1      41.592  33.372  30.518  1.00  0.00     0.031 C 
ATOM     59  C   UNL A   1      43.807  32.858  29.516  1.00  0.00     0.034 A 
BRANCH  46  60
ATOM     60  C   UNL A   1      47.108  28.380  26.746  1.00  0.00     0.023 A 
ATOM     61  C   UNL A   1      47.338  28.355  25.358  1.00  0.00     0.031 A 
ATOM     62  C   UNL A   1      48.118  27.881  27.586  1.00  0.00     0.131 A 
ATOM     63  C   UNL A   1      48.495  27.746  24.852  1.00  0.00     0.055 A 
ATOM     64  C   UNL A   1      49.317  27.379  27.079  1.00  0.00     0.041 A 
ATOM     65  F   UNL A   1      47.944  27.843  28.917  1.00  0.00    -0.206 F 
ATOM     66  C   UNL A   1      49.502  27.289  25.703  1.00  0.00     0.022 A 
BRANCH  63  67
ATOM     67  S   UNL A   1      48.565  27.367  23.078  1.00  0.00     0.124 S 
ATOM     68  O   UNL A   1      47.407  28.104  22.573  1.00  0.00    -0.237 OA
ATOM     69  O   UNL A   1      49.871  27.889  22.693  1.00  0.00    -0.237 OA
ATOM     70  O   UNL A   1      48.433  25.912  23.033  1.00  0.00    -0.744 OA
ENDBRANCH  63  67
ENDBRANCH  46  60
BRANCH  47  71
ATOM     71  C   UNL A   1      38.235  30.817  30.832  1.00  0.00     0.023 A 
ATOM     72  C   UNL A   1      37.256  31.493  30.087  1.00  0.00     0.031 A 
ATOM     73  C   UNL A   1      37.949  30.511  32.175  1.00  0.00     0.131 A 
ATOM     74  C   UNL A   1      36.056  31.880  30.703  1.00  0.00     0.055 A 
ATOM     75  C   UNL A   1      36.727  30.839  32.763  1.00  0.00     0.041 A 
ATOM     76  F   UNL A   1      38.852  29.870  32.933  1.00  0.00    -0.206 F 
ATOM     77  C   UNL A   1      35.777  31.540  32.028  1.00  0.00     0.022 A 
BRANCH  74  78
ATOM     78  S   UNL A   1      34.906  32.932  29.774  1.00  0.00     0.124 S 
ATOM     79  O   UNL A   1      34.093  33.497  30.846  1.00  0.00    -0.237 OA
ATOM     80  O   UNL A   1      35.813  33.854  29.100  1.00  0.00    -0.237 OA
ATOM     81  O   UNL A   1      34.216  31.988  28.899  1.00  0.00    -0.744 OA
ENDBRANCH  74  78
ENDBRANCH  47  71
BRANCH  59  82
ATOM     82  C   UNL A   1      44.205  34.292  29.769  1.00  0.00     0.023 A 
ATOM     83  C   UNL A   1      44.834  34.696  30.958  1.00  0.00     0.031 A 
ATOM     84  C   UNL A   1      43.941  35.274  28.796  1.00  0.00     0.131 A 
ATOM     85  C   UNL A   1      45.108  36.054  31.175  1.00  0.00     0.055 A 
ATOM     86  C   UNL A   1      44.302  36.608  28.978  1.00  0.00     0.041 A 
ATOM     87  F   UNL A   1      43.332  34.950  27.643  1.00  0.00    -0.206 F 
ATOM     88  C   UNL A   1      44.872  37.008  30.182  1.00  0.00     0.022 A 
BRANCH  85  89
ATOM     89  S   UNL A   1      45.637  36.577  32.827  1.00  0.00     0.124 S 
ATOM     90  O   UNL A   1      45.379  35.379  33.620  1.00  0.00    -0.237 OA
ATOM     91  O   UNL A   1      47.042  36.910  32.616  1.00  0.00    -0.237 OA
ATOM     92  O   UNL A   1      44.767  37.715  33.121  1.00  0.00    -0.744 OA
ENDBRANCH  85  89
ENDBRANCH  59  82
ENDBRANCH  33  34
ENDBRANCH  25  28
ENDBRANCH  23  24
ENDBRANCH  22  23
ENDBRANCH   1  22
TORSDOF 18
ENDMDL
MODEL 3
REMARK VINA RESULT:     -11.8      4.429      9.647
REMARK SMILES CC[C@H]([NH2+][C@@H](C)c1c(C)noc1C)C(=O)NCCCCNC(=O)c1ccc(-c2c3nc(c(-c4cc(S(=O)(=O)[O-])ccc4F)c4ccc([nH]4)c(-c4cc(S(=O)(=O)[O-])ccc4F)c4nc(c(-c5cc(S(=O)(=O)[O-])ccc5F)c5ccc2[nH]5)C=C4)C=C3)cc1
REMARK SMILES IDX 18 1 17 2 16 3 14 4 15 5 3 7 2 8 1 9 4 10 5 13 6 14 7 15
REMARK SMILES IDX 8 16 12 17 9 18 10 19 11 20 13 21 19 22 20 23 21 24 22 25
REMARK SMILES IDX 23 27 24 28 25 29 86 30 26 31 85 32 27 33 28 34 29 35 79 36
REMARK SMILES IDX 30 37 84 38 78 39 80 40 31 41 83 42 77 43 76 44 32 46 64 47
REMARK SMILES IDX 44 48 63 49 45 50 48 51 62 52 81 53 46 54 47 55 61 57 82 58
REMARK SMILES IDX 49 59 33 60 34 61 42 62 35 63 41 64 43 65 40 66 36 67 37 68
REMARK SMILES IDX 38 69 39 70 65 71 66 72 74 73 67 74 73 75 75 76 72 77 68 78
REMARK SMILES IDX 69 79 70 80 71 81 50 82 51 83 59 84 52 85 58 86 60 87 57 88
REMARK SMILES IDX 53 89 54 90 55 91 56 92
REMARK H PARENT 16 6 4 11 4 12 21 26 80 45 48 56
REMARK Flexibility Score: inf
ROOT
ATOM      1  C   UNL A   1      33.663  28.877  24.821  1.00  0.00     0.023 C 
ENDROOT
BRANCH   1   2
ATOM      2  C   UNL A   1      34.027  28.103  22.724  1.00  0.00     0.116 C 
BRANCH   2   3
ATOM      3  N   UNL A   1      33.049  27.385  21.721  1.00  0.00    -0.351 N 
ATOM      4  C   UNL A   1      32.628  26.094  21.646  1.00  0.00     0.278 C 
ATOM      5  O   UNL A   1      31.969  25.756  20.659  1.00  0.00    -0.268 OA
ATOM      6  H   UNL A   1      32.679  27.973  21.025  1.00  0.00     0.163 HD
BRANCH   4   7
ATOM      7  C   UNL A   1      32.994  25.065  22.751  1.00  0.00     0.272 C 
BRANCH   7   8
ATOM      8  C   UNL A   1      33.382  23.707  22.118  1.00  0.00     0.072 C 
ATOM      9  C   UNL A   1      32.555  22.483  22.450  1.00  0.00     0.011 C 
ENDBRANCH   7   8
BRANCH   7  10
ATOM     10  N   UNL A   1      32.171  25.238  23.982  1.00  0.00    -0.330 N 
ATOM     11  H   UNL A   1      31.531  24.446  24.013  1.00  0.00     0.347 HD
ATOM     12  H   UNL A   1      31.787  26.174  23.857  1.00  0.00     0.347 HD
BRANCH  10  13
ATOM     13  C   UNL A   1      32.783  25.324  25.302  1.00  0.00     0.216 C 
ATOM     14  C   UNL A   1      31.871  26.054  26.287  1.00  0.00     0.081 C 
BRANCH  13  15
ATOM     15  C   UNL A   1      33.127  23.960  25.765  1.00  0.00     0.074 A 
ATOM     16  C   UNL A   1      34.891  23.405  26.119  1.00  0.00     0.090 A 
ATOM     17  C   UNL A   1      32.014  22.785  26.285  1.00  0.00     0.143 A 
ATOM     18  C   UNL A   1      36.153  23.970  25.579  1.00  0.00     0.071 C 
ATOM     19  N   UNL A   1      34.916  21.972  27.034  1.00  0.00    -0.085 NA
ATOM     20  O   UNL A   1      33.001  21.446  27.109  1.00  0.00    -0.361 OA
ATOM     21  C   UNL A   1      30.552  22.600  26.406  1.00  0.00     0.091 C 
ENDBRANCH  13  15
ENDBRANCH  10  13
ENDBRANCH   7  10
ENDBRANCH   4   7
ENDBRANCH   2   3
ENDBRANCH   1   2
BRANCH   1  22
ATOM     22  C   UNL A   1      32.251  29.648  25.408  1.00  0.00     0.023 C 
BRANCH  22  23
ATOM     23  C   UNL A   1      32.412  30.219  26.804  1.00  0.00     0.116 C 
BRANCH  23  24
ATOM     24  N   UNL A   1      32.222  31.671  26.766  1.00  0.00    -0.352 N 
ATOM     25  C   UNL A   1      32.973  32.610  27.409  1.00  0.00     0.251 C 
ATOM     26  H   UNL A   1      31.474  32.004  26.219  1.00  0.00     0.163 HD
ATOM     27  O   UNL A   1      32.591  33.760  27.561  1.00  0.00    -0.269 OA
BRANCH  25  28
ATOM     28  C   UNL A   1      34.267  32.128  27.890  1.00  0.00     0.039 A 
ATOM     29  C   UNL A   1      35.318  33.025  28.035  1.00  0.00     0.014 A 
ATOM     30  C   UNL A   1      34.309  30.829  28.412  1.00  0.00     0.014 A 
ATOM     31  C   UNL A   1      36.451  32.596  28.709  1.00  0.00     0.010 A 
ATOM     32  C   UNL A   1      35.379  30.460  29.198  1.00  0.00     0.010 A 
ATOM     33  C   UNL A   1      36.480  31.318  29.300  1.00  0.00    -0.014 A 
BRANCH  33  34
ATOM     34  C   UNL A   1      37.708  30.822  29.946  1.00  0.00     0.031 A 
ATOM     35  C   UNL A   1      37.991  31.230  31.363  1.00  0.00     0.074 A 
ATOM     36  C   UNL A   1      38.538  30.013  29.266  1.00  0.00     0.049 A 
ATOM     37  N   UNL A   1      38.989  30.890  32.133  1.00  0.00    -0.248 NA
ATOM     38  C   UNL A   1      37.045  32.170  31.987  1.00  0.00     0.031 C 
ATOM     39  C   UNL A   1      38.354  29.589  27.876  1.00  0.00     0.029 A 
ATOM     40  N   UNL A   1      39.687  29.383  29.659  1.00  0.00    -0.354 N 
ATOM     41  C   UNL A   1      38.790  31.579  33.323  1.00  0.00     0.074 A 
ATOM     42  C   UNL A   1      37.639  32.430  33.138  1.00  0.00     0.031 C 
ATOM     43  C   UNL A   1      39.319  28.712  27.557  1.00  0.00     0.029 A 
ATOM     44  C   UNL A   1      40.222  28.566  28.694  1.00  0.00     0.049 A 
ATOM     45  H   UNL A   1      40.091  29.504  30.549  1.00  0.00     0.167 HD
ATOM     46  C   UNL A   1      39.486  31.480  34.478  1.00  0.00     0.034 A 
ATOM     47  C   UNL A   1      41.322  27.791  28.729  1.00  0.00     0.034 A 
ATOM     48  C   UNL A   1      40.637  30.629  34.626  1.00  0.00     0.049 A 
ATOM     49  C   UNL A   1      42.128  27.753  30.001  1.00  0.00     0.074 A 
ATOM     50  C   UNL A   1      41.413  30.420  35.750  1.00  0.00     0.029 A 
ATOM     51  N   UNL A   1      41.192  29.862  33.607  1.00  0.00    -0.354 N 
ATOM     52  N   UNL A   1      41.910  28.377  31.138  1.00  0.00    -0.248 NA
ATOM     53  C   UNL A   1      43.321  26.902  29.998  1.00  0.00     0.031 C 
ATOM     54  C   UNL A   1      42.496  29.619  35.383  1.00  0.00     0.029 A 
ATOM     55  C   UNL A   1      42.330  29.220  34.065  1.00  0.00     0.049 A 
ATOM     56  H   UNL A   1      40.829  29.788  32.695  1.00  0.00     0.167 HD
ATOM     57  C   UNL A   1      42.919  27.959  32.000  1.00  0.00     0.074 A 
ATOM     58  C   UNL A   1      43.738  27.027  31.249  1.00  0.00     0.031 C 
ATOM     59  C   UNL A   1      43.141  28.303  33.296  1.00  0.00     0.034 A 
BRANCH  46  60
ATOM     60  C   UNL A   1      39.046  32.355  35.627  1.00  0.00     0.023 A 
ATOM     61  C   UNL A   1      39.457  33.696  35.741  1.00  0.00     0.031 A 
ATOM     62  C   UNL A   1      38.267  31.818  36.666  1.00  0.00     0.131 A 
ATOM     63  C   UNL A   1      39.180  34.415  36.913  1.00  0.00     0.055 A 
ATOM     64  C   UNL A   1      37.899  32.576  37.778  1.00  0.00     0.041 A 
ATOM     65  F   UNL A   1      37.874  30.536  36.635  1.00  0.00    -0.206 F 
ATOM     66  C   UNL A   1      38.375  33.876  37.918  1.00  0.00     0.022 A 
BRANCH  63  67
ATOM     67  S   UNL A   1      40.064  35.975  37.196  1.00  0.00     0.124 S 
ATOM     68  O   UNL A   1      39.416  36.464  38.413  1.00  0.00    -0.237 OA
ATOM     69  O   UNL A   1      41.446  35.536  37.341  1.00  0.00    -0.237 OA
ATOM     70  O   UNL A   1      39.776  36.754  35.994  1.00  0.00    -0.744 OA
ENDBRANCH  63  67
ENDBRANCH  46  60
BRANCH  47  71
ATOM     71  C   UNL A   1      41.718  26.997  27.533  1.00  0.00     0.023 A 
ATOM     72  C   UNL A   1      41.468  25.618  27.464  1.00  0.00     0.031 A 
ATOM     73  C   UNL A   1      42.374  27.605  26.448  1.00  0.00     0.131 A 
ATOM     74  C   UNL A   1      41.913  24.884  26.353  1.00  0.00     0.055 A 
ATOM     75  C   UNL A   1      42.754  26.883  25.316  1.00  0.00     0.041 A 
ATOM     76  F   UNL A   1      42.641  28.921  26.465  1.00  0.00    -0.206 F 
ATOM     77  C   UNL A   1      42.534  25.511  25.270  1.00  0.00     0.022 A 
BRANCH  74  78
ATOM     78  S   UNL A   1      41.761  23.078  26.390  1.00  0.00     0.124 S 
ATOM     79  O   UNL A   1      42.489  22.746  27.610  1.00  0.00    -0.237 OA
ATOM     80  O   UNL A   1      40.315  22.894  26.435  1.00  0.00    -0.237 OA
ATOM     81  O   UNL A   1      42.402  22.658  25.146  1.00  0.00    -0.744 OA
ENDBRANCH  74  78
ENDBRANCH  47  71
BRANCH  59  82
ATOM     82  C   UNL A   1      44.282  27.614  34.005  1.00  0.00     0.023 A 
ATOM     83  C   UNL A   1      44.108  26.413  34.711  1.00  0.00     0.031 A 
ATOM     84  C   UNL A   1      45.569  28.183  33.976  1.00  0.00     0.131 A 
ATOM     85  C   UNL A   1      45.185  25.860  35.420  1.00  0.00     0.055 A 
ATOM     86  C   UNL A   1      46.656  27.578  34.604  1.00  0.00     0.041 A 
ATOM     87  F   UNL A   1      45.794  29.337  33.326  1.00  0.00    -0.206 F 
ATOM     88  C   UNL A   1      46.463  26.419  35.348  1.00  0.00     0.022 A 
BRANCH  85  89
ATOM     89  S   UNL A   1      44.859  24.487  36.557  1.00  0.00     0.124 S 
ATOM     90  O   UNL A   1      46.146  24.342  37.231  1.00  0.00    -0.237 OA
ATOM     91  O   UNL A   1      43.768  25.008  37.374  1.00  0.00    -0.237 OA
ATOM     92  O   UNL A   1      44.497  23.384  35.668  1.00  0.00    -0.744 OA
ENDBRANCH  85  89
ENDBRANCH  59  82
ENDBRANCH  33  34
ENDBRANCH  25  28
ENDBRANCH  23  24
ENDBRANCH  22  23
ENDBRANCH   1  22
TORSDOF 18
ENDMDL
