MODEL 1
REMARK VINA RESULT:     -10.0      0.000      0.000
REMARK SMILES C[C@@H](C(=O)NCCCCNC(=O)c1ccc(-c2c3nc(c(-c4cc(S(=O)(=O)[O-])ccc4F)c4ccc([nH]4)c(-c4cc(S(=O)(=O)[O-])ccc4F)c4nc(c(-c5cc(S(=O)(=O)[O-])ccc5F)c5ccc2[nH]5)C=C4)C=C3)cc1)c1ccc(C(=O)c2cccs2)cc1
REMARK SMILES IDX 7 1 6 2 5 3 3 4 4 5 2 7 1 8 76 9 77 10 88 11 78 12 87 13
REMARK SMILES IDX 79 14 80 15 81 16 82 17 83 18 86 19 84 20 85 21 8 22 9 23
REMARK SMILES IDX 10 24 11 25 12 27 13 28 14 29 75 30 15 31 74 32 16 33 17 34
REMARK SMILES IDX 18 35 68 36 19 37 73 38 67 39 69 40 20 41 72 42 66 43 65 44
REMARK SMILES IDX 21 46 53 47 33 48 52 49 34 50 37 51 51 52 70 53 35 54 36 55
REMARK SMILES IDX 50 57 71 58 38 59 22 60 23 61 31 62 24 63 30 64 32 65 29 66
REMARK SMILES IDX 25 67 26 68 27 69 28 70 54 71 55 72 63 73 56 74 62 75 64 76
REMARK SMILES IDX 61 77 57 78 58 79 59 80 60 81 39 82 40 83 48 84 41 85 47 86
REMARK SMILES IDX 49 87 46 88 42 89 43 90 44 91 45 92
REMARK H PARENT 5 6 10 26 69 45 37 56
REMARK Flexibility Score: inf
ROOT
ATOM      1  C   UNL A   1      42.566  19.427  27.010  1.00  0.00     0.023 C 
ENDROOT
BRANCH   1   2
ATOM      2  C   UNL A   1      42.985  19.915  25.623  1.00  0.00     0.116 C 
BRANCH   2   3
ATOM      3  N   UNL A   1      44.347  20.405  25.634  1.00  0.00    -0.356 N 
ATOM      4  C   UNL A   1      44.830  21.677  25.730  1.00  0.00     0.227 C 
ATOM      5  O   UNL A   1      46.050  21.804  25.630  1.00  0.00    -0.274 OA
ATOM      6  H   UNL A   1      45.037  19.706  25.562  1.00  0.00     0.163 HD
BRANCH   4   7
ATOM      7  C   UNL A   1      43.867  22.849  25.998  1.00  0.00     0.105 C 
ATOM      8  C   UNL A   1      43.986  23.976  24.970  1.00  0.00     0.023 C 
BRANCH   7   9
ATOM      9  C   UNL A   1      44.023  23.462  27.389  1.00  0.00    -0.036 A 
ATOM     10  C   UNL A   1      42.956  23.491  28.300  1.00  0.00     0.005 A 
ATOM     11  C   UNL A   1      45.272  23.939  27.808  1.00  0.00     0.005 A 
ATOM     12  C   UNL A   1      43.123  24.015  29.582  1.00  0.00     0.012 A 
ATOM     13  C   UNL A   1      45.447  24.439  29.102  1.00  0.00     0.012 A 
ATOM     14  C   UNL A   1      44.370  24.494  29.998  1.00  0.00     0.023 A 
BRANCH  14  15
ATOM     15  C   UNL A   1      44.499  24.989  31.409  1.00  0.00     0.202 C 
ATOM     16  O   UNL A   1      44.697  24.166  32.302  1.00  0.00    -0.288 OA
BRANCH  15  17
ATOM     17  C   UNL A   1      44.435  26.414  31.670  1.00  0.00     0.075 A 
ATOM     18  C   UNL A   1      43.452  27.328  31.347  1.00  0.00     0.024 A 
ATOM     19  S   UNL A   1      45.725  27.144  32.527  1.00  0.00    -0.140 S 
ATOM     20  C   UNL A   1      43.794  28.651  31.756  1.00  0.00     0.012 A 
ATOM     21  C   UNL A   1      45.009  28.692  32.403  1.00  0.00     0.065 A 
ENDBRANCH  15  17
ENDBRANCH  14  15
ENDBRANCH   7   9
ENDBRANCH   4   7
ENDBRANCH   2   3
ENDBRANCH   1   2
BRANCH   1  22
ATOM     22  C   UNL A   1      41.160  19.855  27.440  1.00  0.00     0.023 C 
BRANCH  22  23
ATOM     23  C   UNL A   1      40.815  21.311  27.162  1.00  0.00     0.116 C 
BRANCH  23  24
ATOM     24  N   UNL A   1      39.566  21.456  26.434  1.00  0.00    -0.352 N 
ATOM     25  C   UNL A   1      38.786  22.572  26.273  1.00  0.00     0.251 C 
ATOM     26  H   UNL A   1      39.233  20.639  25.997  1.00  0.00     0.163 HD
ATOM     27  O   UNL A   1      37.670  22.456  25.766  1.00  0.00    -0.269 OA
BRANCH  25  28
ATOM     28  C   UNL A   1      39.270  23.894  26.725  1.00  0.00     0.039 A 
ATOM     29  C   UNL A   1      39.086  24.256  28.061  1.00  0.00     0.014 A 
ATOM     30  C   UNL A   1      39.885  24.784  25.838  1.00  0.00     0.014 A 
ATOM     31  C   UNL A   1      39.541  25.497  28.511  1.00  0.00     0.010 A 
ATOM     32  C   UNL A   1      40.418  25.982  26.309  1.00  0.00     0.010 A 
ATOM     33  C   UNL A   1      40.226  26.365  27.644  1.00  0.00    -0.014 A 
BRANCH  33  34
ATOM     34  C   UNL A   1      40.685  27.700  28.108  1.00  0.00     0.031 A 
ATOM     35  C   UNL A   1      42.140  28.076  27.991  1.00  0.00     0.074 A 
ATOM     36  C   UNL A   1      39.803  28.564  28.650  1.00  0.00     0.049 A 
ATOM     37  N   UNL A   1      42.741  29.185  28.337  1.00  0.00    -0.248 NA
ATOM     38  C   UNL A   1      43.044  27.056  27.437  1.00  0.00     0.031 C 
ATOM     39  C   UNL A   1      38.377  28.298  28.854  1.00  0.00     0.029 A 
ATOM     40  N   UNL A   1      39.972  29.841  29.121  1.00  0.00    -0.354 N 
ATOM     41  C   UNL A   1      44.091  28.990  28.058  1.00  0.00     0.074 A 
ATOM     42  C   UNL A   1      44.226  27.630  27.585  1.00  0.00     0.031 C 
ATOM     43  C   UNL A   1      37.796  29.393  29.369  1.00  0.00     0.029 A 
ATOM     44  C   UNL A   1      38.809  30.423  29.571  1.00  0.00     0.049 A 
ATOM     45  H   UNL A   1      40.844  30.298  29.137  1.00  0.00     0.167 HD
ATOM     46  C   UNL A   1      45.117  29.871  28.160  1.00  0.00     0.034 A 
ATOM     47  C   UNL A   1      38.586  31.649  30.084  1.00  0.00     0.034 A 
ATOM     48  C   UNL A   1      44.958  31.229  28.621  1.00  0.00     0.049 A 
ATOM     49  C   UNL A   1      39.745  32.609  30.200  1.00  0.00     0.074 A 
ATOM     50  C   UNL A   1      45.915  32.225  28.716  1.00  0.00     0.029 A 
ATOM     51  N   UNL A   1      43.765  31.784  29.071  1.00  0.00    -0.354 N 
ATOM     52  N   UNL A   1      41.005  32.429  29.876  1.00  0.00    -0.248 NA
ATOM     53  C   UNL A   1      39.444  33.945  30.727  1.00  0.00     0.031 C 
ATOM     54  C   UNL A   1      45.320  33.352  29.293  1.00  0.00     0.029 A 
ATOM     55  C   UNL A   1      43.970  33.095  29.472  1.00  0.00     0.049 A 
ATOM     56  H   UNL A   1      42.901  31.313  29.100  1.00  0.00     0.167 HD
ATOM     57  C   UNL A   1      41.637  33.646  30.121  1.00  0.00     0.074 A 
ATOM     58  C   UNL A   1      40.614  34.552  30.603  1.00  0.00     0.031 C 
ATOM     59  C   UNL A   1      42.941  33.988  29.955  1.00  0.00     0.034 A 
BRANCH  46  60
ATOM     60  C   UNL A   1      46.498  29.378  27.794  1.00  0.00     0.023 A 
ATOM     61  C   UNL A   1      46.834  29.015  26.476  1.00  0.00     0.031 A 
ATOM     62  C   UNL A   1      47.487  29.233  28.783  1.00  0.00     0.131 A 
ATOM     63  C   UNL A   1      48.088  28.449  26.200  1.00  0.00     0.055 A 
ATOM     64  C   UNL A   1      48.766  28.757  28.484  1.00  0.00     0.041 A 
ATOM     65  F   UNL A   1      47.225  29.539  30.063  1.00  0.00    -0.206 F 
ATOM     66  C   UNL A   1      49.066  28.343  27.190  1.00  0.00     0.022 A 
BRANCH  63  67
ATOM     67  S   UNL A   1      48.361  27.702  24.570  1.00  0.00     0.124 S 
ATOM     68  O   UNL A   1      49.692  28.202  24.236  1.00  0.00    -0.237 OA
ATOM     69  O   UNL A   1      48.267  26.276  24.855  1.00  0.00    -0.237 OA
ATOM     70  O   UNL A   1      47.277  28.250  23.755  1.00  0.00    -0.744 OA
ENDBRANCH  63  67
ENDBRANCH  46  60
BRANCH  47  71
ATOM     71  C   UNL A   1      37.217  32.054  30.518  1.00  0.00     0.023 A 
ATOM     72  C   UNL A   1      36.317  32.645  29.616  1.00  0.00     0.031 A 
ATOM     73  C   UNL A   1      36.805  31.907  31.855  1.00  0.00     0.131 A 
ATOM     74  C   UNL A   1      35.076  33.119  30.072  1.00  0.00     0.055 A 
ATOM     75  C   UNL A   1      35.546  32.324  32.290  1.00  0.00     0.041 A 
ATOM     76  F   UNL A   1      37.623  31.344  32.759  1.00  0.00    -0.206 F 
ATOM     77  C   UNL A   1      34.680  32.949  31.399  1.00  0.00     0.022 A 
BRANCH  74  78
ATOM     78  S   UNL A   1      34.027  34.052  28.923  1.00  0.00     0.124 S 
ATOM     79  O   UNL A   1      34.972  35.018  28.376  1.00  0.00    -0.237 OA
ATOM     80  O   UNL A   1      33.576  33.006  28.009  1.00  0.00    -0.237 OA
ATOM     81  O   UNL A   1      32.990  34.610  29.786  1.00  0.00    -0.744 OA
ENDBRANCH  74  78
ENDBRANCH  47  71
BRANCH  59  82
ATOM     82  C   UNL A   1      43.316  35.427  30.232  1.00  0.00     0.023 A 
ATOM     83  C   UNL A   1      43.195  36.431  29.256  1.00  0.00     0.031 A 
ATOM     84  C   UNL A   1      43.832  35.789  31.490  1.00  0.00     0.131 A 
ATOM     85  C   UNL A   1      43.658  37.728  29.527  1.00  0.00     0.055 A 
ATOM     86  C   UNL A   1      44.218  37.098  31.779  1.00  0.00     0.041 A 
ATOM     87  F   UNL A   1      43.973  34.872  32.462  1.00  0.00    -0.206 F 
ATOM     88  C   UNL A   1      44.152  38.072  30.788  1.00  0.00     0.022 A 
BRANCH  85  89
ATOM     89  S   UNL A   1      43.732  38.927  28.167  1.00  0.00     0.124 S 
ATOM     90  O   UNL A   1      42.323  39.263  27.984  1.00  0.00    -0.237 OA
ATOM     91  O   UNL A   1      44.571  39.980  28.726  1.00  0.00    -0.237 OA
ATOM     92  O   UNL A   1      44.335  38.167  27.073  1.00  0.00    -0.744 OA
ENDBRANCH  85  89
ENDBRANCH  59  82
ENDBRANCH  33  34
ENDBRANCH  25  28
ENDBRANCH  23  24
ENDBRANCH  22  23
ENDBRANCH   1  22
TORSDOF 17
ENDMDL
MODEL 2
REMARK VINA RESULT:     -10.0      4.288      7.284
REMARK SMILES C[C@@H](C(=O)NCCCCNC(=O)c1ccc(-c2c3nc(c(-c4cc(S(=O)(=O)[O-])ccc4F)c4ccc([nH]4)c(-c4cc(S(=O)(=O)[O-])ccc4F)c4nc(c(-c5cc(S(=O)(=O)[O-])ccc5F)c5ccc2[nH]5)C=C4)C=C3)cc1)c1ccc(C(=O)c2cccs2)cc1
REMARK SMILES IDX 7 1 6 2 5 3 3 4 4 5 2 7 1 8 76 9 77 10 88 11 78 12 87 13
REMARK SMILES IDX 79 14 80 15 81 16 82 17 83 18 86 19 84 20 85 21 8 22 9 23
REMARK SMILES IDX 10 24 11 25 12 27 13 28 14 29 75 30 15 31 74 32 16 33 17 34
REMARK SMILES IDX 18 35 68 36 19 37 73 38 67 39 69 40 20 41 72 42 66 43 65 44
REMARK SMILES IDX 21 46 53 47 33 48 52 49 34 50 37 51 51 52 70 53 35 54 36 55
REMARK SMILES IDX 50 57 71 58 38 59 22 60 23 61 31 62 24 63 30 64 32 65 29 66
REMARK SMILES IDX 25 67 26 68 27 69 28 70 54 71 55 72 63 73 56 74 62 75 64 76
REMARK SMILES IDX 61 77 57 78 58 79 59 80 60 81 39 82 40 83 48 84 41 85 47 86
REMARK SMILES IDX 49 87 46 88 42 89 43 90 44 91 45 92
REMARK H PARENT 5 6 10 26 69 45 37 56
REMARK Flexibility Score: inf
ROOT
ATOM      1  C   UNL A   1      36.102  23.125  23.516  1.00  0.00     0.023 C 
ENDROOT
BRANCH   1   2
ATOM      2  C   UNL A   1      34.897  24.066  23.464  1.00  0.00     0.116 C 
BRANCH   2   3
ATOM      3  N   UNL A   1      34.419  24.370  24.796  1.00  0.00    -0.356 N 
ATOM      4  C   UNL A   1      33.154  24.361  25.306  1.00  0.00     0.227 C 
ATOM      5  O   UNL A   1      33.034  24.749  26.468  1.00  0.00    -0.274 OA
ATOM      6  H   UNL A   1      35.121  24.624  25.438  1.00  0.00     0.163 HD
BRANCH   4   7
ATOM      7  C   UNL A   1      31.982  23.839  24.454  1.00  0.00     0.105 C 
ATOM      8  C   UNL A   1      30.614  24.079  25.095  1.00  0.00     0.023 C 
BRANCH   7   9
ATOM      9  C   UNL A   1      32.088  22.354  24.112  1.00  0.00    -0.036 A 
ATOM     10  C   UNL A   1      32.013  21.900  22.787  1.00  0.00     0.005 A 
ATOM     11  C   UNL A   1      32.345  21.420  25.125  1.00  0.00     0.005 A 
ATOM     12  C   UNL A   1      32.154  20.545  22.484  1.00  0.00     0.012 A 
ATOM     13  C   UNL A   1      32.514  20.065  24.819  1.00  0.00     0.012 A 
ATOM     14  C   UNL A   1      32.407  19.612  23.497  1.00  0.00     0.023 A 
BRANCH  14  15
ATOM     15  C   UNL A   1      32.609  18.179  23.099  1.00  0.00     0.202 C 
ATOM     16  O   UNL A   1      32.152  17.801  22.021  1.00  0.00    -0.288 OA
BRANCH  15  17
ATOM     17  C   UNL A   1      33.371  17.303  23.967  1.00  0.00     0.075 A 
ATOM     18  C   UNL A   1      34.734  17.087  24.029  1.00  0.00     0.024 A 
ATOM     19  S   UNL A   1      32.529  16.382  25.139  1.00  0.00    -0.140 S 
ATOM     20  C   UNL A   1      35.078  16.110  25.009  1.00  0.00     0.012 A 
ATOM     21  C   UNL A   1      33.971  15.639  25.679  1.00  0.00     0.065 A 
ENDBRANCH  15  17
ENDBRANCH  14  15
ENDBRANCH   7   9
ENDBRANCH   4   7
ENDBRANCH   2   3
ENDBRANCH   1   2
BRANCH   1  22
ATOM     22  C   UNL A   1      35.856  21.814  24.269  1.00  0.00     0.023 C 
BRANCH  22  23
ATOM     23  C   UNL A   1      36.521  21.720  25.635  1.00  0.00     0.116 C 
BRANCH  23  24
ATOM     24  N   UNL A   1      37.506  20.654  25.700  1.00  0.00    -0.352 N 
ATOM     25  C   UNL A   1      38.857  20.739  25.915  1.00  0.00     0.251 C 
ATOM     26  H   UNL A   1      37.154  19.743  25.571  1.00  0.00     0.163 HD
ATOM     27  O   UNL A   1      39.554  19.736  25.761  1.00  0.00    -0.269 OA
BRANCH  25  28
ATOM     28  C   UNL A   1      39.472  22.027  26.302  1.00  0.00     0.039 A 
ATOM     29  C   UNL A   1      40.522  22.021  27.223  1.00  0.00     0.014 A 
ATOM     30  C   UNL A   1      39.008  23.239  25.780  1.00  0.00     0.014 A 
ATOM     31  C   UNL A   1      41.121  23.225  27.598  1.00  0.00     0.010 A 
ATOM     32  C   UNL A   1      39.666  24.428  26.086  1.00  0.00     0.010 A 
ATOM     33  C   UNL A   1      40.710  24.438  27.021  1.00  0.00    -0.014 A 
BRANCH  33  34
ATOM     34  C   UNL A   1      41.322  25.727  27.438  1.00  0.00     0.031 A 
ATOM     35  C   UNL A   1      42.738  26.050  27.038  1.00  0.00     0.074 A 
ATOM     36  C   UNL A   1      40.615  26.594  28.190  1.00  0.00     0.049 A 
ATOM     37  N   UNL A   1      43.453  27.114  27.301  1.00  0.00    -0.248 NA
ATOM     38  C   UNL A   1      43.457  25.026  26.264  1.00  0.00     0.031 C 
ATOM     39  C   UNL A   1      39.250  26.375  28.675  1.00  0.00     0.029 A 
ATOM     40  N   UNL A   1      40.941  27.837  28.673  1.00  0.00    -0.354 N 
ATOM     41  C   UNL A   1      44.705  26.880  26.739  1.00  0.00     0.074 A 
ATOM     42  C   UNL A   1      44.671  25.544  26.188  1.00  0.00     0.031 C 
ATOM     43  C   UNL A   1      38.842  27.463  29.347  1.00  0.00     0.029 A 
ATOM     44  C   UNL A   1      39.926  28.439  29.380  1.00  0.00     0.049 A 
ATOM     45  H   UNL A   1      41.819  28.257  28.527  1.00  0.00     0.167 HD
ATOM     46  C   UNL A   1      45.773  27.713  26.664  1.00  0.00     0.034 A 
ATOM     47  C   UNL A   1      39.876  29.644  29.983  1.00  0.00     0.034 A 
ATOM     48  C   UNL A   1      45.780  29.049  27.208  1.00  0.00     0.049 A 
ATOM     49  C   UNL A   1      41.080  30.549  29.897  1.00  0.00     0.074 A 
ATOM     50  C   UNL A   1      46.786  29.999  27.146  1.00  0.00     0.029 A 
ATOM     51  N   UNL A   1      44.735  29.626  27.921  1.00  0.00    -0.354 N 
ATOM     52  N   UNL A   1      42.237  30.336  29.311  1.00  0.00    -0.248 NA
ATOM     53  C   UNL A   1      40.962  31.865  30.535  1.00  0.00     0.031 C 
ATOM     54  C   UNL A   1      46.380  31.116  27.885  1.00  0.00     0.029 A 
ATOM     55  C   UNL A   1      45.085  30.904  28.329  1.00  0.00     0.049 A 
ATOM     56  H   UNL A   1      43.874  29.189  28.108  1.00  0.00     0.167 HD
ATOM     57  C   UNL A   1      42.966  31.513  29.473  1.00  0.00     0.074 A 
ATOM     58  C   UNL A   1      42.111  32.431  30.198  1.00  0.00     0.031 C 
ATOM     59  C   UNL A   1      44.223  31.811  29.055  1.00  0.00     0.034 A 
BRANCH  46  60
ATOM     60  C   UNL A   1      47.022  27.185  25.997  1.00  0.00     0.023 A 
ATOM     61  C   UNL A   1      47.986  26.443  26.703  1.00  0.00     0.031 A 
ATOM     62  C   UNL A   1      47.273  27.457  24.640  1.00  0.00     0.131 A 
ATOM     63  C   UNL A   1      49.188  26.075  26.079  1.00  0.00     0.055 A 
ATOM     64  C   UNL A   1      48.429  27.007  23.998  1.00  0.00     0.041 A 
ATOM     65  F   UNL A   1      46.405  28.180  23.915  1.00  0.00    -0.206 F 
ATOM     66  C   UNL A   1      49.404  26.327  24.723  1.00  0.00     0.022 A 
BRANCH  63  67
ATOM     67  S   UNL A   1      50.530  25.411  27.103  1.00  0.00     0.124 S 
ATOM     68  O   UNL A   1      51.020  26.617  27.765  1.00  0.00    -0.237 OA
ATOM     69  O   UNL A   1      49.834  24.453  27.953  1.00  0.00    -0.237 OA
ATOM     70  O   UNL A   1      51.450  24.828  26.128  1.00  0.00    -0.744 OA
ENDBRANCH  63  67
ENDBRANCH  46  60
BRANCH  47  71
ATOM     71  C   UNL A   1      38.648  30.079  30.710  1.00  0.00     0.023 A 
ATOM     72  C   UNL A   1      37.638  30.805  30.056  1.00  0.00     0.031 A 
ATOM     73  C   UNL A   1      38.487  29.824  32.083  1.00  0.00     0.131 A 
ATOM     74  C   UNL A   1      36.545  31.300  30.784  1.00  0.00     0.055 A 
ATOM     75  C   UNL A   1      37.368  30.265  32.791  1.00  0.00     0.041 A 
ATOM     76  F   UNL A   1      39.418  29.131  32.758  1.00  0.00    -0.206 F 
ATOM     77  C   UNL A   1      36.396  31.022  32.144  1.00  0.00     0.022 A 
BRANCH  74  78
ATOM     78  S   UNL A   1      35.368  32.398  29.947  1.00  0.00     0.124 S 
ATOM     79  O   UNL A   1      34.403  32.662  31.007  1.00  0.00    -0.237 OA
ATOM     80  O   UNL A   1      36.222  33.517  29.561  1.00  0.00    -0.237 OA
ATOM     81  O   UNL A   1      34.874  31.584  28.839  1.00  0.00    -0.744 OA
ENDBRANCH  74  78
ENDBRANCH  47  71
BRANCH  59  82
ATOM     82  C   UNL A   1      44.719  33.216  29.312  1.00  0.00     0.023 A 
ATOM     83  C   UNL A   1      44.408  34.286  28.455  1.00  0.00     0.031 A 
ATOM     84  C   UNL A   1      45.543  33.478  30.422  1.00  0.00     0.131 A 
ATOM     85  C   UNL A   1      44.982  35.548  28.676  1.00  0.00     0.055 A 
ATOM     86  C   UNL A   1      46.047  34.753  30.679  1.00  0.00     0.041 A 
ATOM     87  F   UNL A   1      45.877  32.496  31.274  1.00  0.00    -0.206 F 
ATOM     88  C   UNL A   1      45.784  35.793  29.793  1.00  0.00     0.022 A 
BRANCH  85  89
ATOM     89  S   UNL A   1      44.773  36.831  27.411  1.00  0.00     0.124 S 
ATOM     90  O   UNL A   1      44.649  38.038  28.221  1.00  0.00    -0.237 OA
ATOM     91  O   UNL A   1      46.003  36.707  26.636  1.00  0.00    -0.237 OA
ATOM     92  O   UNL A   1      43.555  36.426  26.710  1.00  0.00    -0.744 OA
ENDBRANCH  85  89
ENDBRANCH  59  82
ENDBRANCH  33  34
ENDBRANCH  25  28
ENDBRANCH  23  24
ENDBRANCH  22  23
ENDBRANCH   1  22
TORSDOF 17
ENDMDL
MODEL 3
REMARK VINA RESULT:      -9.8      4.422      7.354
REMARK SMILES C[C@@H](C(=O)NCCCCNC(=O)c1ccc(-c2c3nc(c(-c4cc(S(=O)(=O)[O-])ccc4F)c4ccc([nH]4)c(-c4cc(S(=O)(=O)[O-])ccc4F)c4nc(c(-c5cc(S(=O)(=O)[O-])ccc5F)c5ccc2[nH]5)C=C4)C=C3)cc1)c1ccc(C(=O)c2cccs2)cc1
REMARK SMILES IDX 7 1 6 2 5 3 3 4 4 5 2 7 1 8 76 9 77 10 88 11 78 12 87 13
REMARK SMILES IDX 79 14 80 15 81 16 82 17 83 18 86 19 84 20 85 21 8 22 9 23
REMARK SMILES IDX 10 24 11 25 12 27 13 28 14 29 75 30 15 31 74 32 16 33 17 34
REMARK SMILES IDX 18 35 68 36 19 37 73 38 67 39 69 40 20 41 72 42 66 43 65 44
REMARK SMILES IDX 21 46 53 47 33 48 52 49 34 50 37 51 51 52 70 53 35 54 36 55
REMARK SMILES IDX 50 57 71 58 38 59 22 60 23 61 31 62 24 63 30 64 32 65 29 66
REMARK SMILES IDX 25 67 26 68 27 69 28 70 54 71 55 72 63 73 56 74 62 75 64 76
REMARK SMILES IDX 61 77 57 78 58 79 59 80 60 81 39 82 40 83 48 84 41 85 47 86
REMARK SMILES IDX 49 87 46 88 42 89 43 90 44 91 45 92
REMARK H PARENT 5 6 10 26 69 45 37 56
REMARK Flexibility Score: inf
ROOT
ATOM      1  C   UNL A   1      35.481  23.309  23.724  1.00  0.00     0.023 C 
ENDROOT
BRANCH   1   2
ATOM      2  C   UNL A   1      34.894  24.315  24.713  1.00  0.00     0.116 C 
BRANCH   2   3
ATOM      3  N   UNL A   1      33.844  25.098  24.096  1.00  0.00    -0.356 N 
ATOM      4  C   UNL A   1      32.490  24.933  24.114  1.00  0.00     0.227 C 
ATOM      5  O   UNL A   1      31.839  25.716  23.422  1.00  0.00    -0.274 OA
ATOM      6  H   UNL A   1      34.158  25.875  23.581  1.00  0.00     0.163 HD
BRANCH   4   7
ATOM      7  C   UNL A   1      31.856  23.847  25.004  1.00  0.00     0.105 C 
ATOM      8  C   UNL A   1      32.315  23.915  26.462  1.00  0.00     0.023 C 
BRANCH   7   9
ATOM      9  C   UNL A   1      32.099  22.425  24.499  1.00  0.00    -0.036 A 
ATOM     10  C   UNL A   1      32.346  21.366  25.385  1.00  0.00     0.005 A 
ATOM     11  C   UNL A   1      31.999  22.141  23.131  1.00  0.00     0.005 A 
ATOM     12  C   UNL A   1      32.524  20.064  24.915  1.00  0.00     0.012 A 
ATOM     13  C   UNL A   1      32.151  20.833  22.660  1.00  0.00     0.012 A 
ATOM     14  C   UNL A   1      32.428  19.783  23.547  1.00  0.00     0.023 A 
BRANCH  14  15
ATOM     15  C   UNL A   1      32.569  18.354  23.111  1.00  0.00     0.202 C 
ATOM     16  O   UNL A   1      32.307  18.070  21.943  1.00  0.00    -0.288 OA
BRANCH  15  17
ATOM     17  C   UNL A   1      33.051  17.368  24.059  1.00  0.00     0.075 A 
ATOM     18  C   UNL A   1      32.353  16.609  24.978  1.00  0.00     0.024 A 
ATOM     19  S   UNL A   1      34.726  17.016  24.086  1.00  0.00    -0.140 S 
ATOM     20  C   UNL A   1      33.215  15.776  25.751  1.00  0.00     0.012 A 
ATOM     21  C   UNL A   1      34.533  15.906  25.373  1.00  0.00     0.065 A 
ENDBRANCH  15  17
ENDBRANCH  14  15
ENDBRANCH   7   9
ENDBRANCH   4   7
ENDBRANCH   2   3
ENDBRANCH   1   2
BRANCH   1  22
ATOM     22  C   UNL A   1      35.865  21.959  24.338  1.00  0.00     0.023 C 
BRANCH  22  23
ATOM     23  C   UNL A   1      36.593  22.040  25.672  1.00  0.00     0.116 C 
BRANCH  23  24
ATOM     24  N   UNL A   1      37.559  20.969  25.843  1.00  0.00    -0.352 N 
ATOM     25  C   UNL A   1      38.901  21.053  26.114  1.00  0.00     0.251 C 
ATOM     26  H   UNL A   1      37.201  20.057  25.750  1.00  0.00     0.163 HD
ATOM     27  O   UNL A   1      39.590  20.035  26.049  1.00  0.00    -0.269 OA
BRANCH  25  28
ATOM     28  C   UNL A   1      39.515  22.354  26.454  1.00  0.00     0.039 A 
ATOM     29  C   UNL A   1      40.562  22.382  27.378  1.00  0.00     0.014 A 
ATOM     30  C   UNL A   1      39.053  23.545  25.886  1.00  0.00     0.014 A 
ATOM     31  C   UNL A   1      41.160  23.599  27.710  1.00  0.00     0.010 A 
ATOM     32  C   UNL A   1      39.710  24.745  26.149  1.00  0.00     0.010 A 
ATOM     33  C   UNL A   1      40.751  24.790  27.087  1.00  0.00    -0.014 A 
BRANCH  33  34
ATOM     34  C   UNL A   1      41.362  26.094  27.457  1.00  0.00     0.031 A 
ATOM     35  C   UNL A   1      42.739  26.446  26.957  1.00  0.00     0.074 A 
ATOM     36  C   UNL A   1      40.691  26.947  28.256  1.00  0.00     0.049 A 
ATOM     37  N   UNL A   1      43.446  27.527  27.167  1.00  0.00    -0.248 NA
ATOM     38  C   UNL A   1      43.423  25.436  26.135  1.00  0.00     0.031 C 
ATOM     39  C   UNL A   1      39.369  26.699  28.837  1.00  0.00     0.029 A 
ATOM     40  N   UNL A   1      41.023  28.198  28.713  1.00  0.00    -0.354 N 
ATOM     41  C   UNL A   1      44.660  27.320  26.517  1.00  0.00     0.074 A 
ATOM     42  C   UNL A   1      44.617  25.981  25.972  1.00  0.00     0.031 C 
ATOM     43  C   UNL A   1      38.986  27.780  29.535  1.00  0.00     0.029 A 
ATOM     44  C   UNL A   1      40.048  28.780  29.489  1.00  0.00     0.049 A 
ATOM     45  H   UNL A   1      41.879  28.637  28.504  1.00  0.00     0.167 HD
ATOM     46  C   UNL A   1      45.701  28.175  26.366  1.00  0.00     0.034 A 
ATOM     47  C   UNL A   1      40.013  29.985  30.092  1.00  0.00     0.034 A 
ATOM     48  C   UNL A   1      45.717  29.514  26.905  1.00  0.00     0.049 A 
ATOM     49  C   UNL A   1      41.188  30.917  29.920  1.00  0.00     0.074 A 
ATOM     50  C   UNL A   1      46.694  30.485  26.771  1.00  0.00     0.029 A 
ATOM     51  N   UNL A   1      44.713  30.069  27.690  1.00  0.00    -0.354 N 
ATOM     52  N   UNL A   1      42.304  30.728  29.253  1.00  0.00    -0.248 NA
ATOM     53  C   UNL A   1      41.086  32.232  30.562  1.00  0.00     0.031 C 
ATOM     54  C   UNL A   1      46.317  31.595  27.535  1.00  0.00     0.029 A 
ATOM     55  C   UNL A   1      45.061  31.356  28.070  1.00  0.00     0.049 A 
ATOM     56  H   UNL A   1      43.877  29.613  27.939  1.00  0.00     0.167 HD
ATOM     57  C   UNL A   1      43.016  31.920  29.361  1.00  0.00     0.074 A 
ATOM     58  C   UNL A   1      42.194  32.822  30.143  1.00  0.00     0.031 C 
ATOM     59  C   UNL A   1      44.234  32.245  28.854  1.00  0.00     0.034 A 
BRANCH  46  60
ATOM     60  C   UNL A   1      46.912  27.674  25.612  1.00  0.00     0.023 A 
ATOM     61  C   UNL A   1      47.164  28.043  24.278  1.00  0.00     0.031 A 
ATOM     62  C   UNL A   1      47.812  26.783  26.224  1.00  0.00     0.131 A 
ATOM     63  C   UNL A   1      48.231  27.462  23.576  1.00  0.00     0.055 A 
ATOM     64  C   UNL A   1      48.926  26.280  25.549  1.00  0.00     0.041 A 
ATOM     65  F   UNL A   1      47.616  26.372  27.486  1.00  0.00    -0.206 F 
ATOM     66  C   UNL A   1      49.131  26.604  24.211  1.00  0.00     0.022 A 
BRANCH  63  67
ATOM     67  S   UNL A   1      48.328  27.713  21.782  1.00  0.00     0.124 S 
ATOM     68  O   UNL A   1      48.647  26.367  21.313  1.00  0.00    -0.237 OA
ATOM     69  O   UNL A   1      46.994  28.203  21.459  1.00  0.00    -0.237 OA
ATOM     70  O   UNL A   1      49.406  28.689  21.631  1.00  0.00    -0.744 OA
ENDBRANCH  63  67
ENDBRANCH  46  60
BRANCH  47  71
ATOM     71  C   UNL A   1      38.831  30.395  30.904  1.00  0.00     0.023 A 
ATOM     72  C   UNL A   1      37.750  31.075  30.318  1.00  0.00     0.031 A 
ATOM     73  C   UNL A   1      38.784  30.162  32.290  1.00  0.00     0.131 A 
ATOM     74  C   UNL A   1      36.699  31.548  31.120  1.00  0.00     0.055 A 
ATOM     75  C   UNL A   1      37.708  30.581  33.075  1.00  0.00     0.041 A 
ATOM     76  F   UNL A   1      39.787  29.513  32.903  1.00  0.00    -0.206 F 
ATOM     77  C   UNL A   1      36.665  31.293  32.492  1.00  0.00     0.022 A 
BRANCH  74  78
ATOM     78  S   UNL A   1      35.426  32.591  30.357  1.00  0.00     0.124 S 
ATOM     79  O   UNL A   1      34.400  32.611  31.391  1.00  0.00    -0.237 OA
ATOM     80  O   UNL A   1      36.148  33.841  30.143  1.00  0.00    -0.237 OA
ATOM     81  O   UNL A   1      35.074  31.862  29.140  1.00  0.00    -0.744 OA
ENDBRANCH  74  78
ENDBRANCH  47  71
BRANCH  59  82
ATOM     82  C   UNL A   1      44.715  33.662  29.073  1.00  0.00     0.023 A 
ATOM     83  C   UNL A   1      45.509  34.018  30.178  1.00  0.00     0.031 A 
ATOM     84  C   UNL A   1      44.344  34.677  28.173  1.00  0.00     0.131 A 
ATOM     85  C   UNL A   1      45.838  35.365  30.396  1.00  0.00     0.055 A 
ATOM     86  C   UNL A   1      44.740  36.003  28.354  1.00  0.00     0.041 A 
ATOM     87  F   UNL A   1      43.585  34.398  27.101  1.00  0.00    -0.206 F 
ATOM     88  C   UNL A   1      45.475  36.356  29.482  1.00  0.00     0.022 A 
BRANCH  85  89
ATOM     89  S   UNL A   1      46.633  35.822  31.961  1.00  0.00     0.124 S 
ATOM     90  O   UNL A   1      45.487  35.946  32.858  1.00  0.00    -0.237 OA
ATOM     91  O   UNL A   1      47.514  34.686  32.206  1.00  0.00    -0.237 OA
ATOM     92  O   UNL A   1      47.312  37.078  31.646  1.00  0.00    -0.744 OA
ENDBRANCH  85  89
ENDBRANCH  59  82
ENDBRANCH  33  34
ENDBRANCH  25  28
ENDBRANCH  23  24
ENDBRANCH  22  23
ENDBRANCH   1  22
TORSDOF 17
ENDMDL
