MODEL 1
REMARK VINA RESULT:     -12.8      0.000      0.000
REMARK SMILES Cc1cc(Cl)c2c(c1)C=C(C(=O)NCCCCNC(=O)c1ccc(-c3c4nc(c(-c5cc(S(=O)(=O)[O-])ccc5F)c5ccc([nH]5)c(-c5cc(S(=O)(=O)[O-])ccc5F)c5nc(c(-c6cc(S(=O)(=O)[O-])ccc6F)c6ccc3[nH]6)C=C5)C=C4)cc1)[C@@H](C(F)(F)F)O2
REMARK SMILES IDX 16 1 15 2 14 3 13 4 11 5 12 6 10 8 1 9 2 10 3 11 8 12 4 13
REMARK SMILES IDX 7 14 5 15 6 16 9 17 89 18 84 19 85 20 86 21 87 22 88 23
REMARK SMILES IDX 17 24 18 25 19 26 20 28 21 29 22 30 83 31 23 32 82 33 24 34
REMARK SMILES IDX 25 35 26 36 76 37 27 38 81 39 75 40 77 41 28 42 80 43 74 44
REMARK SMILES IDX 73 45 29 47 61 48 41 49 60 50 42 51 45 52 59 53 78 54 43 55
REMARK SMILES IDX 44 56 58 58 79 59 46 60 30 61 31 62 39 63 32 64 38 65 40 66
REMARK SMILES IDX 37 67 33 68 34 69 35 70 36 71 62 72 63 73 71 74 64 75 70 76
REMARK SMILES IDX 72 77 69 78 65 79 66 80 67 81 68 82 47 83 48 84 56 85 49 86
REMARK SMILES IDX 55 87 57 88 54 89 50 90 51 91 52 92 53 93
REMARK H PARENT 13 7 18 27 77 46 45 57
REMARK Flexibility Score: inf
ROOT
ATOM      1  C   UNL A   1      35.136  21.806  24.680  1.00  0.00     0.023 C 
ENDROOT
BRANCH   1   2
ATOM      2  C   UNL A   1      33.920  21.316  25.471  1.00  0.00     0.023 C 
BRANCH   2   3
ATOM      3  C   UNL A   1      33.755  21.975  26.837  1.00  0.00     0.116 C 
BRANCH   3   4
ATOM      4  N   UNL A   1      32.377  22.349  27.095  1.00  0.00    -0.352 N 
ATOM      5  C   UNL A   1      31.566  23.393  26.807  1.00  0.00     0.251 C 
ATOM      6  O   UNL A   1      30.416  23.306  27.250  1.00  0.00    -0.270 OA
ATOM      7  H   UNL A   1      31.907  21.660  27.620  1.00  0.00     0.163 HD
BRANCH   5   8
ATOM      8  C   UNL A   1      31.956  24.599  26.015  1.00  0.00     0.067 C 
ATOM      9  C   UNL A   1      31.780  30.772  26.415  1.00  0.00     0.044 C 
ATOM     10  C   UNL A   1      32.117  29.442  25.809  1.00  0.00    -0.049 A 
ATOM     11  C   UNL A   1      32.821  29.366  24.601  1.00  0.00     0.028 A 
ATOM     12  C   UNL A   1      31.784  28.256  26.480  1.00  0.00     0.015 A 
ATOM     13  C   UNL A   1      33.164  28.125  24.061  1.00  0.00     0.084 A 
ATOM     14  C   UNL A   1      32.123  27.010  25.938  1.00  0.00     0.019 A 
ATOM     15  Cl  UNL A   1      34.028  28.090  22.566  1.00  0.00    -0.080 Cl
ATOM     16  C   UNL A   1      32.807  26.945  24.721  1.00  0.00     0.146 A 
ATOM     17  C   UNL A   1      31.806  25.777  26.648  1.00  0.00     0.025 C 
ATOM     18  O   UNL A   1      33.191  25.747  24.182  1.00  0.00    -0.474 OA
ATOM     19  C   UNL A   1      32.438  24.573  24.593  1.00  0.00     0.314 C 
BRANCH  19  20
ATOM     20  C   UNL A   1      31.301  24.318  23.585  1.00  0.00     0.429 C 
ATOM     21  F   UNL A   1      31.162  22.991  23.349  1.00  0.00    -0.167 F 
ATOM     22  F   UNL A   1      30.102  24.758  24.032  1.00  0.00    -0.167 F 
ATOM     23  F   UNL A   1      31.522  24.921  22.394  1.00  0.00    -0.167 F 
ENDBRANCH  19  20
ENDBRANCH   5   8
ENDBRANCH   3   4
ENDBRANCH   2   3
ENDBRANCH   1   2
BRANCH   1  24
ATOM     24  C   UNL A   1      36.392  22.084  25.508  1.00  0.00     0.116 C 
BRANCH  24  25
ATOM     25  N   UNL A   1      37.350  20.989  25.505  1.00  0.00    -0.352 N 
ATOM     26  C   UNL A   1      38.675  21.022  25.870  1.00  0.00     0.251 C 
ATOM     27  H   UNL A   1      37.006  20.116  25.204  1.00  0.00     0.163 HD
ATOM     28  O   UNL A   1      39.380  20.027  25.736  1.00  0.00    -0.269 OA
BRANCH  26  29
ATOM     29  C   UNL A   1      39.238  22.287  26.378  1.00  0.00     0.039 A 
ATOM     30  C   UNL A   1      40.335  22.235  27.240  1.00  0.00     0.014 A 
ATOM     31  C   UNL A   1      38.729  23.512  25.937  1.00  0.00     0.014 A 
ATOM     32  C   UNL A   1      40.973  23.421  27.604  1.00  0.00     0.010 A 
ATOM     33  C   UNL A   1      39.402  24.686  26.257  1.00  0.00     0.010 A 
ATOM     34  C   UNL A   1      40.535  24.649  27.084  1.00  0.00    -0.014 A 
BRANCH  34  35
ATOM     35  C   UNL A   1      41.253  25.909  27.394  1.00  0.00     0.031 A 
ATOM     36  C   UNL A   1      40.588  26.961  28.232  1.00  0.00     0.074 A 
ATOM     37  C   UNL A   1      42.476  26.122  26.873  1.00  0.00     0.049 A 
ATOM     38  N   UNL A   1      41.015  28.155  28.551  1.00  0.00    -0.248 NA
ATOM     39  C   UNL A   1      39.254  26.635  28.759  1.00  0.00     0.031 C 
ATOM     40  C   UNL A   1      43.208  25.186  26.017  1.00  0.00     0.029 A 
ATOM     41  N   UNL A   1      43.321  27.196  26.989  1.00  0.00    -0.354 N 
ATOM     42  C   UNL A   1      39.998  28.728  29.305  1.00  0.00     0.074 A 
ATOM     43  C   UNL A   1      38.914  27.770  29.348  1.00  0.00     0.031 C 
ATOM     44  C   UNL A   1      44.405  25.713  25.713  1.00  0.00     0.029 A 
ATOM     45  C   UNL A   1      44.512  27.035  26.320  1.00  0.00     0.049 A 
ATOM     46  H   UNL A   1      43.097  28.006  27.503  1.00  0.00     0.167 HD
ATOM     47  C   UNL A   1      39.981  29.934  29.924  1.00  0.00     0.034 A 
ATOM     48  C   UNL A   1      45.568  27.863  26.208  1.00  0.00     0.034 A 
ATOM     49  C   UNL A   1      41.076  30.870  29.889  1.00  0.00     0.049 A 
ATOM     50  C   UNL A   1      45.523  29.204  26.888  1.00  0.00     0.074 A 
ATOM     51  C   UNL A   1      41.182  32.097  30.519  1.00  0.00     0.029 A 
ATOM     52  N   UNL A   1      42.257  30.681  29.183  1.00  0.00    -0.354 N 
ATOM     53  N   UNL A   1      44.558  29.730  27.603  1.00  0.00    -0.248 NA
ATOM     54  C   UNL A   1      46.706  30.061  26.742  1.00  0.00     0.031 C 
ATOM     55  C   UNL A   1      42.406  32.671  30.156  1.00  0.00     0.029 A 
ATOM     56  C   UNL A   1      43.087  31.778  29.343  1.00  0.00     0.049 A 
ATOM     57  H   UNL A   1      42.472  29.884  28.646  1.00  0.00     0.167 HD
ATOM     58  C   UNL A   1      45.021  30.978  28.005  1.00  0.00     0.074 A 
ATOM     59  C   UNL A   1      46.355  31.124  27.456  1.00  0.00     0.031 C 
ATOM     60  C   UNL A   1      44.402  31.915  28.764  1.00  0.00     0.034 A 
BRANCH  47  61
ATOM     61  C   UNL A   1      38.727  30.303  30.672  1.00  0.00     0.023 A 
ATOM     62  C   UNL A   1      37.669  30.978  30.039  1.00  0.00     0.031 A 
ATOM     63  C   UNL A   1      38.602  30.013  32.041  1.00  0.00     0.131 A 
ATOM     64  C   UNL A   1      36.566  31.406  30.789  1.00  0.00     0.055 A 
ATOM     65  C   UNL A   1      37.467  30.377  32.766  1.00  0.00     0.041 A 
ATOM     66  F   UNL A   1      39.591  29.387  32.700  1.00  0.00    -0.206 F 
ATOM     67  C   UNL A   1      36.445  31.090  32.144  1.00  0.00     0.022 A 
BRANCH  64  68
ATOM     68  S   UNL A   1      35.344  32.485  29.995  1.00  0.00     0.124 S 
ATOM     69  O   UNL A   1      34.872  31.638  28.902  1.00  0.00    -0.237 OA
ATOM     70  O   UNL A   1      34.391  32.732  31.070  1.00  0.00    -0.237 OA
ATOM     71  O   UNL A   1      36.131  33.646  29.580  1.00  0.00    -0.744 OA
ENDBRANCH  64  68
ENDBRANCH  47  61
BRANCH  48  72
ATOM     72  C   UNL A   1      46.757  27.443  25.420  1.00  0.00     0.023 A 
ATOM     73  C   UNL A   1      46.899  27.826  24.078  1.00  0.00     0.031 A 
ATOM     74  C   UNL A   1      47.775  26.672  26.006  1.00  0.00     0.131 A 
ATOM     75  C   UNL A   1      48.032  27.422  23.356  1.00  0.00     0.055 A 
ATOM     76  C   UNL A   1      48.913  26.295  25.292  1.00  0.00     0.041 A 
ATOM     77  F   UNL A   1      47.687  26.298  27.293  1.00  0.00    -0.206 F 
ATOM     78  C   UNL A   1      49.044  26.668  23.956  1.00  0.00     0.022 A 
BRANCH  75  79
ATOM     79  S   UNL A   1      48.171  27.899  21.612  1.00  0.00     0.124 S 
ATOM     80  O   UNL A   1      48.462  26.618  20.976  1.00  0.00    -0.237 OA
ATOM     81  O   UNL A   1      46.854  28.466  21.342  1.00  0.00    -0.237 OA
ATOM     82  O   UNL A   1      49.270  28.862  21.611  1.00  0.00    -0.744 OA
ENDBRANCH  75  79
ENDBRANCH  48  72
BRANCH  60  83
ATOM     83  C   UNL A   1      45.169  33.175  29.058  1.00  0.00     0.023 A 
ATOM     84  C   UNL A   1      45.096  34.290  28.207  1.00  0.00     0.031 A 
ATOM     85  C   UNL A   1      45.955  33.269  30.220  1.00  0.00     0.131 A 
ATOM     86  C   UNL A   1      45.821  35.449  28.518  1.00  0.00     0.055 A 
ATOM     87  C   UNL A   1      46.641  34.438  30.545  1.00  0.00     0.041 A 
ATOM     88  F   UNL A   1      46.053  32.229  31.064  1.00  0.00    -0.206 F 
ATOM     89  C   UNL A   1      46.582  35.535  29.689  1.00  0.00     0.022 A 
BRANCH  86  90
ATOM     90  S   UNL A   1      45.782  36.842  27.358  1.00  0.00     0.124 S 
ATOM     91  O   UNL A   1      44.349  37.049  27.184  1.00  0.00    -0.237 OA
ATOM     92  O   UNL A   1      46.493  37.885  28.090  1.00  0.00    -0.237 OA
ATOM     93  O   UNL A   1      46.482  36.328  26.182  1.00  0.00    -0.744 OA
ENDBRANCH  86  90
ENDBRANCH  60  83
ENDBRANCH  34  35
ENDBRANCH  26  29
ENDBRANCH  24  25
ENDBRANCH   1  24
TORSDOF 15
ENDMDL
MODEL 2
REMARK VINA RESULT:     -12.8      5.305     10.324
REMARK SMILES Cc1cc(Cl)c2c(c1)C=C(C(=O)NCCCCNC(=O)c1ccc(-c3c4nc(c(-c5cc(S(=O)(=O)[O-])ccc5F)c5ccc([nH]5)c(-c5cc(S(=O)(=O)[O-])ccc5F)c5nc(c(-c6cc(S(=O)(=O)[O-])ccc6F)c6ccc3[nH]6)C=C5)C=C4)cc1)[C@@H](C(F)(F)F)O2
REMARK SMILES IDX 16 1 15 2 14 3 13 4 11 5 12 6 10 8 1 9 2 10 3 11 8 12 4 13
REMARK SMILES IDX 7 14 5 15 6 16 9 17 89 18 84 19 85 20 86 21 87 22 88 23
REMARK SMILES IDX 17 24 18 25 19 26 20 28 21 29 22 30 83 31 23 32 82 33 24 34
REMARK SMILES IDX 25 35 26 36 76 37 27 38 81 39 75 40 77 41 28 42 80 43 74 44
REMARK SMILES IDX 73 45 29 47 61 48 41 49 60 50 42 51 45 52 59 53 78 54 43 55
REMARK SMILES IDX 44 56 58 58 79 59 46 60 30 61 31 62 39 63 32 64 38 65 40 66
REMARK SMILES IDX 37 67 33 68 34 69 35 70 36 71 62 72 63 73 71 74 64 75 70 76
REMARK SMILES IDX 72 77 69 78 65 79 66 80 67 81 68 82 47 83 48 84 56 85 49 86
REMARK SMILES IDX 55 87 57 88 54 89 50 90 51 91 52 92 53 93
REMARK H PARENT 13 7 18 27 77 46 45 57
REMARK Flexibility Score: inf
ROOT
ATOM      1  C   UNL A   1      31.451  28.779  25.145  1.00  0.00     0.023 C 
ENDROOT
BRANCH   1   2
ATOM      2  C   UNL A   1      31.445  28.526  23.635  1.00  0.00     0.023 C 
BRANCH   2   3
ATOM      3  C   UNL A   1      31.195  27.072  23.246  1.00  0.00     0.116 C 
BRANCH   3   4
ATOM      4  N   UNL A   1      31.878  26.716  22.015  1.00  0.00    -0.352 N 
ATOM      5  C   UNL A   1      32.783  25.790  21.620  1.00  0.00     0.251 C 
ATOM      6  O   UNL A   1      33.115  25.853  20.432  1.00  0.00    -0.270 OA
ATOM      7  H   UNL A   1      31.613  27.304  21.271  1.00  0.00     0.163 HD
BRANCH   5   8
ATOM      8  C   UNL A   1      33.380  24.736  22.493  1.00  0.00     0.067 C 
ATOM      9  C   UNL A   1      32.304  18.905  24.266  1.00  0.00     0.044 C 
ATOM     10  C   UNL A   1      33.057  20.199  24.178  1.00  0.00    -0.049 A 
ATOM     11  C   UNL A   1      34.285  20.356  24.833  1.00  0.00     0.028 A 
ATOM     12  C   UNL A   1      32.569  21.248  23.385  1.00  0.00     0.015 A 
ATOM     13  C   UNL A   1      34.999  21.550  24.717  1.00  0.00     0.084 A 
ATOM     14  C   UNL A   1      33.280  22.448  23.271  1.00  0.00     0.019 A 
ATOM     15  Cl  UNL A   1      36.505  21.691  25.550  1.00  0.00    -0.080 Cl
ATOM     16  C   UNL A   1      34.494  22.602  23.946  1.00  0.00     0.146 A 
ATOM     17  C   UNL A   1      32.790  23.528  22.423  1.00  0.00     0.025 C 
ATOM     18  O   UNL A   1      35.237  23.745  23.826  1.00  0.00    -0.474 OA
ATOM     19  C   UNL A   1      34.523  24.953  23.443  1.00  0.00     0.314 C 
BRANCH  19  20
ATOM     20  C   UNL A   1      34.104  25.720  24.711  1.00  0.00     0.429 C 
ATOM     21  F   UNL A   1      34.206  27.057  24.514  1.00  0.00    -0.167 F 
ATOM     22  F   UNL A   1      32.820  25.479  25.063  1.00  0.00    -0.167 F 
ATOM     23  F   UNL A   1      34.872  25.408  25.781  1.00  0.00    -0.167 F 
ENDBRANCH  19  20
ENDBRANCH   5   8
ENDBRANCH   3   4
ENDBRANCH   2   3
ENDBRANCH   1   2
BRANCH   1  24
ATOM     24  C   UNL A   1      32.599  29.646  25.663  1.00  0.00     0.116 C 
BRANCH  24  25
ATOM     25  N   UNL A   1      32.180  30.966  26.111  1.00  0.00    -0.352 N 
ATOM     26  C   UNL A   1      32.819  31.803  26.996  1.00  0.00     0.251 C 
ATOM     27  H   UNL A   1      31.333  31.301  25.735  1.00  0.00     0.163 HD
ATOM     28  O   UNL A   1      32.298  32.859  27.338  1.00  0.00    -0.269 OA
BRANCH  26  29
ATOM     29  C   UNL A   1      34.117  31.381  27.556  1.00  0.00     0.039 A 
ATOM     30  C   UNL A   1      35.087  32.353  27.809  1.00  0.00     0.014 A 
ATOM     31  C   UNL A   1      34.335  30.044  27.900  1.00  0.00     0.014 A 
ATOM     32  C   UNL A   1      36.255  31.994  28.480  1.00  0.00     0.010 A 
ATOM     33  C   UNL A   1      35.476  29.701  28.619  1.00  0.00     0.010 A 
ATOM     34  C   UNL A   1      36.439  30.674  28.923  1.00  0.00    -0.014 A 
BRANCH  34  35
ATOM     35  C   UNL A   1      37.636  30.294  29.711  1.00  0.00     0.031 A 
ATOM     36  C   UNL A   1      38.669  29.386  29.109  1.00  0.00     0.074 A 
ATOM     37  C   UNL A   1      37.760  30.722  30.981  1.00  0.00     0.049 A 
ATOM     38  N   UNL A   1      39.742  28.878  29.657  1.00  0.00    -0.248 NA
ATOM     39  C   UNL A   1      38.449  28.974  27.715  1.00  0.00     0.031 C 
ATOM     40  C   UNL A   1      36.803  31.581  31.683  1.00  0.00     0.029 A 
ATOM     41  N   UNL A   1      38.744  30.493  31.909  1.00  0.00    -0.354 N 
ATOM     42  C   UNL A   1      40.319  28.077  28.679  1.00  0.00     0.074 A 
ATOM     43  C   UNL A   1      39.446  28.126  27.525  1.00  0.00     0.031 C 
ATOM     44  C   UNL A   1      37.264  31.833  32.919  1.00  0.00     0.029 A 
ATOM     45  C   UNL A   1      38.527  31.127  33.110  1.00  0.00     0.049 A 
ATOM     46  H   UNL A   1      39.531  29.929  31.732  1.00  0.00     0.167 HD
ATOM     47  C   UNL A   1      41.483  27.385  28.732  1.00  0.00     0.034 A 
ATOM     48  C   UNL A   1      39.263  31.135  34.238  1.00  0.00     0.034 A 
ATOM     49  C   UNL A   1      42.352  27.362  29.881  1.00  0.00     0.049 A 
ATOM     50  C   UNL A   1      40.542  30.346  34.283  1.00  0.00     0.074 A 
ATOM     51  C   UNL A   1      43.576  26.731  30.024  1.00  0.00     0.029 A 
ATOM     52  N   UNL A   1      42.088  27.998  31.086  1.00  0.00    -0.354 N 
ATOM     53  N   UNL A   1      41.079  29.598  33.348  1.00  0.00    -0.248 NA
ATOM     54  C   UNL A   1      41.310  30.399  35.533  1.00  0.00     0.031 C 
ATOM     55  C   UNL A   1      44.028  26.948  31.331  1.00  0.00     0.029 A 
ATOM     56  C   UNL A   1      43.114  27.758  31.986  1.00  0.00     0.049 A 
ATOM     57  H   UNL A   1      41.288  28.541  31.275  1.00  0.00     0.167 HD
ATOM     58  C   UNL A   1      42.258  29.099  33.893  1.00  0.00     0.074 A 
ATOM     59  C   UNL A   1      42.355  29.636  35.237  1.00  0.00     0.031 C 
ATOM     60  C   UNL A   1      43.178  28.279  33.330  1.00  0.00     0.034 A 
BRANCH  47  61
ATOM     61  C   UNL A   1      41.861  26.586  27.512  1.00  0.00     0.023 A 
ATOM     62  C   UNL A   1      41.567  25.214  27.416  1.00  0.00     0.031 A 
ATOM     63  C   UNL A   1      42.558  27.190  26.452  1.00  0.00     0.131 A 
ATOM     64  C   UNL A   1      42.032  24.477  26.319  1.00  0.00     0.055 A 
ATOM     65  C   UNL A   1      42.953  26.464  25.327  1.00  0.00     0.041 A 
ATOM     66  F   UNL A   1      42.882  28.492  26.501  1.00  0.00    -0.206 F 
ATOM     67  C   UNL A   1      42.703  25.096  25.261  1.00  0.00     0.022 A 
BRANCH  64  68
ATOM     68  S   UNL A   1      41.850  22.673  26.349  1.00  0.00     0.124 S 
ATOM     69  O   UNL A   1      40.399  22.524  26.271  1.00  0.00    -0.237 OA
ATOM     70  O   UNL A   1      42.599  22.258  25.168  1.00  0.00    -0.237 OA
ATOM     71  O   UNL A   1      42.443  22.290  27.630  1.00  0.00    -0.744 OA
ENDBRANCH  64  68
ENDBRANCH  47  61
BRANCH  48  72
ATOM     72  C   UNL A   1      38.804  31.918  35.415  1.00  0.00     0.023 A 
ATOM     73  C   UNL A   1      38.170  31.286  36.494  1.00  0.00     0.031 A 
ATOM     74  C   UNL A   1      39.014  33.306  35.485  1.00  0.00     0.131 A 
ATOM     75  C   UNL A   1      37.750  32.045  37.597  1.00  0.00     0.055 A 
ATOM     76  C   UNL A   1      38.619  34.053  36.595  1.00  0.00     0.041 A 
ATOM     77  F   UNL A   1      39.632  33.949  34.481  1.00  0.00    -0.206 F 
ATOM     78  C   UNL A   1      37.979  33.422  37.659  1.00  0.00     0.022 A 
BRANCH  75  79
ATOM     79  S   UNL A   1      36.899  31.207  38.961  1.00  0.00     0.124 S 
ATOM     80  O   UNL A   1      35.684  32.005  39.088  1.00  0.00    -0.237 OA
ATOM     81  O   UNL A   1      36.728  29.857  38.434  1.00  0.00    -0.237 OA
ATOM     82  O   UNL A   1      37.842  31.321  40.071  1.00  0.00    -0.744 OA
ENDBRANCH  75  79
ENDBRANCH  48  72
BRANCH  60  83
ATOM     83  C   UNL A   1      44.379  27.923  34.163  1.00  0.00     0.023 A 
ATOM     84  C   UNL A   1      44.398  26.768  34.962  1.00  0.00     0.031 A 
ATOM     85  C   UNL A   1      45.527  28.733  34.129  1.00  0.00     0.131 A 
ATOM     86  C   UNL A   1      45.538  26.467  35.720  1.00  0.00     0.055 A 
ATOM     87  C   UNL A   1      46.674  28.406  34.853  1.00  0.00     0.041 A 
ATOM     88  F   UNL A   1      45.555  29.846  33.377  1.00  0.00    -0.206 F 
ATOM     89  C   UNL A   1      46.681  27.271  35.659  1.00  0.00     0.022 A 
BRANCH  86  90
ATOM     90  S   UNL A   1      45.504  25.020  36.813  1.00  0.00     0.124 S 
ATOM     91  O   UNL A   1      44.266  25.232  37.554  1.00  0.00    -0.237 OA
ATOM     92  O   UNL A   1      45.500  23.909  35.868  1.00  0.00    -0.237 OA
ATOM     93  O   UNL A   1      46.729  25.156  37.600  1.00  0.00    -0.744 OA
ENDBRANCH  86  90
ENDBRANCH  60  83
ENDBRANCH  34  35
ENDBRANCH  26  29
ENDBRANCH  24  25
ENDBRANCH   1  24
TORSDOF 15
ENDMDL
MODEL 3
REMARK VINA RESULT:     -12.8      5.190     10.280
REMARK SMILES Cc1cc(Cl)c2c(c1)C=C(C(=O)NCCCCNC(=O)c1ccc(-c3c4nc(c(-c5cc(S(=O)(=O)[O-])ccc5F)c5ccc([nH]5)c(-c5cc(S(=O)(=O)[O-])ccc5F)c5nc(c(-c6cc(S(=O)(=O)[O-])ccc6F)c6ccc3[nH]6)C=C5)C=C4)cc1)[C@@H](C(F)(F)F)O2
REMARK SMILES IDX 16 1 15 2 14 3 13 4 11 5 12 6 10 8 1 9 2 10 3 11 8 12 4 13
REMARK SMILES IDX 7 14 5 15 6 16 9 17 89 18 84 19 85 20 86 21 87 22 88 23
REMARK SMILES IDX 17 24 18 25 19 26 20 28 21 29 22 30 83 31 23 32 82 33 24 34
REMARK SMILES IDX 25 35 26 36 76 37 27 38 81 39 75 40 77 41 28 42 80 43 74 44
REMARK SMILES IDX 73 45 29 47 61 48 41 49 60 50 42 51 45 52 59 53 78 54 43 55
REMARK SMILES IDX 44 56 58 58 79 59 46 60 30 61 31 62 39 63 32 64 38 65 40 66
REMARK SMILES IDX 37 67 33 68 34 69 35 70 36 71 62 72 63 73 71 74 64 75 70 76
REMARK SMILES IDX 72 77 69 78 65 79 66 80 67 81 68 82 47 83 48 84 56 85 49 86
REMARK SMILES IDX 55 87 57 88 54 89 50 90 51 91 52 92 53 93
REMARK H PARENT 13 7 18 27 77 46 45 57
REMARK Flexibility Score: inf
ROOT
ATOM      1  C   UNL A   1      31.767  28.932  24.801  1.00  0.00     0.023 C 
ENDROOT
BRANCH   1   2
ATOM      2  C   UNL A   1      32.333  28.455  23.461  1.00  0.00     0.023 C 
BRANCH   2   3
ATOM      3  C   UNL A   1      31.384  27.565  22.663  1.00  0.00     0.116 C 
BRANCH   3   4
ATOM      4  N   UNL A   1      32.091  26.768  21.677  1.00  0.00    -0.352 N 
ATOM      5  C   UNL A   1      32.843  25.643  21.670  1.00  0.00     0.251 C 
ATOM      6  O   UNL A   1      33.278  25.306  20.565  1.00  0.00    -0.270 OA
ATOM      7  H   UNL A   1      31.999  27.147  20.772  1.00  0.00     0.163 HD
BRANCH   5   8
ATOM      8  C   UNL A   1      33.166  24.811  22.869  1.00  0.00     0.067 C 
ATOM      9  C   UNL A   1      37.544  20.929  24.881  1.00  0.00     0.044 C 
ATOM     10  C   UNL A   1      36.293  21.752  24.962  1.00  0.00    -0.049 A 
ATOM     11  C   UNL A   1      35.528  21.773  26.135  1.00  0.00     0.028 A 
ATOM     12  C   UNL A   1      35.908  22.559  23.882  1.00  0.00     0.015 A 
ATOM     13  C   UNL A   1      34.384  22.570  26.216  1.00  0.00     0.084 A 
ATOM     14  C   UNL A   1      34.759  23.356  23.960  1.00  0.00     0.019 A 
ATOM     15  Cl  UNL A   1      33.475  22.555  27.685  1.00  0.00    -0.080 Cl
ATOM     16  C   UNL A   1      33.991  23.354  25.127  1.00  0.00     0.146 A 
ATOM     17  C   UNL A   1      34.375  24.219  22.850  1.00  0.00     0.025 C 
ATOM     18  O   UNL A   1      32.885  24.150  25.254  1.00  0.00    -0.474 OA
ATOM     19  C   UNL A   1      32.235  24.569  24.022  1.00  0.00     0.314 C 
BRANCH  19  20
ATOM     20  C   UNL A   1      31.108  23.577  23.678  1.00  0.00     0.429 C 
ATOM     21  F   UNL A   1      31.548  22.642  22.800  1.00  0.00    -0.167 F 
ATOM     22  F   UNL A   1      30.659  22.905  24.763  1.00  0.00    -0.167 F 
ATOM     23  F   UNL A   1      30.037  24.185  23.119  1.00  0.00    -0.167 F 
ENDBRANCH  19  20
ENDBRANCH   5   8
ENDBRANCH   3   4
ENDBRANCH   2   3
ENDBRANCH   1   2
BRANCH   1  24
ATOM     24  C   UNL A   1      32.772  29.601  25.740  1.00  0.00     0.116 C 
BRANCH  24  25
ATOM     25  N   UNL A   1      32.362  30.923  26.192  1.00  0.00    -0.352 N 
ATOM     26  C   UNL A   1      33.000  31.747  27.089  1.00  0.00     0.251 C 
ATOM     27  H   UNL A   1      31.523  31.268  25.809  1.00  0.00     0.163 HD
ATOM     28  O   UNL A   1      32.486  32.806  27.432  1.00  0.00    -0.269 OA
BRANCH  26  29
ATOM     29  C   UNL A   1      34.288  31.309  27.660  1.00  0.00     0.039 A 
ATOM     30  C   UNL A   1      35.288  32.260  27.869  1.00  0.00     0.014 A 
ATOM     31  C   UNL A   1      34.466  29.980  28.057  1.00  0.00     0.014 A 
ATOM     32  C   UNL A   1      36.449  31.892  28.548  1.00  0.00     0.010 A 
ATOM     33  C   UNL A   1      35.600  29.631  28.784  1.00  0.00     0.010 A 
ATOM     34  C   UNL A   1      36.595  30.586  29.044  1.00  0.00    -0.014 A 
BRANCH  34  35
ATOM     35  C   UNL A   1      37.784  30.201  29.841  1.00  0.00     0.031 A 
ATOM     36  C   UNL A   1      38.821  29.294  29.246  1.00  0.00     0.074 A 
ATOM     37  C   UNL A   1      37.896  30.624  31.115  1.00  0.00     0.049 A 
ATOM     38  N   UNL A   1      39.888  28.783  29.801  1.00  0.00    -0.248 NA
ATOM     39  C   UNL A   1      38.613  28.888  27.848  1.00  0.00     0.031 C 
ATOM     40  C   UNL A   1      36.934  31.481  31.811  1.00  0.00     0.029 A 
ATOM     41  N   UNL A   1      38.871  30.390  32.051  1.00  0.00    -0.354 N 
ATOM     42  C   UNL A   1      40.474  27.985  28.826  1.00  0.00     0.074 A 
ATOM     43  C   UNL A   1      39.612  28.040  27.664  1.00  0.00     0.031 C 
ATOM     44  C   UNL A   1      37.384  31.728  33.052  1.00  0.00     0.029 A 
ATOM     45  C   UNL A   1      38.644  31.019  33.252  1.00  0.00     0.049 A 
ATOM     46  H   UNL A   1      39.659  29.826  31.879  1.00  0.00     0.167 HD
ATOM     47  C   UNL A   1      41.636  27.291  28.887  1.00  0.00     0.034 A 
ATOM     48  C   UNL A   1      39.369  31.022  34.386  1.00  0.00     0.034 A 
ATOM     49  C   UNL A   1      42.495  27.262  30.043  1.00  0.00     0.049 A 
ATOM     50  C   UNL A   1      40.647  30.231  34.440  1.00  0.00     0.074 A 
ATOM     51  C   UNL A   1      43.716  26.629  30.195  1.00  0.00     0.029 A 
ATOM     52  N   UNL A   1      42.220  27.894  31.249  1.00  0.00    -0.354 N 
ATOM     53  N   UNL A   1      41.192  29.486  33.508  1.00  0.00    -0.248 NA
ATOM     54  C   UNL A   1      41.404  30.278  35.697  1.00  0.00     0.031 C 
ATOM     55  C   UNL A   1      44.157  26.840  31.507  1.00  0.00     0.029 A 
ATOM     56  C   UNL A   1      43.237  27.649  32.157  1.00  0.00     0.049 A 
ATOM     57  H   UNL A   1      41.419  28.437  31.432  1.00  0.00     0.167 HD
ATOM     58  C   UNL A   1      42.365  28.984  34.061  1.00  0.00     0.074 A 
ATOM     59  C   UNL A   1      42.450  29.515  35.408  1.00  0.00     0.031 C 
ATOM     60  C   UNL A   1      43.290  28.164  33.504  1.00  0.00     0.034 A 
BRANCH  47  61
ATOM     61  C   UNL A   1      42.024  26.496  27.667  1.00  0.00     0.023 A 
ATOM     62  C   UNL A   1      41.698  25.134  27.547  1.00  0.00     0.031 A 
ATOM     63  C   UNL A   1      42.763  27.094  26.633  1.00  0.00     0.131 A 
ATOM     64  C   UNL A   1      42.171  24.398  26.453  1.00  0.00     0.055 A 
ATOM     65  C   UNL A   1      43.168  26.372  25.509  1.00  0.00     0.041 A 
ATOM     66  F   UNL A   1      43.119  28.387  26.705  1.00  0.00    -0.206 F 
ATOM     67  C   UNL A   1      42.885  25.011  25.421  1.00  0.00     0.022 A 
BRANCH  64  68
ATOM     68  S   UNL A   1      41.942  22.599  26.457  1.00  0.00     0.124 S 
ATOM     69  O   UNL A   1      42.613  22.216  25.216  1.00  0.00    -0.237 OA
ATOM     70  O   UNL A   1      42.604  22.196  27.691  1.00  0.00    -0.237 OA
ATOM     71  O   UNL A   1      40.488  22.438  26.447  1.00  0.00    -0.744 OA
ENDBRANCH  64  68
ENDBRANCH  47  61
BRANCH  48  72
ATOM     72  C   UNL A   1      38.901  31.801  35.563  1.00  0.00     0.023 A 
ATOM     73  C   UNL A   1      38.207  31.174  36.608  1.00  0.00     0.031 A 
ATOM     74  C   UNL A   1      39.160  33.178  35.666  1.00  0.00     0.131 A 
ATOM     75  C   UNL A   1      37.779  31.929  37.711  1.00  0.00     0.055 A 
ATOM     76  C   UNL A   1      38.756  33.920  36.776  1.00  0.00     0.041 A 
ATOM     77  F   UNL A   1      39.835  33.815  34.695  1.00  0.00    -0.206 F 
ATOM     78  C   UNL A   1      38.057  33.295  37.806  1.00  0.00     0.022 A 
BRANCH  75  79
ATOM     79  S   UNL A   1      36.853  31.099  39.030  1.00  0.00     0.124 S 
ATOM     80  O   UNL A   1      37.783  31.191  40.150  1.00  0.00    -0.237 OA
ATOM     81  O   UNL A   1      35.650  31.921  39.125  1.00  0.00    -0.237 OA
ATOM     82  O   UNL A   1      36.641  29.754  38.501  1.00  0.00    -0.744 OA
ENDBRANCH  75  79
ENDBRANCH  48  72
BRANCH  60  83
ATOM     83  C   UNL A   1      44.482  27.804  34.346  1.00  0.00     0.023 A 
ATOM     84  C   UNL A   1      44.514  26.617  35.097  1.00  0.00     0.031 A 
ATOM     85  C   UNL A   1      45.610  28.642  34.369  1.00  0.00     0.131 A 
ATOM     86  C   UNL A   1      45.647  26.313  35.866  1.00  0.00     0.055 A 
ATOM     87  C   UNL A   1      46.750  28.314  35.103  1.00  0.00     0.041 A 
ATOM     88  F   UNL A   1      45.625  29.785  33.665  1.00  0.00    -0.206 F 
ATOM     89  C   UNL A   1      46.770  27.146  35.862  1.00  0.00     0.022 A 
BRANCH  86  90
ATOM     90  S   UNL A   1      45.627  24.822  36.898  1.00  0.00     0.124 S 
ATOM     91  O   UNL A   1      45.672  25.386  38.243  1.00  0.00    -0.237 OA
ATOM     92  O   UNL A   1      44.371  24.187  36.514  1.00  0.00    -0.237 OA
ATOM     93  O   UNL A   1      46.833  24.105  36.486  1.00  0.00    -0.744 OA
ENDBRANCH  86  90
ENDBRANCH  60  83
ENDBRANCH  34  35
ENDBRANCH  26  29
ENDBRANCH  24  25
ENDBRANCH   1  24
TORSDOF 15
ENDMDL
