MODEL 1
REMARK VINA RESULT:     -12.4      0.000      0.000
REMARK SMILES Cc1nc([C@]2(C)CCCO2)nc(C)c1C(=O)NCCCCNC(=O)c1ccc(-c2c3nc(c(-c4cc(S(=O)(=O)[O-])ccc4F)c4ccc([nH]4)c(-c4cc(S(=O)(=O)[O-])ccc4F)c4nc(c(-c5cc(S(=O)(=O)[O-])ccc5F)c5ccc2[nH]5)C=C4)C=C3)cc1
REMARK SMILES IDX 20 1 19 2 18 3 17 4 15 5 16 6 14 8 1 9 2 10 3 11 4 12 12 13
REMARK SMILES IDX 11 14 13 15 5 16 7 17 10 18 6 19 8 20 9 21 21 22 22 23 23 24
REMARK SMILES IDX 24 26 25 27 26 28 87 29 27 30 86 31 28 32 29 33 30 34 80 35
REMARK SMILES IDX 31 36 85 37 79 38 81 39 32 40 84 41 78 42 77 43 33 45 65 46
REMARK SMILES IDX 45 47 64 48 46 49 49 50 63 51 82 52 47 53 48 54 62 56 83 57
REMARK SMILES IDX 50 58 34 59 35 60 43 61 36 62 42 63 44 64 41 65 37 66 38 67
REMARK SMILES IDX 39 68 40 69 66 70 67 71 75 72 68 73 74 74 76 75 73 76 69 77
REMARK SMILES IDX 70 78 71 79 72 80 51 81 52 82 60 83 53 84 59 85 61 86 58 87
REMARK SMILES IDX 54 88 55 89 56 90 57 91
REMARK H PARENT 17 7 22 25 81 44 49 55
REMARK Flexibility Score: inf
ROOT
ATOM      1  C   UNL A   1      36.064  21.340  25.805  1.00  0.00     0.023 C 
ENDROOT
BRANCH   1   2
ATOM      2  C   UNL A   1      35.178  20.350  25.053  1.00  0.00     0.023 C 
BRANCH   2   3
ATOM      3  C   UNL A   1      33.670  20.597  25.179  1.00  0.00     0.116 C 
BRANCH   3   4
ATOM      4  N   UNL A   1      33.360  21.192  26.459  1.00  0.00    -0.352 N 
ATOM      5  C   UNL A   1      33.041  22.411  26.984  1.00  0.00     0.254 C 
ATOM      6  O   UNL A   1      32.986  22.356  28.219  1.00  0.00    -0.269 OA
ATOM      7  H   UNL A   1      33.387  20.510  27.168  1.00  0.00     0.163 HD
BRANCH   5   8
ATOM      8  C   UNL A   1      32.758  23.729  26.309  1.00  0.00     0.082 A 
ATOM      9  C   UNL A   1      35.118  24.597  25.678  1.00  0.00     0.068 C 
ATOM     10  C   UNL A   1      33.638  24.661  25.762  1.00  0.00     0.054 A 
ATOM     11  N   UNL A   1      33.232  25.854  25.250  1.00  0.00    -0.234 NA
ATOM     12  C   UNL A   1      31.947  26.208  25.310  1.00  0.00     0.160 A 
ATOM     13  C   UNL A   1      31.413  24.172  26.270  1.00  0.00     0.054 A 
ATOM     14  N   UNL A   1      31.013  25.382  25.780  1.00  0.00    -0.234 NA
ATOM     15  C   UNL A   1      30.240  23.385  26.799  1.00  0.00     0.068 C 
BRANCH  12  16
ATOM     16  C   UNL A   1      31.584  27.630  24.864  1.00  0.00     0.125 C 
ATOM     17  C   UNL A   1      30.252  27.675  24.113  1.00  0.00     0.046 C 
ATOM     18  O   UNL A   1      32.549  28.113  23.892  1.00  0.00    -0.367 OA
ATOM     19  C   UNL A   1      31.595  28.614  26.036  1.00  0.00     0.051 C 
ATOM     20  C   UNL A   1      30.631  27.345  22.685  1.00  0.00     0.032 C 
ATOM     21  C   UNL A   1      32.081  27.777  22.578  1.00  0.00     0.161 C 
ENDBRANCH  12  16
ENDBRANCH   5   8
ENDBRANCH   3   4
ENDBRANCH   2   3
ENDBRANCH   1   2
BRANCH   1  22
ATOM     22  C   UNL A   1      37.431  21.567  25.176  1.00  0.00     0.116 C 
BRANCH  22  23
ATOM     23  N   UNL A   1      38.415  20.545  25.510  1.00  0.00    -0.352 N 
ATOM     24  C   UNL A   1      39.582  20.714  26.217  1.00  0.00     0.251 C 
ATOM     25  H   UNL A   1      38.222  19.632  25.194  1.00  0.00     0.163 HD
ATOM     26  O   UNL A   1      40.361  19.779  26.373  1.00  0.00    -0.269 OA
BRANCH  24  27
ATOM     27  C   UNL A   1      39.895  22.063  26.722  1.00  0.00     0.039 A 
ATOM     28  C   UNL A   1      40.893  22.204  27.688  1.00  0.00     0.014 A 
ATOM     29  C   UNL A   1      39.295  23.182  26.140  1.00  0.00     0.014 A 
ATOM     30  C   UNL A   1      41.349  23.480  28.014  1.00  0.00     0.010 A 
ATOM     31  C   UNL A   1      39.803  24.446  26.413  1.00  0.00     0.010 A 
ATOM     32  C   UNL A   1      40.839  24.605  27.346  1.00  0.00    -0.014 A 
BRANCH  32  33
ATOM     33  C   UNL A   1      41.374  25.963  27.610  1.00  0.00     0.031 A 
ATOM     34  C   UNL A   1      42.739  26.336  27.103  1.00  0.00     0.074 A 
ATOM     35  C   UNL A   1      40.667  26.825  28.368  1.00  0.00     0.049 A 
ATOM     36  N   UNL A   1      43.424  27.432  27.298  1.00  0.00    -0.248 NA
ATOM     37  C   UNL A   1      43.440  25.320  26.305  1.00  0.00     0.031 C 
ATOM     38  C   UNL A   1      39.356  26.551  28.964  1.00  0.00     0.029 A 
ATOM     39  N   UNL A   1      40.955  28.102  28.779  1.00  0.00    -0.354 N 
ATOM     40  C   UNL A   1      44.643  27.231  26.661  1.00  0.00     0.074 A 
ATOM     41  C   UNL A   1      44.625  25.883  26.134  1.00  0.00     0.031 C 
ATOM     42  C   UNL A   1      38.946  27.636  29.642  1.00  0.00     0.029 A 
ATOM     43  C   UNL A   1      39.976  28.665  29.563  1.00  0.00     0.049 A 
ATOM     44  H   UNL A   1      41.785  28.571  28.534  1.00  0.00     0.167 HD
ATOM     45  C   UNL A   1      45.672  28.102  26.506  1.00  0.00     0.034 A 
ATOM     46  C   UNL A   1      39.921  29.874  30.156  1.00  0.00     0.034 A 
ATOM     47  C   UNL A   1      45.659  29.449  27.017  1.00  0.00     0.049 A 
ATOM     48  C   UNL A   1      41.074  30.826  29.970  1.00  0.00     0.074 A 
ATOM     49  C   UNL A   1      46.609  30.443  26.855  1.00  0.00     0.029 A 
ATOM     50  N   UNL A   1      44.645  29.993  27.795  1.00  0.00    -0.354 N 
ATOM     51  N   UNL A   1      42.196  30.645  29.310  1.00  0.00    -0.248 NA
ATOM     52  C   UNL A   1      40.952  32.146  30.601  1.00  0.00     0.031 C 
ATOM     53  C   UNL A   1      46.196  31.566  27.581  1.00  0.00     0.029 A 
ATOM     54  C   UNL A   1      44.959  31.296  28.146  1.00  0.00     0.049 A 
ATOM     55  H   UNL A   1      43.823  29.520  28.059  1.00  0.00     0.167 HD
ATOM     56  C   UNL A   1      42.903  31.837  29.431  1.00  0.00     0.074 A 
ATOM     57  C   UNL A   1      42.073  32.734  30.211  1.00  0.00     0.031 C 
ATOM     58  C   UNL A   1      44.125  32.166  28.941  1.00  0.00     0.034 A 
BRANCH  45  59
ATOM     59  C   UNL A   1      46.890  27.603  25.769  1.00  0.00     0.023 A 
ATOM     60  C   UNL A   1      47.148  27.970  24.437  1.00  0.00     0.031 A 
ATOM     61  C   UNL A   1      47.780  26.707  26.388  1.00  0.00     0.131 A 
ATOM     62  C   UNL A   1      48.210  27.379  23.739  1.00  0.00     0.055 A 
ATOM     63  C   UNL A   1      48.887  26.186  25.713  1.00  0.00     0.041 A 
ATOM     64  F   UNL A   1      47.576  26.304  27.651  1.00  0.00    -0.206 F 
ATOM     65  C   UNL A   1      49.096  26.508  24.375  1.00  0.00     0.022 A 
BRANCH  62  66
ATOM     66  S   UNL A   1      48.320  27.645  21.948  1.00  0.00     0.124 S 
ATOM     67  O   UNL A   1      49.495  28.509  21.852  1.00  0.00    -0.237 OA
ATOM     68  O   UNL A   1      48.480  26.289  21.436  1.00  0.00    -0.237 OA
ATOM     69  O   UNL A   1      47.052  28.292  21.619  1.00  0.00    -0.744 OA
ENDBRANCH  62  66
ENDBRANCH  45  59
BRANCH  46  70
ATOM     70  C   UNL A   1      38.744  30.257  30.986  1.00  0.00     0.023 A 
ATOM     71  C   UNL A   1      37.681  30.989  30.433  1.00  0.00     0.031 A 
ATOM     72  C   UNL A   1      38.683  29.931  32.351  1.00  0.00     0.131 A 
ATOM     73  C   UNL A   1      36.621  31.408  31.252  1.00  0.00     0.055 A 
ATOM     74  C   UNL A   1      37.606  30.313  33.153  1.00  0.00     0.041 A 
ATOM     75  F   UNL A   1      39.670  29.224  32.925  1.00  0.00    -0.206 F 
ATOM     76  C   UNL A   1      36.571  31.067  32.605  1.00  0.00     0.022 A 
BRANCH  73  77
ATOM     77  S   UNL A   1      35.338  32.471  30.535  1.00  0.00     0.124 S 
ATOM     78  O   UNL A   1      34.927  31.697  29.369  1.00  0.00    -0.237 OA
ATOM     79  O   UNL A   1      34.372  32.556  31.624  1.00  0.00    -0.237 OA
ATOM     80  O   UNL A   1      36.052  33.713  30.240  1.00  0.00    -0.744 OA
ENDBRANCH  73  77
ENDBRANCH  46  70
BRANCH  58  81
ATOM     81  C   UNL A   1      44.614  33.564  29.219  1.00  0.00     0.023 A 
ATOM     82  C   UNL A   1      44.281  34.639  28.378  1.00  0.00     0.031 A 
ATOM     83  C   UNL A   1      45.433  33.818  30.332  1.00  0.00     0.131 A 
ATOM     84  C   UNL A   1      44.805  35.913  28.636  1.00  0.00     0.055 A 
ATOM     85  C   UNL A   1      45.909  35.099  30.614  1.00  0.00     0.041 A 
ATOM     86  F   UNL A   1      45.782  32.824  31.165  1.00  0.00    -0.206 F 
ATOM     87  C   UNL A   1      45.605  36.153  29.758  1.00  0.00     0.022 A 
BRANCH  84  88
ATOM     88  S   UNL A   1      44.489  37.243  27.443  1.00  0.00     0.124 S 
ATOM     89  O   UNL A   1      45.768  37.332  26.745  1.00  0.00    -0.237 OA
ATOM     90  O   UNL A   1      43.375  36.708  26.668  1.00  0.00    -0.237 OA
ATOM     91  O   UNL A   1      44.162  38.390  28.288  1.00  0.00    -0.744 OA
ENDBRANCH  84  88
ENDBRANCH  58  81
ENDBRANCH  32  33
ENDBRANCH  24  27
ENDBRANCH  22  23
ENDBRANCH   1  22
TORSDOF 15
ENDMDL
MODEL 2
REMARK VINA RESULT:     -12.3      1.019      7.682
REMARK SMILES Cc1nc([C@]2(C)CCCO2)nc(C)c1C(=O)NCCCCNC(=O)c1ccc(-c2c3nc(c(-c4cc(S(=O)(=O)[O-])ccc4F)c4ccc([nH]4)c(-c4cc(S(=O)(=O)[O-])ccc4F)c4nc(c(-c5cc(S(=O)(=O)[O-])ccc5F)c5ccc2[nH]5)C=C4)C=C3)cc1
REMARK SMILES IDX 20 1 19 2 18 3 17 4 15 5 16 6 14 8 1 9 2 10 3 11 4 12 12 13
REMARK SMILES IDX 11 14 13 15 5 16 7 17 10 18 6 19 8 20 9 21 21 22 22 23 23 24
REMARK SMILES IDX 24 26 25 27 26 28 87 29 27 30 86 31 28 32 29 33 30 34 80 35
REMARK SMILES IDX 31 36 85 37 79 38 81 39 32 40 84 41 78 42 77 43 33 45 65 46
REMARK SMILES IDX 45 47 64 48 46 49 49 50 63 51 82 52 47 53 48 54 62 56 83 57
REMARK SMILES IDX 50 58 34 59 35 60 43 61 36 62 42 63 44 64 41 65 37 66 38 67
REMARK SMILES IDX 39 68 40 69 66 70 67 71 75 72 68 73 74 74 76 75 73 76 69 77
REMARK SMILES IDX 70 78 71 79 72 80 51 81 52 82 60 83 53 84 59 85 61 86 58 87
REMARK SMILES IDX 54 88 55 89 56 90 57 91
REMARK H PARENT 17 7 22 25 81 44 49 55
REMARK Flexibility Score: inf
ROOT
ATOM      1  C   UNL A   1      35.890  21.038  25.016  1.00  0.00     0.023 C 
ENDROOT
BRANCH   1   2
ATOM      2  C   UNL A   1      34.960  21.355  26.186  1.00  0.00     0.023 C 
BRANCH   2   3
ATOM      3  C   UNL A   1      33.559  20.739  26.091  1.00  0.00     0.116 C 
BRANCH   3   4
ATOM      4  N   UNL A   1      32.875  21.219  24.912  1.00  0.00    -0.352 N 
ATOM      5  C   UNL A   1      32.402  22.390  24.394  1.00  0.00     0.254 C 
ATOM      6  O   UNL A   1      31.776  22.186  23.346  1.00  0.00    -0.269 OA
ATOM      7  H   UNL A   1      32.697  20.475  24.293  1.00  0.00     0.163 HD
BRANCH   5   8
ATOM      8  C   UNL A   1      32.534  23.809  24.888  1.00  0.00     0.082 A 
ATOM      9  C   UNL A   1      30.468  24.101  26.427  1.00  0.00     0.068 C 
ATOM     10  C   UNL A   1      31.711  24.538  25.743  1.00  0.00     0.054 A 
ATOM     11  N   UNL A   1      31.922  25.849  26.039  1.00  0.00    -0.234 NA
ATOM     12  C   UNL A   1      32.921  26.515  25.457  1.00  0.00     0.160 A 
ATOM     13  C   UNL A   1      33.597  24.588  24.370  1.00  0.00     0.054 A 
ATOM     14  N   UNL A   1      33.791  25.912  24.649  1.00  0.00    -0.234 NA
ATOM     15  C   UNL A   1      34.642  24.076  23.411  1.00  0.00     0.068 C 
BRANCH  12  16
ATOM     16  C   UNL A   1      33.003  28.027  25.708  1.00  0.00     0.125 C 
ATOM     17  C   UNL A   1      31.645  28.711  25.544  1.00  0.00     0.046 C 
ATOM     18  O   UNL A   1      33.836  28.658  24.700  1.00  0.00    -0.367 OA
ATOM     19  C   UNL A   1      33.625  28.345  27.070  1.00  0.00     0.051 C 
ATOM     20  C   UNL A   1      31.554  28.983  24.057  1.00  0.00     0.032 C 
ATOM     21  C   UNL A   1      33.001  29.068  23.608  1.00  0.00     0.161 C 
ENDBRANCH  12  16
ENDBRANCH   5   8
ENDBRANCH   3   4
ENDBRANCH   2   3
ENDBRANCH   1   2
BRANCH   1  22
ATOM     22  C   UNL A   1      37.327  21.499  25.211  1.00  0.00     0.116 C 
BRANCH  22  23
ATOM     23  N   UNL A   1      38.268  20.415  25.460  1.00  0.00    -0.352 N 
ATOM     24  C   UNL A   1      39.478  20.497  26.109  1.00  0.00     0.251 C 
ATOM     25  H   UNL A   1      38.009  19.525  25.128  1.00  0.00     0.163 HD
ATOM     26  O   UNL A   1      40.212  19.517  26.194  1.00  0.00    -0.269 OA
BRANCH  24  27
ATOM     27  C   UNL A   1      39.892  21.810  26.638  1.00  0.00     0.039 A 
ATOM     28  C   UNL A   1      40.907  21.860  27.593  1.00  0.00     0.014 A 
ATOM     29  C   UNL A   1      39.366  22.981  26.085  1.00  0.00     0.014 A 
ATOM     30  C   UNL A   1      41.456  23.094  27.940  1.00  0.00     0.010 A 
ATOM     31  C   UNL A   1      39.966  24.200  26.378  1.00  0.00     0.010 A 
ATOM     32  C   UNL A   1      41.020  24.266  27.302  1.00  0.00    -0.014 A 
BRANCH  32  33
ATOM     33  C   UNL A   1      41.653  25.577  27.586  1.00  0.00     0.031 A 
ATOM     34  C   UNL A   1      40.891  26.618  28.357  1.00  0.00     0.074 A 
ATOM     35  C   UNL A   1      42.873  25.853  27.084  1.00  0.00     0.049 A 
ATOM     36  N   UNL A   1      41.225  27.851  28.636  1.00  0.00    -0.248 NA
ATOM     37  C   UNL A   1      39.559  26.229  28.842  1.00  0.00     0.031 C 
ATOM     38  C   UNL A   1      43.681  24.940  26.271  1.00  0.00     0.029 A 
ATOM     39  N   UNL A   1      43.643  26.984  27.173  1.00  0.00    -0.354 N 
ATOM     40  C   UNL A   1      40.138  28.391  29.314  1.00  0.00     0.074 A 
ATOM     41  C   UNL A   1      39.112  27.369  29.343  1.00  0.00     0.031 C 
ATOM     42  C   UNL A   1      44.841  25.540  25.958  1.00  0.00     0.029 A 
ATOM     43  C   UNL A   1      44.845  26.890  26.512  1.00  0.00     0.049 A 
ATOM     44  H   UNL A   1      43.362  27.789  27.666  1.00  0.00     0.167 HD
ATOM     45  C   UNL A   1      40.018  29.615  29.885  1.00  0.00     0.034 A 
ATOM     46  C   UNL A   1      45.834  27.793  26.364  1.00  0.00     0.034 A 
ATOM     47  C   UNL A   1      41.062  30.609  29.866  1.00  0.00     0.049 A 
ATOM     48  C   UNL A   1      45.680  29.147  27.007  1.00  0.00     0.074 A 
ATOM     49  C   UNL A   1      41.082  31.851  30.475  1.00  0.00     0.029 A 
ATOM     50  N   UNL A   1      42.272  30.474  29.199  1.00  0.00    -0.354 N 
ATOM     51  N   UNL A   1      44.670  29.621  27.701  1.00  0.00    -0.248 NA
ATOM     52  C   UNL A   1      46.800  30.084  26.853  1.00  0.00     0.031 C 
ATOM     53  C   UNL A   1      42.279  32.489  30.129  1.00  0.00     0.029 A 
ATOM     54  C   UNL A   1      43.034  31.622  29.356  1.00  0.00     0.049 A 
ATOM     55  H   UNL A   1      42.549  29.680  28.688  1.00  0.00     0.167 HD
ATOM     56  C   UNL A   1      45.045  30.906  28.083  1.00  0.00     0.074 A 
ATOM     57  C   UNL A   1      46.378  31.123  27.558  1.00  0.00     0.031 C 
ATOM     58  C   UNL A   1      44.353  31.823  28.806  1.00  0.00     0.034 A 
BRANCH  45  59
ATOM     59  C   UNL A   1      38.704  29.936  30.554  1.00  0.00     0.023 A 
ATOM     60  C   UNL A   1      37.684  30.627  29.878  1.00  0.00     0.031 A 
ATOM     61  C   UNL A   1      38.487  29.593  31.900  1.00  0.00     0.131 A 
ATOM     62  C   UNL A   1      36.534  31.032  30.570  1.00  0.00     0.055 A 
ATOM     63  C   UNL A   1      37.301  29.924  32.561  1.00  0.00     0.041 A 
ATOM     64  F   UNL A   1      39.432  28.950  32.603  1.00  0.00    -0.206 F 
ATOM     65  C   UNL A   1      36.324  30.664  31.900  1.00  0.00     0.022 A 
BRANCH  62  66
ATOM     66  S   UNL A   1      35.391  32.177  29.750  1.00  0.00     0.124 S 
ATOM     67  O   UNL A   1      36.289  33.265  29.368  1.00  0.00    -0.237 OA
ATOM     68  O   UNL A   1      34.864  31.369  28.657  1.00  0.00    -0.237 OA
ATOM     69  O   UNL A   1      34.430  32.512  30.800  1.00  0.00    -0.744 OA
ENDBRANCH  62  66
ENDBRANCH  45  59
BRANCH  46  70
ATOM     70  C   UNL A   1      47.052  27.460  25.574  1.00  0.00     0.023 A 
ATOM     71  C   UNL A   1      47.152  27.815  24.219  1.00  0.00     0.031 A 
ATOM     72  C   UNL A   1      48.118  26.749  26.151  1.00  0.00     0.131 A 
ATOM     73  C   UNL A   1      48.274  27.420  23.474  1.00  0.00     0.055 A 
ATOM     74  C   UNL A   1      49.252  26.396  25.418  1.00  0.00     0.041 A 
ATOM     75  F   UNL A   1      48.075  26.394  27.446  1.00  0.00    -0.206 F 
ATOM     76  C   UNL A   1      49.329  26.722  24.066  1.00  0.00     0.022 A 
BRANCH  73  77
ATOM     77  S   UNL A   1      48.302  27.773  21.695  1.00  0.00     0.124 S 
ATOM     78  O   UNL A   1      49.390  28.739  21.600  1.00  0.00    -0.237 OA
ATOM     79  O   UNL A   1      48.562  26.454  21.129  1.00  0.00    -0.237 OA
ATOM     80  O   UNL A   1      46.967  28.308  21.434  1.00  0.00    -0.744 OA
ENDBRANCH  73  77
ENDBRANCH  46  70
BRANCH  58  81
ATOM     81  C   UNL A   1      45.048  33.131  29.085  1.00  0.00     0.023 A 
ATOM     82  C   UNL A   1      44.938  34.223  28.209  1.00  0.00     0.031 A 
ATOM     83  C   UNL A   1      45.839  33.280  30.238  1.00  0.00     0.131 A 
ATOM     84  C   UNL A   1      45.648  35.403  28.473  1.00  0.00     0.055 A 
ATOM     85  C   UNL A   1      46.501  34.474  30.523  1.00  0.00     0.041 A 
ATOM     86  F   UNL A   1      45.978  32.265  31.107  1.00  0.00    -0.206 F 
ATOM     87  C   UNL A   1      46.417  35.541  29.632  1.00  0.00     0.022 A 
BRANCH  84  88
ATOM     88  S   UNL A   1      45.614  36.734  27.240  1.00  0.00     0.124 S 
ATOM     89  O   UNL A   1      46.216  36.087  26.079  1.00  0.00    -0.237 OA
ATOM     90  O   UNL A   1      44.188  37.029  27.139  1.00  0.00    -0.237 OA
ATOM     91  O   UNL A   1      46.422  37.788  27.852  1.00  0.00    -0.744 OA
ENDBRANCH  84  88
ENDBRANCH  58  81
ENDBRANCH  32  33
ENDBRANCH  24  27
ENDBRANCH  22  23
ENDBRANCH   1  22
TORSDOF 15
ENDMDL
MODEL 3
REMARK VINA RESULT:     -12.3      5.093      7.838
REMARK SMILES Cc1nc([C@]2(C)CCCO2)nc(C)c1C(=O)NCCCCNC(=O)c1ccc(-c2c3nc(c(-c4cc(S(=O)(=O)[O-])ccc4F)c4ccc([nH]4)c(-c4cc(S(=O)(=O)[O-])ccc4F)c4nc(c(-c5cc(S(=O)(=O)[O-])ccc5F)c5ccc2[nH]5)C=C4)C=C3)cc1
REMARK SMILES IDX 20 1 19 2 18 3 17 4 15 5 16 6 14 8 1 9 2 10 3 11 4 12 12 13
REMARK SMILES IDX 11 14 13 15 5 16 7 17 10 18 6 19 8 20 9 21 21 22 22 23 23 24
REMARK SMILES IDX 24 26 25 27 26 28 87 29 27 30 86 31 28 32 29 33 30 34 80 35
REMARK SMILES IDX 31 36 85 37 79 38 81 39 32 40 84 41 78 42 77 43 33 45 65 46
REMARK SMILES IDX 45 47 64 48 46 49 49 50 63 51 82 52 47 53 48 54 62 56 83 57
REMARK SMILES IDX 50 58 34 59 35 60 43 61 36 62 42 63 44 64 41 65 37 66 38 67
REMARK SMILES IDX 39 68 40 69 66 70 67 71 75 72 68 73 74 74 76 75 73 76 69 77
REMARK SMILES IDX 70 78 71 79 72 80 51 81 52 82 60 83 53 84 59 85 61 86 58 87
REMARK SMILES IDX 54 88 55 89 56 90 57 91
REMARK H PARENT 17 7 22 25 81 44 49 55
REMARK Flexibility Score: inf
ROOT
ATOM      1  C   UNL A   1      31.738  29.015  26.619  1.00  0.00     0.023 C 
ENDROOT
BRANCH   1   2
ATOM      2  C   UNL A   1      32.403  27.661  26.854  1.00  0.00     0.023 C 
BRANCH   2   3
ATOM      3  C   UNL A   1      31.523  26.441  26.557  1.00  0.00     0.116 C 
BRANCH   3   4
ATOM      4  N   UNL A   1      31.815  25.915  25.242  1.00  0.00    -0.352 N 
ATOM      5  C   UNL A   1      31.541  26.190  23.934  1.00  0.00     0.254 C 
ATOM      6  O   UNL A   1      31.984  25.300  23.197  1.00  0.00    -0.269 OA
ATOM      7  H   UNL A   1      32.386  25.118  25.313  1.00  0.00     0.163 HD
BRANCH   5   8
ATOM      8  C   UNL A   1      30.824  27.357  23.302  1.00  0.00     0.082 A 
ATOM      9  C   UNL A   1      32.759  28.883  22.497  1.00  0.00     0.068 C 
ATOM     10  C   UNL A   1      31.339  28.502  22.700  1.00  0.00     0.054 A 
ATOM     11  N   UNL A   1      30.556  29.515  22.238  1.00  0.00    -0.234 NA
ATOM     12  C   UNL A   1      29.233  29.469  22.404  1.00  0.00     0.160 A 
ATOM     13  C   UNL A   1      29.410  27.377  23.376  1.00  0.00     0.054 A 
ATOM     14  N   UNL A   1      28.629  28.408  22.936  1.00  0.00    -0.234 NA
ATOM     15  C   UNL A   1      28.571  26.282  23.986  1.00  0.00     0.068 C 
BRANCH  12  16
ATOM     16  C   UNL A   1      28.428  30.714  22.009  1.00  0.00     0.125 C 
ATOM     17  C   UNL A   1      29.175  32.008  22.332  1.00  0.00     0.046 C 
ATOM     18  O   UNL A   1      27.217  30.802  22.806  1.00  0.00    -0.367 OA
ATOM     19  C   UNL A   1      27.998  30.671  20.541  1.00  0.00     0.051 C 
ATOM     20  C   UNL A   1      28.832  32.271  23.784  1.00  0.00     0.032 C 
ATOM     21  C   UNL A   1      27.497  31.578  23.979  1.00  0.00     0.161 C 
ENDBRANCH  12  16
ENDBRANCH   5   8
ENDBRANCH   3   4
ENDBRANCH   2   3
ENDBRANCH   1   2
BRANCH   1  22
ATOM     22  C   UNL A   1      32.673  30.095  26.093  1.00  0.00     0.116 C 
BRANCH  22  23
ATOM     23  N   UNL A   1      32.315  31.444  26.509  1.00  0.00    -0.352 N 
ATOM     24  C   UNL A   1      33.062  32.301  27.282  1.00  0.00     0.251 C 
ATOM     25  H   UNL A   1      31.442  31.779  26.202  1.00  0.00     0.163 HD
ATOM     26  O   UNL A   1      32.614  33.393  27.619  1.00  0.00    -0.269 OA
BRANCH  24  27
ATOM     27  C   UNL A   1      34.384  31.842  27.744  1.00  0.00     0.039 A 
ATOM     28  C   UNL A   1      35.399  32.784  27.920  1.00  0.00     0.014 A 
ATOM     29  C   UNL A   1      34.565  30.510  28.127  1.00  0.00     0.014 A 
ATOM     30  C   UNL A   1      36.578  32.403  28.559  1.00  0.00     0.010 A 
ATOM     31  C   UNL A   1      35.710  30.154  28.828  1.00  0.00     0.010 A 
ATOM     32  C   UNL A   1      36.723  31.098  29.057  1.00  0.00    -0.014 A 
BRANCH  32  33
ATOM     33  C   UNL A   1      37.929  30.696  29.821  1.00  0.00     0.031 A 
ATOM     34  C   UNL A   1      38.903  29.725  29.216  1.00  0.00     0.074 A 
ATOM     35  C   UNL A   1      38.102  31.143  31.081  1.00  0.00     0.049 A 
ATOM     36  N   UNL A   1      39.967  29.180  29.745  1.00  0.00    -0.248 NA
ATOM     37  C   UNL A   1      38.615  29.278  27.845  1.00  0.00     0.031 C 
ATOM     38  C   UNL A   1      37.191  32.043  31.793  1.00  0.00     0.029 A 
ATOM     39  N   UNL A   1      39.096  30.893  31.992  1.00  0.00    -0.354 N 
ATOM     40  C   UNL A   1      40.465  28.313  28.780  1.00  0.00     0.074 A 
ATOM     41  C   UNL A   1      39.548  28.357  27.661  1.00  0.00     0.031 C 
ATOM     42  C   UNL A   1      37.682  32.286  33.019  1.00  0.00     0.029 A 
ATOM     43  C   UNL A   1      38.918  31.533  33.196  1.00  0.00     0.049 A 
ATOM     44  H   UNL A   1      39.866  30.310  31.801  1.00  0.00     0.167 HD
ATOM     45  C   UNL A   1      41.600  27.571  28.813  1.00  0.00     0.034 A 
ATOM     46  C   UNL A   1      39.666  31.508  34.316  1.00  0.00     0.034 A 
ATOM     47  C   UNL A   1      42.514  27.560  29.927  1.00  0.00     0.049 A 
ATOM     48  C   UNL A   1      40.923  30.677  34.331  1.00  0.00     0.074 A 
ATOM     49  C   UNL A   1      43.729  26.908  30.041  1.00  0.00     0.029 A 
ATOM     50  N   UNL A   1      42.310  28.231  31.125  1.00  0.00    -0.354 N 
ATOM     51  N   UNL A   1      41.416  29.910  33.384  1.00  0.00    -0.248 NA
ATOM     52  C   UNL A   1      41.726  30.712  35.559  1.00  0.00     0.031 C 
ATOM     53  C   UNL A   1      44.231  27.139  31.326  1.00  0.00     0.029 A 
ATOM     54  C   UNL A   1      43.361  27.986  31.995  1.00  0.00     0.049 A 
ATOM     55  H   UNL A   1      41.531  28.799  31.328  1.00  0.00     0.167 HD
ATOM     56  C   UNL A   1      42.600  29.389  33.899  1.00  0.00     0.074 A 
ATOM     57  C   UNL A   1      42.753  29.943  35.229  1.00  0.00     0.031 C 
ATOM     58  C   UNL A   1      43.483  28.534  33.325  1.00  0.00     0.034 A 
BRANCH  45  59
ATOM     59  C   UNL A   1      41.889  26.704  27.612  1.00  0.00     0.023 A 
ATOM     60  C   UNL A   1      41.530  25.345  27.581  1.00  0.00     0.031 A 
ATOM     61  C   UNL A   1      42.578  27.227  26.504  1.00  0.00     0.131 A 
ATOM     62  C   UNL A   1      41.937  24.536  26.511  1.00  0.00     0.055 A 
ATOM     63  C   UNL A   1      42.906  26.435  25.401  1.00  0.00     0.041 A 
ATOM     64  F   UNL A   1      42.965  28.512  26.483  1.00  0.00    -0.206 F 
ATOM     65  C   UNL A   1      42.601  25.076  25.408  1.00  0.00     0.022 A 
BRANCH  62  66
ATOM     66  S   UNL A   1      41.722  22.740  26.656  1.00  0.00     0.124 S 
ATOM     67  O   UNL A   1      40.295  22.639  26.954  1.00  0.00    -0.237 OA
ATOM     68  O   UNL A   1      42.135  22.266  25.340  1.00  0.00    -0.237 OA
ATOM     69  O   UNL A   1      42.610  22.377  27.758  1.00  0.00    -0.744 OA
ENDBRANCH  62  66
ENDBRANCH  45  59
BRANCH  46  70
ATOM     70  C   UNL A   1      39.253  32.283  35.520  1.00  0.00     0.023 A 
ATOM     71  C   UNL A   1      39.687  33.604  35.710  1.00  0.00     0.031 A 
ATOM     72  C   UNL A   1      38.449  31.701  36.516  1.00  0.00     0.131 A 
ATOM     73  C   UNL A   1      39.351  34.287  36.889  1.00  0.00     0.055 A 
ATOM     74  C   UNL A   1      38.081  32.399  37.667  1.00  0.00     0.041 A 
ATOM     75  F   UNL A   1      38.001  30.443  36.376  1.00  0.00    -0.206 F 
ATOM     76  C   UNL A   1      38.543  33.698  37.864  1.00  0.00     0.022 A 
BRANCH  73  77
ATOM     77  S   UNL A   1      40.047  35.940  37.163  1.00  0.00     0.124 S 
ATOM     78  O   UNL A   1      39.358  36.356  38.379  1.00  0.00    -0.237 OA
ATOM     79  O   UNL A   1      41.470  35.650  37.298  1.00  0.00    -0.237 OA
ATOM     80  O   UNL A   1      39.675  36.670  35.952  1.00  0.00    -0.744 OA
ENDBRANCH  73  77
ENDBRANCH  46  70
BRANCH  58  81
ATOM     81  C   UNL A   1      44.702  28.173  34.134  1.00  0.00     0.023 A 
ATOM     82  C   UNL A   1      44.722  27.043  34.969  1.00  0.00     0.031 A 
ATOM     83  C   UNL A   1      45.853  28.977  34.076  1.00  0.00     0.131 A 
ATOM     84  C   UNL A   1      45.853  26.774  35.751  1.00  0.00     0.055 A 
ATOM     85  C   UNL A   1      46.996  28.676  34.817  1.00  0.00     0.041 A 
ATOM     86  F   UNL A   1      45.885  30.069  33.295  1.00  0.00    -0.206 F 
ATOM     87  C   UNL A   1      46.996  27.575  35.670  1.00  0.00     0.022 A 
BRANCH  84  88
ATOM     88  S   UNL A   1      45.787  25.404  36.938  1.00  0.00     0.124 S 
ATOM     89  O   UNL A   1      46.805  25.794  37.908  1.00  0.00    -0.237 OA
ATOM     90  O   UNL A   1      44.405  25.463  37.405  1.00  0.00    -0.237 OA
ATOM     91  O   UNL A   1      46.116  24.233  36.129  1.00  0.00    -0.744 OA
ENDBRANCH  84  88
ENDBRANCH  58  81
ENDBRANCH  32  33
ENDBRANCH  24  27
ENDBRANCH  22  23
ENDBRANCH   1  22
TORSDOF 15
ENDMDL
