MODEL 1
REMARK VINA RESULT:     -12.3      0.000      0.000
REMARK SMILES CCC(=O)Nc1cc(NC(=O)/C=C/C(=O)NCCCCNC(=O)c2ccc(-c3c4nc(c(-c5cc(S(=O)(=O)[O-])ccc5F)c5ccc([nH]5)c(-c5cc(S(=O)(=O)[O-])ccc5F)c5nc(c(-c6cc(S(=O)(=O)[O-])ccc6F)c6ccc3[nH]6)C=C5)C=C4)cc2)ccc1C
REMARK SMILES IDX 18 1 17 2 16 3 14 4 15 5 13 7 12 8 10 9 9 10 11 12 8 13 6 14
REMARK SMILES IDX 7 15 89 16 88 17 90 18 87 19 5 20 3 21 4 22 2 24 1 25 19 26
REMARK SMILES IDX 20 27 21 28 22 29 23 31 24 32 25 33 86 34 26 35 85 36 27 37
REMARK SMILES IDX 28 38 29 39 79 40 30 41 84 42 78 43 80 44 31 45 83 46 77 47
REMARK SMILES IDX 76 48 32 50 64 51 44 52 63 53 45 54 48 55 62 56 81 57 46 58
REMARK SMILES IDX 47 59 61 61 82 62 49 63 33 64 34 65 42 66 35 67 41 68 43 69
REMARK SMILES IDX 40 70 36 71 37 72 38 73 39 74 65 75 66 76 74 77 67 78 73 79
REMARK SMILES IDX 75 80 72 81 68 82 69 83 70 84 71 85 50 86 51 87 59 88 52 89
REMARK SMILES IDX 58 90 60 91 57 92 53 93 54 94 55 95 56 96
REMARK H PARENT 16 6 9 11 5 23 21 30 80 49 48 60
REMARK Flexibility Score: inf
ROOT
ATOM      1  C   UNL A   1      31.980  30.422  26.398  1.00  0.00     0.023 C 
ENDROOT
BRANCH   1   2
ATOM      2  C   UNL A   1      31.454  29.183  25.663  1.00  0.00     0.116 C 
BRANCH   2   3
ATOM      3  N   UNL A   1      31.544  27.989  26.497  1.00  0.00    -0.353 N 
ATOM      4  C   UNL A   1      31.538  26.690  26.110  1.00  0.00     0.244 C 
ATOM      5  O   UNL A   1      31.416  25.775  26.926  1.00  0.00    -0.270 OA
ATOM      6  H   UNL A   1      31.619  28.146  27.466  1.00  0.00     0.163 HD
BRANCH   4   7
ATOM      7  C   UNL A   1      31.703  26.357  24.683  1.00  0.00     0.077 C 
ATOM      8  C   UNL A   1      32.646  25.458  24.358  1.00  0.00     0.077 C 
BRANCH   8   9
ATOM      9  C   UNL A   1      32.646  24.806  23.040  1.00  0.00     0.248 C 
ATOM     10  N   UNL A   1      33.381  23.673  22.820  1.00  0.00    -0.322 N 
ATOM     11  H   UNL A   1      33.355  23.358  21.888  1.00  0.00     0.170 HD
ATOM     12  O   UNL A   1      31.973  25.269  22.122  1.00  0.00    -0.270 OA
BRANCH  10  13
ATOM     13  C   UNL A   1      34.168  22.870  23.666  1.00  0.00     0.043 A 
ATOM     14  C   UNL A   1      34.499  20.921  25.087  1.00  0.00     0.046 A 
ATOM     15  C   UNL A   1      33.669  21.902  24.535  1.00  0.00     0.052 A 
ATOM     16  C   UNL A   1      35.869  20.932  24.791  1.00  0.00    -0.027 A 
ATOM     17  C   UNL A   1      36.395  22.025  24.083  1.00  0.00     0.008 A 
ATOM     18  C   UNL A   1      36.759  19.727  24.945  1.00  0.00     0.046 C 
ATOM     19  C   UNL A   1      35.552  22.992  23.532  1.00  0.00     0.026 A 
BRANCH  14  20
ATOM     20  N   UNL A   1      33.861  19.841  25.714  1.00  0.00    -0.326 N 
ATOM     21  C   UNL A   1      33.098  18.853  25.153  1.00  0.00     0.224 C 
ATOM     22  O   UNL A   1      32.290  18.225  25.840  1.00  0.00    -0.275 OA
ATOM     23  H   UNL A   1      33.978  19.787  26.690  1.00  0.00     0.169 HD
BRANCH  21  24
ATOM     24  C   UNL A   1      33.367  18.452  23.713  1.00  0.00     0.097 C 
ATOM     25  C   UNL A   1      34.238  17.228  23.530  1.00  0.00     0.014 C 
ENDBRANCH  21  24
ENDBRANCH  14  20
ENDBRANCH  10  13
ENDBRANCH   8   9
ENDBRANCH   4   7
ENDBRANCH   2   3
ENDBRANCH   1   2
BRANCH   1  26
ATOM     26  C   UNL A   1      33.504  30.499  26.522  1.00  0.00     0.023 C 
BRANCH  26  27
ATOM     27  C   UNL A   1      34.037  30.118  27.894  1.00  0.00     0.116 C 
BRANCH  27  28
ATOM     28  N   UNL A   1      34.788  31.158  28.580  1.00  0.00    -0.352 N 
ATOM     29  C   UNL A   1      35.997  31.067  29.244  1.00  0.00     0.251 C 
ATOM     30  H   UNL A   1      34.378  32.053  28.568  1.00  0.00     0.163 HD
ATOM     31  O   UNL A   1      36.405  32.003  29.934  1.00  0.00    -0.269 OA
BRANCH  29  32
ATOM     32  C   UNL A   1      36.876  29.892  29.015  1.00  0.00     0.039 A 
ATOM     33  C   UNL A   1      37.126  29.054  30.111  1.00  0.00     0.014 A 
ATOM     34  C   UNL A   1      37.622  29.750  27.849  1.00  0.00     0.014 A 
ATOM     35  C   UNL A   1      38.273  28.264  30.127  1.00  0.00     0.010 A 
ATOM     36  C   UNL A   1      38.813  29.054  27.902  1.00  0.00     0.010 A 
ATOM     37  C   UNL A   1      39.169  28.362  29.063  1.00  0.00    -0.014 A 
BRANCH  37  38
ATOM     38  C   UNL A   1      40.540  27.874  29.122  1.00  0.00     0.031 A 
ATOM     39  C   UNL A   1      40.879  26.520  28.652  1.00  0.00     0.074 A 
ATOM     40  C   UNL A   1      41.530  28.687  29.551  1.00  0.00     0.049 A 
ATOM     41  N   UNL A   1      41.891  25.846  29.079  1.00  0.00    -0.248 NA
ATOM     42  C   UNL A   1      40.078  25.803  27.669  1.00  0.00     0.031 C 
ATOM     43  C   UNL A   1      42.970  28.461  29.456  1.00  0.00     0.029 A 
ATOM     44  N   UNL A   1      41.407  29.783  30.398  1.00  0.00    -0.354 N 
ATOM     45  C   UNL A   1      42.058  24.775  28.236  1.00  0.00     0.074 A 
ATOM     46  C   UNL A   1      40.863  24.749  27.422  1.00  0.00     0.031 C 
ATOM     47  C   UNL A   1      43.583  29.186  30.404  1.00  0.00     0.029 A 
ATOM     48  C   UNL A   1      42.551  29.794  31.222  1.00  0.00     0.049 A 
ATOM     49  H   UNL A   1      40.663  30.429  30.418  1.00  0.00     0.167 HD
ATOM     50  C   UNL A   1      43.248  24.111  28.218  1.00  0.00     0.034 A 
ATOM     51  C   UNL A   1      42.427  29.680  32.577  1.00  0.00     0.034 A 
ATOM     52  C   UNL A   1      44.201  24.657  29.185  1.00  0.00     0.049 A 
ATOM     53  C   UNL A   1      43.093  28.442  33.155  1.00  0.00     0.074 A 
ATOM     54  C   UNL A   1      45.336  25.449  29.092  1.00  0.00     0.029 A 
ATOM     55  N   UNL A   1      43.887  24.612  30.533  1.00  0.00    -0.354 N 
ATOM     56  N   UNL A   1      43.707  27.534  32.446  1.00  0.00    -0.248 NA
ATOM     57  C   UNL A   1      43.047  28.088  34.572  1.00  0.00     0.031 C 
ATOM     58  C   UNL A   1      45.703  25.862  30.407  1.00  0.00     0.029 A 
ATOM     59  C   UNL A   1      44.803  25.308  31.296  1.00  0.00     0.049 A 
ATOM     60  H   UNL A   1      43.105  24.140  30.902  1.00  0.00     0.167 HD
ATOM     61  C   UNL A   1      44.059  26.473  33.246  1.00  0.00     0.074 A 
ATOM     62  C   UNL A   1      43.627  26.874  34.574  1.00  0.00     0.031 C 
ATOM     63  C   UNL A   1      44.629  25.335  32.743  1.00  0.00     0.034 A 
BRANCH  50  64
ATOM     64  C   UNL A   1      43.631  23.137  27.130  1.00  0.00     0.023 A 
ATOM     65  C   UNL A   1      42.955  21.905  27.035  1.00  0.00     0.031 A 
ATOM     66  C   UNL A   1      44.653  23.342  26.184  1.00  0.00     0.131 A 
ATOM     67  C   UNL A   1      43.371  20.909  26.134  1.00  0.00     0.055 A 
ATOM     68  C   UNL A   1      45.113  22.328  25.333  1.00  0.00     0.041 A 
ATOM     69  F   UNL A   1      45.216  24.547  26.011  1.00  0.00    -0.206 F 
ATOM     70  C   UNL A   1      44.480  21.095  25.316  1.00  0.00     0.022 A 
BRANCH  67  71
ATOM     71  S   UNL A   1      42.423  19.366  26.039  1.00  0.00     0.124 S 
ATOM     72  O   UNL A   1      42.819  18.681  27.265  1.00  0.00    -0.237 OA
ATOM     73  O   UNL A   1      41.049  19.852  25.986  1.00  0.00    -0.237 OA
ATOM     74  O   UNL A   1      42.907  18.748  24.804  1.00  0.00    -0.744 OA
ENDBRANCH  67  71
ENDBRANCH  50  64
BRANCH  51  75
ATOM     75  C   UNL A   1      41.184  30.345  33.080  1.00  0.00     0.023 A 
ATOM     76  C   UNL A   1      41.185  31.759  33.092  1.00  0.00     0.031 A 
ATOM     77  C   UNL A   1      39.944  29.695  33.107  1.00  0.00     0.131 A 
ATOM     78  C   UNL A   1      39.989  32.469  32.913  1.00  0.00     0.055 A 
ATOM     79  C   UNL A   1      38.744  30.415  33.034  1.00  0.00     0.041 A 
ATOM     80  F   UNL A   1      39.869  28.356  33.062  1.00  0.00    -0.206 F 
ATOM     81  C   UNL A   1      38.764  31.804  32.881  1.00  0.00     0.022 A 
BRANCH  78  82
ATOM     82  S   UNL A   1      40.086  34.210  32.388  1.00  0.00     0.124 S 
ATOM     83  O   UNL A   1      40.086  34.914  33.664  1.00  0.00    -0.237 OA
ATOM     84  O   UNL A   1      41.336  34.250  31.631  1.00  0.00    -0.237 OA
ATOM     85  O   UNL A   1      38.893  34.389  31.564  1.00  0.00    -0.744 OA
ENDBRANCH  78  82
ENDBRANCH  51  75
BRANCH  63  86
ATOM     86  C   UNL A   1      45.039  24.121  33.556  1.00  0.00     0.023 A 
ATOM     87  C   UNL A   1      46.376  23.820  33.859  1.00  0.00     0.031 A 
ATOM     88  C   UNL A   1      44.084  23.168  33.998  1.00  0.00     0.131 A 
ATOM     89  C   UNL A   1      46.707  22.692  34.637  1.00  0.00     0.055 A 
ATOM     90  C   UNL A   1      44.423  22.015  34.711  1.00  0.00     0.041 A 
ATOM     91  F   UNL A   1      42.771  23.319  33.782  1.00  0.00    -0.206 F 
ATOM     92  C   UNL A   1      45.741  21.779  35.052  1.00  0.00     0.022 A 
BRANCH  89  93
ATOM     93  S   UNL A   1      48.431  22.466  35.145  1.00  0.00     0.124 S 
ATOM     94  O   UNL A   1      48.452  23.068  36.474  1.00  0.00    -0.237 OA
ATOM     95  O   UNL A   1      48.564  21.012  35.105  1.00  0.00    -0.237 OA
ATOM     96  O   UNL A   1      49.191  23.185  34.124  1.00  0.00    -0.744 OA
ENDBRANCH  89  93
ENDBRANCH  63  86
ENDBRANCH  37  38
ENDBRANCH  29  32
ENDBRANCH  27  28
ENDBRANCH  26  27
ENDBRANCH   1  26
TORSDOF 18
ENDMDL
MODEL 2
REMARK VINA RESULT:     -12.2      4.105     10.174
REMARK SMILES CCC(=O)Nc1cc(NC(=O)/C=C/C(=O)NCCCCNC(=O)c2ccc(-c3c4nc(c(-c5cc(S(=O)(=O)[O-])ccc5F)c5ccc([nH]5)c(-c5cc(S(=O)(=O)[O-])ccc5F)c5nc(c(-c6cc(S(=O)(=O)[O-])ccc6F)c6ccc3[nH]6)C=C5)C=C4)cc2)ccc1C
REMARK SMILES IDX 18 1 17 2 16 3 14 4 15 5 13 7 12 8 10 9 9 10 11 12 8 13 6 14
REMARK SMILES IDX 7 15 89 16 88 17 90 18 87 19 5 20 3 21 4 22 2 24 1 25 19 26
REMARK SMILES IDX 20 27 21 28 22 29 23 31 24 32 25 33 86 34 26 35 85 36 27 37
REMARK SMILES IDX 28 38 29 39 79 40 30 41 84 42 78 43 80 44 31 45 83 46 77 47
REMARK SMILES IDX 76 48 32 50 64 51 44 52 63 53 45 54 48 55 62 56 81 57 46 58
REMARK SMILES IDX 47 59 61 61 82 62 49 63 33 64 34 65 42 66 35 67 41 68 43 69
REMARK SMILES IDX 40 70 36 71 37 72 38 73 39 74 65 75 66 76 74 77 67 78 73 79
REMARK SMILES IDX 75 80 72 81 68 82 69 83 70 84 71 85 50 86 51 87 59 88 52 89
REMARK SMILES IDX 58 90 60 91 57 92 53 93 54 94 55 95 56 96
REMARK H PARENT 16 6 9 11 5 23 21 30 80 49 48 60
REMARK Flexibility Score: inf
ROOT
ATOM      1  C   UNL A   1      36.326  22.106  24.852  1.00  0.00     0.023 C 
ENDROOT
BRANCH   1   2
ATOM      2  C   UNL A   1      35.506  21.466  25.979  1.00  0.00     0.116 C 
BRANCH   2   3
ATOM      3  N   UNL A   1      34.385  20.694  25.453  1.00  0.00    -0.353 N 
ATOM      4  C   UNL A   1      33.060  20.877  25.672  1.00  0.00     0.244 C 
ATOM      5  O   UNL A   1      32.228  20.035  25.333  1.00  0.00    -0.270 OA
ATOM      6  H   UNL A   1      34.621  19.942  24.862  1.00  0.00     0.163 HD
BRANCH   4   7
ATOM      7  C   UNL A   1      32.596  22.122  26.312  1.00  0.00     0.077 C 
ATOM      8  C   UNL A   1      31.587  22.785  25.726  1.00  0.00     0.077 C 
BRANCH   8   9
ATOM      9  C   UNL A   1      30.831  23.812  26.458  1.00  0.00     0.248 C 
ATOM     10  N   UNL A   1      30.966  25.137  26.146  1.00  0.00    -0.322 N 
ATOM     11  H   UNL A   1      30.460  25.738  26.739  1.00  0.00     0.170 HD
ATOM     12  O   UNL A   1      30.057  23.485  27.356  1.00  0.00    -0.270 OA
BRANCH  10  13
ATOM     13  C   UNL A   1      31.688  25.810  25.143  1.00  0.00     0.043 A 
ATOM     14  C   UNL A   1      31.823  27.291  23.216  1.00  0.00     0.046 A 
ATOM     15  C   UNL A   1      31.127  26.359  23.992  1.00  0.00     0.052 A 
ATOM     16  C   UNL A   1      33.127  27.654  23.580  1.00  0.00    -0.027 A 
ATOM     17  C   UNL A   1      33.756  26.947  24.618  1.00  0.00     0.008 A 
ATOM     18  C   UNL A   1      33.793  28.922  23.117  1.00  0.00     0.046 C 
ATOM     19  C   UNL A   1      33.044  26.025  25.388  1.00  0.00     0.026 A 
BRANCH  14  20
ATOM     20  N   UNL A   1      31.077  27.986  22.253  1.00  0.00    -0.326 N 
ATOM     21  C   UNL A   1      30.133  28.959  22.437  1.00  0.00     0.224 C 
ATOM     22  O   UNL A   1      29.293  29.185  21.564  1.00  0.00    -0.275 OA
ATOM     23  H   UNL A   1      31.258  27.740  21.317  1.00  0.00     0.169 HD
BRANCH  21  24
ATOM     24  C   UNL A   1      30.228  29.844  23.669  1.00  0.00     0.097 C 
ATOM     25  C   UNL A   1      29.146  30.894  23.800  1.00  0.00     0.014 C 
ENDBRANCH  21  24
ENDBRANCH  14  20
ENDBRANCH  10  13
ENDBRANCH   8   9
ENDBRANCH   4   7
ENDBRANCH   2   3
ENDBRANCH   1   2
BRANCH   1  26
ATOM     26  C   UNL A   1      37.818  21.766  24.866  1.00  0.00     0.023 C 
BRANCH  26  27
ATOM     27  C   UNL A   1      38.496  21.993  26.208  1.00  0.00     0.116 C 
BRANCH  27  28
ATOM     28  N   UNL A   1      39.945  22.098  26.163  1.00  0.00    -0.352 N 
ATOM     29  C   UNL A   1      40.738  23.230  26.146  1.00  0.00     0.251 C 
ATOM     30  H   UNL A   1      40.431  21.242  26.142  1.00  0.00     0.163 HD
ATOM     31  O   UNL A   1      41.946  23.147  25.915  1.00  0.00    -0.269 OA
BRANCH  29  32
ATOM     32  C   UNL A   1      40.160  24.539  26.545  1.00  0.00     0.039 A 
ATOM     33  C   UNL A   1      40.804  25.694  26.079  1.00  0.00     0.014 A 
ATOM     34  C   UNL A   1      39.183  24.639  27.531  1.00  0.00     0.014 A 
ATOM     35  C   UNL A   1      40.653  26.893  26.771  1.00  0.00     0.010 A 
ATOM     36  C   UNL A   1      39.113  25.795  28.283  1.00  0.00     0.010 A 
ATOM     37  C   UNL A   1      39.895  26.901  27.940  1.00  0.00    -0.014 A 
BRANCH  37  38
ATOM     38  C   UNL A   1      39.950  27.975  28.924  1.00  0.00     0.031 A 
ATOM     39  C   UNL A   1      39.093  29.165  28.788  1.00  0.00     0.074 A 
ATOM     40  C   UNL A   1      40.745  27.859  30.010  1.00  0.00     0.049 A 
ATOM     41  N   UNL A   1      39.385  30.318  29.285  1.00  0.00    -0.248 NA
ATOM     42  C   UNL A   1      37.836  29.153  28.052  1.00  0.00     0.031 C 
ATOM     43  C   UNL A   1      40.753  28.703  31.201  1.00  0.00     0.029 A 
ATOM     44  N   UNL A   1      41.892  27.080  30.129  1.00  0.00    -0.354 N 
ATOM     45  C   UNL A   1      38.255  31.095  29.214  1.00  0.00     0.074 A 
ATOM     46  C   UNL A   1      37.343  30.354  28.372  1.00  0.00     0.031 C 
ATOM     47  C   UNL A   1      41.958  28.613  31.785  1.00  0.00     0.029 A 
ATOM     48  C   UNL A   1      42.802  27.814  30.918  1.00  0.00     0.049 A 
ATOM     49  H   UNL A   1      42.040  26.189  29.739  1.00  0.00     0.167 HD
ATOM     50  C   UNL A   1      38.157  32.213  29.987  1.00  0.00     0.034 A 
ATOM     51  C   UNL A   1      44.013  28.187  30.409  1.00  0.00     0.034 A 
ATOM     52  C   UNL A   1      39.359  32.438  30.791  1.00  0.00     0.049 A 
ATOM     53  C   UNL A   1      44.213  29.691  30.333  1.00  0.00     0.074 A 
ATOM     54  C   UNL A   1      39.677  32.278  32.131  1.00  0.00     0.029 A 
ATOM     55  N   UNL A   1      40.564  32.661  30.145  1.00  0.00    -0.354 N 
ATOM     56  N   UNL A   1      43.317  30.574  30.683  1.00  0.00    -0.248 NA
ATOM     57  C   UNL A   1      45.410  30.320  29.777  1.00  0.00     0.031 C 
ATOM     58  C   UNL A   1      41.088  32.426  32.277  1.00  0.00     0.029 A 
ATOM     59  C   UNL A   1      41.622  32.691  31.031  1.00  0.00     0.049 A 
ATOM     60  H   UNL A   1      40.654  32.785  29.172  1.00  0.00     0.167 HD
ATOM     61  C   UNL A   1      43.747  31.836  30.348  1.00  0.00     0.074 A 
ATOM     62  C   UNL A   1      45.069  31.622  29.787  1.00  0.00     0.031 C 
ATOM     63  C   UNL A   1      42.960  32.944  30.511  1.00  0.00     0.034 A 
BRANCH  50  64
ATOM     64  C   UNL A   1      36.857  32.950  30.207  1.00  0.00     0.023 A 
ATOM     65  C   UNL A   1      36.319  33.030  31.506  1.00  0.00     0.031 A 
ATOM     66  C   UNL A   1      36.094  33.562  29.195  1.00  0.00     0.131 A 
ATOM     67  C   UNL A   1      35.045  33.578  31.739  1.00  0.00     0.055 A 
ATOM     68  C   UNL A   1      34.797  34.046  29.412  1.00  0.00     0.041 A 
ATOM     69  F   UNL A   1      36.591  33.762  27.966  1.00  0.00    -0.206 F 
ATOM     70  C   UNL A   1      34.258  34.041  30.690  1.00  0.00     0.022 A 
BRANCH  67  71
ATOM     71  S   UNL A   1      34.439  33.688  33.444  1.00  0.00     0.124 S 
ATOM     72  O   UNL A   1      33.119  33.073  33.345  1.00  0.00    -0.237 OA
ATOM     73  O   UNL A   1      35.448  32.934  34.178  1.00  0.00    -0.237 OA
ATOM     74  O   UNL A   1      34.430  35.127  33.707  1.00  0.00    -0.744 OA
ENDBRANCH  67  71
ENDBRANCH  50  64
BRANCH  51  75
ATOM     75  C   UNL A   1      44.558  27.162  29.462  1.00  0.00     0.023 A 
ATOM     76  C   UNL A   1      44.326  27.389  28.086  1.00  0.00     0.031 A 
ATOM     77  C   UNL A   1      45.601  26.297  29.813  1.00  0.00     0.131 A 
ATOM     78  C   UNL A   1      45.247  26.937  27.130  1.00  0.00     0.055 A 
ATOM     79  C   UNL A   1      46.458  25.761  28.843  1.00  0.00     0.041 A 
ATOM     80  F   UNL A   1      45.898  26.065  31.101  1.00  0.00    -0.206 F 
ATOM     81  C   UNL A   1      46.318  26.124  27.501  1.00  0.00     0.022 A 
BRANCH  78  82
ATOM     82  S   UNL A   1      45.221  27.697  25.475  1.00  0.00     0.124 S 
ATOM     83  O   UNL A   1      45.903  26.694  24.668  1.00  0.00    -0.237 OA
ATOM     84  O   UNL A   1      43.792  27.867  25.220  1.00  0.00    -0.237 OA
ATOM     85  O   UNL A   1      45.940  28.955  25.663  1.00  0.00    -0.744 OA
ENDBRANCH  78  82
ENDBRANCH  51  75
BRANCH  63  86
ATOM     86  C   UNL A   1      43.356  34.366  30.160  1.00  0.00     0.023 A 
ATOM     87  C   UNL A   1      43.527  34.809  28.839  1.00  0.00     0.031 A 
ATOM     88  C   UNL A   1      43.652  35.322  31.166  1.00  0.00     0.131 A 
ATOM     89  C   UNL A   1      43.874  36.146  28.561  1.00  0.00     0.055 A 
ATOM     90  C   UNL A   1      44.062  36.630  30.887  1.00  0.00     0.041 A 
ATOM     91  F   UNL A   1      43.536  35.047  32.471  1.00  0.00    -0.206 F 
ATOM     92  C   UNL A   1      44.158  37.056  29.576  1.00  0.00     0.022 A 
BRANCH  89  93
ATOM     93  S   UNL A   1      43.897  36.694  26.833  1.00  0.00     0.124 S 
ATOM     94  O   UNL A   1      42.877  37.736  26.818  1.00  0.00    -0.237 OA
ATOM     95  O   UNL A   1      45.276  37.152  26.686  1.00  0.00    -0.237 OA
ATOM     96  O   UNL A   1      43.563  35.485  26.082  1.00  0.00    -0.744 OA
ENDBRANCH  89  93
ENDBRANCH  63  86
ENDBRANCH  37  38
ENDBRANCH  29  32
ENDBRANCH  27  28
ENDBRANCH  26  27
ENDBRANCH   1  26
TORSDOF 18
ENDMDL
MODEL 3
REMARK VINA RESULT:     -12.1      4.161     10.348
REMARK SMILES CCC(=O)Nc1cc(NC(=O)/C=C/C(=O)NCCCCNC(=O)c2ccc(-c3c4nc(c(-c5cc(S(=O)(=O)[O-])ccc5F)c5ccc([nH]5)c(-c5cc(S(=O)(=O)[O-])ccc5F)c5nc(c(-c6cc(S(=O)(=O)[O-])ccc6F)c6ccc3[nH]6)C=C5)C=C4)cc2)ccc1C
REMARK SMILES IDX 18 1 17 2 16 3 14 4 15 5 13 7 12 8 10 9 9 10 11 12 8 13 6 14
REMARK SMILES IDX 7 15 89 16 88 17 90 18 87 19 5 20 3 21 4 22 2 24 1 25 19 26
REMARK SMILES IDX 20 27 21 28 22 29 23 31 24 32 25 33 86 34 26 35 85 36 27 37
REMARK SMILES IDX 28 38 29 39 79 40 30 41 84 42 78 43 80 44 31 45 83 46 77 47
REMARK SMILES IDX 76 48 32 50 64 51 44 52 63 53 45 54 48 55 62 56 81 57 46 58
REMARK SMILES IDX 47 59 61 61 82 62 49 63 33 64 34 65 42 66 35 67 41 68 43 69
REMARK SMILES IDX 40 70 36 71 37 72 38 73 39 74 65 75 66 76 74 77 67 78 73 79
REMARK SMILES IDX 75 80 72 81 68 82 69 83 70 84 71 85 50 86 51 87 59 88 52 89
REMARK SMILES IDX 58 90 60 91 57 92 53 93 54 94 55 95 56 96
REMARK H PARENT 16 6 9 11 5 23 21 30 80 49 48 60
REMARK Flexibility Score: inf
ROOT
ATOM      1  C   UNL A   1      36.661  21.570  25.550  1.00  0.00     0.023 C 
ENDROOT
BRANCH   1   2
ATOM      2  C   UNL A   1      35.955  21.932  24.238  1.00  0.00     0.116 C 
BRANCH   2   3
ATOM      3  N   UNL A   1      35.797  23.375  24.096  1.00  0.00    -0.353 N 
ATOM      4  C   UNL A   1      34.862  24.179  24.658  1.00  0.00     0.244 C 
ATOM      5  O   UNL A   1      34.716  25.348  24.297  1.00  0.00    -0.270 OA
ATOM      6  H   UNL A   1      36.455  23.824  23.516  1.00  0.00     0.163 HD
BRANCH   4   7
ATOM      7  C   UNL A   1      34.012  23.655  25.742  1.00  0.00     0.077 C 
ATOM      8  C   UNL A   1      32.692  23.885  25.665  1.00  0.00     0.077 C 
BRANCH   8   9
ATOM      9  C   UNL A   1      31.741  23.116  26.481  1.00  0.00     0.248 C 
ATOM     10  N   UNL A   1      31.476  21.804  26.198  1.00  0.00    -0.322 N 
ATOM     11  H   UNL A   1      30.780  21.407  26.771  1.00  0.00     0.170 HD
ATOM     12  O   UNL A   1      31.180  23.646  27.437  1.00  0.00    -0.270 OA
BRANCH  10  13
ATOM     13  C   UNL A   1      32.003  20.909  25.248  1.00  0.00     0.043 A 
ATOM     14  C   UNL A   1      32.440  18.663  24.420  1.00  0.00     0.046 A 
ATOM     15  C   UNL A   1      32.241  19.556  25.477  1.00  0.00     0.052 A 
ATOM     16  C   UNL A   1      32.437  19.143  23.102  1.00  0.00    -0.027 A 
ATOM     17  C   UNL A   1      32.401  20.532  22.893  1.00  0.00     0.008 A 
ATOM     18  C   UNL A   1      32.199  18.266  21.902  1.00  0.00     0.046 C 
ATOM     19  C   UNL A   1      32.194  21.409  23.960  1.00  0.00     0.026 A 
BRANCH  14  20
ATOM     20  N   UNL A   1      32.391  17.297  24.735  1.00  0.00    -0.326 N 
ATOM     21  C   UNL A   1      33.397  16.371  24.695  1.00  0.00     0.224 C 
ATOM     22  O   UNL A   1      33.135  15.170  24.605  1.00  0.00    -0.275 OA
ATOM     23  H   UNL A   1      31.513  16.960  25.025  1.00  0.00     0.169 HD
BRANCH  21  24
ATOM     24  C   UNL A   1      34.828  16.838  24.905  1.00  0.00     0.097 C 
ATOM     25  C   UNL A   1      35.792  15.779  25.392  1.00  0.00     0.014 C 
ENDBRANCH  21  24
ENDBRANCH  14  20
ENDBRANCH  10  13
ENDBRANCH   8   9
ENDBRANCH   4   7
ENDBRANCH   2   3
ENDBRANCH   1   2
BRANCH   1  26
ATOM     26  C   UNL A   1      38.180  21.763  25.541  1.00  0.00     0.023 C 
BRANCH  26  27
ATOM     27  C   UNL A   1      38.655  23.002  26.281  1.00  0.00     0.116 C 
BRANCH  27  28
ATOM     28  N   UNL A   1      40.087  23.070  26.524  1.00  0.00    -0.352 N 
ATOM     29  C   UNL A   1      40.877  24.174  26.780  1.00  0.00     0.251 C 
ATOM     30  H   UNL A   1      40.561  22.207  26.504  1.00  0.00     0.163 HD
ATOM     31  O   UNL A   1      42.106  24.081  26.776  1.00  0.00    -0.269 OA
BRANCH  29  32
ATOM     32  C   UNL A   1      40.244  25.451  27.200  1.00  0.00     0.039 A 
ATOM     33  C   UNL A   1      40.575  26.602  26.470  1.00  0.00     0.014 A 
ATOM     34  C   UNL A   1      39.553  25.566  28.402  1.00  0.00     0.014 A 
ATOM     35  C   UNL A   1      40.441  27.855  27.063  1.00  0.00     0.010 A 
ATOM     36  C   UNL A   1      39.519  26.793  29.035  1.00  0.00     0.010 A 
ATOM     37  C   UNL A   1      40.020  27.927  28.390  1.00  0.00    -0.014 A 
BRANCH  37  38
ATOM     38  C   UNL A   1      40.177  29.116  29.217  1.00  0.00     0.031 A 
ATOM     39  C   UNL A   1      39.124  30.146  29.263  1.00  0.00     0.074 A 
ATOM     40  C   UNL A   1      41.266  29.256  30.004  1.00  0.00     0.049 A 
ATOM     41  N   UNL A   1      39.345  31.383  29.549  1.00  0.00    -0.248 NA
ATOM     42  C   UNL A   1      37.728  29.861  28.963  1.00  0.00     0.031 C 
ATOM     43  C   UNL A   1      41.480  30.241  31.061  1.00  0.00     0.029 A 
ATOM     44  N   UNL A   1      42.514  28.669  29.819  1.00  0.00    -0.354 N 
ATOM     45  C   UNL A   1      38.128  31.977  29.774  1.00  0.00     0.074 A 
ATOM     46  C   UNL A   1      37.151  31.011  29.324  1.00  0.00     0.031 C 
ATOM     47  C   UNL A   1      42.800  30.398  31.242  1.00  0.00     0.029 A 
ATOM     48  C   UNL A   1      43.475  29.620  30.220  1.00  0.00     0.049 A 
ATOM     49  H   UNL A   1      42.693  27.764  29.474  1.00  0.00     0.167 HD
ATOM     50  C   UNL A   1      38.070  33.161  30.448  1.00  0.00     0.034 A 
ATOM     51  C   UNL A   1      44.395  30.091  29.328  1.00  0.00     0.034 A 
ATOM     52  C   UNL A   1      39.399  33.656  30.812  1.00  0.00     0.049 A 
ATOM     53  C   UNL A   1      44.298  31.586  29.073  1.00  0.00     0.074 A 
ATOM     54  C   UNL A   1      40.123  33.718  31.993  1.00  0.00     0.029 A 
ATOM     55  N   UNL A   1      40.298  33.961  29.804  1.00  0.00    -0.354 N 
ATOM     56  N   UNL A   1      43.407  32.372  29.615  1.00  0.00    -0.248 NA
ATOM     57  C   UNL A   1      45.146  32.300  28.120  1.00  0.00     0.031 C 
ATOM     58  C   UNL A   1      41.465  34.081  31.675  1.00  0.00     0.029 A 
ATOM     59  C   UNL A   1      41.550  34.255  30.307  1.00  0.00     0.049 A 
ATOM     60  H   UNL A   1      40.072  33.968  28.846  1.00  0.00     0.167 HD
ATOM     61  C   UNL A   1      43.490  33.627  29.062  1.00  0.00     0.074 A 
ATOM     62  C   UNL A   1      44.603  33.531  28.133  1.00  0.00     0.031 C 
ATOM     63  C   UNL A   1      42.607  34.625  29.375  1.00  0.00     0.034 A 
BRANCH  50  64
ATOM     64  C   UNL A   1      36.787  33.729  31.006  1.00  0.00     0.023 A 
ATOM     65  C   UNL A   1      35.825  34.260  30.125  1.00  0.00     0.031 A 
ATOM     66  C   UNL A   1      36.464  33.804  32.374  1.00  0.00     0.131 A 
ATOM     67  C   UNL A   1      34.684  34.927  30.603  1.00  0.00     0.055 A 
ATOM     68  C   UNL A   1      35.364  34.527  32.855  1.00  0.00     0.041 A 
ATOM     69  F   UNL A   1      37.171  33.138  33.298  1.00  0.00    -0.206 F 
ATOM     70  C   UNL A   1      34.474  35.109  31.966  1.00  0.00     0.022 A 
BRANCH  67  71
ATOM     71  S   UNL A   1      33.467  35.544  29.409  1.00  0.00     0.124 S 
ATOM     72  O   UNL A   1      32.543  34.420  29.297  1.00  0.00    -0.237 OA
ATOM     73  O   UNL A   1      32.956  36.735  30.078  1.00  0.00    -0.237 OA
ATOM     74  O   UNL A   1      34.269  35.804  28.213  1.00  0.00    -0.744 OA
ENDBRANCH  67  71
ENDBRANCH  50  64
BRANCH  51  75
ATOM     75  C   UNL A   1      44.804  29.040  28.343  1.00  0.00     0.023 A 
ATOM     76  C   UNL A   1      45.650  28.015  28.829  1.00  0.00     0.031 A 
ATOM     77  C   UNL A   1      44.079  28.785  27.174  1.00  0.00     0.131 A 
ATOM     78  C   UNL A   1      45.587  26.726  28.280  1.00  0.00     0.055 A 
ATOM     79  C   UNL A   1      44.100  27.522  26.565  1.00  0.00     0.041 A 
ATOM     80  F   UNL A   1      43.232  29.699  26.678  1.00  0.00    -0.206 F 
ATOM     81  C   UNL A   1      44.812  26.472  27.149  1.00  0.00     0.022 A 
BRANCH  78  82
ATOM     82  S   UNL A   1      46.250  25.338  29.254  1.00  0.00     0.124 S 
ATOM     83  O   UNL A   1      46.001  24.202  28.374  1.00  0.00    -0.237 OA
ATOM     84  O   UNL A   1      47.650  25.713  29.440  1.00  0.00    -0.237 OA
ATOM     85  O   UNL A   1      45.462  25.371  30.484  1.00  0.00    -0.744 OA
ENDBRANCH  78  82
ENDBRANCH  51  75
BRANCH  63  86
ATOM     86  C   UNL A   1      42.627  36.030  28.805  1.00  0.00     0.023 A 
ATOM     87  C   UNL A   1      43.111  37.139  29.517  1.00  0.00     0.031 A 
ATOM     88  C   UNL A   1      42.080  36.320  27.528  1.00  0.00     0.131 A 
ATOM     89  C   UNL A   1      43.130  38.423  28.937  1.00  0.00     0.055 A 
ATOM     90  C   UNL A   1      42.038  37.607  26.983  1.00  0.00     0.041 A 
ATOM     91  F   UNL A   1      41.579  35.366  26.732  1.00  0.00    -0.206 F 
ATOM     92  C   UNL A   1      42.582  38.668  27.680  1.00  0.00     0.022 A 
BRANCH  89  93
ATOM     93  S   UNL A   1      43.937  39.770  29.841  1.00  0.00     0.124 S 
ATOM     94  O   UNL A   1      42.906  40.178  30.788  1.00  0.00    -0.237 OA
ATOM     95  O   UNL A   1      45.094  39.090  30.416  1.00  0.00    -0.237 OA
ATOM     96  O   UNL A   1      44.248  40.748  28.800  1.00  0.00    -0.744 OA
ENDBRANCH  89  93
ENDBRANCH  63  86
ENDBRANCH  37  38
ENDBRANCH  29  32
ENDBRANCH  27  28
ENDBRANCH  26  27
ENDBRANCH   1  26
TORSDOF 18
ENDMDL
