MODEL 1
REMARK VINA RESULT:     -13.6      0.000      0.000
REMARK SMILES O=C(NCCCCNC(=O)c1[nH]ncc1C[N@H+]1CCC[C@@H](c2nc3ccccc3o2)C1)c1ccc(-c2c3nc(c(-c4cc(S(=O)(=O)[O-])ccc4F)c4ccc([nH]4)c(-c4cc(S(=O)(=O)[O-])ccc4F)c4nc(c(-c5cc(S(=O)(=O)[O-])ccc5F)c5ccc2[nH]5)C=C4)C=C3)cc1
REMARK SMILES IDX 5 1 4 2 3 3 1 4 2 5 32 7 33 8 94 9 34 10 93 11 35 12 36 13
REMARK SMILES IDX 37 14 87 15 38 16 92 17 86 18 88 19 39 20 91 21 85 22 84 23
REMARK SMILES IDX 40 25 72 26 52 27 71 28 53 29 56 30 70 31 89 32 54 33 55 34
REMARK SMILES IDX 69 36 90 37 57 38 41 39 42 40 50 41 43 42 49 43 51 44 48 45
REMARK SMILES IDX 44 46 45 47 46 48 47 49 73 50 74 51 82 52 75 53 81 54 83 55
REMARK SMILES IDX 80 56 76 57 77 58 78 59 79 60 58 61 59 62 67 63 60 64 66 65
REMARK SMILES IDX 68 66 65 67 61 68 62 69 63 70 64 71 6 72 7 73 8 74 9 75
REMARK SMILES IDX 10 77 11 78 12 79 15 80 13 81 14 83 16 84 17 85 18 86 31 87
REMARK SMILES IDX 19 89 21 90 20 91 22 92 23 93 30 94 24 95 29 96 25 97 28 98
REMARK SMILES IDX 26 99 27 100
REMARK H PARENT 3 6 88 24 56 35 8 76 12 82 17 88
REMARK Flexibility Score: inf
ROOT
ATOM      1  C   UNL A   1      36.766  22.460  23.675  1.00  0.00     0.023 C 
ENDROOT
BRANCH   1   2
ATOM      2  C   UNL A   1      36.960  22.191  25.159  1.00  0.00     0.116 C 
BRANCH   2   3
ATOM      3  N   UNL A   1      37.804  21.035  25.435  1.00  0.00    -0.352 N 
ATOM      4  O   UNL A   1      39.692  19.953  26.060  1.00  0.00    -0.269 OA
ATOM      5  C   UNL A   1      39.055  20.999  26.013  1.00  0.00     0.251 C 
ATOM      6  H   UNL A   1      37.431  20.162  25.172  1.00  0.00     0.163 HD
BRANCH   5   7
ATOM      7  C   UNL A   1      39.624  22.254  26.548  1.00  0.00     0.039 A 
ATOM      8  C   UNL A   1      39.152  23.477  26.073  1.00  0.00     0.014 A 
ATOM      9  C   UNL A   1      40.679  22.210  27.463  1.00  0.00     0.014 A 
ATOM     10  C   UNL A   1      39.868  24.632  26.342  1.00  0.00     0.010 A 
ATOM     11  C   UNL A   1      41.313  23.399  27.842  1.00  0.00     0.010 A 
ATOM     12  C   UNL A   1      40.935  24.619  27.257  1.00  0.00    -0.014 A 
BRANCH  12  13
ATOM     13  C   UNL A   1      41.555  25.917  27.631  1.00  0.00     0.031 A 
ATOM     14  C   UNL A   1      42.929  26.309  27.161  1.00  0.00     0.074 A 
ATOM     15  C   UNL A   1      40.812  26.779  28.356  1.00  0.00     0.049 A 
ATOM     16  N   UNL A   1      43.580  27.426  27.371  1.00  0.00    -0.248 NA
ATOM     17  C   UNL A   1      43.675  25.325  26.361  1.00  0.00     0.031 C 
ATOM     18  C   UNL A   1      39.466  26.497  28.870  1.00  0.00     0.029 A 
ATOM     19  N   UNL A   1      41.051  28.066  28.757  1.00  0.00    -0.354 N 
ATOM     20  C   UNL A   1      44.810  27.282  26.738  1.00  0.00     0.074 A 
ATOM     21  C   UNL A   1      44.829  25.951  26.168  1.00  0.00     0.031 C 
ATOM     22  C   UNL A   1      38.973  27.600  29.447  1.00  0.00     0.029 A 
ATOM     23  C   UNL A   1      40.001  28.631  29.443  1.00  0.00     0.049 A 
ATOM     24  H   UNL A   1      41.893  28.543  28.571  1.00  0.00     0.167 HD
ATOM     25  C   UNL A   1      45.821  28.183  26.638  1.00  0.00     0.034 A 
ATOM     26  C   UNL A   1      39.882  29.833  30.037  1.00  0.00     0.034 A 
ATOM     27  C   UNL A   1      45.781  29.505  27.221  1.00  0.00     0.049 A 
ATOM     28  C   UNL A   1      41.042  30.786  29.954  1.00  0.00     0.074 A 
ATOM     29  C   UNL A   1      46.746  30.498  27.173  1.00  0.00     0.029 A 
ATOM     30  N   UNL A   1      44.724  30.023  27.962  1.00  0.00    -0.354 N 
ATOM     31  N   UNL A   1      42.195  30.632  29.343  1.00  0.00    -0.248 NA
ATOM     32  C   UNL A   1      40.885  32.074  30.636  1.00  0.00     0.031 C 
ATOM     33  C   UNL A   1      46.307  31.580  27.942  1.00  0.00     0.029 A 
ATOM     34  C   UNL A   1      45.029  31.304  28.400  1.00  0.00     0.049 A 
ATOM     35  H   UNL A   1      43.881  29.549  28.149  1.00  0.00     0.167 HD
ATOM     36  C   UNL A   1      42.893  31.816  29.555  1.00  0.00     0.074 A 
ATOM     37  C   UNL A   1      42.013  32.685  30.310  1.00  0.00     0.031 C 
ATOM     38  C   UNL A   1      44.150  32.152  29.171  1.00  0.00     0.034 A 
BRANCH  25  39
ATOM     39  C   UNL A   1      47.072  27.762  25.904  1.00  0.00     0.023 A 
ATOM     40  C   UNL A   1      47.223  27.966  24.521  1.00  0.00     0.031 A 
ATOM     41  C   UNL A   1      48.143  27.172  26.600  1.00  0.00     0.131 A 
ATOM     42  C   UNL A   1      48.395  27.543  23.872  1.00  0.00     0.055 A 
ATOM     43  C   UNL A   1      49.334  26.820  25.963  1.00  0.00     0.041 A 
ATOM     44  F   UNL A   1      48.050  26.933  27.918  1.00  0.00    -0.206 F 
ATOM     45  C   UNL A   1      49.462  26.996  24.589  1.00  0.00     0.022 A 
BRANCH  42  46
ATOM     46  S   UNL A   1      48.462  27.618  22.062  1.00  0.00     0.124 S 
ATOM     47  O   UNL A   1      49.628  28.470  21.845  1.00  0.00    -0.237 OA
ATOM     48  O   UNL A   1      48.619  26.216  21.693  1.00  0.00    -0.237 OA
ATOM     49  O   UNL A   1      47.182  28.220  21.695  1.00  0.00    -0.744 OA
ENDBRANCH  42  46
ENDBRANCH  25  39
BRANCH  26  50
ATOM     50  C   UNL A   1      38.653  30.178  30.809  1.00  0.00     0.023 A 
ATOM     51  C   UNL A   1      37.598  30.886  30.217  1.00  0.00     0.031 A 
ATOM     52  C   UNL A   1      38.545  29.856  32.176  1.00  0.00     0.131 A 
ATOM     53  C   UNL A   1      36.514  31.308  31.002  1.00  0.00     0.055 A 
ATOM     54  C   UNL A   1      37.429  30.210  32.933  1.00  0.00     0.041 A 
ATOM     55  F   UNL A   1      39.526  29.181  32.796  1.00  0.00    -0.206 F 
ATOM     56  C   UNL A   1      36.413  30.959  32.350  1.00  0.00     0.022 A 
BRANCH  53  57
ATOM     57  S   UNL A   1      35.303  32.438  30.264  1.00  0.00     0.124 S 
ATOM     58  O   UNL A   1      34.345  32.597  31.353  1.00  0.00    -0.237 OA
ATOM     59  O   UNL A   1      36.125  33.603  29.957  1.00  0.00    -0.237 OA
ATOM     60  O   UNL A   1      34.813  31.698  29.103  1.00  0.00    -0.744 OA
ENDBRANCH  53  57
ENDBRANCH  26  50
BRANCH  38  61
ATOM     61  C   UNL A   1      44.619  33.538  29.544  1.00  0.00     0.023 A 
ATOM     62  C   UNL A   1      44.465  34.627  28.666  1.00  0.00     0.031 A 
ATOM     63  C   UNL A   1      45.277  33.763  30.765  1.00  0.00     0.131 A 
ATOM     64  C   UNL A   1      45.040  35.867  28.983  1.00  0.00     0.055 A 
ATOM     65  C   UNL A   1      45.777  35.020  31.110  1.00  0.00     0.041 A 
ATOM     66  F   UNL A   1      45.456  32.761  31.640  1.00  0.00    -0.206 F 
ATOM     67  C   UNL A   1      45.678  36.076  30.208  1.00  0.00     0.022 A 
BRANCH  64  68
ATOM     68  S   UNL A   1      45.059  37.162  27.713  1.00  0.00     0.124 S 
ATOM     69  O   UNL A   1      45.885  36.556  26.675  1.00  0.00    -0.237 OA
ATOM     70  O   UNL A   1      43.642  37.309  27.396  1.00  0.00    -0.237 OA
ATOM     71  O   UNL A   1      45.661  38.304  28.399  1.00  0.00    -0.744 OA
ENDBRANCH  64  68
ENDBRANCH  38  61
ENDBRANCH  12  13
ENDBRANCH   5   7
ENDBRANCH   2   3
ENDBRANCH   1   2
BRANCH   1  72
ATOM     72  C   UNL A   1      35.364  22.901  23.283  1.00  0.00     0.023 C 
BRANCH  72  73
ATOM     73  C   UNL A   1      34.316  22.726  24.371  1.00  0.00     0.116 C 
BRANCH  73  74
ATOM     74  N   UNL A   1      33.569  21.482  24.267  1.00  0.00    -0.351 N 
ATOM     75  C   UNL A   1      32.366  21.165  24.844  1.00  0.00     0.269 C 
ATOM     76  H   UNL A   1      33.978  20.779  23.713  1.00  0.00     0.163 HD
ATOM     77  O   UNL A   1      31.960  20.004  24.798  1.00  0.00    -0.268 OA
BRANCH  75  78
ATOM     78  C   UNL A   1      31.664  22.194  25.548  1.00  0.00     0.131 A 
ATOM     79  N   UNL A   1      31.485  22.147  26.901  1.00  0.00    -0.272 N 
ATOM     80  C   UNL A   1      31.043  23.363  25.123  1.00  0.00     0.057 A 
ATOM     81  N   UNL A   1      31.002  23.286  27.419  1.00  0.00    -0.183 NA
ATOM     82  H   UNL A   1      31.692  21.352  27.445  1.00  0.00     0.190 HD
ATOM     83  C   UNL A   1      30.740  24.026  26.340  1.00  0.00     0.145 A 
BRANCH  80  84
ATOM     84  C   UNL A   1      30.854  23.843  23.716  1.00  0.00     0.303 C 
BRANCH  84  85
ATOM     85  N   UNL A   1      31.586  25.065  23.368  1.00  0.00    -0.330 N 
ATOM     86  C   UNL A   1      32.395  24.936  22.153  1.00  0.00     0.262 C 
ATOM     87  C   UNL A   1      30.736  26.256  23.359  1.00  0.00     0.275 C 
ATOM     88  H   UNL A   1      32.253  25.202  24.126  1.00  0.00     0.348 HD
ATOM     89  C   UNL A   1      33.247  26.189  21.930  1.00  0.00     0.062 C 
ATOM     90  C   UNL A   1      31.536  27.552  23.165  1.00  0.00     0.131 C 
ATOM     91  C   UNL A   1      32.389  27.454  21.897  1.00  0.00     0.025 C 
BRANCH  90  92
ATOM     92  C   UNL A   1      30.562  28.678  23.097  1.00  0.00     0.204 A 
ATOM     93  N   UNL A   1      30.325  29.603  24.010  1.00  0.00    -0.213 NA
ATOM     94  O   UNL A   1      29.947  28.888  21.889  1.00  0.00    -0.440 OA
ATOM     95  C   UNL A   1      29.526  30.503  23.358  1.00  0.00     0.109 A 
ATOM     96  C   UNL A   1      29.286  30.068  22.064  1.00  0.00     0.154 A 
ATOM     97  C   UNL A   1      28.978  31.720  23.780  1.00  0.00     0.032 A 
ATOM     98  C   UNL A   1      28.519  30.753  21.130  1.00  0.00     0.049 A 
ATOM     99  C   UNL A   1      28.201  32.445  22.866  1.00  0.00     0.003 A 
ATOM    100  C   UNL A   1      27.975  31.967  21.568  1.00  0.00     0.004 A 
ENDBRANCH  90  92
ENDBRANCH  84  85
ENDBRANCH  80  84
ENDBRANCH  75  78
ENDBRANCH  73  74
ENDBRANCH  72  73
ENDBRANCH   1  72
TORSDOF 17
ENDMDL
MODEL 2
REMARK VINA RESULT:     -13.4      1.508      4.675
REMARK SMILES O=C(NCCCCNC(=O)c1[nH]ncc1C[N@H+]1CCC[C@@H](c2nc3ccccc3o2)C1)c1ccc(-c2c3nc(c(-c4cc(S(=O)(=O)[O-])ccc4F)c4ccc([nH]4)c(-c4cc(S(=O)(=O)[O-])ccc4F)c4nc(c(-c5cc(S(=O)(=O)[O-])ccc5F)c5ccc2[nH]5)C=C4)C=C3)cc1
REMARK SMILES IDX 5 1 4 2 3 3 1 4 2 5 32 7 33 8 94 9 34 10 93 11 35 12 36 13
REMARK SMILES IDX 37 14 87 15 38 16 92 17 86 18 88 19 39 20 91 21 85 22 84 23
REMARK SMILES IDX 40 25 72 26 52 27 71 28 53 29 56 30 70 31 89 32 54 33 55 34
REMARK SMILES IDX 69 36 90 37 57 38 41 39 42 40 50 41 43 42 49 43 51 44 48 45
REMARK SMILES IDX 44 46 45 47 46 48 47 49 73 50 74 51 82 52 75 53 81 54 83 55
REMARK SMILES IDX 80 56 76 57 77 58 78 59 79 60 58 61 59 62 67 63 60 64 66 65
REMARK SMILES IDX 68 66 65 67 61 68 62 69 63 70 64 71 6 72 7 73 8 74 9 75
REMARK SMILES IDX 10 77 11 78 12 79 15 80 13 81 14 83 16 84 17 85 18 86 31 87
REMARK SMILES IDX 19 89 21 90 20 91 22 92 23 93 30 94 24 95 29 96 25 97 28 98
REMARK SMILES IDX 26 99 27 100
REMARK H PARENT 3 6 88 24 56 35 8 76 12 82 17 88
REMARK Flexibility Score: inf
ROOT
ATOM      1  C   UNL A   1      35.544  23.343  24.877  1.00  0.00     0.023 C 
ENDROOT
BRANCH   1   2
ATOM      2  C   UNL A   1      35.969  22.526  26.087  1.00  0.00     0.116 C 
BRANCH   2   3
ATOM      3  N   UNL A   1      36.894  21.445  25.763  1.00  0.00    -0.352 N 
ATOM      4  O   UNL A   1      38.911  20.496  25.370  1.00  0.00    -0.269 OA
ATOM      5  C   UNL A   1      38.271  21.452  25.796  1.00  0.00     0.251 C 
ATOM      6  H   UNL A   1      36.477  20.598  25.482  1.00  0.00     0.163 HD
BRANCH   5   7
ATOM      7  C   UNL A   1      38.962  22.645  26.330  1.00  0.00     0.039 A 
ATOM      8  C   UNL A   1      38.603  23.909  25.864  1.00  0.00     0.014 A 
ATOM      9  C   UNL A   1      40.018  22.497  27.232  1.00  0.00     0.014 A 
ATOM     10  C   UNL A   1      39.427  24.989  26.129  1.00  0.00     0.010 A 
ATOM     11  C   UNL A   1      40.765  23.619  27.609  1.00  0.00     0.010 A 
ATOM     12  C   UNL A   1      40.498  24.872  27.033  1.00  0.00    -0.014 A 
BRANCH  12  13
ATOM     13  C   UNL A   1      41.242  26.103  27.405  1.00  0.00     0.031 A 
ATOM     14  C   UNL A   1      42.620  26.393  26.875  1.00  0.00     0.074 A 
ATOM     15  C   UNL A   1      40.610  27.004  28.185  1.00  0.00     0.049 A 
ATOM     16  N   UNL A   1      43.372  27.447  27.077  1.00  0.00    -0.248 NA
ATOM     17  C   UNL A   1      43.242  25.372  26.017  1.00  0.00     0.031 C 
ATOM     18  C   UNL A   1      39.271  26.821  28.759  1.00  0.00     0.029 A 
ATOM     19  N   UNL A   1      40.975  28.256  28.602  1.00  0.00    -0.354 N 
ATOM     20  C   UNL A   1      44.553  27.219  26.380  1.00  0.00     0.074 A 
ATOM     21  C   UNL A   1      44.434  25.906  25.780  1.00  0.00     0.031 C 
ATOM     22  C   UNL A   1      38.901  27.945  29.385  1.00  0.00     0.029 A 
ATOM     23  C   UNL A   1      40.010  28.888  29.352  1.00  0.00     0.049 A 
ATOM     24  H   UNL A   1      41.844  28.666  28.385  1.00  0.00     0.167 HD
ATOM     25  C   UNL A   1      45.631  28.035  26.251  1.00  0.00     0.034 A 
ATOM     26  C   UNL A   1      40.021  30.079  29.979  1.00  0.00     0.034 A 
ATOM     27  C   UNL A   1      45.729  29.340  26.864  1.00  0.00     0.049 A 
ATOM     28  C   UNL A   1      41.252  30.934  29.859  1.00  0.00     0.074 A 
ATOM     29  C   UNL A   1      46.771  30.251  26.790  1.00  0.00     0.029 A 
ATOM     30  N   UNL A   1      44.757  29.923  27.669  1.00  0.00    -0.354 N 
ATOM     31  N   UNL A   1      42.356  30.702  29.188  1.00  0.00    -0.248 NA
ATOM     32  C   UNL A   1      41.236  32.213  30.577  1.00  0.00     0.031 C 
ATOM     33  C   UNL A   1      46.461  31.345  27.605  1.00  0.00     0.029 A 
ATOM     34  C   UNL A   1      45.189  31.163  28.120  1.00  0.00     0.049 A 
ATOM     35  H   UNL A   1      43.887  29.516  27.886  1.00  0.00     0.167 HD
ATOM     36  C   UNL A   1      43.160  31.818  29.392  1.00  0.00     0.074 A 
ATOM     37  C   UNL A   1      42.394  32.736  30.210  1.00  0.00     0.031 C 
ATOM     38  C   UNL A   1      44.422  32.060  28.952  1.00  0.00     0.034 A 
BRANCH  25  39
ATOM     39  C   UNL A   1      46.805  27.532  25.445  1.00  0.00     0.023 A 
ATOM     40  C   UNL A   1      47.028  27.949  24.120  1.00  0.00     0.031 A 
ATOM     41  C   UNL A   1      47.734  26.643  26.017  1.00  0.00     0.131 A 
ATOM     42  C   UNL A   1      48.122  27.443  23.400  1.00  0.00     0.055 A 
ATOM     43  C   UNL A   1      48.859  26.200  25.320  1.00  0.00     0.041 A 
ATOM     44  F   UNL A   1      47.564  26.194  27.271  1.00  0.00    -0.206 F 
ATOM     45  C   UNL A   1      49.054  26.592  24.000  1.00  0.00     0.022 A 
BRANCH  42  46
ATOM     46  S   UNL A   1      48.250  27.825  21.632  1.00  0.00     0.124 S 
ATOM     47  O   UNL A   1      49.323  28.817  21.621  1.00  0.00    -0.237 OA
ATOM     48  O   UNL A   1      48.575  26.528  21.050  1.00  0.00    -0.237 OA
ATOM     49  O   UNL A   1      46.927  28.347  21.296  1.00  0.00    -0.744 OA
ENDBRANCH  42  46
ENDBRANCH  25  39
BRANCH  26  50
ATOM     50  C   UNL A   1      38.864  30.503  30.819  1.00  0.00     0.023 A 
ATOM     51  C   UNL A   1      37.742  31.124  30.251  1.00  0.00     0.031 A 
ATOM     52  C   UNL A   1      38.892  30.349  32.218  1.00  0.00     0.131 A 
ATOM     53  C   UNL A   1      36.729  31.628  31.081  1.00  0.00     0.055 A 
ATOM     54  C   UNL A   1      37.846  30.782  33.032  1.00  0.00     0.041 A 
ATOM     55  F   UNL A   1      39.942  29.764  32.818  1.00  0.00    -0.206 F 
ATOM     56  C   UNL A   1      36.764  31.444  32.465  1.00  0.00     0.022 A 
BRANCH  53  57
ATOM     57  S   UNL A   1      35.429  32.647  30.333  1.00  0.00     0.124 S 
ATOM     58  O   UNL A   1      35.090  31.871  29.146  1.00  0.00    -0.237 OA
ATOM     59  O   UNL A   1      34.424  32.677  31.390  1.00  0.00    -0.237 OA
ATOM     60  O   UNL A   1      36.102  33.920  30.077  1.00  0.00    -0.744 OA
ENDBRANCH  53  57
ENDBRANCH  26  50
BRANCH  38  61
ATOM     61  C   UNL A   1      45.022  33.392  29.333  1.00  0.00     0.023 A 
ATOM     62  C   UNL A   1      44.880  34.524  28.510  1.00  0.00     0.031 A 
ATOM     63  C   UNL A   1      45.793  33.519  30.502  1.00  0.00     0.131 A 
ATOM     64  C   UNL A   1      45.570  35.705  28.820  1.00  0.00     0.055 A 
ATOM     65  C   UNL A   1      46.413  34.721  30.846  1.00  0.00     0.041 A 
ATOM     66  F   UNL A   1      45.967  32.470  31.322  1.00  0.00    -0.206 F 
ATOM     67  C   UNL A   1      46.320  35.817  29.993  1.00  0.00     0.022 A 
BRANCH  64  68
ATOM     68  S   UNL A   1      45.582  37.047  27.600  1.00  0.00     0.124 S 
ATOM     69  O   UNL A   1      46.473  38.017  28.226  1.00  0.00    -0.237 OA
ATOM     70  O   UNL A   1      46.101  36.380  26.409  1.00  0.00    -0.237 OA
ATOM     71  O   UNL A   1      44.180  37.451  27.521  1.00  0.00    -0.744 OA
ENDBRANCH  64  68
ENDBRANCH  38  61
ENDBRANCH  12  13
ENDBRANCH   5   7
ENDBRANCH   2   3
ENDBRANCH   1   2
BRANCH   1  72
ATOM     72  C   UNL A   1      35.223  24.801  25.171  1.00  0.00     0.023 C 
BRANCH  72  73
ATOM     73  C   UNL A   1      34.020  25.348  24.419  1.00  0.00     0.116 C 
BRANCH  73  74
ATOM     74  N   UNL A   1      34.069  25.108  22.985  1.00  0.00    -0.351 N 
ATOM     75  C   UNL A   1      33.182  25.523  22.025  1.00  0.00     0.269 C 
ATOM     76  H   UNL A   1      34.836  24.582  22.662  1.00  0.00     0.163 HD
ATOM     77  O   UNL A   1      33.278  25.081  20.880  1.00  0.00    -0.268 OA
BRANCH  75  78
ATOM     78  C   UNL A   1      32.124  26.402  22.420  1.00  0.00     0.131 A 
ATOM     79  N   UNL A   1      32.219  27.756  22.265  1.00  0.00    -0.272 N 
ATOM     80  C   UNL A   1      30.881  26.172  22.999  1.00  0.00     0.057 A 
ATOM     81  N   UNL A   1      31.064  28.404  22.483  1.00  0.00    -0.183 NA
ATOM     82  H   UNL A   1      33.055  28.214  22.017  1.00  0.00     0.190 HD
ATOM     83  C   UNL A   1      30.252  27.440  22.922  1.00  0.00     0.145 A 
BRANCH  80  84
ATOM     84  C   UNL A   1      30.319  24.867  23.475  1.00  0.00     0.303 C 
BRANCH  84  85
ATOM     85  N   UNL A   1      31.124  24.170  24.484  1.00  0.00    -0.330 N 
ATOM     86  C   UNL A   1      30.646  24.373  25.854  1.00  0.00     0.262 C 
ATOM     87  C   UNL A   1      31.345  22.761  24.163  1.00  0.00     0.275 C 
ATOM     88  H   UNL A   1      32.041  24.613  24.447  1.00  0.00     0.348 HD
ATOM     89  C   UNL A   1      31.610  23.748  26.866  1.00  0.00     0.062 C 
ATOM     90  C   UNL A   1      32.327  22.082  25.129  1.00  0.00     0.131 C 
ATOM     91  C   UNL A   1      31.852  22.267  26.573  1.00  0.00     0.025 C 
BRANCH  90  92
ATOM     92  C   UNL A   1      32.411  20.642  24.749  1.00  0.00     0.204 A 
ATOM     93  N   UNL A   1      32.602  20.128  23.547  1.00  0.00    -0.213 NA
ATOM     94  O   UNL A   1      32.458  19.736  25.779  1.00  0.00    -0.440 OA
ATOM     95  C   UNL A   1      32.821  18.800  23.795  1.00  0.00     0.109 A 
ATOM     96  C   UNL A   1      32.727  18.554  25.155  1.00  0.00     0.154 A 
ATOM     97  C   UNL A   1      33.126  17.743  22.930  1.00  0.00     0.032 A 
ATOM     98  C   UNL A   1      32.906  17.310  25.746  1.00  0.00     0.049 A 
ATOM     99  C   UNL A   1      33.318  16.470  23.487  1.00  0.00     0.003 A 
ATOM    100  C   UNL A   1      33.207  16.260  24.868  1.00  0.00     0.004 A 
ENDBRANCH  90  92
ENDBRANCH  84  85
ENDBRANCH  80  84
ENDBRANCH  75  78
ENDBRANCH  73  74
ENDBRANCH  72  73
ENDBRANCH   1  72
TORSDOF 17
ENDMDL
MODEL 3
REMARK VINA RESULT:     -13.1      2.205      4.503
REMARK SMILES O=C(NCCCCNC(=O)c1[nH]ncc1C[N@H+]1CCC[C@@H](c2nc3ccccc3o2)C1)c1ccc(-c2c3nc(c(-c4cc(S(=O)(=O)[O-])ccc4F)c4ccc([nH]4)c(-c4cc(S(=O)(=O)[O-])ccc4F)c4nc(c(-c5cc(S(=O)(=O)[O-])ccc5F)c5ccc2[nH]5)C=C4)C=C3)cc1
REMARK SMILES IDX 5 1 4 2 3 3 1 4 2 5 32 7 33 8 94 9 34 10 93 11 35 12 36 13
REMARK SMILES IDX 37 14 87 15 38 16 92 17 86 18 88 19 39 20 91 21 85 22 84 23
REMARK SMILES IDX 40 25 72 26 52 27 71 28 53 29 56 30 70 31 89 32 54 33 55 34
REMARK SMILES IDX 69 36 90 37 57 38 41 39 42 40 50 41 43 42 49 43 51 44 48 45
REMARK SMILES IDX 44 46 45 47 46 48 47 49 73 50 74 51 82 52 75 53 81 54 83 55
REMARK SMILES IDX 80 56 76 57 77 58 78 59 79 60 58 61 59 62 67 63 60 64 66 65
REMARK SMILES IDX 68 66 65 67 61 68 62 69 63 70 64 71 6 72 7 73 8 74 9 75
REMARK SMILES IDX 10 77 11 78 12 79 15 80 13 81 14 83 16 84 17 85 18 86 31 87
REMARK SMILES IDX 19 89 21 90 20 91 22 92 23 93 30 94 24 95 29 96 25 97 28 98
REMARK SMILES IDX 26 99 27 100
REMARK H PARENT 3 6 88 24 56 35 8 76 12 82 17 88
REMARK Flexibility Score: inf
ROOT
ATOM      1  C   UNL A   1      35.138  22.081  25.676  1.00  0.00     0.023 C 
ENDROOT
BRANCH   1   2
ATOM      2  C   UNL A   1      36.533  22.221  25.087  1.00  0.00     0.116 C 
BRANCH   2   3
ATOM      3  N   UNL A   1      37.363  21.036  25.271  1.00  0.00    -0.352 N 
ATOM      4  O   UNL A   1      39.259  19.890  25.739  1.00  0.00    -0.269 OA
ATOM      5  C   UNL A   1      38.646  20.952  25.767  1.00  0.00     0.251 C 
ATOM      6  H   UNL A   1      36.952  20.182  25.004  1.00  0.00     0.163 HD
BRANCH   5   7
ATOM      7  C   UNL A   1      39.280  22.175  26.304  1.00  0.00     0.039 A 
ATOM      8  C   UNL A   1      38.826  23.423  25.882  1.00  0.00     0.014 A 
ATOM      9  C   UNL A   1      40.375  22.074  27.166  1.00  0.00     0.014 A 
ATOM     10  C   UNL A   1      39.590  24.548  26.145  1.00  0.00     0.010 A 
ATOM     11  C   UNL A   1      41.063  23.233  27.544  1.00  0.00     0.010 A 
ATOM     12  C   UNL A   1      40.698  24.479  27.008  1.00  0.00    -0.014 A 
BRANCH  12  13
ATOM     13  C   UNL A   1      41.376  25.747  27.383  1.00  0.00     0.031 A 
ATOM     14  C   UNL A   1      42.741  26.105  26.862  1.00  0.00     0.074 A 
ATOM     15  C   UNL A   1      40.694  26.614  28.159  1.00  0.00     0.049 A 
ATOM     16  N   UNL A   1      43.437  27.196  27.068  1.00  0.00    -0.248 NA
ATOM     17  C   UNL A   1      43.419  25.117  26.008  1.00  0.00     0.031 C 
ATOM     18  C   UNL A   1      39.363  26.364  28.725  1.00  0.00     0.029 A 
ATOM     19  N   UNL A   1      40.993  27.884  28.577  1.00  0.00    -0.354 N 
ATOM     20  C   UNL A   1      44.633  27.028  26.378  1.00  0.00     0.074 A 
ATOM     21  C   UNL A   1      44.583  25.711  25.778  1.00  0.00     0.031 C 
ATOM     22  C   UNL A   1      38.932  27.467  29.348  1.00  0.00     0.029 A 
ATOM     23  C   UNL A   1      39.992  28.465  29.322  1.00  0.00     0.049 A 
ATOM     24  H   UNL A   1      41.841  28.337  28.366  1.00  0.00     0.167 HD
ATOM     25  C   UNL A   1      45.668  27.898  26.255  1.00  0.00     0.034 A 
ATOM     26  C   UNL A   1      39.938  29.656  29.947  1.00  0.00     0.034 A 
ATOM     27  C   UNL A   1      45.697  29.207  26.868  1.00  0.00     0.049 A 
ATOM     28  C   UNL A   1      41.125  30.573  29.835  1.00  0.00     0.074 A 
ATOM     29  C   UNL A   1      46.691  30.169  26.800  1.00  0.00     0.029 A 
ATOM     30  N   UNL A   1      44.691  29.740  27.666  1.00  0.00    -0.354 N 
ATOM     31  N   UNL A   1      42.244  30.397  29.170  1.00  0.00    -0.248 NA
ATOM     32  C   UNL A   1      41.040  31.849  30.552  1.00  0.00     0.031 C 
ATOM     33  C   UNL A   1      46.321  31.246  27.612  1.00  0.00     0.029 A 
ATOM     34  C   UNL A   1      45.056  31.000  28.120  1.00  0.00     0.049 A 
ATOM     35  H   UNL A   1      43.841  29.289  27.879  1.00  0.00     0.167 HD
ATOM     36  C   UNL A   1      42.989  31.552  29.378  1.00  0.00     0.074 A 
ATOM     37  C   UNL A   1      42.173  32.430  30.191  1.00  0.00     0.031 C 
ATOM     38  C   UNL A   1      44.240  31.857  28.947  1.00  0.00     0.034 A 
BRANCH  25  39
ATOM     39  C   UNL A   1      46.871  27.455  25.457  1.00  0.00     0.023 A 
ATOM     40  C   UNL A   1      47.060  27.850  24.121  1.00  0.00     0.031 A 
ATOM     41  C   UNL A   1      47.861  26.647  26.048  1.00  0.00     0.131 A 
ATOM     42  C   UNL A   1      48.184  27.400  23.408  1.00  0.00     0.055 A 
ATOM     43  C   UNL A   1      49.011  26.264  25.357  1.00  0.00     0.041 A 
ATOM     44  F   UNL A   1      47.726  26.222  27.314  1.00  0.00    -0.206 F 
ATOM     45  C   UNL A   1      49.174  26.632  24.026  1.00  0.00     0.022 A 
BRANCH  42  46
ATOM     46  S   UNL A   1      48.280  27.742  21.630  1.00  0.00     0.124 S 
ATOM     47  O   UNL A   1      48.642  26.432  21.096  1.00  0.00    -0.237 OA
ATOM     48  O   UNL A   1      46.932  28.206  21.323  1.00  0.00    -0.237 OA
ATOM     49  O   UNL A   1      49.327  28.758  21.531  1.00  0.00    -0.744 OA
ENDBRANCH  42  46
ENDBRANCH  25  39
BRANCH  26  50
ATOM     50  C   UNL A   1      38.756  30.021  30.780  1.00  0.00     0.023 A 
ATOM     51  C   UNL A   1      37.769  30.893  30.298  1.00  0.00     0.031 A 
ATOM     52  C   UNL A   1      38.630  29.550  32.101  1.00  0.00     0.131 A 
ATOM     53  C   UNL A   1      36.739  31.320  31.150  1.00  0.00     0.055 A 
ATOM     54  C   UNL A   1      37.561  29.915  32.917  1.00  0.00     0.041 A 
ATOM     55  F   UNL A   1      39.546  28.715  32.616  1.00  0.00    -0.206 F 
ATOM     56  C   UNL A   1      36.617  30.822  32.449  1.00  0.00     0.022 A 
BRANCH  53  57
ATOM     57  S   UNL A   1      35.637  32.640  30.576  1.00  0.00     0.124 S 
ATOM     58  O   UNL A   1      35.619  32.406  29.137  1.00  0.00    -0.237 OA
ATOM     59  O   UNL A   1      34.403  32.335  31.292  1.00  0.00    -0.237 OA
ATOM     60  O   UNL A   1      36.319  33.860  31.004  1.00  0.00    -0.744 OA
ENDBRANCH  53  57
ENDBRANCH  26  50
BRANCH  38  61
ATOM     61  C   UNL A   1      44.769  33.218  29.330  1.00  0.00     0.023 A 
ATOM     62  C   UNL A   1      45.462  33.424  30.536  1.00  0.00     0.031 A 
ATOM     63  C   UNL A   1      44.530  34.333  28.508  1.00  0.00     0.131 A 
ATOM     64  C   UNL A   1      45.813  34.725  30.928  1.00  0.00     0.055 A 
ATOM     65  C   UNL A   1      44.952  35.614  28.866  1.00  0.00     0.041 A 
ATOM     66  F   UNL A   1      43.869  34.197  27.346  1.00  0.00    -0.206 F 
ATOM     67  C   UNL A   1      45.579  35.819  30.091  1.00  0.00     0.022 A 
BRANCH  64  68
ATOM     68  S   UNL A   1      46.455  34.981  32.604  1.00  0.00     0.124 S 
ATOM     69  O   UNL A   1      47.316  36.144  32.425  1.00  0.00    -0.237 OA
ATOM     70  O   UNL A   1      45.235  35.203  33.375  1.00  0.00    -0.237 OA
ATOM     71  O   UNL A   1      47.153  33.731  32.898  1.00  0.00    -0.744 OA
ENDBRANCH  64  68
ENDBRANCH  38  61
ENDBRANCH  12  13
ENDBRANCH   5   7
ENDBRANCH   2   3
ENDBRANCH   1   2
BRANCH   1  72
ATOM     72  C   UNL A   1      34.717  23.215  26.599  1.00  0.00     0.023 C 
BRANCH  72  73
ATOM     73  C   UNL A   1      33.533  24.030  26.102  1.00  0.00     0.116 C 
BRANCH  73  74
ATOM     74  N   UNL A   1      32.248  23.539  26.573  1.00  0.00    -0.351 N 
ATOM     75  C   UNL A   1      31.061  24.220  26.662  1.00  0.00     0.269 C 
ATOM     76  H   UNL A   1      32.227  22.599  26.865  1.00  0.00     0.163 HD
ATOM     77  O   UNL A   1      30.111  23.706  27.251  1.00  0.00    -0.268 OA
BRANCH  75  78
ATOM     78  C   UNL A   1      31.003  25.546  26.127  1.00  0.00     0.131 A 
ATOM     79  N   UNL A   1      31.334  26.639  26.876  1.00  0.00    -0.272 N 
ATOM     80  C   UNL A   1      30.637  26.037  24.879  1.00  0.00     0.057 A 
ATOM     81  N   UNL A   1      31.432  27.771  26.160  1.00  0.00    -0.183 NA
ATOM     82  H   UNL A   1      31.487  26.601  27.848  1.00  0.00     0.190 HD
ATOM     83  C   UNL A   1      31.015  27.402  24.948  1.00  0.00     0.145 A 
BRANCH  80  84
ATOM     84  C   UNL A   1      30.087  25.268  23.716  1.00  0.00     0.303 C 
BRANCH  84  85
ATOM     85  N   UNL A   1      31.078  24.515  22.939  1.00  0.00    -0.330 N 
ATOM     86  C   UNL A   1      32.385  25.173  22.867  1.00  0.00     0.262 C 
ATOM     87  C   UNL A   1      31.170  23.112  23.339  1.00  0.00     0.275 C 
ATOM     88  H   UNL A   1      30.722  24.512  21.983  1.00  0.00     0.348 HD
ATOM     89  C   UNL A   1      33.324  24.417  21.922  1.00  0.00     0.062 C 
ATOM     90  C   UNL A   1      32.079  22.292  22.412  1.00  0.00     0.131 C 
ATOM     91  C   UNL A   1      33.460  22.948  22.321  1.00  0.00     0.025 C 
BRANCH  90  92
ATOM     92  C   UNL A   1      32.154  20.908  22.962  1.00  0.00     0.204 A 
ATOM     93  N   UNL A   1      32.242  19.772  22.294  1.00  0.00    -0.213 NA
ATOM     94  O   UNL A   1      32.313  20.793  24.320  1.00  0.00    -0.440 OA
ATOM     95  C   UNL A   1      32.508  18.845  23.266  1.00  0.00     0.109 A 
ATOM     96  C   UNL A   1      32.545  19.462  24.506  1.00  0.00     0.154 A 
ATOM     97  C   UNL A   1      32.749  17.469  23.182  1.00  0.00     0.032 A 
ATOM     98  C   UNL A   1      32.801  18.809  25.705  1.00  0.00     0.049 A 
ATOM     99  C   UNL A   1      33.016  16.773  24.369  1.00  0.00     0.003 A 
ATOM    100  C   UNL A   1      33.038  17.433  25.605  1.00  0.00     0.004 A 
ENDBRANCH  90  92
ENDBRANCH  84  85
ENDBRANCH  80  84
ENDBRANCH  75  78
ENDBRANCH  73  74
ENDBRANCH  72  73
ENDBRANCH   1  72
TORSDOF 17
ENDMDL
