MODEL 1
REMARK VINA RESULT:     -11.2      0.000      0.000
REMARK SMILES NC(=O)CC[C@@H](C(=O)NCCCCNC(=O)c1ccc(-c2c3nc(c(-c4cc(S(=O)(=O)[O-])ccc4F)c4ccc([nH]4)c(-c4cc(S(=O)(=O)[O-])ccc4F)c4nc(c(-c5cc(S(=O)(=O)[O-])ccc5F)c5ccc2[nH]5)C=C4)C=C3)cc1)N1C(=O)/C(=C\c2ccc(-c3ccc(Br)cc3)o2)SC1=S
REMARK SMILES IDX 11 1 10 2 9 3 7 4 8 5 6 7 5 8 4 9 2 10 1 11 3 14 80 15 81 16
REMARK SMILES IDX 98 17 82 18 83 19 97 20 99 21 84 22 85 23 86 24 96 25 87 26
REMARK SMILES IDX 88 27 89 28 90 29 95 30 91 31 94 32 92 33 93 34 12 35 13 36
REMARK SMILES IDX 14 37 15 38 16 40 17 41 18 42 79 43 19 44 78 45 20 46 21 47
REMARK SMILES IDX 22 48 72 49 23 50 77 51 71 52 73 53 24 54 76 55 70 56 69 57
REMARK SMILES IDX 25 59 57 60 37 61 56 62 38 63 41 64 55 65 74 66 39 67 40 68
REMARK SMILES IDX 54 70 75 71 42 72 26 73 27 74 35 75 28 76 34 77 36 78 33 79
REMARK SMILES IDX 29 80 30 81 31 82 32 83 58 84 59 85 67 86 60 87 66 88 68 89
REMARK SMILES IDX 65 90 61 91 62 92 63 93 64 94 43 95 44 96 52 97 45 98 51 99
REMARK SMILES IDX 53 100 50 101 46 102 47 103 48 104 49 105
REMARK H PARENT 9 6 1 12 1 13 14 39 73 58 41 69
REMARK Flexibility Score: inf
ROOT
ATOM      1  C   UNL A   1      34.616  24.428  24.057  1.00  0.00     0.023 C 
ENDROOT
BRANCH   1   2
ATOM      2  C   UNL A   1      33.757  24.727  22.826  1.00  0.00     0.116 C 
BRANCH   2   3
ATOM      3  N   UNL A   1      34.113  26.014  22.267  1.00  0.00    -0.354 N 
ATOM      4  C   UNL A   1      33.397  27.164  22.123  1.00  0.00     0.243 C 
ATOM      5  O   UNL A   1      33.976  28.097  21.555  1.00  0.00    -0.273 OA
ATOM      6  H   UNL A   1      35.037  26.067  21.930  1.00  0.00     0.163 HD
BRANCH   4   7
ATOM      7  C   UNL A   1      31.961  27.322  22.699  1.00  0.00     0.181 C 
BRANCH   7   8
ATOM      8  C   UNL A   1      31.149  28.573  22.313  1.00  0.00     0.045 C 
BRANCH   8   9
ATOM      9  C   UNL A   1      29.680  28.707  22.702  1.00  0.00     0.102 C 
BRANCH   9  10
ATOM     10  C   UNL A   1      28.793  29.682  21.959  1.00  0.00     0.217 C 
ATOM     11  N   UNL A   1      27.455  29.647  22.176  1.00  0.00    -0.370 N 
ATOM     12  H   UNL A   1      26.861  30.273  21.702  1.00  0.00     0.159 HD
ATOM     13  H   UNL A   1      27.075  28.994  22.808  1.00  0.00     0.159 HD
ATOM     14  O   UNL A   1      29.241  30.438  21.100  1.00  0.00    -0.275 OA
ENDBRANCH   9  10
ENDBRANCH   8   9
ENDBRANCH   7   8
BRANCH   7  15
ATOM     15  N   UNL A   1      32.119  27.198  24.185  1.00  0.00    -0.280 N 
ATOM     16  C   UNL A   1      31.626  26.041  24.776  1.00  0.00     0.267 C 
ATOM     17  C   UNL A   1      32.841  28.036  25.021  1.00  0.00     0.149 C 
ATOM     18  O   UNL A   1      31.004  25.168  24.185  1.00  0.00    -0.268 OA
ATOM     19  C   UNL A   1      31.940  26.015  26.234  1.00  0.00     0.084 C 
ATOM     20  S   UNL A   1      32.660  27.507  26.692  1.00  0.00    -0.054 SA
ATOM     21  S   UNL A   1      33.766  29.384  24.684  1.00  0.00    -0.052 S 
ATOM     22  C   UNL A   1      31.770  25.019  27.110  1.00  0.00     0.068 C 
BRANCH  22  23
ATOM     23  C   UNL A   1      31.349  23.722  26.736  1.00  0.00     0.128 A 
ATOM     24  C   UNL A   1      30.090  23.151  26.872  1.00  0.00     0.051 A 
ATOM     25  O   UNL A   1      32.162  22.815  26.101  1.00  0.00    -0.457 OA
ATOM     26  C   UNL A   1      30.140  21.862  26.298  1.00  0.00     0.051 A 
ATOM     27  C   UNL A   1      31.431  21.691  25.854  1.00  0.00     0.134 A 
BRANCH  27  28
ATOM     28  C   UNL A   1      32.129  20.597  25.205  1.00  0.00     0.017 A 
ATOM     29  C   UNL A   1      32.040  20.426  23.816  1.00  0.00     0.013 A 
ATOM     30  C   UNL A   1      32.858  19.669  25.960  1.00  0.00     0.013 A 
ATOM     31  C   UNL A   1      32.662  19.342  23.193  1.00  0.00     0.016 A 
ATOM     32  C   UNL A   1      33.471  18.576  25.341  1.00  0.00     0.016 A 
ATOM     33  C   UNL A   1      33.369  18.417  23.961  1.00  0.00     0.018 A 
ATOM     34  Br  UNL A   1      34.183  16.932  23.123  1.00  0.00    -0.051 Br
ENDBRANCH  27  28
ENDBRANCH  22  23
ENDBRANCH   7  15
ENDBRANCH   4   7
ENDBRANCH   2   3
ENDBRANCH   1   2
BRANCH   1  35
ATOM     35  C   UNL A   1      35.196  23.020  24.094  1.00  0.00     0.023 C 
BRANCH  35  36
ATOM     36  C   UNL A   1      35.817  22.646  25.434  1.00  0.00     0.116 C 
BRANCH  36  37
ATOM     37  N   UNL A   1      36.758  21.539  25.350  1.00  0.00    -0.352 N 
ATOM     38  C   UNL A   1      38.094  21.524  25.684  1.00  0.00     0.251 C 
ATOM     39  H   UNL A   1      36.392  20.690  25.011  1.00  0.00     0.163 HD
ATOM     40  O   UNL A   1      38.773  20.527  25.460  1.00  0.00    -0.269 OA
BRANCH  38  41
ATOM     41  C   UNL A   1      38.700  22.740  26.261  1.00  0.00     0.039 A 
ATOM     42  C   UNL A   1      39.799  22.610  27.111  1.00  0.00     0.014 A 
ATOM     43  C   UNL A   1      38.222  24.005  25.909  1.00  0.00     0.014 A 
ATOM     44  C   UNL A   1      40.465  23.755  27.551  1.00  0.00     0.010 A 
ATOM     45  C   UNL A   1      38.940  25.137  26.272  1.00  0.00     0.010 A 
ATOM     46  C   UNL A   1      40.064  25.025  27.105  1.00  0.00    -0.014 A 
BRANCH  46  47
ATOM     47  C   UNL A   1      40.777  26.256  27.530  1.00  0.00     0.031 A 
ATOM     48  C   UNL A   1      42.227  26.434  27.167  1.00  0.00     0.074 A 
ATOM     49  C   UNL A   1      40.146  27.172  28.291  1.00  0.00     0.049 A 
ATOM     50  N   UNL A   1      43.060  27.378  27.517  1.00  0.00    -0.248 NA
ATOM     51  C   UNL A   1      42.827  25.381  26.333  1.00  0.00     0.031 C 
ATOM     52  C   UNL A   1      38.760  27.078  28.758  1.00  0.00     0.029 A 
ATOM     53  N   UNL A   1      40.590  28.359  28.814  1.00  0.00    -0.354 N 
ATOM     54  C   UNL A   1      44.285  27.025  26.961  1.00  0.00     0.074 A 
ATOM     55  C   UNL A   1      44.101  25.739  26.323  1.00  0.00     0.031 C 
ATOM     56  C   UNL A   1      38.463  28.172  29.478  1.00  0.00     0.029 A 
ATOM     57  C   UNL A   1      39.642  29.028  29.553  1.00  0.00     0.049 A 
ATOM     58  H   UNL A   1      41.502  28.702  28.673  1.00  0.00     0.167 HD
ATOM     59  C   UNL A   1      45.448  27.723  26.951  1.00  0.00     0.034 A 
ATOM     60  C   UNL A   1      39.719  30.199  30.216  1.00  0.00     0.034 A 
ATOM     61  C   UNL A   1      45.607  29.014  27.574  1.00  0.00     0.049 A 
ATOM     62  C   UNL A   1      41.010  30.978  30.161  1.00  0.00     0.074 A 
ATOM     63  C   UNL A   1      46.729  29.822  27.620  1.00  0.00     0.029 A 
ATOM     64  N   UNL A   1      44.603  29.691  28.255  1.00  0.00    -0.354 N 
ATOM     65  N   UNL A   1      42.152  30.645  29.604  1.00  0.00    -0.248 NA
ATOM     66  C   UNL A   1      41.012  32.300  30.799  1.00  0.00     0.031 C 
ATOM     67  C   UNL A   1      46.416  30.969  28.360  1.00  0.00     0.029 A 
ATOM     68  C   UNL A   1      45.079  30.907  28.721  1.00  0.00     0.049 A 
ATOM     69  H   UNL A   1      43.686  29.358  28.386  1.00  0.00     0.167 HD
ATOM     70  C   UNL A   1      42.997  31.735  29.794  1.00  0.00     0.074 A 
ATOM     71  C   UNL A   1      42.226  32.737  30.500  1.00  0.00     0.031 C 
ATOM     72  C   UNL A   1      44.292  31.895  29.419  1.00  0.00     0.034 A 
BRANCH  59  73
ATOM     73  C   UNL A   1      46.625  27.087  26.250  1.00  0.00     0.023 A 
ATOM     74  C   UNL A   1      47.639  26.430  26.972  1.00  0.00     0.031 A 
ATOM     75  C   UNL A   1      46.771  27.183  24.856  1.00  0.00     0.131 A 
ATOM     76  C   UNL A   1      48.792  25.982  26.313  1.00  0.00     0.055 A 
ATOM     77  C   UNL A   1      47.881  26.652  24.193  1.00  0.00     0.041 A 
ATOM     78  F   UNL A   1      45.850  27.816  24.114  1.00  0.00    -0.206 F 
ATOM     79  C   UNL A   1      48.909  26.064  24.925  1.00  0.00     0.022 A 
BRANCH  76  80
ATOM     80  S   UNL A   1      50.203  25.441  27.316  1.00  0.00     0.124 S 
ATOM     81  O   UNL A   1      51.280  25.439  26.329  1.00  0.00    -0.237 OA
ATOM     82  O   UNL A   1      50.279  26.474  28.342  1.00  0.00    -0.237 OA
ATOM     83  O   UNL A   1      49.799  24.118  27.790  1.00  0.00    -0.744 OA
ENDBRANCH  76  80
ENDBRANCH  59  73
BRANCH  60  84
ATOM     84  C   UNL A   1      38.547  30.717  30.980  1.00  0.00     0.023 A 
ATOM     85  C   UNL A   1      37.490  31.371  30.329  1.00  0.00     0.031 A 
ATOM     86  C   UNL A   1      38.490  30.606  32.379  1.00  0.00     0.131 A 
ATOM     87  C   UNL A   1      36.449  31.940  31.079  1.00  0.00     0.055 A 
ATOM     88  C   UNL A   1      37.426  31.127  33.118  1.00  0.00     0.041 A 
ATOM     89  F   UNL A   1      39.470  29.979  33.052  1.00  0.00    -0.206 F 
ATOM     90  C   UNL A   1      36.405  31.814  32.469  1.00  0.00     0.022 A 
BRANCH  87  91
ATOM     91  S   UNL A   1      35.198  32.931  30.216  1.00  0.00     0.124 S 
ATOM     92  O   UNL A   1      36.003  34.015  29.666  1.00  0.00    -0.237 OA
ATOM     93  O   UNL A   1      34.668  31.972  29.251  1.00  0.00    -0.237 OA
ATOM     94  O   UNL A   1      34.275  33.315  31.281  1.00  0.00    -0.744 OA
ENDBRANCH  87  91
ENDBRANCH  60  84
BRANCH  72  95
ATOM     95  C   UNL A   1      44.927  33.231  29.714  1.00  0.00     0.023 A 
ATOM     96  C   UNL A   1      44.928  34.276  28.775  1.00  0.00     0.031 A 
ATOM     97  C   UNL A   1      45.561  33.450  30.950  1.00  0.00     0.131 A 
ATOM     98  C   UNL A   1      45.609  35.469  29.058  1.00  0.00     0.055 A 
ATOM     99  C   UNL A   1      46.186  34.661  31.250  1.00  0.00     0.041 A 
ATOM    100  F   UNL A   1      45.589  32.486  31.885  1.00  0.00    -0.206 F 
ATOM    101  C   UNL A   1      46.226  35.673  30.295  1.00  0.00     0.022 A 
BRANCH  98 102
ATOM    102  S   UNL A   1      45.769  36.711  27.746  1.00  0.00     0.124 S 
ATOM    103  O   UNL A   1      47.082  37.283  28.028  1.00  0.00    -0.237 OA
ATOM    104  O   UNL A   1      45.674  35.900  26.537  1.00  0.00    -0.237 OA
ATOM    105  O   UNL A   1      44.639  37.607  27.984  1.00  0.00    -0.744 OA
ENDBRANCH  98 102
ENDBRANCH  72  95
ENDBRANCH  46  47
ENDBRANCH  38  41
ENDBRANCH  36  37
ENDBRANCH  35  36
ENDBRANCH   1  35
TORSDOF 20
ENDMDL
MODEL 2
REMARK VINA RESULT:     -11.2      3.304      5.280
REMARK SMILES NC(=O)CC[C@@H](C(=O)NCCCCNC(=O)c1ccc(-c2c3nc(c(-c4cc(S(=O)(=O)[O-])ccc4F)c4ccc([nH]4)c(-c4cc(S(=O)(=O)[O-])ccc4F)c4nc(c(-c5cc(S(=O)(=O)[O-])ccc5F)c5ccc2[nH]5)C=C4)C=C3)cc1)N1C(=O)/C(=C\c2ccc(-c3ccc(Br)cc3)o2)SC1=S
REMARK SMILES IDX 11 1 10 2 9 3 7 4 8 5 6 7 5 8 4 9 2 10 1 11 3 14 80 15 81 16
REMARK SMILES IDX 98 17 82 18 83 19 97 20 99 21 84 22 85 23 86 24 96 25 87 26
REMARK SMILES IDX 88 27 89 28 90 29 95 30 91 31 94 32 92 33 93 34 12 35 13 36
REMARK SMILES IDX 14 37 15 38 16 40 17 41 18 42 79 43 19 44 78 45 20 46 21 47
REMARK SMILES IDX 22 48 72 49 23 50 77 51 71 52 73 53 24 54 76 55 70 56 69 57
REMARK SMILES IDX 25 59 57 60 37 61 56 62 38 63 41 64 55 65 74 66 39 67 40 68
REMARK SMILES IDX 54 70 75 71 42 72 26 73 27 74 35 75 28 76 34 77 36 78 33 79
REMARK SMILES IDX 29 80 30 81 31 82 32 83 58 84 59 85 67 86 60 87 66 88 68 89
REMARK SMILES IDX 65 90 61 91 62 92 63 93 64 94 43 95 44 96 52 97 45 98 51 99
REMARK SMILES IDX 53 100 50 101 46 102 47 103 48 104 49 105
REMARK H PARENT 9 6 1 12 1 13 14 39 73 58 41 69
REMARK Flexibility Score: inf
ROOT
ATOM      1  C   UNL A   1      34.322  24.712  24.686  1.00  0.00     0.023 C 
ENDROOT
BRANCH   1   2
ATOM      2  C   UNL A   1      33.531  24.989  23.405  1.00  0.00     0.116 C 
BRANCH   2   3
ATOM      3  N   UNL A   1      34.046  26.170  22.745  1.00  0.00    -0.354 N 
ATOM      4  C   UNL A   1      33.434  27.321  22.350  1.00  0.00     0.243 C 
ATOM      5  O   UNL A   1      34.146  28.141  21.760  1.00  0.00    -0.273 OA
ATOM      6  H   UNL A   1      35.010  26.134  22.545  1.00  0.00     0.163 HD
BRANCH   4   7
ATOM      7  C   UNL A   1      31.945  27.622  22.682  1.00  0.00     0.181 C 
BRANCH   7   8
ATOM      8  C   UNL A   1      31.389  29.022  22.360  1.00  0.00     0.045 C 
BRANCH   8   9
ATOM      9  C   UNL A   1      30.118  29.537  23.029  1.00  0.00     0.102 C 
BRANCH   9  10
ATOM     10  C   UNL A   1      28.955  29.998  22.176  1.00  0.00     0.217 C 
ATOM     11  N   UNL A   1      27.834  29.236  22.130  1.00  0.00    -0.370 N 
ATOM     12  H   UNL A   1      27.067  29.519  21.582  1.00  0.00     0.159 HD
ATOM     13  H   UNL A   1      27.787  28.398  22.646  1.00  0.00     0.159 HD
ATOM     14  O   UNL A   1      29.035  30.990  21.457  1.00  0.00    -0.275 OA
ENDBRANCH   9  10
ENDBRANCH   8   9
ENDBRANCH   7   8
BRANCH   7  15
ATOM     15  N   UNL A   1      31.791  27.283  24.134  1.00  0.00    -0.280 N 
ATOM     16  C   UNL A   1      32.675  27.888  25.020  1.00  0.00     0.267 C 
ATOM     17  C   UNL A   1      30.767  26.554  24.718  1.00  0.00     0.149 C 
ATOM     18  O   UNL A   1      33.613  28.603  24.689  1.00  0.00    -0.268 OA
ATOM     19  C   UNL A   1      32.340  27.534  26.429  1.00  0.00     0.084 C 
ATOM     20  S   UNL A   1      31.075  26.370  26.443  1.00  0.00    -0.054 SA
ATOM     21  S   UNL A   1      29.401  25.862  24.051  1.00  0.00    -0.052 S 
ATOM     22  C   UNL A   1      32.853  28.027  27.562  1.00  0.00     0.068 C 
BRANCH  22  23
ATOM     23  C   UNL A   1      33.763  29.109  27.594  1.00  0.00     0.128 A 
ATOM     24  C   UNL A   1      35.139  29.084  27.402  1.00  0.00     0.051 A 
ATOM     25  O   UNL A   1      33.382  30.415  27.775  1.00  0.00    -0.457 OA
ATOM     26  C   UNL A   1      35.604  30.416  27.465  1.00  0.00     0.051 A 
ATOM     27  C   UNL A   1      34.497  31.195  27.712  1.00  0.00     0.134 A 
BRANCH  27  28
ATOM     28  C   UNL A   1      34.301  32.620  27.907  1.00  0.00     0.017 A 
ATOM     29  C   UNL A   1      35.394  33.454  28.184  1.00  0.00     0.013 A 
ATOM     30  C   UNL A   1      33.013  33.172  27.874  1.00  0.00     0.013 A 
ATOM     31  C   UNL A   1      35.202  34.815  28.429  1.00  0.00     0.016 A 
ATOM     32  C   UNL A   1      32.818  34.531  28.133  1.00  0.00     0.016 A 
ATOM     33  C   UNL A   1      33.913  35.346  28.410  1.00  0.00     0.018 A 
ATOM     34  Br  UNL A   1      33.651  37.181  28.775  1.00  0.00    -0.051 Br
ENDBRANCH  27  28
ENDBRANCH  22  23
ENDBRANCH   7  15
ENDBRANCH   4   7
ENDBRANCH   2   3
ENDBRANCH   1   2
BRANCH   1  35
ATOM     35  C   UNL A   1      35.196  23.465  24.630  1.00  0.00     0.023 C 
BRANCH  35  36
ATOM     36  C   UNL A   1      35.983  23.208  25.909  1.00  0.00     0.116 C 
BRANCH  36  37
ATOM     37  N   UNL A   1      36.903  22.084  25.809  1.00  0.00    -0.352 N 
ATOM     38  C   UNL A   1      38.258  22.065  26.049  1.00  0.00     0.251 C 
ATOM     39  H   UNL A   1      36.504  21.226  25.537  1.00  0.00     0.163 HD
ATOM     40  O   UNL A   1      38.909  21.049  25.824  1.00  0.00    -0.269 OA
BRANCH  38  41
ATOM     41  C   UNL A   1      38.918  23.296  26.526  1.00  0.00     0.039 A 
ATOM     42  C   UNL A   1      39.970  23.191  27.436  1.00  0.00     0.014 A 
ATOM     43  C   UNL A   1      38.538  24.543  26.022  1.00  0.00     0.014 A 
ATOM     44  C   UNL A   1      40.691  24.334  27.787  1.00  0.00     0.010 A 
ATOM     45  C   UNL A   1      39.313  25.661  26.300  1.00  0.00     0.010 A 
ATOM     46  C   UNL A   1      40.392  25.571  27.194  1.00  0.00    -0.014 A 
BRANCH  46  47
ATOM     47  C   UNL A   1      41.166  26.795  27.523  1.00  0.00     0.031 A 
ATOM     48  C   UNL A   1      42.582  26.930  27.030  1.00  0.00     0.074 A 
ATOM     49  C   UNL A   1      40.623  27.744  28.311  1.00  0.00     0.049 A 
ATOM     50  N   UNL A   1      43.462  27.863  27.282  1.00  0.00    -0.248 NA
ATOM     51  C   UNL A   1      43.084  25.843  26.175  1.00  0.00     0.031 C 
ATOM     52  C   UNL A   1      39.282  27.693  28.899  1.00  0.00     0.029 A 
ATOM     53  N   UNL A   1      41.136  28.932  28.763  1.00  0.00    -0.354 N 
ATOM     54  C   UNL A   1      44.626  27.468  26.631  1.00  0.00     0.074 A 
ATOM     55  C   UNL A   1      44.359  26.172  26.045  1.00  0.00     0.031 C 
ATOM     56  C   UNL A   1      39.072  28.811  29.614  1.00  0.00     0.029 A 
ATOM     57  C   UNL A   1      40.271  29.641  29.564  1.00  0.00     0.049 A 
ATOM     58  H   UNL A   1      42.040  29.250  28.534  1.00  0.00     0.167 HD
ATOM     59  C   UNL A   1      45.798  28.138  26.501  1.00  0.00     0.034 A 
ATOM     60  C   UNL A   1      40.431  30.826  30.187  1.00  0.00     0.034 A 
ATOM     61  C   UNL A   1      46.038  29.439  27.074  1.00  0.00     0.049 A 
ATOM     62  C   UNL A   1      41.728  31.572  30.000  1.00  0.00     0.074 A 
ATOM     63  C   UNL A   1      47.177  30.222  27.001  1.00  0.00     0.029 A 
ATOM     64  N   UNL A   1      45.112  30.156  27.822  1.00  0.00    -0.354 N 
ATOM     65  N   UNL A   1      42.810  31.200  29.354  1.00  0.00    -0.248 NA
ATOM     66  C   UNL A   1      41.815  32.909  30.600  1.00  0.00     0.031 C 
ATOM     67  C   UNL A   1      46.954  31.393  27.736  1.00  0.00     0.029 A 
ATOM     68  C   UNL A   1      45.654  31.371  28.213  1.00  0.00     0.049 A 
ATOM     69  H   UNL A   1      44.203  29.847  28.041  1.00  0.00     0.167 HD
ATOM     70  C   UNL A   1      43.691  32.273  29.441  1.00  0.00     0.074 A 
ATOM     71  C   UNL A   1      43.007  33.310  30.186  1.00  0.00     0.031 C 
ATOM     72  C   UNL A   1      44.952  32.394  28.951  1.00  0.00     0.034 A 
BRANCH  59  73
ATOM     73  C   UNL A   1      46.895  27.458  25.717  1.00  0.00     0.023 A 
ATOM     74  C   UNL A   1      47.260  27.903  24.432  1.00  0.00     0.031 A 
ATOM     75  C   UNL A   1      47.547  26.322  26.226  1.00  0.00     0.131 A 
ATOM     76  C   UNL A   1      48.174  27.165  23.667  1.00  0.00     0.055 A 
ATOM     77  C   UNL A   1      48.525  25.644  25.494  1.00  0.00     0.041 A 
ATOM     78  F   UNL A   1      47.229  25.835  27.436  1.00  0.00    -0.206 F 
ATOM     79  C   UNL A   1      48.829  26.053  24.199  1.00  0.00     0.022 A 
BRANCH  76  80
ATOM     80  S   UNL A   1      48.368  27.586  21.914  1.00  0.00     0.124 S 
ATOM     81  O   UNL A   1      49.502  28.506  21.958  1.00  0.00    -0.237 OA
ATOM     82  O   UNL A   1      48.622  26.287  21.302  1.00  0.00    -0.237 OA
ATOM     83  O   UNL A   1      47.088  28.200  21.566  1.00  0.00    -0.744 OA
ENDBRANCH  76  80
ENDBRANCH  59  73
BRANCH  60  84
ATOM     84  C   UNL A   1      39.341  31.389  31.036  1.00  0.00     0.023 A 
ATOM     85  C   UNL A   1      39.412  31.336  32.436  1.00  0.00     0.031 A 
ATOM     86  C   UNL A   1      38.190  31.949  30.456  1.00  0.00     0.131 A 
ATOM     87  C   UNL A   1      38.329  31.779  33.210  1.00  0.00     0.055 A 
ATOM     88  C   UNL A   1      37.136  32.437  31.231  1.00  0.00     0.041 A 
ATOM     89  F   UNL A   1      38.076  32.036  29.120  1.00  0.00    -0.206 F 
ATOM     90  C   UNL A   1      37.196  32.339  32.618  1.00  0.00     0.022 A 
BRANCH  87  91
ATOM     91  S   UNL A   1      38.385  31.527  35.006  1.00  0.00     0.124 S 
ATOM     92  O   UNL A   1      37.150  32.170  35.437  1.00  0.00    -0.237 OA
ATOM     93  O   UNL A   1      38.418  30.070  35.104  1.00  0.00    -0.237 OA
ATOM     94  O   UNL A   1      39.616  32.204  35.406  1.00  0.00    -0.744 OA
ENDBRANCH  87  91
ENDBRANCH  60  84
BRANCH  72  95
ATOM     95  C   UNL A   1      45.638  33.722  29.155  1.00  0.00     0.023 A 
ATOM     96  C   UNL A   1      45.428  34.807  28.286  1.00  0.00     0.031 A 
ATOM     97  C   UNL A   1      46.534  33.893  30.225  1.00  0.00     0.131 A 
ATOM     98  C   UNL A   1      46.157  35.991  28.462  1.00  0.00     0.055 A 
ATOM     99  C   UNL A   1      47.211  35.095  30.430  1.00  0.00     0.041 A 
ATOM    100  F   UNL A   1      46.770  32.889  31.086  1.00  0.00    -0.206 F 
ATOM    101  C   UNL A   1      47.037  36.147  29.536  1.00  0.00     0.022 A 
BRANCH  98 102
ATOM    102  S   UNL A   1      46.020  37.291  27.204  1.00  0.00     0.124 S 
ATOM    103  O   UNL A   1      46.957  38.295  27.700  1.00  0.00    -0.237 OA
ATOM    104  O   UNL A   1      46.421  36.591  25.989  1.00  0.00    -0.237 OA
ATOM    105  O   UNL A   1      44.611  37.676  27.263  1.00  0.00    -0.744 OA
ENDBRANCH  98 102
ENDBRANCH  72  95
ENDBRANCH  46  47
ENDBRANCH  38  41
ENDBRANCH  36  37
ENDBRANCH  35  36
ENDBRANCH   1  35
TORSDOF 20
ENDMDL
MODEL 3
REMARK VINA RESULT:     -11.1      3.422      8.579
REMARK SMILES NC(=O)CC[C@@H](C(=O)NCCCCNC(=O)c1ccc(-c2c3nc(c(-c4cc(S(=O)(=O)[O-])ccc4F)c4ccc([nH]4)c(-c4cc(S(=O)(=O)[O-])ccc4F)c4nc(c(-c5cc(S(=O)(=O)[O-])ccc5F)c5ccc2[nH]5)C=C4)C=C3)cc1)N1C(=O)/C(=C\c2ccc(-c3ccc(Br)cc3)o2)SC1=S
REMARK SMILES IDX 11 1 10 2 9 3 7 4 8 5 6 7 5 8 4 9 2 10 1 11 3 14 80 15 81 16
REMARK SMILES IDX 98 17 82 18 83 19 97 20 99 21 84 22 85 23 86 24 96 25 87 26
REMARK SMILES IDX 88 27 89 28 90 29 95 30 91 31 94 32 92 33 93 34 12 35 13 36
REMARK SMILES IDX 14 37 15 38 16 40 17 41 18 42 79 43 19 44 78 45 20 46 21 47
REMARK SMILES IDX 22 48 72 49 23 50 77 51 71 52 73 53 24 54 76 55 70 56 69 57
REMARK SMILES IDX 25 59 57 60 37 61 56 62 38 63 41 64 55 65 74 66 39 67 40 68
REMARK SMILES IDX 54 70 75 71 42 72 26 73 27 74 35 75 28 76 34 77 36 78 33 79
REMARK SMILES IDX 29 80 30 81 31 82 32 83 58 84 59 85 67 86 60 87 66 88 68 89
REMARK SMILES IDX 65 90 61 91 62 92 63 93 64 94 43 95 44 96 52 97 45 98 51 99
REMARK SMILES IDX 53 100 50 101 46 102 47 103 48 104 49 105
REMARK H PARENT 9 6 1 12 1 13 14 39 73 58 41 69
REMARK Flexibility Score: inf
ROOT
ATOM      1  C   UNL A   1      34.189  24.574  24.623  1.00  0.00     0.023 C 
ENDROOT
BRANCH   1   2
ATOM      2  C   UNL A   1      33.490  24.849  23.289  1.00  0.00     0.116 C 
BRANCH   2   3
ATOM      3  N   UNL A   1      34.030  26.047  22.679  1.00  0.00    -0.354 N 
ATOM      4  C   UNL A   1      33.439  27.220  22.321  1.00  0.00     0.243 C 
ATOM      5  O   UNL A   1      34.169  28.051  21.770  1.00  0.00    -0.273 OA
ATOM      6  H   UNL A   1      34.995  26.004  22.489  1.00  0.00     0.163 HD
BRANCH   4   7
ATOM      7  C   UNL A   1      31.950  27.530  22.647  1.00  0.00     0.181 C 
BRANCH   7   8
ATOM      8  C   UNL A   1      31.400  28.929  22.309  1.00  0.00     0.045 C 
BRANCH   8   9
ATOM      9  C   UNL A   1      30.105  29.436  22.935  1.00  0.00     0.102 C 
BRANCH   9  10
ATOM     10  C   UNL A   1      29.056  30.092  22.062  1.00  0.00     0.217 C 
ATOM     11  N   UNL A   1      29.446  31.027  21.161  1.00  0.00    -0.370 N 
ATOM     12  H   UNL A   1      28.778  31.465  20.584  1.00  0.00     0.159 HD
ATOM     13  H   UNL A   1      30.397  31.269  21.082  1.00  0.00     0.159 HD
ATOM     14  O   UNL A   1      27.858  29.868  22.213  1.00  0.00    -0.275 OA
ENDBRANCH   9  10
ENDBRANCH   8   9
ENDBRANCH   7   8
BRANCH   7  15
ATOM     15  N   UNL A   1      31.792  27.207  24.102  1.00  0.00    -0.280 N 
ATOM     16  C   UNL A   1      32.669  27.827  24.984  1.00  0.00     0.267 C 
ATOM     17  C   UNL A   1      30.769  26.478  24.690  1.00  0.00     0.149 C 
ATOM     18  O   UNL A   1      33.604  28.542  24.649  1.00  0.00    -0.268 OA
ATOM     19  C   UNL A   1      32.330  27.487  26.396  1.00  0.00     0.084 C 
ATOM     20  S   UNL A   1      31.072  26.316  26.418  1.00  0.00    -0.054 SA
ATOM     21  S   UNL A   1      29.410  25.772  24.026  1.00  0.00    -0.052 S 
ATOM     22  C   UNL A   1      32.836  27.995  27.526  1.00  0.00     0.068 C 
BRANCH  22  23
ATOM     23  C   UNL A   1      33.740  29.082  27.548  1.00  0.00     0.128 A 
ATOM     24  C   UNL A   1      35.099  29.080  27.259  1.00  0.00     0.051 A 
ATOM     25  O   UNL A   1      33.365  30.375  27.823  1.00  0.00    -0.457 OA
ATOM     26  C   UNL A   1      35.560  30.411  27.357  1.00  0.00     0.051 A 
ATOM     27  C   UNL A   1      34.469  31.167  27.722  1.00  0.00     0.134 A 
BRANCH  27  28
ATOM     28  C   UNL A   1      34.279  32.578  28.003  1.00  0.00     0.017 A 
ATOM     29  C   UNL A   1      32.990  33.129  28.021  1.00  0.00     0.013 A 
ATOM     30  C   UNL A   1      35.382  33.417  28.210  1.00  0.00     0.013 A 
ATOM     31  C   UNL A   1      32.806  34.497  28.235  1.00  0.00     0.016 A 
ATOM     32  C   UNL A   1      35.202  34.788  28.411  1.00  0.00     0.016 A 
ATOM     33  C   UNL A   1      33.915  35.322  28.421  1.00  0.00     0.018 A 
ATOM     34  Br  UNL A   1      33.668  37.177  28.677  1.00  0.00    -0.051 Br
ENDBRANCH  27  28
ENDBRANCH  22  23
ENDBRANCH   7  15
ENDBRANCH   4   7
ENDBRANCH   2   3
ENDBRANCH   1   2
BRANCH   1  35
ATOM     35  C   UNL A   1      35.475  23.765  24.506  1.00  0.00     0.023 C 
BRANCH  35  36
ATOM     36  C   UNL A   1      36.099  23.405  25.849  1.00  0.00     0.116 C 
BRANCH  36  37
ATOM     37  N   UNL A   1      36.921  22.205  25.804  1.00  0.00    -0.352 N 
ATOM     38  C   UNL A   1      38.267  22.080  26.070  1.00  0.00     0.251 C 
ATOM     39  H   UNL A   1      36.456  21.375  25.552  1.00  0.00     0.163 HD
ATOM     40  O   UNL A   1      38.832  21.005  25.891  1.00  0.00    -0.269 OA
BRANCH  38  41
ATOM     41  C   UNL A   1      39.020  23.267  26.518  1.00  0.00     0.039 A 
ATOM     42  C   UNL A   1      39.984  23.120  27.517  1.00  0.00     0.014 A 
ATOM     43  C   UNL A   1      38.819  24.507  25.905  1.00  0.00     0.014 A 
ATOM     44  C   UNL A   1      40.798  24.204  27.850  1.00  0.00     0.010 A 
ATOM     45  C   UNL A   1      39.689  25.555  26.173  1.00  0.00     0.010 A 
ATOM     46  C   UNL A   1      40.682  25.418  27.156  1.00  0.00    -0.014 A 
BRANCH  46  47
ATOM     47  C   UNL A   1      41.559  26.575  27.467  1.00  0.00     0.031 A 
ATOM     48  C   UNL A   1      41.028  27.700  28.315  1.00  0.00     0.074 A 
ATOM     49  C   UNL A   1      42.797  26.644  26.938  1.00  0.00     0.049 A 
ATOM     50  N   UNL A   1      41.586  28.840  28.624  1.00  0.00    -0.248 NA
ATOM     51  C   UNL A   1      39.667  27.532  28.847  1.00  0.00     0.031 C 
ATOM     52  C   UNL A   1      43.398  25.643  26.052  1.00  0.00     0.029 A 
ATOM     53  N   UNL A   1      43.770  27.602  27.061  1.00  0.00    -0.354 N 
ATOM     54  C   UNL A   1      40.640  29.533  29.372  1.00  0.00     0.074 A 
ATOM     55  C   UNL A   1      39.445  28.715  29.396  1.00  0.00     0.031 C 
ATOM     56  C   UNL A   1      44.643  26.031  25.731  1.00  0.00     0.029 A 
ATOM     57  C   UNL A   1      44.919  27.319  26.359  1.00  0.00     0.049 A 
ATOM     58  H   UNL A   1      43.658  28.416  27.603  1.00  0.00     0.167 HD
ATOM     59  C   UNL A   1      40.764  30.722  30.011  1.00  0.00     0.034 A 
ATOM     60  C   UNL A   1      46.062  28.022  26.236  1.00  0.00     0.034 A 
ATOM     61  C   UNL A   1      41.970  31.513  29.993  1.00  0.00     0.049 A 
ATOM     62  C   UNL A   1      46.194  29.324  26.985  1.00  0.00     0.074 A 
ATOM     63  C   UNL A   1      42.220  32.725  30.611  1.00  0.00     0.029 A 
ATOM     64  N   UNL A   1      43.136  31.159  29.327  1.00  0.00    -0.354 N 
ATOM     65  N   UNL A   1      45.300  29.952  27.715  1.00  0.00    -0.248 NA
ATOM     66  C   UNL A   1      47.497  29.998  26.917  1.00  0.00     0.031 C 
ATOM     67  C   UNL A   1      43.523  33.124  30.287  1.00  0.00     0.029 A 
ATOM     68  C   UNL A   1      44.109  32.129  29.521  1.00  0.00     0.049 A 
ATOM     69  H   UNL A   1      43.256  30.339  28.795  1.00  0.00     0.167 HD
ATOM     70  C   UNL A   1      45.946  31.075  28.222  1.00  0.00     0.074 A 
ATOM     71  C   UNL A   1      47.307  31.028  27.727  1.00  0.00     0.031 C 
ATOM     72  C   UNL A   1      45.462  32.059  29.023  1.00  0.00     0.034 A 
BRANCH  59  73
ATOM     73  C   UNL A   1      39.556  31.226  30.766  1.00  0.00     0.023 A 
ATOM     74  C   UNL A   1      39.527  31.240  32.173  1.00  0.00     0.031 A 
ATOM     75  C   UNL A   1      38.402  31.644  30.082  1.00  0.00     0.131 A 
ATOM     76  C   UNL A   1      38.343  31.569  32.847  1.00  0.00     0.055 A 
ATOM     77  C   UNL A   1      37.254  32.061  30.762  1.00  0.00     0.041 A 
ATOM     78  F   UNL A   1      38.360  31.634  28.741  1.00  0.00    -0.206 F 
ATOM     79  C   UNL A   1      37.214  32.006  32.152  1.00  0.00     0.022 A 
BRANCH  76  80
ATOM     80  S   UNL A   1      38.253  31.262  34.632  1.00  0.00     0.124 S 
ATOM     81  O   UNL A   1      39.545  31.772  35.083  1.00  0.00    -0.237 OA
ATOM     82  O   UNL A   1      37.085  32.039  35.030  1.00  0.00    -0.237 OA
ATOM     83  O   UNL A   1      38.097  29.811  34.722  1.00  0.00    -0.744 OA
ENDBRANCH  76  80
ENDBRANCH  59  73
BRANCH  60  84
ATOM     84  C   UNL A   1      47.177  27.514  25.385  1.00  0.00     0.023 A 
ATOM     85  C   UNL A   1      47.305  27.912  24.045  1.00  0.00     0.031 A 
ATOM     86  C   UNL A   1      48.105  26.587  25.888  1.00  0.00     0.131 A 
ATOM     87  C   UNL A   1      48.301  27.342  23.237  1.00  0.00     0.055 A 
ATOM     88  C   UNL A   1      49.127  26.061  25.094  1.00  0.00     0.041 A 
ATOM     89  F   UNL A   1      48.036  26.181  27.167  1.00  0.00    -0.206 F 
ATOM     90  C   UNL A   1      49.218  26.427  23.755  1.00  0.00     0.022 A 
BRANCH  87  91
ATOM     91  S   UNL A   1      48.318  27.746  21.468  1.00  0.00     0.124 S 
ATOM     92  O   UNL A   1      49.405  28.715  21.394  1.00  0.00    -0.237 OA
ATOM     93  O   UNL A   1      48.579  26.442  20.865  1.00  0.00    -0.237 OA
ATOM     94  O   UNL A   1      46.982  28.285  21.230  1.00  0.00    -0.744 OA
ENDBRANCH  87  91
ENDBRANCH  60  84
BRANCH  72  95
ATOM     95  C   UNL A   1      46.437  33.123  29.461  1.00  0.00     0.023 A 
ATOM     96  C   UNL A   1      46.638  34.298  28.717  1.00  0.00     0.031 A 
ATOM     97  C   UNL A   1      47.194  32.943  30.633  1.00  0.00     0.131 A 
ATOM     98  C   UNL A   1      47.621  35.216  29.114  1.00  0.00     0.055 A 
ATOM     99  C   UNL A   1      48.128  33.888  31.055  1.00  0.00     0.041 A 
ATOM    100  F   UNL A   1      47.041  31.839  31.382  1.00  0.00    -0.206 F 
ATOM    101  C   UNL A   1      48.357  35.025  30.286  1.00  0.00     0.022 A 
BRANCH  98 102
ATOM    102  S   UNL A   1      47.999  36.612  28.020  1.00  0.00     0.124 S 
ATOM    103  O   UNL A   1      47.198  37.683  28.605  1.00  0.00    -0.237 OA
ATOM    104  O   UNL A   1      49.444  36.743  28.172  1.00  0.00    -0.237 OA
ATOM    105  O   UNL A   1      47.552  36.150  26.707  1.00  0.00    -0.744 OA
ENDBRANCH  98 102
ENDBRANCH  72  95
ENDBRANCH  46  47
ENDBRANCH  38  41
ENDBRANCH  36  37
ENDBRANCH  35  36
ENDBRANCH   1  35
TORSDOF 20
ENDMDL
