MODEL 1
REMARK VINA RESULT:     -12.3      0.000      0.000
REMARK SMILES Cc1ccc2oc(C(=O)N[C@@H]3C=C[C@H](C(=O)NCCCCNC(=O)c4ccc(-c5c6nc(c(-c7cc(S(=O)(=O)[O-])ccc7F)c7ccc([nH]7)c(-c7cc(S(=O)(=O)[O-])ccc7F)c7nc(c(-c8cc(S(=O)(=O)[O-])ccc8F)c8ccc5[nH]8)C=C7)C=C6)cc4)C3)cc2c1
REMARK SMILES IDX 20 1 19 2 18 3 17 4 15 5 16 6 14 8 11 9 12 10 88 11 13 12
REMARK SMILES IDX 10 13 8 14 9 15 7 17 1 18 2 19 3 20 91 21 4 22 90 23 5 24
REMARK SMILES IDX 89 25 6 26 21 27 22 28 23 29 24 31 25 32 26 33 87 34 27 35
REMARK SMILES IDX 86 36 28 37 29 38 30 39 80 40 31 41 85 42 79 43 81 44 32 45
REMARK SMILES IDX 84 46 78 47 77 48 33 50 65 51 45 52 64 53 46 54 49 55 63 56
REMARK SMILES IDX 82 57 47 58 48 59 62 61 83 62 50 63 34 64 35 65 43 66 36 67
REMARK SMILES IDX 42 68 44 69 41 70 37 71 38 72 39 73 40 74 66 75 67 76 75 77
REMARK SMILES IDX 68 78 74 79 76 80 73 81 69 82 70 83 71 84 72 85 51 86 52 87
REMARK SMILES IDX 60 88 53 89 59 90 61 91 58 92 54 93 55 94 56 95 57 96
REMARK H PARENT 17 7 10 16 22 30 81 49 49 60
REMARK Flexibility Score: inf
ROOT
ATOM      1  C   UNL A   1      36.592  21.815  24.194  1.00  0.00     0.023 C 
ENDROOT
BRANCH   1   2
ATOM      2  C   UNL A   1      36.306  23.106  23.410  1.00  0.00     0.023 C 
BRANCH   2   3
ATOM      3  C   UNL A   1      34.907  23.707  23.564  1.00  0.00     0.116 C 
BRANCH   3   4
ATOM      4  N   UNL A   1      34.781  24.644  24.662  1.00  0.00    -0.356 N 
ATOM      5  C   UNL A   1      34.073  25.793  24.826  1.00  0.00     0.227 C 
ATOM      6  O   UNL A   1      34.029  26.209  25.991  1.00  0.00    -0.274 OA
ATOM      7  H   UNL A   1      35.318  24.399  25.450  1.00  0.00     0.163 HD
BRANCH   5   8
ATOM      8  C   UNL A   1      33.467  26.642  23.672  1.00  0.00     0.103 C 
ATOM      9  C   UNL A   1      31.048  27.185  23.870  1.00  0.00     0.106 C 
ATOM     10  C   UNL A   1      31.315  26.303  22.711  1.00  0.00    -0.006 C 
ATOM     11  C   UNL A   1      32.456  27.665  24.261  1.00  0.00     0.047 C 
ATOM     12  C   UNL A   1      32.626  26.040  22.577  1.00  0.00    -0.016 C 
BRANCH   9  13
ATOM     13  N   UNL A   1      30.233  26.649  24.961  1.00  0.00    -0.343 N 
ATOM     14  C   UNL A   1      30.064  25.515  25.720  1.00  0.00     0.287 C 
ATOM     15  O   UNL A   1      29.101  25.572  26.507  1.00  0.00    -0.266 OA
ATOM     16  H   UNL A   1      29.586  27.333  25.249  1.00  0.00     0.164 HD
BRANCH  14  17
ATOM     17  C   UNL A   1      30.885  24.333  25.602  1.00  0.00     0.192 A 
ATOM     18  C   UNL A   1      33.550  19.023  24.642  1.00  0.00     0.044 C 
ATOM     19  C   UNL A   1      33.170  20.361  25.208  1.00  0.00    -0.050 A 
ATOM     20  C   UNL A   1      33.690  20.831  26.424  1.00  0.00     0.007 A 
ATOM     21  C   UNL A   1      32.234  21.133  24.518  1.00  0.00     0.015 A 
ATOM     22  C   UNL A   1      33.272  22.051  26.996  1.00  0.00     0.048 A 
ATOM     23  C   UNL A   1      31.857  22.373  25.046  1.00  0.00     0.021 A 
ATOM     24  C   UNL A   1      32.330  22.782  26.279  1.00  0.00     0.135 A 
ATOM     25  C   UNL A   1      31.081  23.439  24.582  1.00  0.00     0.065 A 
ATOM     26  O   UNL A   1      31.728  23.962  26.638  1.00  0.00    -0.451 OA
ENDBRANCH  14  17
ENDBRANCH   9  13
ENDBRANCH   5   8
ENDBRANCH   3   4
ENDBRANCH   2   3
ENDBRANCH   1   2
BRANCH   1  27
ATOM     27  C   UNL A   1      37.104  21.960  25.632  1.00  0.00     0.116 C 
BRANCH  27  28
ATOM     28  N   UNL A   1      38.252  21.117  25.924  1.00  0.00    -0.352 N 
ATOM     29  C   UNL A   1      39.501  21.415  26.421  1.00  0.00     0.251 C 
ATOM     30  H   UNL A   1      38.111  20.162  25.733  1.00  0.00     0.163 HD
ATOM     31  O   UNL A   1      40.324  20.502  26.495  1.00  0.00    -0.269 OA
BRANCH  29  32
ATOM     32  C   UNL A   1      39.896  22.790  26.828  1.00  0.00     0.039 A 
ATOM     33  C   UNL A   1      40.753  22.936  27.927  1.00  0.00     0.014 A 
ATOM     34  C   UNL A   1      39.405  23.936  26.196  1.00  0.00     0.014 A 
ATOM     35  C   UNL A   1      41.174  24.208  28.337  1.00  0.00     0.010 A 
ATOM     36  C   UNL A   1      39.872  25.204  26.571  1.00  0.00     0.010 A 
ATOM     37  C   UNL A   1      40.770  25.356  27.639  1.00  0.00    -0.014 A 
BRANCH  37  38
ATOM     38  C   UNL A   1      41.299  26.702  28.009  1.00  0.00     0.031 A 
ATOM     39  C   UNL A   1      42.724  27.085  27.705  1.00  0.00     0.074 A 
ATOM     40  C   UNL A   1      40.499  27.580  28.650  1.00  0.00     0.049 A 
ATOM     41  N   UNL A   1      43.362  28.196  27.980  1.00  0.00    -0.248 NA
ATOM     42  C   UNL A   1      43.546  26.078  27.020  1.00  0.00     0.031 C 
ATOM     43  C   UNL A   1      39.110  27.328  29.036  1.00  0.00     0.029 A 
ATOM     44  N   UNL A   1      40.738  28.859  29.095  1.00  0.00    -0.354 N 
ATOM     45  C   UNL A   1      44.657  28.026  27.500  1.00  0.00     0.074 A 
ATOM     46  C   UNL A   1      44.726  26.678  26.972  1.00  0.00     0.031 C 
ATOM     47  C   UNL A   1      38.614  28.422  29.638  1.00  0.00     0.029 A 
ATOM     48  C   UNL A   1      39.655  29.441  29.715  1.00  0.00     0.049 A 
ATOM     49  H   UNL A   1      41.602  29.315  28.980  1.00  0.00     0.167 HD
ATOM     50  C   UNL A   1      45.685  28.913  27.476  1.00  0.00     0.034 A 
ATOM     51  C   UNL A   1      39.516  30.654  30.288  1.00  0.00     0.034 A 
ATOM     52  C   UNL A   1      45.614  30.254  28.010  1.00  0.00     0.049 A 
ATOM     53  C   UNL A   1      40.680  31.613  30.273  1.00  0.00     0.074 A 
ATOM     54  C   UNL A   1      46.595  31.232  28.025  1.00  0.00     0.029 A 
ATOM     55  N   UNL A   1      44.498  30.809  28.623  1.00  0.00    -0.354 N 
ATOM     56  N   UNL A   1      41.886  31.442  29.782  1.00  0.00    -0.248 NA
ATOM     57  C   UNL A   1      40.457  32.935  30.873  1.00  0.00     0.031 C 
ATOM     58  C   UNL A   1      46.091  32.356  28.691  1.00  0.00     0.029 A 
ATOM     59  C   UNL A   1      44.773  32.106  29.032  1.00  0.00     0.049 A 
ATOM     60  H   UNL A   1      43.637  30.348  28.748  1.00  0.00     0.167 HD
ATOM     61  C   UNL A   1      42.551  32.649  29.986  1.00  0.00     0.074 A 
ATOM     62  C   UNL A   1      41.607  33.542  30.624  1.00  0.00     0.031 C 
ATOM     63  C   UNL A   1      43.827  32.988  29.673  1.00  0.00     0.034 A 
BRANCH  50  64
ATOM     64  C   UNL A   1      46.984  28.446  26.863  1.00  0.00     0.023 A 
ATOM     65  C   UNL A   1      47.142  28.354  25.468  1.00  0.00     0.031 A 
ATOM     66  C   UNL A   1      48.070  28.070  27.674  1.00  0.00     0.131 A 
ATOM     67  C   UNL A   1      48.326  27.828  24.929  1.00  0.00     0.055 A 
ATOM     68  C   UNL A   1      49.275  27.622  27.128  1.00  0.00     0.041 A 
ATOM     69  F   UNL A   1      47.974  28.122  29.011  1.00  0.00    -0.206 F 
ATOM     70  C   UNL A   1      49.403  27.485  25.749  1.00  0.00     0.022 A 
BRANCH  67  71
ATOM     71  S   UNL A   1      48.387  27.479  23.151  1.00  0.00     0.124 S 
ATOM     72  O   UNL A   1      48.301  26.020  23.135  1.00  0.00    -0.237 OA
ATOM     73  O   UNL A   1      47.220  28.193  22.647  1.00  0.00    -0.237 OA
ATOM     74  O   UNL A   1      49.679  28.023  22.738  1.00  0.00    -0.744 OA
ENDBRANCH  67  71
ENDBRANCH  50  64
BRANCH  51  75
ATOM     75  C   UNL A   1      38.230  31.047  30.935  1.00  0.00     0.023 A 
ATOM     76  C   UNL A   1      37.218  31.689  30.202  1.00  0.00     0.031 A 
ATOM     77  C   UNL A   1      38.023  30.849  32.311  1.00  0.00     0.131 A 
ATOM     78  C   UNL A   1      36.074  32.165  30.858  1.00  0.00     0.055 A 
ATOM     79  C   UNL A   1      36.856  31.276  32.950  1.00  0.00     0.041 A 
ATOM     80  F   UNL A   1      38.954  30.237  33.058  1.00  0.00    -0.206 F 
ATOM     81  C   UNL A   1      35.880  31.954  32.225  1.00  0.00     0.022 A 
BRANCH  78  82
ATOM     82  S   UNL A   1      34.886  33.162  29.916  1.00  0.00     0.124 S 
ATOM     83  O   UNL A   1      34.285  32.162  29.041  1.00  0.00    -0.237 OA
ATOM     84  O   UNL A   1      34.029  33.687  30.973  1.00  0.00    -0.237 OA
ATOM     85  O   UNL A   1      35.727  34.152  29.248  1.00  0.00    -0.744 OA
ENDBRANCH  78  82
ENDBRANCH  51  75
BRANCH  63  86
ATOM     86  C   UNL A   1      44.248  34.407  29.975  1.00  0.00     0.023 A 
ATOM     87  C   UNL A   1      44.030  35.455  29.063  1.00  0.00     0.031 A 
ATOM     88  C   UNL A   1      44.914  34.705  31.177  1.00  0.00     0.131 A 
ATOM     89  C   UNL A   1      44.533  36.736  29.335  1.00  0.00     0.055 A 
ATOM     90  C   UNL A   1      45.361  35.995  31.470  1.00  0.00     0.041 A 
ATOM     91  F   UNL A   1      45.150  33.744  32.084  1.00  0.00    -0.206 F 
ATOM     92  C   UNL A   1      45.186  37.015  30.538  1.00  0.00     0.022 A 
BRANCH  89  93
ATOM     93  S   UNL A   1      44.417  38.010  28.048  1.00  0.00     0.124 S 
ATOM     94  O   UNL A   1      45.492  38.922  28.424  1.00  0.00    -0.237 OA
ATOM     95  O   UNL A   1      44.631  37.240  26.827  1.00  0.00    -0.237 OA
ATOM     96  O   UNL A   1      43.066  38.543  28.215  1.00  0.00    -0.744 OA
ENDBRANCH  89  93
ENDBRANCH  63  86
ENDBRANCH  37  38
ENDBRANCH  29  32
ENDBRANCH  27  28
ENDBRANCH   1  27
TORSDOF 16
ENDMDL
MODEL 2
REMARK VINA RESULT:     -12.2      1.779      2.391
REMARK SMILES Cc1ccc2oc(C(=O)N[C@@H]3C=C[C@H](C(=O)NCCCCNC(=O)c4ccc(-c5c6nc(c(-c7cc(S(=O)(=O)[O-])ccc7F)c7ccc([nH]7)c(-c7cc(S(=O)(=O)[O-])ccc7F)c7nc(c(-c8cc(S(=O)(=O)[O-])ccc8F)c8ccc5[nH]8)C=C7)C=C6)cc4)C3)cc2c1
REMARK SMILES IDX 20 1 19 2 18 3 17 4 15 5 16 6 14 8 11 9 12 10 88 11 13 12
REMARK SMILES IDX 10 13 8 14 9 15 7 17 1 18 2 19 3 20 91 21 4 22 90 23 5 24
REMARK SMILES IDX 89 25 6 26 21 27 22 28 23 29 24 31 25 32 26 33 87 34 27 35
REMARK SMILES IDX 86 36 28 37 29 38 30 39 80 40 31 41 85 42 79 43 81 44 32 45
REMARK SMILES IDX 84 46 78 47 77 48 33 50 65 51 45 52 64 53 46 54 49 55 63 56
REMARK SMILES IDX 82 57 47 58 48 59 62 61 83 62 50 63 34 64 35 65 43 66 36 67
REMARK SMILES IDX 42 68 44 69 41 70 37 71 38 72 39 73 40 74 66 75 67 76 75 77
REMARK SMILES IDX 68 78 74 79 76 80 73 81 69 82 70 83 71 84 72 85 51 86 52 87
REMARK SMILES IDX 60 88 53 89 59 90 61 91 58 92 54 93 55 94 56 95 57 96
REMARK H PARENT 17 7 10 16 22 30 81 49 49 60
REMARK Flexibility Score: inf
ROOT
ATOM      1  C   UNL A   1      35.551  22.437  26.450  1.00  0.00     0.023 C 
ENDROOT
BRANCH   1   2
ATOM      2  C   UNL A   1      34.125  22.899  26.113  1.00  0.00     0.023 C 
BRANCH   2   3
ATOM      3  C   UNL A   1      33.910  24.404  25.949  1.00  0.00     0.116 C 
BRANCH   3   4
ATOM      4  N   UNL A   1      32.608  24.869  26.383  1.00  0.00    -0.356 N 
ATOM      5  C   UNL A   1      32.042  26.103  26.462  1.00  0.00     0.227 C 
ATOM      6  O   UNL A   1      30.821  26.096  26.664  1.00  0.00    -0.274 OA
ATOM      7  H   UNL A   1      32.012  24.145  26.681  1.00  0.00     0.163 HD
BRANCH   5   8
ATOM      8  C   UNL A   1      32.823  27.448  26.454  1.00  0.00     0.103 C 
ATOM      9  C   UNL A   1      31.843  29.272  25.077  1.00  0.00     0.106 C 
ATOM     10  C   UNL A   1      33.149  28.827  24.541  1.00  0.00    -0.006 C 
ATOM     11  C   UNL A   1      31.815  28.630  26.474  1.00  0.00     0.047 C 
ATOM     12  C   UNL A   1      33.702  27.869  25.305  1.00  0.00    -0.016 C 
BRANCH   9  13
ATOM     13  N   UNL A   1      30.656  29.050  24.250  1.00  0.00    -0.343 N 
ATOM     14  C   UNL A   1      30.059  28.096  23.459  1.00  0.00     0.287 C 
ATOM     15  O   UNL A   1      29.028  28.489  22.884  1.00  0.00    -0.266 OA
ATOM     16  H   UNL A   1      30.094  29.858  24.266  1.00  0.00     0.164 HD
BRANCH  14  17
ATOM     17  C   UNL A   1      30.587  26.767  23.259  1.00  0.00     0.192 A 
ATOM     18  C   UNL A   1      32.352  21.012  23.265  1.00  0.00     0.044 C 
ATOM     19  C   UNL A   1      32.260  22.489  23.009  1.00  0.00    -0.050 A 
ATOM     20  C   UNL A   1      33.281  23.198  22.357  1.00  0.00     0.007 A 
ATOM     21  C   UNL A   1      31.142  23.178  23.482  1.00  0.00     0.015 A 
ATOM     22  C   UNL A   1      33.233  24.597  22.190  1.00  0.00     0.048 A 
ATOM     23  C   UNL A   1      31.055  24.558  23.268  1.00  0.00     0.021 A 
ATOM     24  C   UNL A   1      32.104  25.243  22.686  1.00  0.00     0.135 A 
ATOM     25  C   UNL A   1      30.060  25.518  23.469  1.00  0.00     0.065 A 
ATOM     26  O   UNL A   1      31.841  26.591  22.695  1.00  0.00    -0.451 OA
ENDBRANCH  14  17
ENDBRANCH   9  13
ENDBRANCH   5   8
ENDBRANCH   3   4
ENDBRANCH   2   3
ENDBRANCH   1   2
BRANCH   1  27
ATOM     27  C   UNL A   1      36.547  22.311  25.291  1.00  0.00     0.116 C 
BRANCH  27  28
ATOM     28  N   UNL A   1      37.633  21.383  25.560  1.00  0.00    -0.352 N 
ATOM     29  C   UNL A   1      38.890  21.577  26.086  1.00  0.00     0.251 C 
ATOM     30  H   UNL A   1      37.433  20.448  25.325  1.00  0.00     0.163 HD
ATOM     31  O   UNL A   1      39.651  20.609  26.131  1.00  0.00    -0.269 OA
BRANCH  29  32
ATOM     32  C   UNL A   1      39.367  22.904  26.558  1.00  0.00     0.039 A 
ATOM     33  C   UNL A   1      40.347  22.939  27.560  1.00  0.00     0.014 A 
ATOM     34  C   UNL A   1      38.842  24.109  26.085  1.00  0.00     0.014 A 
ATOM     35  C   UNL A   1      40.846  24.162  28.024  1.00  0.00     0.010 A 
ATOM     36  C   UNL A   1      39.383  25.332  26.508  1.00  0.00     0.010 A 
ATOM     37  C   UNL A   1      40.399  25.374  27.475  1.00  0.00    -0.014 A 
BRANCH  37  38
ATOM     38  C   UNL A   1      41.004  26.673  27.893  1.00  0.00     0.031 A 
ATOM     39  C   UNL A   1      42.456  26.975  27.623  1.00  0.00     0.074 A 
ATOM     40  C   UNL A   1      40.250  27.580  28.548  1.00  0.00     0.049 A 
ATOM     41  N   UNL A   1      43.157  28.036  27.940  1.00  0.00    -0.248 NA
ATOM     42  C   UNL A   1      43.225  25.938  26.920  1.00  0.00     0.031 C 
ATOM     43  C   UNL A   1      38.841  27.405  28.905  1.00  0.00     0.029 A 
ATOM     44  N   UNL A   1      40.560  28.828  29.034  1.00  0.00    -0.354 N 
ATOM     45  C   UNL A   1      44.446  27.799  27.475  1.00  0.00     0.074 A 
ATOM     46  C   UNL A   1      44.440  26.465  26.908  1.00  0.00     0.031 C 
ATOM     47  C   UNL A   1      38.404  28.510  29.531  1.00  0.00     0.029 A 
ATOM     48  C   UNL A   1      39.504  29.459  29.655  1.00  0.00     0.049 A 
ATOM     49  H   UNL A   1      41.452  29.233  28.946  1.00  0.00     0.167 HD
ATOM     50  C   UNL A   1      45.528  28.621  27.493  1.00  0.00     0.034 A 
ATOM     51  C   UNL A   1      39.431  30.661  30.261  1.00  0.00     0.034 A 
ATOM     52  C   UNL A   1      45.530  29.947  28.065  1.00  0.00     0.049 A 
ATOM     53  C   UNL A   1      40.653  31.546  30.292  1.00  0.00     0.074 A 
ATOM     54  C   UNL A   1      46.570  30.861  28.125  1.00  0.00     0.029 A 
ATOM     55  N   UNL A   1      44.441  30.553  28.677  1.00  0.00    -0.354 N 
ATOM     56  N   UNL A   1      41.853  31.315  29.815  1.00  0.00    -0.248 NA
ATOM     57  C   UNL A   1      40.501  32.861  30.928  1.00  0.00     0.031 C 
ATOM     58  C   UNL A   1      46.126  31.995  28.816  1.00  0.00     0.029 A 
ATOM     59  C   UNL A   1      44.789  31.818  29.129  1.00  0.00     0.049 A 
ATOM     60  H   UNL A   1      43.551  30.144  28.776  1.00  0.00     0.167 HD
ATOM     61  C   UNL A   1      42.588  32.471  30.064  1.00  0.00     0.074 A 
ATOM     62  C   UNL A   1      41.691  33.403  30.715  1.00  0.00     0.031 C 
ATOM     63  C   UNL A   1      43.889  32.739  29.782  1.00  0.00     0.034 A 
BRANCH  50  64
ATOM     64  C   UNL A   1      46.805  28.091  26.886  1.00  0.00     0.023 A 
ATOM     65  C   UNL A   1      47.041  28.161  25.501  1.00  0.00     0.031 A 
ATOM     66  C   UNL A   1      47.791  27.491  27.690  1.00  0.00     0.131 A 
ATOM     67  C   UNL A   1      48.193  27.578  24.954  1.00  0.00     0.055 A 
ATOM     68  C   UNL A   1      48.973  26.983  27.149  1.00  0.00     0.041 A 
ATOM     69  F   UNL A   1      47.617  27.381  29.016  1.00  0.00    -0.206 F 
ATOM     70  C   UNL A   1      49.173  27.011  25.771  1.00  0.00     0.022 A 
BRANCH  67  71
ATOM     71  S   UNL A   1      48.328  27.456  23.150  1.00  0.00     0.124 S 
ATOM     72  O   UNL A   1      48.296  26.008  22.950  1.00  0.00    -0.237 OA
ATOM     73  O   UNL A   1      47.155  28.190  22.693  1.00  0.00    -0.237 OA
ATOM     74  O   UNL A   1      49.614  28.088  22.859  1.00  0.00    -0.744 OA
ENDBRANCH  67  71
ENDBRANCH  50  64
BRANCH  51  75
ATOM     75  C   UNL A   1      38.161  31.116  30.900  1.00  0.00     0.023 A 
ATOM     76  C   UNL A   1      37.165  31.761  30.149  1.00  0.00     0.031 A 
ATOM     77  C   UNL A   1      37.956  30.973  32.283  1.00  0.00     0.131 A 
ATOM     78  C   UNL A   1      36.038  32.294  30.793  1.00  0.00     0.055 A 
ATOM     79  C   UNL A   1      36.806  31.457  32.912  1.00  0.00     0.041 A 
ATOM     80  F   UNL A   1      38.873  30.360  33.047  1.00  0.00    -0.206 F 
ATOM     81  C   UNL A   1      35.846  32.137  32.168  1.00  0.00     0.022 A 
BRANCH  78  82
ATOM     82  S   UNL A   1      34.875  33.292  29.822  1.00  0.00     0.124 S 
ATOM     83  O   UNL A   1      35.773  34.211  29.133  1.00  0.00    -0.237 OA
ATOM     84  O   UNL A   1      34.231  32.280  28.992  1.00  0.00    -0.237 OA
ATOM     85  O   UNL A   1      34.019  33.899  30.838  1.00  0.00    -0.744 OA
ENDBRANCH  78  82
ENDBRANCH  51  75
BRANCH  63  86
ATOM     86  C   UNL A   1      44.391  34.119  30.132  1.00  0.00     0.023 A 
ATOM     87  C   UNL A   1      44.956  34.405  31.388  1.00  0.00     0.031 A 
ATOM     88  C   UNL A   1      44.263  35.172  29.209  1.00  0.00     0.131 A 
ATOM     89  C   UNL A   1      45.309  35.724  31.712  1.00  0.00     0.055 A 
ATOM     90  C   UNL A   1      44.671  36.472  29.516  1.00  0.00     0.041 A 
ATOM     91  F   UNL A   1      43.730  34.958  27.996  1.00  0.00    -0.206 F 
ATOM     92  C   UNL A   1      45.182  36.757  30.779  1.00  0.00     0.022 A 
BRANCH  89  93
ATOM     93  S   UNL A   1      45.840  36.093  33.408  1.00  0.00     0.124 S 
ATOM     94  O   UNL A   1      45.523  34.850  34.103  1.00  0.00    -0.237 OA
ATOM     95  O   UNL A   1      47.259  36.383  33.234  1.00  0.00    -0.237 OA
ATOM     96  O   UNL A   1      45.016  37.241  33.782  1.00  0.00    -0.744 OA
ENDBRANCH  89  93
ENDBRANCH  63  86
ENDBRANCH  37  38
ENDBRANCH  29  32
ENDBRANCH  27  28
ENDBRANCH   1  27
TORSDOF 16
ENDMDL
MODEL 3
REMARK VINA RESULT:     -12.1      5.712      8.509
REMARK SMILES Cc1ccc2oc(C(=O)N[C@@H]3C=C[C@H](C(=O)NCCCCNC(=O)c4ccc(-c5c6nc(c(-c7cc(S(=O)(=O)[O-])ccc7F)c7ccc([nH]7)c(-c7cc(S(=O)(=O)[O-])ccc7F)c7nc(c(-c8cc(S(=O)(=O)[O-])ccc8F)c8ccc5[nH]8)C=C7)C=C6)cc4)C3)cc2c1
REMARK SMILES IDX 20 1 19 2 18 3 17 4 15 5 16 6 14 8 11 9 12 10 88 11 13 12
REMARK SMILES IDX 10 13 8 14 9 15 7 17 1 18 2 19 3 20 91 21 4 22 90 23 5 24
REMARK SMILES IDX 89 25 6 26 21 27 22 28 23 29 24 31 25 32 26 33 87 34 27 35
REMARK SMILES IDX 86 36 28 37 29 38 30 39 80 40 31 41 85 42 79 43 81 44 32 45
REMARK SMILES IDX 84 46 78 47 77 48 33 50 65 51 45 52 64 53 46 54 49 55 63 56
REMARK SMILES IDX 82 57 47 58 48 59 62 61 83 62 50 63 34 64 35 65 43 66 36 67
REMARK SMILES IDX 42 68 44 69 41 70 37 71 38 72 39 73 40 74 66 75 67 76 75 77
REMARK SMILES IDX 68 78 74 79 76 80 73 81 69 82 70 83 71 84 72 85 51 86 52 87
REMARK SMILES IDX 60 88 53 89 59 90 61 91 58 92 54 93 55 94 56 95 57 96
REMARK H PARENT 17 7 10 16 22 30 81 49 49 60
REMARK Flexibility Score: inf
ROOT
ATOM      1  C   UNL A   1      31.614  32.370  26.659  1.00  0.00     0.023 C 
ENDROOT
BRANCH   1   2
ATOM      2  C   UNL A   1      31.661  30.841  26.514  1.00  0.00     0.023 C 
BRANCH   2   3
ATOM      3  C   UNL A   1      33.014  30.169  26.754  1.00  0.00     0.116 C 
BRANCH   3   4
ATOM      4  N   UNL A   1      33.526  29.440  25.612  1.00  0.00    -0.356 N 
ATOM      5  C   UNL A   1      32.925  28.761  24.599  1.00  0.00     0.227 C 
ATOM      6  O   UNL A   1      33.679  28.456  23.665  1.00  0.00    -0.274 OA
ATOM      7  H   UNL A   1      34.509  29.435  25.558  1.00  0.00     0.163 HD
BRANCH   5   8
ATOM      8  C   UNL A   1      31.456  28.250  24.612  1.00  0.00     0.103 C 
ATOM      9  C   UNL A   1      30.802  26.755  22.735  1.00  0.00     0.106 C 
ATOM     10  C   UNL A   1      30.066  28.039  22.690  1.00  0.00    -0.006 C 
ATOM     11  C   UNL A   1      31.420  26.769  24.143  1.00  0.00     0.047 C 
ATOM     12  C   UNL A   1      30.386  28.834  23.725  1.00  0.00    -0.016 C 
BRANCH   9  13
ATOM     13  N   UNL A   1      31.725  26.460  21.638  1.00  0.00    -0.343 N 
ATOM     14  C   UNL A   1      32.672  25.543  21.246  1.00  0.00     0.287 C 
ATOM     15  O   UNL A   1      33.254  25.838  20.187  1.00  0.00    -0.266 OA
ATOM     16  H   UNL A   1      31.637  27.154  20.945  1.00  0.00     0.164 HD
BRANCH  14  17
ATOM     17  C   UNL A   1      33.013  24.360  22.002  1.00  0.00     0.192 A 
ATOM     18  C   UNL A   1      33.504  19.430  25.419  1.00  0.00     0.044 C 
ATOM     19  C   UNL A   1      33.806  20.683  24.649  1.00  0.00    -0.050 A 
ATOM     20  C   UNL A   1      35.053  21.323  24.726  1.00  0.00     0.007 A 
ATOM     21  C   UNL A   1      32.792  21.248  23.873  1.00  0.00     0.015 A 
ATOM     22  C   UNL A   1      35.311  22.544  24.068  1.00  0.00     0.048 A 
ATOM     23  C   UNL A   1      33.056  22.428  23.168  1.00  0.00     0.021 A 
ATOM     24  C   UNL A   1      34.268  23.075  23.315  1.00  0.00     0.135 A 
ATOM     25  C   UNL A   1      32.357  23.176  22.217  1.00  0.00     0.065 A 
ATOM     26  O   UNL A   1      34.246  24.264  22.629  1.00  0.00    -0.451 OA
ENDBRANCH  14  17
ENDBRANCH   9  13
ENDBRANCH   5   8
ENDBRANCH   3   4
ENDBRANCH   2   3
ENDBRANCH   1   2
BRANCH   1  27
ATOM     27  C   UNL A   1      32.851  33.065  27.240  1.00  0.00     0.116 C 
BRANCH  27  28
ATOM     28  N   UNL A   1      32.554  34.334  27.883  1.00  0.00    -0.352 N 
ATOM     29  C   UNL A   1      33.137  34.976  28.951  1.00  0.00     0.251 C 
ATOM     30  H   UNL A   1      31.799  34.823  27.481  1.00  0.00     0.163 HD
ATOM     31  O   UNL A   1      32.623  36.024  29.343  1.00  0.00    -0.269 OA
BRANCH  29  32
ATOM     32  C   UNL A   1      34.326  34.434  29.662  1.00  0.00     0.039 A 
ATOM     33  C   UNL A   1      34.120  33.728  30.855  1.00  0.00     0.014 A 
ATOM     34  C   UNL A   1      35.634  34.647  29.220  1.00  0.00     0.014 A 
ATOM     35  C   UNL A   1      35.203  33.178  31.553  1.00  0.00     0.010 A 
ATOM     36  C   UNL A   1      36.712  34.047  29.887  1.00  0.00     0.010 A 
ATOM     37  C   UNL A   1      36.510  33.297  31.055  1.00  0.00    -0.014 A 
BRANCH  37  38
ATOM     38  C   UNL A   1      37.653  32.623  31.739  1.00  0.00     0.031 A 
ATOM     39  C   UNL A   1      38.355  31.450  31.104  1.00  0.00     0.074 A 
ATOM     40  C   UNL A   1      38.047  33.050  32.957  1.00  0.00     0.049 A 
ATOM     41  N   UNL A   1      39.344  30.725  31.565  1.00  0.00    -0.248 NA
ATOM     42  C   UNL A   1      37.866  31.026  29.785  1.00  0.00     0.031 C 
ATOM     43  C   UNL A   1      37.435  34.151  33.703  1.00  0.00     0.029 A 
ATOM     44  N   UNL A   1      39.051  32.609  33.787  1.00  0.00    -0.354 N 
ATOM     45  C   UNL A   1      39.600  29.762  30.595  1.00  0.00     0.074 A 
ATOM     46  C   UNL A   1      38.618  29.961  29.548  1.00  0.00     0.031 C 
ATOM     47  C   UNL A   1      38.089  34.314  34.866  1.00  0.00     0.029 A 
ATOM     48  C   UNL A   1      39.142  33.310  34.969  1.00  0.00     0.049 A 
ATOM     49  H   UNL A   1      39.650  31.863  33.556  1.00  0.00     0.167 HD
ATOM     50  C   UNL A   1      40.574  28.815  30.563  1.00  0.00     0.034 A 
ATOM     51  C   UNL A   1      39.972  33.158  36.020  1.00  0.00     0.034 A 
ATOM     52  C   UNL A   1      41.547  28.616  31.613  1.00  0.00     0.049 A 
ATOM     53  C   UNL A   1      41.030  32.083  35.974  1.00  0.00     0.074 A 
ATOM     54  C   UNL A   1      42.579  27.694  31.671  1.00  0.00     0.029 A 
ATOM     55  N   UNL A   1      41.611  29.350  32.790  1.00  0.00    -0.354 N 
ATOM     56  N   UNL A   1      41.276  31.205  35.029  1.00  0.00    -0.248 NA
ATOM     57  C   UNL A   1      41.934  31.994  37.128  1.00  0.00     0.031 C 
ATOM     58  C   UNL A   1      43.232  27.835  32.902  1.00  0.00     0.029 A 
ATOM     59  C   UNL A   1      42.652  28.891  33.584  1.00  0.00     0.049 A 
ATOM     60  H   UNL A   1      41.005  30.089  33.026  1.00  0.00     0.167 HD
ATOM     61  C   UNL A   1      42.384  30.483  35.464  1.00  0.00     0.074 A 
ATOM     62  C   UNL A   1      42.769  31.041  36.743  1.00  0.00     0.031 C 
ATOM     63  C   UNL A   1      43.026  29.450  34.861  1.00  0.00     0.034 A 
BRANCH  50  64
ATOM     64  C   UNL A   1      40.620  27.914  29.353  1.00  0.00     0.023 A 
ATOM     65  C   UNL A   1      41.538  28.133  28.311  1.00  0.00     0.031 A 
ATOM     66  C   UNL A   1      39.725  26.835  29.224  1.00  0.00     0.131 A 
ATOM     67  C   UNL A   1      41.495  27.337  27.157  1.00  0.00     0.055 A 
ATOM     68  C   UNL A   1      39.740  25.997  28.107  1.00  0.00     0.041 A 
ATOM     69  F   UNL A   1      38.815  26.584  30.178  1.00  0.00    -0.206 F 
ATOM     70  C   UNL A   1      40.619  26.254  27.058  1.00  0.00     0.022 A 
BRANCH  67  71
ATOM     71  S   UNL A   1      42.511  27.818  25.735  1.00  0.00     0.124 S 
ATOM     72  O   UNL A   1      42.166  26.783  24.763  1.00  0.00    -0.237 OA
ATOM     73  O   UNL A   1      42.026  29.160  25.437  1.00  0.00    -0.237 OA
ATOM     74  O   UNL A   1      43.877  27.748  26.249  1.00  0.00    -0.744 OA
ENDBRANCH  67  71
ENDBRANCH  50  64
BRANCH  51  75
ATOM     75  C   UNL A   1      39.850  34.037  37.220  1.00  0.00     0.023 A 
ATOM     76  C   UNL A   1      39.194  33.591  38.379  1.00  0.00     0.031 A 
ATOM     77  C   UNL A   1      40.325  35.360  37.199  1.00  0.00     0.131 A 
ATOM     78  C   UNL A   1      38.977  34.476  39.445  1.00  0.00     0.055 A 
ATOM     79  C   UNL A   1      40.155  36.222  38.285  1.00  0.00     0.041 A 
ATOM     80  F   UNL A   1      40.963  35.836  36.118  1.00  0.00    -0.206 F 
ATOM     81  C   UNL A   1      39.463  35.786  39.411  1.00  0.00     0.022 A 
BRANCH  78  82
ATOM     82  S   UNL A   1      37.955  33.923  40.838  1.00  0.00     0.124 S 
ATOM     83  O   UNL A   1      36.870  33.229  40.154  1.00  0.00    -0.237 OA
ATOM     84  O   UNL A   1      38.887  33.082  41.580  1.00  0.00    -0.237 OA
ATOM     85  O   UNL A   1      37.580  35.170  41.500  1.00  0.00    -0.744 OA
ENDBRANCH  78  82
ENDBRANCH  51  75
BRANCH  63  86
ATOM     86  C   UNL A   1      44.244  28.902  35.565  1.00  0.00     0.023 A 
ATOM     87  C   UNL A   1      44.152  27.846  36.491  1.00  0.00     0.031 A 
ATOM     88  C   UNL A   1      45.509  29.472  35.336  1.00  0.00     0.131 A 
ATOM     89  C   UNL A   1      45.291  27.440  37.203  1.00  0.00     0.055 A 
ATOM     90  C   UNL A   1      46.650  29.024  36.005  1.00  0.00     0.041 A 
ATOM     91  F   UNL A   1      45.655  30.482  34.464  1.00  0.00    -0.206 F 
ATOM     92  C   UNL A   1      46.541  28.013  36.957  1.00  0.00     0.022 A 
BRANCH  89  93
ATOM     93  S   UNL A   1      45.097  26.222  38.534  1.00  0.00     0.124 S 
ATOM     94  O   UNL A   1      43.772  26.545  39.053  1.00  0.00    -0.237 OA
ATOM     95  O   UNL A   1      45.211  24.956  37.817  1.00  0.00    -0.237 OA
ATOM     96  O   UNL A   1      46.206  26.523  39.438  1.00  0.00    -0.744 OA
ENDBRANCH  89  93
ENDBRANCH  63  86
ENDBRANCH  37  38
ENDBRANCH  29  32
ENDBRANCH  27  28
ENDBRANCH   1  27
TORSDOF 16
ENDMDL
