MODEL 1
REMARK VINA RESULT:     -10.1      0.000      0.000
REMARK SMILES O=C(NCCCCNC(=O)c1cncc(OCCCc2ccccc2)n1)c1ccc(-c2c3nc(c(-c4cc(S(=O)(=O)[O-])ccc4F)c4ccc([nH]4)c(-c4cc(S(=O)(=O)[O-])ccc4F)c4nc(c(-c5cc(S(=O)(=O)[O-])ccc5F)c5ccc2[nH]5)C=C4)C=C3)cc1
REMARK SMILES IDX 6 1 5 2 4 3 3 4 1 5 2 6 27 8 28 9 89 10 29 11 88 12 30 13
REMARK SMILES IDX 31 14 32 15 82 16 33 17 87 18 81 19 83 20 34 21 86 22 80 23
REMARK SMILES IDX 79 24 35 26 67 27 47 28 66 29 48 30 51 31 65 32 84 33 49 34
REMARK SMILES IDX 50 35 64 37 85 38 52 39 36 40 37 41 45 42 38 43 44 44 46 45
REMARK SMILES IDX 43 46 39 47 40 48 41 49 42 50 68 51 69 52 77 53 70 54 76 55
REMARK SMILES IDX 78 56 75 57 71 58 72 59 73 60 74 61 53 62 54 63 62 64 55 65
REMARK SMILES IDX 61 66 63 67 60 68 56 69 57 70 58 71 59 72 7 73 8 74 9 75
REMARK SMILES IDX 10 77 11 78 12 79 26 80 13 81 15 82 14 83 16 84 17 85 18 86
REMARK SMILES IDX 19 87 20 88 21 89 25 90 22 91 24 92 23 93
REMARK H PARENT 3 7 83 25 51 36 8 76
REMARK Flexibility Score: inf
ROOT
ATOM      1  C   UNL A   1      42.442  19.178  26.829  1.00  0.00     0.023 C 
ENDROOT
BRANCH   1   2
ATOM      2  C   UNL A   1      41.833  20.312  27.654  1.00  0.00     0.023 C 
BRANCH   2   3
ATOM      3  C   UNL A   1      41.431  21.568  26.888  1.00  0.00     0.116 C 
BRANCH   3   4
ATOM      4  N   UNL A   1      40.051  21.548  26.428  1.00  0.00    -0.352 N 
ATOM      5  O   UNL A   1      37.963  22.290  26.053  1.00  0.00    -0.269 OA
ATOM      6  C   UNL A   1      39.115  22.552  26.395  1.00  0.00     0.251 C 
ATOM      7  H   UNL A   1      39.740  20.677  26.089  1.00  0.00     0.163 HD
BRANCH   6   8
ATOM      8  C   UNL A   1      39.471  23.931  26.796  1.00  0.00     0.039 A 
ATOM      9  C   UNL A   1      39.983  24.849  25.875  1.00  0.00     0.014 A 
ATOM     10  C   UNL A   1      39.271  24.315  28.125  1.00  0.00     0.014 A 
ATOM     11  C   UNL A   1      40.422  26.099  26.310  1.00  0.00     0.010 A 
ATOM     12  C   UNL A   1      39.647  25.594  28.545  1.00  0.00     0.010 A 
ATOM     13  C   UNL A   1      40.259  26.485  27.649  1.00  0.00    -0.014 A 
BRANCH  13  14
ATOM     14  C   UNL A   1      40.713  27.825  28.104  1.00  0.00     0.031 A 
ATOM     15  C   UNL A   1      42.175  28.178  28.105  1.00  0.00     0.074 A 
ATOM     16  C   UNL A   1      39.802  28.722  28.527  1.00  0.00     0.049 A 
ATOM     17  N   UNL A   1      42.766  29.265  28.531  1.00  0.00    -0.248 NA
ATOM     18  C   UNL A   1      43.095  27.165  27.567  1.00  0.00     0.031 C 
ATOM     19  C   UNL A   1      38.355  28.497  28.567  1.00  0.00     0.029 A 
ATOM     20  N   UNL A   1      39.955  29.997  29.008  1.00  0.00    -0.354 N 
ATOM     21  C   UNL A   1      44.127  29.065  28.331  1.00  0.00     0.074 A 
ATOM     22  C   UNL A   1      44.273  27.732  27.779  1.00  0.00     0.031 C 
ATOM     23  C   UNL A   1      37.753  29.601  29.033  1.00  0.00     0.029 A 
ATOM     24  C   UNL A   1      38.770  30.586  29.383  1.00  0.00     0.049 A 
ATOM     25  H   UNL A   1      40.827  30.447  29.078  1.00  0.00     0.167 HD
ATOM     26  C   UNL A   1      45.157  29.915  28.576  1.00  0.00     0.034 A 
ATOM     27  C   UNL A   1      38.529  31.772  29.976  1.00  0.00     0.034 A 
ATOM     28  C   UNL A   1      44.990  31.239  29.131  1.00  0.00     0.049 A 
ATOM     29  C   UNL A   1      39.686  32.679  30.292  1.00  0.00     0.074 A 
ATOM     30  C   UNL A   1      45.957  32.194  29.396  1.00  0.00     0.029 A 
ATOM     31  N   UNL A   1      43.775  31.792  29.521  1.00  0.00    -0.354 N 
ATOM     32  N   UNL A   1      40.969  32.480  30.090  1.00  0.00    -0.248 NA
ATOM     33  C   UNL A   1      39.366  33.970  30.911  1.00  0.00     0.031 C 
ATOM     34  C   UNL A   1      45.338  33.292  30.007  1.00  0.00     0.029 A 
ATOM     35  C   UNL A   1      43.973  33.059  30.052  1.00  0.00     0.049 A 
ATOM     36  H   UNL A   1      42.900  31.349  29.434  1.00  0.00     0.167 HD
ATOM     37  C   UNL A   1      41.606  33.635  30.533  1.00  0.00     0.074 A 
ATOM     38  C   UNL A   1      40.565  34.526  31.007  1.00  0.00     0.031 C 
ATOM     39  C   UNL A   1      42.929  33.933  30.536  1.00  0.00     0.034 A 
BRANCH  26  40
ATOM     40  C   UNL A   1      46.554  29.411  28.293  1.00  0.00     0.023 A 
ATOM     41  C   UNL A   1      47.296  28.700  29.253  1.00  0.00     0.031 A 
ATOM     42  C   UNL A   1      47.172  29.683  27.059  1.00  0.00     0.131 A 
ATOM     43  C   UNL A   1      48.635  28.365  29.000  1.00  0.00     0.055 A 
ATOM     44  C   UNL A   1      48.477  29.270  26.780  1.00  0.00     0.041 A 
ATOM     45  F   UNL A   1      46.525  30.374  26.107  1.00  0.00    -0.206 F 
ATOM     46  C   UNL A   1      49.223  28.623  27.760  1.00  0.00     0.022 A 
BRANCH  43  47
ATOM     47  S   UNL A   1      49.646  27.740  30.371  1.00  0.00     0.124 S 
ATOM     48  O   UNL A   1      50.077  28.981  31.012  1.00  0.00    -0.237 OA
ATOM     49  O   UNL A   1      48.693  26.932  31.122  1.00  0.00    -0.237 OA
ATOM     50  O   UNL A   1      50.709  26.994  29.702  1.00  0.00    -0.744 OA
ENDBRANCH  43  47
ENDBRANCH  26  40
BRANCH  27  51
ATOM     51  C   UNL A   1      37.134  32.143  30.342  1.00  0.00     0.023 A 
ATOM     52  C   UNL A   1      36.270  32.734  29.408  1.00  0.00     0.031 A 
ATOM     53  C   UNL A   1      36.645  31.902  31.639  1.00  0.00     0.131 A 
ATOM     54  C   UNL A   1      34.967  33.087  29.793  1.00  0.00     0.055 A 
ATOM     55  C   UNL A   1      35.335  32.212  32.003  1.00  0.00     0.041 A 
ATOM     56  F   UNL A   1      37.432  31.331  32.566  1.00  0.00    -0.206 F 
ATOM     57  C   UNL A   1      34.490  32.817  31.078  1.00  0.00     0.022 A 
BRANCH  54  58
ATOM     58  S   UNL A   1      33.913  33.953  28.598  1.00  0.00     0.124 S 
ATOM     59  O   UNL A   1      33.498  32.861  27.723  1.00  0.00    -0.237 OA
ATOM     60  O   UNL A   1      32.878  34.516  29.457  1.00  0.00    -0.237 OA
ATOM     61  O   UNL A   1      34.816  34.928  27.992  1.00  0.00    -0.744 OA
ENDBRANCH  54  58
ENDBRANCH  27  51
BRANCH  39  62
ATOM     62  C   UNL A   1      43.320  35.307  31.022  1.00  0.00     0.023 A 
ATOM     63  C   UNL A   1      43.417  35.612  32.391  1.00  0.00     0.031 A 
ATOM     64  C   UNL A   1      43.596  36.327  30.094  1.00  0.00     0.131 A 
ATOM     65  C   UNL A   1      43.737  36.919  32.794  1.00  0.00     0.055 A 
ATOM     66  C   UNL A   1      43.965  37.610  30.500  1.00  0.00     0.041 A 
ATOM     67  F   UNL A   1      43.514  36.089  28.775  1.00  0.00    -0.206 F 
ATOM     68  C   UNL A   1      44.027  37.915  31.856  1.00  0.00     0.022 A 
BRANCH  65  69
ATOM     69  S   UNL A   1      43.697  37.324  34.561  1.00  0.00     0.124 S 
ATOM     70  O   UNL A   1      44.614  38.455  34.634  1.00  0.00    -0.237 OA
ATOM     71  O   UNL A   1      42.287  37.630  34.780  1.00  0.00    -0.237 OA
ATOM     72  O   UNL A   1      44.170  36.099  35.204  1.00  0.00    -0.744 OA
ENDBRANCH  65  69
ENDBRANCH  39  62
ENDBRANCH  13  14
ENDBRANCH   6   8
ENDBRANCH   3   4
ENDBRANCH   2   3
ENDBRANCH   1   2
BRANCH   1  73
ATOM     73  C   UNL A   1      42.783  19.503  25.379  1.00  0.00     0.116 C 
BRANCH  73  74
ATOM     74  N   UNL A   1      43.987  18.850  24.903  1.00  0.00    -0.351 N 
ATOM     75  C   UNL A   1      45.208  19.403  24.601  1.00  0.00     0.271 C 
ATOM     76  H   UNL A   1      43.919  17.876  24.779  1.00  0.00     0.163 HD
ATOM     77  O   UNL A   1      46.158  18.679  24.318  1.00  0.00    -0.267 OA
BRANCH  75  78
ATOM     78  C   UNL A   1      45.396  20.868  24.644  1.00  0.00     0.150 A 
ATOM     79  C   UNL A   1      44.904  21.669  23.625  1.00  0.00     0.145 A 
ATOM     80  N   UNL A   1      45.960  21.378  25.766  1.00  0.00    -0.205 NA
ATOM     81  N   UNL A   1      44.975  23.025  23.674  1.00  0.00    -0.257 NA
ATOM     82  C   UNL A   1      45.997  22.719  25.839  1.00  0.00     0.233 A 
ATOM     83  C   UNL A   1      45.514  23.526  24.816  1.00  0.00     0.179 A 
BRANCH  82  84
ATOM     84  O   UNL A   1      46.413  23.319  27.004  1.00  0.00    -0.477 OA
BRANCH  84  85
ATOM     85  C   UNL A   1      45.414  24.136  27.624  1.00  0.00     0.232 C 
BRANCH  85  86
ATOM     86  C   UNL A   1      44.254  23.332  28.225  1.00  0.00     0.046 C 
BRANCH  86  87
ATOM     87  C   UNL A   1      43.397  24.037  29.289  1.00  0.00     0.039 C 
BRANCH  87  88
ATOM     88  C   UNL A   1      44.057  24.493  30.575  1.00  0.00    -0.048 A 
ATOM     89  C   UNL A   1      44.164  23.566  31.624  1.00  0.00     0.004 A 
ATOM     90  C   UNL A   1      44.545  25.788  30.792  1.00  0.00     0.004 A 
ATOM     91  C   UNL A   1      44.784  23.903  32.830  1.00  0.00     0.000 A 
ATOM     92  C   UNL A   1      45.182  26.122  31.991  1.00  0.00     0.000 A 
ATOM     93  C   UNL A   1      45.305  25.180  33.009  1.00  0.00     0.000 A 
ENDBRANCH  87  88
ENDBRANCH  86  87
ENDBRANCH  85  86
ENDBRANCH  84  85
ENDBRANCH  82  84
ENDBRANCH  75  78
ENDBRANCH  73  74
ENDBRANCH   1  73
TORSDOF 19
ENDMDL
MODEL 2
REMARK VINA RESULT:     -10.1      1.711      2.090
REMARK SMILES O=C(NCCCCNC(=O)c1cncc(OCCCc2ccccc2)n1)c1ccc(-c2c3nc(c(-c4cc(S(=O)(=O)[O-])ccc4F)c4ccc([nH]4)c(-c4cc(S(=O)(=O)[O-])ccc4F)c4nc(c(-c5cc(S(=O)(=O)[O-])ccc5F)c5ccc2[nH]5)C=C4)C=C3)cc1
REMARK SMILES IDX 6 1 5 2 4 3 3 4 1 5 2 6 27 8 28 9 89 10 29 11 88 12 30 13
REMARK SMILES IDX 31 14 32 15 82 16 33 17 87 18 81 19 83 20 34 21 86 22 80 23
REMARK SMILES IDX 79 24 35 26 67 27 47 28 66 29 48 30 51 31 65 32 84 33 49 34
REMARK SMILES IDX 50 35 64 37 85 38 52 39 36 40 37 41 45 42 38 43 44 44 46 45
REMARK SMILES IDX 43 46 39 47 40 48 41 49 42 50 68 51 69 52 77 53 70 54 76 55
REMARK SMILES IDX 78 56 75 57 71 58 72 59 73 60 74 61 53 62 54 63 62 64 55 65
REMARK SMILES IDX 61 66 63 67 60 68 56 69 57 70 58 71 59 72 7 73 8 74 9 75
REMARK SMILES IDX 10 77 11 78 12 79 26 80 13 81 15 82 14 83 16 84 17 85 18 86
REMARK SMILES IDX 19 87 20 88 21 89 25 90 22 91 24 92 23 93
REMARK H PARENT 3 7 83 25 51 36 8 76
REMARK Flexibility Score: inf
ROOT
ATOM      1  C   UNL A   1      42.302  19.310  26.976  1.00  0.00     0.023 C 
ENDROOT
BRANCH   1   2
ATOM      2  C   UNL A   1      41.498  20.399  27.687  1.00  0.00     0.023 C 
BRANCH   2   3
ATOM      3  C   UNL A   1      41.219  21.667  26.887  1.00  0.00     0.116 C 
BRANCH   3   4
ATOM      4  N   UNL A   1      39.869  21.726  26.348  1.00  0.00    -0.352 N 
ATOM      5  O   UNL A   1      37.839  22.573  25.887  1.00  0.00    -0.269 OA
ATOM      6  C   UNL A   1      38.979  22.771  26.305  1.00  0.00     0.251 C 
ATOM      7  H   UNL A   1      39.543  20.885  25.955  1.00  0.00     0.163 HD
BRANCH   6   8
ATOM      8  C   UNL A   1      39.367  24.115  26.785  1.00  0.00     0.039 A 
ATOM      9  C   UNL A   1      40.075  25.004  25.971  1.00  0.00     0.014 A 
ATOM     10  C   UNL A   1      38.998  24.498  28.078  1.00  0.00     0.014 A 
ATOM     11  C   UNL A   1      40.531  26.213  26.494  1.00  0.00     0.010 A 
ATOM     12  C   UNL A   1      39.396  25.741  28.577  1.00  0.00     0.010 A 
ATOM     13  C   UNL A   1      40.197  26.595  27.802  1.00  0.00    -0.014 A 
BRANCH  13  14
ATOM     14  C   UNL A   1      40.671  27.893  28.349  1.00  0.00     0.031 A 
ATOM     15  C   UNL A   1      42.142  28.160  28.520  1.00  0.00     0.074 A 
ATOM     16  C   UNL A   1      39.770  28.829  28.703  1.00  0.00     0.049 A 
ATOM     17  N   UNL A   1      42.740  29.198  29.044  1.00  0.00    -0.248 NA
ATOM     18  C   UNL A   1      43.058  27.111  28.049  1.00  0.00     0.031 C 
ATOM     19  C   UNL A   1      38.317  28.687  28.579  1.00  0.00     0.029 A 
ATOM     20  N   UNL A   1      39.938  30.079  29.241  1.00  0.00    -0.354 N 
ATOM     21  C   UNL A   1      44.103  28.925  28.984  1.00  0.00     0.074 A 
ATOM     22  C   UNL A   1      44.235  27.602  28.406  1.00  0.00     0.031 C 
ATOM     23  C   UNL A   1      37.729  29.811  29.015  1.00  0.00     0.029 A 
ATOM     24  C   UNL A   1      38.754  30.725  29.507  1.00  0.00     0.049 A 
ATOM     25  H   UNL A   1      40.821  30.475  29.419  1.00  0.00     0.167 HD
ATOM     26  C   UNL A   1      45.145  29.707  29.369  1.00  0.00     0.034 A 
ATOM     27  C   UNL A   1      38.514  31.905  30.110  1.00  0.00     0.034 A 
ATOM     28  C   UNL A   1      44.990  31.022  29.947  1.00  0.00     0.049 A 
ATOM     29  C   UNL A   1      39.678  32.734  30.581  1.00  0.00     0.074 A 
ATOM     30  C   UNL A   1      45.974  31.912  30.348  1.00  0.00     0.029 A 
ATOM     31  N   UNL A   1      43.772  31.633  30.223  1.00  0.00    -0.354 N 
ATOM     32  N   UNL A   1      40.963  32.467  30.510  1.00  0.00    -0.248 NA
ATOM     33  C   UNL A   1      39.363  34.024  31.205  1.00  0.00     0.031 C 
ATOM     34  C   UNL A   1      45.353  33.025  30.926  1.00  0.00     0.029 A 
ATOM     35  C   UNL A   1      43.981  32.871  30.816  1.00  0.00     0.049 A 
ATOM     36  H   UNL A   1      42.889  31.245  30.027  1.00  0.00     0.167 HD
ATOM     37  C   UNL A   1      41.610  33.570  31.059  1.00  0.00     0.074 A 
ATOM     38  C   UNL A   1      40.574  34.506  31.449  1.00  0.00     0.031 C 
ATOM     39  C   UNL A   1      42.939  33.790  31.214  1.00  0.00     0.034 A 
BRANCH  26  40
ATOM     40  C   UNL A   1      46.535  29.131  29.221  1.00  0.00     0.023 A 
ATOM     41  C   UNL A   1      47.270  29.261  28.029  1.00  0.00     0.031 A 
ATOM     42  C   UNL A   1      47.119  28.402  30.273  1.00  0.00     0.131 A 
ATOM     43  C   UNL A   1      48.499  28.600  27.886  1.00  0.00     0.055 A 
ATOM     44  C   UNL A   1      48.383  27.820  30.156  1.00  0.00     0.041 A 
ATOM     45  F   UNL A   1      46.461  28.226  31.431  1.00  0.00    -0.206 F 
ATOM     46  C   UNL A   1      49.073  27.901  28.950  1.00  0.00     0.022 A 
BRANCH  43  47
ATOM     47  S   UNL A   1      49.257  28.526  26.239  1.00  0.00     0.124 S 
ATOM     48  O   UNL A   1      48.092  28.301  25.385  1.00  0.00    -0.237 OA
ATOM     49  O   UNL A   1      49.888  29.836  26.124  1.00  0.00    -0.237 OA
ATOM     50  O   UNL A   1      50.177  27.395  26.334  1.00  0.00    -0.744 OA
ENDBRANCH  43  47
ENDBRANCH  26  40
BRANCH  27  51
ATOM     51  C   UNL A   1      37.111  32.346  30.337  1.00  0.00     0.023 A 
ATOM     52  C   UNL A   1      36.392  33.023  29.341  1.00  0.00     0.031 A 
ATOM     53  C   UNL A   1      36.467  32.087  31.561  1.00  0.00     0.131 A 
ATOM     54  C   UNL A   1      35.076  33.440  29.596  1.00  0.00     0.055 A 
ATOM     55  C   UNL A   1      35.143  32.462  31.791  1.00  0.00     0.041 A 
ATOM     56  F   UNL A   1      37.110  31.435  32.542  1.00  0.00    -0.206 F 
ATOM     57  C   UNL A   1      34.442  33.151  30.807  1.00  0.00     0.022 A 
BRANCH  54  58
ATOM     58  S   UNL A   1      34.213  34.412  28.330  1.00  0.00     0.124 S 
ATOM     59  O   UNL A   1      34.108  35.715  28.977  1.00  0.00    -0.237 OA
ATOM     60  O   UNL A   1      35.133  34.328  27.202  1.00  0.00    -0.237 OA
ATOM     61  O   UNL A   1      32.950  33.699  28.156  1.00  0.00    -0.744 OA
ENDBRANCH  54  58
ENDBRANCH  27  51
BRANCH  39  62
ATOM     62  C   UNL A   1      43.349  35.125  31.787  1.00  0.00     0.023 A 
ATOM     63  C   UNL A   1      43.591  36.243  30.970  1.00  0.00     0.031 A 
ATOM     64  C   UNL A   1      43.502  35.274  33.177  1.00  0.00     0.131 A 
ATOM     65  C   UNL A   1      44.017  37.450  31.546  1.00  0.00     0.055 A 
ATOM     66  C   UNL A   1      43.875  36.491  33.749  1.00  0.00     0.041 A 
ATOM     67  F   UNL A   1      43.288  34.237  34.002  1.00  0.00    -0.206 F 
ATOM     68  C   UNL A   1      44.145  37.585  32.932  1.00  0.00     0.022 A 
BRANCH  65  69
ATOM     69  S   UNL A   1      44.476  38.825  30.457  1.00  0.00     0.124 S 
ATOM     70  O   UNL A   1      44.184  38.277  29.137  1.00  0.00    -0.237 OA
ATOM     71  O   UNL A   1      43.594  39.894  30.913  1.00  0.00    -0.237 OA
ATOM     72  O   UNL A   1      45.895  39.031  30.743  1.00  0.00    -0.744 OA
ENDBRANCH  65  69
ENDBRANCH  39  62
ENDBRANCH  13  14
ENDBRANCH   6   8
ENDBRANCH   3   4
ENDBRANCH   2   3
ENDBRANCH   1   2
BRANCH   1  73
ATOM     73  C   UNL A   1      42.727  19.608  25.542  1.00  0.00     0.116 C 
BRANCH  73  74
ATOM     74  N   UNL A   1      43.921  18.897  25.129  1.00  0.00    -0.351 N 
ATOM     75  C   UNL A   1      45.152  19.403  24.788  1.00  0.00     0.271 C 
ATOM     76  H   UNL A   1      43.837  17.918  25.086  1.00  0.00     0.163 HD
ATOM     77  O   UNL A   1      46.092  18.641  24.570  1.00  0.00    -0.267 OA
BRANCH  75  78
ATOM     78  C   UNL A   1      45.366  20.863  24.709  1.00  0.00     0.150 A 
ATOM     79  C   UNL A   1      44.833  21.595  23.659  1.00  0.00     0.145 A 
ATOM     80  N   UNL A   1      45.997  21.444  25.758  1.00  0.00    -0.205 NA
ATOM     81  N   UNL A   1      44.927  22.949  23.601  1.00  0.00    -0.257 NA
ATOM     82  C   UNL A   1      46.058  22.786  25.727  1.00  0.00     0.233 A 
ATOM     83  C   UNL A   1      45.535  23.523  24.672  1.00  0.00     0.179 A 
BRANCH  82  84
ATOM     84  O   UNL A   1      46.546  23.463  26.820  1.00  0.00    -0.477 OA
BRANCH  84  85
ATOM     85  C   UNL A   1      45.539  24.152  27.571  1.00  0.00     0.232 C 
BRANCH  85  86
ATOM     86  C   UNL A   1      44.566  23.210  28.293  1.00  0.00     0.046 C 
BRANCH  86  87
ATOM     87  C   UNL A   1      43.676  23.833  29.381  1.00  0.00     0.039 C 
BRANCH  87  88
ATOM     88  C   UNL A   1      44.239  24.007  30.777  1.00  0.00    -0.048 A 
ATOM     89  C   UNL A   1      45.084  25.105  31.013  1.00  0.00     0.004 A 
ATOM     90  C   UNL A   1      43.991  23.131  31.840  1.00  0.00     0.004 A 
ATOM     91  C   UNL A   1      45.620  25.347  32.280  1.00  0.00     0.000 A 
ATOM     92  C   UNL A   1      44.512  23.383  33.113  1.00  0.00     0.000 A 
ATOM     93  C   UNL A   1      45.323  24.492  33.335  1.00  0.00     0.000 A 
ENDBRANCH  87  88
ENDBRANCH  86  87
ENDBRANCH  85  86
ENDBRANCH  84  85
ENDBRANCH  82  84
ENDBRANCH  75  78
ENDBRANCH  73  74
ENDBRANCH   1  73
TORSDOF 19
ENDMDL
MODEL 3
REMARK VINA RESULT:     -10.0      5.746     11.662
REMARK SMILES O=C(NCCCCNC(=O)c1cncc(OCCCc2ccccc2)n1)c1ccc(-c2c3nc(c(-c4cc(S(=O)(=O)[O-])ccc4F)c4ccc([nH]4)c(-c4cc(S(=O)(=O)[O-])ccc4F)c4nc(c(-c5cc(S(=O)(=O)[O-])ccc5F)c5ccc2[nH]5)C=C4)C=C3)cc1
REMARK SMILES IDX 6 1 5 2 4 3 3 4 1 5 2 6 27 8 28 9 89 10 29 11 88 12 30 13
REMARK SMILES IDX 31 14 32 15 82 16 33 17 87 18 81 19 83 20 34 21 86 22 80 23
REMARK SMILES IDX 79 24 35 26 67 27 47 28 66 29 48 30 51 31 65 32 84 33 49 34
REMARK SMILES IDX 50 35 64 37 85 38 52 39 36 40 37 41 45 42 38 43 44 44 46 45
REMARK SMILES IDX 43 46 39 47 40 48 41 49 42 50 68 51 69 52 77 53 70 54 76 55
REMARK SMILES IDX 78 56 75 57 71 58 72 59 73 60 74 61 53 62 54 63 62 64 55 65
REMARK SMILES IDX 61 66 63 67 60 68 56 69 57 70 58 71 59 72 7 73 8 74 9 75
REMARK SMILES IDX 10 77 11 78 12 79 26 80 13 81 15 82 14 83 16 84 17 85 18 86
REMARK SMILES IDX 19 87 20 88 21 89 25 90 22 91 24 92 23 93
REMARK H PARENT 3 7 83 25 51 36 8 76
REMARK Flexibility Score: inf
ROOT
ATOM      1  C   UNL A   1      32.048  27.285  26.635  1.00  0.00     0.023 C 
ENDROOT
BRANCH   1   2
ATOM      2  C   UNL A   1      31.647  28.650  26.075  1.00  0.00     0.023 C 
BRANCH   2   3
ATOM      3  C   UNL A   1      32.785  29.618  25.766  1.00  0.00     0.116 C 
BRANCH   3   4
ATOM      4  N   UNL A   1      32.534  30.973  26.235  1.00  0.00    -0.352 N 
ATOM      5  O   UNL A   1      32.758  32.824  27.490  1.00  0.00    -0.269 OA
ATOM      6  C   UNL A   1      33.203  31.722  27.171  1.00  0.00     0.251 C 
ATOM      7  H   UNL A   1      31.765  31.421  25.815  1.00  0.00     0.163 HD
BRANCH   6   8
ATOM      8  C   UNL A   1      34.429  31.205  27.819  1.00  0.00     0.039 A 
ATOM      9  C   UNL A   1      34.515  29.885  28.268  1.00  0.00     0.014 A 
ATOM     10  C   UNL A   1      35.523  32.063  27.963  1.00  0.00     0.014 A 
ATOM     11  C   UNL A   1      35.636  29.465  28.982  1.00  0.00     0.010 A 
ATOM     12  C   UNL A   1      36.675  31.619  28.617  1.00  0.00     0.010 A 
ATOM     13  C   UNL A   1      36.728  30.327  29.164  1.00  0.00    -0.014 A 
BRANCH  13  14
ATOM     14  C   UNL A   1      37.929  29.869  29.911  1.00  0.00     0.031 A 
ATOM     15  C   UNL A   1      38.200  30.368  31.304  1.00  0.00     0.074 A 
ATOM     16  C   UNL A   1      38.783  29.008  29.325  1.00  0.00     0.049 A 
ATOM     17  N   UNL A   1      39.227  30.138  32.082  1.00  0.00    -0.248 NA
ATOM     18  C   UNL A   1      37.186  31.253  31.893  1.00  0.00     0.031 C 
ATOM     19  C   UNL A   1      38.624  28.451  27.980  1.00  0.00     0.029 A 
ATOM     20  N   UNL A   1      39.953  28.456  29.778  1.00  0.00    -0.354 N 
ATOM     21  C   UNL A   1      38.995  30.863  33.246  1.00  0.00     0.074 A 
ATOM     22  C   UNL A   1      37.744  31.569  33.052  1.00  0.00     0.031 C 
ATOM     23  C   UNL A   1      39.649  27.626  27.723  1.00  0.00     0.029 A 
ATOM     24  C   UNL A   1      40.569  27.644  28.855  1.00  0.00     0.049 A 
ATOM     25  H   UNL A   1      40.317  28.623  30.677  1.00  0.00     0.167 HD
ATOM     26  C   UNL A   1      39.750  30.926  34.374  1.00  0.00     0.034 A 
ATOM     27  C   UNL A   1      41.758  27.011  28.897  1.00  0.00     0.034 A 
ATOM     28  C   UNL A   1      40.996  30.215  34.545  1.00  0.00     0.049 A 
ATOM     29  C   UNL A   1      42.607  27.136  30.132  1.00  0.00     0.074 A 
ATOM     30  C   UNL A   1      41.829  30.184  35.652  1.00  0.00     0.029 A 
ATOM     31  N   UNL A   1      41.601  29.421  33.577  1.00  0.00    -0.354 N 
ATOM     32  N   UNL A   1      42.372  27.819  31.230  1.00  0.00    -0.248 NA
ATOM     33  C   UNL A   1      43.879  26.404  30.138  1.00  0.00     0.031 C 
ATOM     34  C   UNL A   1      42.964  29.430  35.329  1.00  0.00     0.029 A 
ATOM     35  C   UNL A   1      42.807  28.923  34.050  1.00  0.00     0.049 A 
ATOM     36  H   UNL A   1      41.227  29.237  32.685  1.00  0.00     0.167 HD
ATOM     37  C   UNL A   1      43.455  27.575  32.068  1.00  0.00     0.074 A 
ATOM     38  C   UNL A   1      44.340  26.678  31.350  1.00  0.00     0.031 C 
ATOM     39  C   UNL A   1      43.689  28.042  33.320  1.00  0.00     0.034 A 
BRANCH  26  40
ATOM     40  C   UNL A   1      39.266  31.834  35.481  1.00  0.00     0.023 A 
ATOM     41  C   UNL A   1      38.648  31.330  36.639  1.00  0.00     0.031 A 
ATOM     42  C   UNL A   1      39.387  33.231  35.358  1.00  0.00     0.131 A 
ATOM     43  C   UNL A   1      38.096  32.212  37.581  1.00  0.00     0.055 A 
ATOM     44  C   UNL A   1      38.913  34.102  36.342  1.00  0.00     0.041 A 
ATOM     45  F   UNL A   1      39.950  33.776  34.268  1.00  0.00    -0.206 F 
ATOM     46  C   UNL A   1      38.247  33.595  37.453  1.00  0.00     0.022 A 
BRANCH  43  47
ATOM     47  S   UNL A   1      37.035  31.532  38.886  1.00  0.00     0.124 S 
ATOM     48  O   UNL A   1      35.918  32.476  38.883  1.00  0.00    -0.237 OA
ATOM     49  O   UNL A   1      36.740  30.194  38.387  1.00  0.00    -0.237 OA
ATOM     50  O   UNL A   1      37.879  31.584  40.078  1.00  0.00    -0.744 OA
ENDBRANCH  43  47
ENDBRANCH  26  40
BRANCH  27  51
ATOM     51  C   UNL A   1      42.224  26.238  27.714  1.00  0.00     0.023 A 
ATOM     52  C   UNL A   1      41.912  24.879  27.564  1.00  0.00     0.031 A 
ATOM     53  C   UNL A   1      42.989  26.859  26.708  1.00  0.00     0.131 A 
ATOM     54  C   UNL A   1      42.384  24.177  26.444  1.00  0.00     0.055 A 
ATOM     55  C   UNL A   1      43.416  26.167  25.574  1.00  0.00     0.041 A 
ATOM     56  F   UNL A   1      43.306  28.159  26.803  1.00  0.00    -0.206 F 
ATOM     57  C   UNL A   1      43.120  24.814  25.442  1.00  0.00     0.022 A 
BRANCH  54  58
ATOM     58  S   UNL A   1      42.060  22.395  26.336  1.00  0.00     0.124 S 
ATOM     59  O   UNL A   1      42.550  21.926  27.627  1.00  0.00    -0.237 OA
ATOM     60  O   UNL A   1      40.615  22.360  26.146  1.00  0.00    -0.237 OA
ATOM     61  O   UNL A   1      42.848  21.975  25.180  1.00  0.00    -0.744 OA
ENDBRANCH  54  58
ENDBRANCH  27  51
BRANCH  39  62
ATOM     62  C   UNL A   1      44.933  27.544  34.014  1.00  0.00     0.023 A 
ATOM     63  C   UNL A   1      44.944  26.351  34.757  1.00  0.00     0.031 A 
ATOM     64  C   UNL A   1      46.126  28.284  33.931  1.00  0.00     0.131 A 
ATOM     65  C   UNL A   1      46.114  25.955  35.426  1.00  0.00     0.055 A 
ATOM     66  C   UNL A   1      47.300  27.859  34.553  1.00  0.00     0.041 A 
ATOM     67  F   UNL A   1      46.169  29.433  33.237  1.00  0.00    -0.206 F 
ATOM     68  C   UNL A   1      47.296  26.694  35.314  1.00  0.00     0.022 A 
BRANCH  65  69
ATOM     69  S   UNL A   1      46.054  24.500  36.506  1.00  0.00     0.124 S 
ATOM     70  O   UNL A   1      46.137  23.406  35.545  1.00  0.00    -0.237 OA
ATOM     71  O   UNL A   1      47.225  24.693  37.356  1.00  0.00    -0.237 OA
ATOM     72  O   UNL A   1      44.767  24.631  37.187  1.00  0.00    -0.744 OA
ENDBRANCH  65  69
ENDBRANCH  39  62
ENDBRANCH  13  14
ENDBRANCH   6   8
ENDBRANCH   3   4
ENDBRANCH   2   3
ENDBRANCH   1   2
BRANCH   1  73
ATOM     73  C   UNL A   1      31.318  26.076  26.059  1.00  0.00     0.116 C 
BRANCH  73  74
ATOM     74  N   UNL A   1      31.384  24.900  26.904  1.00  0.00    -0.351 N 
ATOM     75  C   UNL A   1      31.954  23.678  26.640  1.00  0.00     0.271 C 
ATOM     76  H   UNL A   1      30.961  24.989  27.788  1.00  0.00     0.163 HD
ATOM     77  O   UNL A   1      32.018  22.825  27.522  1.00  0.00    -0.267 OA
BRANCH  75  78
ATOM     78  C   UNL A   1      32.522  23.389  25.307  1.00  0.00     0.150 A 
ATOM     79  C   UNL A   1      32.405  22.124  24.753  1.00  0.00     0.145 A 
ATOM     80  N   UNL A   1      33.045  24.439  24.627  1.00  0.00    -0.205 NA
ATOM     81  N   UNL A   1      32.830  21.845  23.493  1.00  0.00    -0.257 NA
ATOM     82  C   UNL A   1      33.430  24.180  23.367  1.00  0.00     0.233 A 
ATOM     83  C   UNL A   1      33.324  22.911  22.810  1.00  0.00     0.179 A 
BRANCH  82  84
ATOM     84  O   UNL A   1      33.831  25.217  22.558  1.00  0.00    -0.477 OA
BRANCH  84  85
ATOM     85  C   UNL A   1      33.344  26.498  22.975  1.00  0.00     0.232 C 
BRANCH  85  86
ATOM     86  C   UNL A   1      32.009  26.885  22.325  1.00  0.00     0.046 C 
BRANCH  86  87
ATOM     87  C   UNL A   1      31.545  28.340  22.504  1.00  0.00     0.039 C 
BRANCH  87  88
ATOM     88  C   UNL A   1      30.066  28.620  22.678  1.00  0.00    -0.048 A 
ATOM     89  C   UNL A   1      29.275  27.626  23.279  1.00  0.00     0.004 A 
ATOM     90  C   UNL A   1      29.434  29.796  22.257  1.00  0.00     0.004 A 
ATOM     91  C   UNL A   1      27.909  27.822  23.499  1.00  0.00     0.000 A 
ATOM     92  C   UNL A   1      28.071  30.000  22.493  1.00  0.00     0.000 A 
ATOM     93  C   UNL A   1      27.309  29.016  23.116  1.00  0.00     0.000 A 
ENDBRANCH  87  88
ENDBRANCH  86  87
ENDBRANCH  85  86
ENDBRANCH  84  85
ENDBRANCH  82  84
ENDBRANCH  75  78
ENDBRANCH  73  74
ENDBRANCH   1  73
TORSDOF 19
ENDMDL
