MODEL 1
REMARK VINA RESULT:     -12.7      0.000      0.000
REMARK SMILES O=C(NCCCCNC(=O)c1ccc(NC(=O)c2ccc([N+](=O)[O-])cc2Cl)cc1Cl)c1ccc(-c2c3nc(c(-c4cc(S(=O)(=O)[O-])ccc4F)c4ccc([nH]4)c(-c4cc(S(=O)(=O)[O-])ccc4F)c4nc(c(-c5cc(S(=O)(=O)[O-])ccc5F)c5ccc2[nH]5)C=C4)C=C3)cc1
REMARK SMILES IDX 5 1 4 2 3 3 1 4 2 5 31 7 32 8 93 9 33 10 92 11 34 12 35 13
REMARK SMILES IDX 36 14 86 15 37 16 91 17 85 18 87 19 38 20 90 21 84 22 83 23
REMARK SMILES IDX 39 25 71 26 51 27 70 28 52 29 55 30 69 31 88 32 53 33 54 34
REMARK SMILES IDX 68 36 89 37 56 38 40 39 41 40 49 41 42 42 48 43 50 44 47 45
REMARK SMILES IDX 43 46 44 47 45 48 46 49 72 50 73 51 81 52 74 53 80 54 82 55
REMARK SMILES IDX 79 56 75 57 76 58 77 59 78 60 57 61 58 62 66 63 59 64 65 65
REMARK SMILES IDX 67 66 64 67 60 68 61 69 62 70 63 71 6 72 7 73 8 74 9 75
REMARK SMILES IDX 10 77 11 78 12 79 29 80 13 81 28 82 30 83 14 84 15 85 16 86
REMARK SMILES IDX 17 88 18 89 19 90 26 91 20 92 25 93 27 94 21 95 22 96 23 97
REMARK SMILES IDX 24 98
REMARK H PARENT 3 6 87 24 55 35 8 76 15 87
REMARK Flexibility Score: inf
ROOT
ATOM      1  C   UNL A   1      31.557  32.675  26.647  1.00  0.00     0.023 C 
ENDROOT
BRANCH   1   2
ATOM      2  C   UNL A   1      32.821  33.086  27.389  1.00  0.00     0.116 C 
BRANCH   2   3
ATOM      3  N   UNL A   1      32.760  34.432  27.936  1.00  0.00    -0.352 N 
ATOM      4  O   UNL A   1      33.249  36.128  29.341  1.00  0.00    -0.269 OA
ATOM      5  C   UNL A   1      33.518  34.999  28.935  1.00  0.00     0.251 C 
ATOM      6  H   UNL A   1      32.079  35.021  27.537  1.00  0.00     0.163 HD
BRANCH   5   7
ATOM      7  C   UNL A   1      34.635  34.238  29.539  1.00  0.00     0.039 A 
ATOM      8  C   UNL A   1      34.396  33.280  30.527  1.00  0.00     0.014 A 
ATOM      9  C   UNL A   1      35.944  34.498  29.119  1.00  0.00     0.014 A 
ATOM     10  C   UNL A   1      35.466  32.700  31.199  1.00  0.00     0.010 A 
ATOM     11  C   UNL A   1      37.015  33.846  29.737  1.00  0.00     0.010 A 
ATOM     12  C   UNL A   1      36.788  32.967  30.808  1.00  0.00    -0.014 A 
BRANCH  12  13
ATOM     13  C   UNL A   1      37.907  32.277  31.503  1.00  0.00     0.031 A 
ATOM     14  C   UNL A   1      38.678  31.174  30.831  1.00  0.00     0.074 A 
ATOM     15  C   UNL A   1      38.244  32.680  32.743  1.00  0.00     0.049 A 
ATOM     16  N   UNL A   1      39.686  30.474  31.289  1.00  0.00    -0.248 NA
ATOM     17  C   UNL A   1      38.259  30.800  29.472  1.00  0.00     0.031 C 
ATOM     18  C   UNL A   1      37.563  33.739  33.495  1.00  0.00     0.029 A 
ATOM     19  N   UNL A   1      39.245  32.269  33.584  1.00  0.00    -0.354 N 
ATOM     20  C   UNL A   1      40.013  29.568  30.286  1.00  0.00     0.074 A 
ATOM     21  C   UNL A   1      39.072  29.786  29.207  1.00  0.00     0.031 C 
ATOM     22  C   UNL A   1      38.192  33.923  34.664  1.00  0.00     0.029 A 
ATOM     23  C   UNL A   1      39.275  32.953  34.777  1.00  0.00     0.049 A 
ATOM     24  H   UNL A   1      39.881  31.553  33.357  1.00  0.00     0.167 HD
ATOM     25  C   UNL A   1      41.011  28.648  30.266  1.00  0.00     0.034 A 
ATOM     26  C   UNL A   1      40.070  32.805  35.855  1.00  0.00     0.034 A 
ATOM     27  C   UNL A   1      41.944  28.446  31.352  1.00  0.00     0.049 A 
ATOM     28  C   UNL A   1      41.141  31.750  35.823  1.00  0.00     0.074 A 
ATOM     29  C   UNL A   1      43.011  27.567  31.423  1.00  0.00     0.029 A 
ATOM     30  N   UNL A   1      41.914  29.126  32.565  1.00  0.00    -0.354 N 
ATOM     31  N   UNL A   1      41.446  30.913  34.859  1.00  0.00    -0.248 NA
ATOM     32  C   UNL A   1      41.975  31.623  37.023  1.00  0.00     0.031 C 
ATOM     33  C   UNL A   1      43.583  27.668  32.697  1.00  0.00     0.029 A 
ATOM     34  C   UNL A   1      42.921  28.662  33.399  1.00  0.00     0.049 A 
ATOM     35  H   UNL A   1      41.271  29.835  32.797  1.00  0.00     0.167 HD
ATOM     36  C   UNL A   1      42.519  30.166  35.333  1.00  0.00     0.074 A 
ATOM     37  C   UNL A   1      42.822  30.671  36.658  1.00  0.00     0.031 C 
ATOM     38  C   UNL A   1      43.194  29.155  34.728  1.00  0.00     0.034 A 
BRANCH  25  39
ATOM     39  C   UNL A   1      41.116  27.757  29.048  1.00  0.00     0.023 A 
ATOM     40  C   UNL A   1      42.113  27.942  28.075  1.00  0.00     0.031 A 
ATOM     41  C   UNL A   1      40.190  26.715  28.851  1.00  0.00     0.131 A 
ATOM     42  C   UNL A   1      42.122  27.143  26.921  1.00  0.00     0.055 A 
ATOM     43  C   UNL A   1      40.250  25.877  27.737  1.00  0.00     0.041 A 
ATOM     44  F   UNL A   1      39.203  26.502  29.735  1.00  0.00    -0.206 F 
ATOM     45  C   UNL A   1      41.212  26.096  26.756  1.00  0.00     0.022 A 
BRANCH  42  46
ATOM     46  S   UNL A   1      43.257  27.578  25.573  1.00  0.00     0.124 S 
ATOM     47  O   UNL A   1      43.842  26.279  25.247  1.00  0.00    -0.237 OA
ATOM     48  O   UNL A   1      42.359  28.142  24.573  1.00  0.00    -0.237 OA
ATOM     49  O   UNL A   1      44.179  28.528  26.193  1.00  0.00    -0.744 OA
ENDBRANCH  42  46
ENDBRANCH  25  39
BRANCH  26  50
ATOM     50  C   UNL A   1      39.854  33.649  37.063  1.00  0.00     0.023 A 
ATOM     51  C   UNL A   1      39.126  33.171  38.163  1.00  0.00     0.031 A 
ATOM     52  C   UNL A   1      40.366  34.958  37.126  1.00  0.00     0.131 A 
ATOM     53  C   UNL A   1      38.900  34.009  39.265  1.00  0.00     0.055 A 
ATOM     54  C   UNL A   1      40.183  35.769  38.246  1.00  0.00     0.041 A 
ATOM     55  F   UNL A   1      41.074  35.461  36.102  1.00  0.00    -0.206 F 
ATOM     56  C   UNL A   1      39.435  35.298  39.321  1.00  0.00     0.022 A 
BRANCH  53  57
ATOM     57  S   UNL A   1      37.831  33.412  40.604  1.00  0.00     0.124 S 
ATOM     58  O   UNL A   1      37.599  34.633  41.367  1.00  0.00    -0.237 OA
ATOM     59  O   UNL A   1      36.687  32.888  39.866  1.00  0.00    -0.237 OA
ATOM     60  O   UNL A   1      38.654  32.406  41.271  1.00  0.00    -0.744 OA
ENDBRANCH  53  57
ENDBRANCH  26  50
BRANCH  38  61
ATOM     61  C   UNL A   1      44.344  28.556  35.500  1.00  0.00     0.023 A 
ATOM     62  C   UNL A   1      44.151  27.499  36.406  1.00  0.00     0.031 A 
ATOM     63  C   UNL A   1      45.643  29.071  35.348  1.00  0.00     0.131 A 
ATOM     64  C   UNL A   1      45.228  27.031  37.173  1.00  0.00     0.055 A 
ATOM     65  C   UNL A   1      46.723  28.562  36.070  1.00  0.00     0.041 A 
ATOM     66  F   UNL A   1      45.883  30.082  34.497  1.00  0.00    -0.206 F 
ATOM     67  C   UNL A   1      46.516  27.546  36.999  1.00  0.00     0.022 A 
BRANCH  64  68
ATOM     68  S   UNL A   1      44.908  25.805  38.470  1.00  0.00     0.124 S 
ATOM     69  O   UNL A   1      44.149  26.584  39.443  1.00  0.00    -0.237 OA
ATOM     70  O   UNL A   1      44.160  24.779  37.751  1.00  0.00    -0.237 OA
ATOM     71  O   UNL A   1      46.245  25.406  38.903  1.00  0.00    -0.744 OA
ENDBRANCH  64  68
ENDBRANCH  38  61
ENDBRANCH  12  13
ENDBRANCH   5   7
ENDBRANCH   2   3
ENDBRANCH   1   2
BRANCH   1  72
ATOM     72  C   UNL A   1      31.361  31.176  26.439  1.00  0.00     0.023 C 
BRANCH  72  73
ATOM     73  C   UNL A   1      32.627  30.327  26.452  1.00  0.00     0.116 C 
BRANCH  73  74
ATOM     74  N   UNL A   1      33.247  30.154  25.147  1.00  0.00    -0.352 N 
ATOM     75  C   UNL A   1      33.126  29.109  24.263  1.00  0.00     0.252 C 
ATOM     76  H   UNL A   1      33.838  30.887  24.859  1.00  0.00     0.163 HD
ATOM     77  O   UNL A   1      33.692  29.135  23.175  1.00  0.00    -0.269 OA
BRANCH  75  78
ATOM     78  C   UNL A   1      32.419  27.883  24.670  1.00  0.00     0.058 A 
ATOM     79  C   UNL A   1      33.185  26.928  25.340  1.00  0.00     0.017 A 
ATOM     80  C   UNL A   1      31.065  27.643  24.447  1.00  0.00     0.055 A 
ATOM     81  C   UNL A   1      32.572  25.807  25.900  1.00  0.00     0.027 A 
ATOM     82  C   UNL A   1      30.448  26.548  25.067  1.00  0.00     0.047 A 
ATOM     83  Cl  UNL A   1      30.094  28.640  23.426  1.00  0.00    -0.083 Cl
ATOM     84  C   UNL A   1      31.186  25.661  25.863  1.00  0.00     0.043 A 
BRANCH  84  85
ATOM     85  N   UNL A   1      30.453  24.697  26.587  1.00  0.00    -0.322 N 
ATOM     86  C   UNL A   1      30.627  23.345  26.793  1.00  0.00     0.257 C 
ATOM     87  H   UNL A   1      29.655  25.063  27.033  1.00  0.00     0.170 HD
ATOM     88  O   UNL A   1      29.801  22.705  27.441  1.00  0.00    -0.269 OA
BRANCH  86  89
ATOM     89  C   UNL A   1      31.770  22.615  26.230  1.00  0.00     0.059 A 
ATOM     90  C   UNL A   1      32.711  22.125  27.149  1.00  0.00     0.022 A 
ATOM     91  C   UNL A   1      31.907  22.353  24.860  1.00  0.00     0.060 A 
ATOM     92  C   UNL A   1      33.736  21.287  26.710  1.00  0.00     0.086 A 
ATOM     93  C   UNL A   1      32.925  21.502  24.418  1.00  0.00     0.107 A 
ATOM     94  Cl  UNL A   1      30.823  23.003  23.684  1.00  0.00    -0.083 Cl
ATOM     95  C   UNL A   1      33.819  20.954  25.350  1.00  0.00     0.270 A 
BRANCH  95  96
ATOM     96  N   UNL A   1      34.834  19.991  24.907  1.00  0.00     0.062 N 
ATOM     97  O   UNL A   1      36.016  20.360  24.913  1.00  0.00    -0.258 OA
ATOM     98  O   UNL A   1      34.445  18.866  24.569  1.00  0.00    -0.258 OA
ENDBRANCH  95  96
ENDBRANCH  86  89
ENDBRANCH  84  85
ENDBRANCH  75  78
ENDBRANCH  73  74
ENDBRANCH  72  73
ENDBRANCH   1  72
TORSDOF 17
ENDMDL
MODEL 2
REMARK VINA RESULT:     -12.6      4.680      8.391
REMARK SMILES O=C(NCCCCNC(=O)c1ccc(NC(=O)c2ccc([N+](=O)[O-])cc2Cl)cc1Cl)c1ccc(-c2c3nc(c(-c4cc(S(=O)(=O)[O-])ccc4F)c4ccc([nH]4)c(-c4cc(S(=O)(=O)[O-])ccc4F)c4nc(c(-c5cc(S(=O)(=O)[O-])ccc5F)c5ccc2[nH]5)C=C4)C=C3)cc1
REMARK SMILES IDX 5 1 4 2 3 3 1 4 2 5 31 7 32 8 93 9 33 10 92 11 34 12 35 13
REMARK SMILES IDX 36 14 86 15 37 16 91 17 85 18 87 19 38 20 90 21 84 22 83 23
REMARK SMILES IDX 39 25 71 26 51 27 70 28 52 29 55 30 69 31 88 32 53 33 54 34
REMARK SMILES IDX 68 36 89 37 56 38 40 39 41 40 49 41 42 42 48 43 50 44 47 45
REMARK SMILES IDX 43 46 44 47 45 48 46 49 72 50 73 51 81 52 74 53 80 54 82 55
REMARK SMILES IDX 79 56 75 57 76 58 77 59 78 60 57 61 58 62 66 63 59 64 65 65
REMARK SMILES IDX 67 66 64 67 60 68 61 69 62 70 63 71 6 72 7 73 8 74 9 75
REMARK SMILES IDX 10 77 11 78 12 79 29 80 13 81 28 82 30 83 14 84 15 85 16 86
REMARK SMILES IDX 17 88 18 89 19 90 26 91 20 92 25 93 27 94 21 95 22 96 23 97
REMARK SMILES IDX 24 98
REMARK H PARENT 3 6 87 24 55 35 8 76 15 87
REMARK Flexibility Score: inf
ROOT
ATOM      1  C   UNL A   1      35.417  23.225  26.166  1.00  0.00     0.023 C 
ENDROOT
BRANCH   1   2
ATOM      2  C   UNL A   1      36.724  23.598  25.479  1.00  0.00     0.116 C 
BRANCH   2   3
ATOM      3  N   UNL A   1      37.790  22.632  25.698  1.00  0.00    -0.352 N 
ATOM      4  O   UNL A   1      39.850  21.903  26.257  1.00  0.00    -0.269 OA
ATOM      5  C   UNL A   1      39.036  22.824  26.250  1.00  0.00     0.251 C 
ATOM      6  H   UNL A   1      37.592  21.712  25.411  1.00  0.00     0.163 HD
BRANCH   5   7
ATOM      7  C   UNL A   1      39.403  24.146  26.807  1.00  0.00     0.039 A 
ATOM      8  C   UNL A   1      40.036  25.105  26.012  1.00  0.00     0.014 A 
ATOM      9  C   UNL A   1      39.122  24.424  28.148  1.00  0.00     0.014 A 
ATOM     10  C   UNL A   1      40.524  26.270  26.594  1.00  0.00     0.010 A 
ATOM     11  C   UNL A   1      39.536  25.637  28.709  1.00  0.00     0.010 A 
ATOM     12  C   UNL A   1      40.273  26.555  27.946  1.00  0.00    -0.014 A 
BRANCH  12  13
ATOM     13  C   UNL A   1      40.749  27.842  28.519  1.00  0.00     0.031 A 
ATOM     14  C   UNL A   1      42.217  28.133  28.668  1.00  0.00     0.074 A 
ATOM     15  C   UNL A   1      39.836  28.766  28.879  1.00  0.00     0.049 A 
ATOM     16  N   UNL A   1      42.803  29.205  29.138  1.00  0.00    -0.248 NA
ATOM     17  C   UNL A   1      43.151  27.080  28.241  1.00  0.00     0.031 C 
ATOM     18  C   UNL A   1      38.384  28.592  28.783  1.00  0.00     0.029 A 
ATOM     19  N   UNL A   1      39.985  30.035  29.376  1.00  0.00    -0.354 N 
ATOM     20  C   UNL A   1      44.170  28.954  29.080  1.00  0.00     0.074 A 
ATOM     21  C   UNL A   1      44.323  27.611  28.559  1.00  0.00     0.031 C 
ATOM     22  C   UNL A   1      37.778  29.725  29.166  1.00  0.00     0.029 A 
ATOM     23  C   UNL A   1      38.791  30.680  29.598  1.00  0.00     0.049 A 
ATOM     24  H   UNL A   1      40.862  30.444  29.557  1.00  0.00     0.167 HD
ATOM     25  C   UNL A   1      45.198  29.772  29.422  1.00  0.00     0.034 A 
ATOM     26  C   UNL A   1      38.534  31.898  30.113  1.00  0.00     0.034 A 
ATOM     27  C   UNL A   1      45.026  31.111  29.939  1.00  0.00     0.049 A 
ATOM     28  C   UNL A   1      39.691  32.769  30.523  1.00  0.00     0.074 A 
ATOM     29  C   UNL A   1      45.997  32.036  30.284  1.00  0.00     0.029 A 
ATOM     30  N   UNL A   1      43.799  31.715  30.195  1.00  0.00    -0.354 N 
ATOM     31  N   UNL A   1      40.977  32.520  30.447  1.00  0.00    -0.248 NA
ATOM     32  C   UNL A   1      39.359  34.082  31.086  1.00  0.00     0.031 C 
ATOM     33  C   UNL A   1      45.361  33.168  30.810  1.00  0.00     0.029 A 
ATOM     34  C   UNL A   1      43.991  32.983  30.725  1.00  0.00     0.049 A 
ATOM     35  H   UNL A   1      42.922  31.302  30.025  1.00  0.00     0.167 HD
ATOM     36  C   UNL A   1      41.610  33.655  30.941  1.00  0.00     0.074 A 
ATOM     37  C   UNL A   1      40.564  34.596  31.288  1.00  0.00     0.031 C 
ATOM     38  C   UNL A   1      42.937  33.899  31.093  1.00  0.00     0.034 A 
BRANCH  25  39
ATOM     39  C   UNL A   1      46.601  29.222  29.292  1.00  0.00     0.023 A 
ATOM     40  C   UNL A   1      47.335  29.333  28.099  1.00  0.00     0.031 A 
ATOM     41  C   UNL A   1      47.206  28.562  30.378  1.00  0.00     0.131 A 
ATOM     42  C   UNL A   1      48.602  28.736  27.998  1.00  0.00     0.055 A 
ATOM     43  C   UNL A   1      48.497  28.036  30.294  1.00  0.00     0.041 A 
ATOM     44  F   UNL A   1      46.548  28.408  31.537  1.00  0.00    -0.206 F 
ATOM     45  C   UNL A   1      49.198  28.108  29.094  1.00  0.00     0.022 A 
BRANCH  42  46
ATOM     46  S   UNL A   1      49.405  28.673  26.371  1.00  0.00     0.124 S 
ATOM     47  O   UNL A   1      49.995  30.007  26.280  1.00  0.00    -0.237 OA
ATOM     48  O   UNL A   1      50.344  27.569  26.525  1.00  0.00    -0.237 OA
ATOM     49  O   UNL A   1      48.297  28.428  25.450  1.00  0.00    -0.744 OA
ENDBRANCH  42  46
ENDBRANCH  25  39
BRANCH  26  50
ATOM     50  C   UNL A   1      37.127  32.345  30.306  1.00  0.00     0.023 A 
ATOM     51  C   UNL A   1      36.420  32.986  29.278  1.00  0.00     0.031 A 
ATOM     52  C   UNL A   1      36.472  32.148  31.536  1.00  0.00     0.131 A 
ATOM     53  C   UNL A   1      35.112  33.438  29.508  1.00  0.00     0.055 A 
ATOM     54  C   UNL A   1      35.153  32.553  31.743  1.00  0.00     0.041 A 
ATOM     55  F   UNL A   1      37.103  31.535  32.551  1.00  0.00    -0.206 F 
ATOM     56  C   UNL A   1      34.469  33.213  30.728  1.00  0.00     0.022 A 
BRANCH  53  57
ATOM     57  S   UNL A   1      34.282  34.392  28.208  1.00  0.00     0.124 S 
ATOM     58  O   UNL A   1      33.101  33.576  27.948  1.00  0.00    -0.237 OA
ATOM     59  O   UNL A   1      34.047  35.670  28.872  1.00  0.00    -0.237 OA
ATOM     60  O   UNL A   1      35.268  34.425  27.129  1.00  0.00    -0.744 OA
ENDBRANCH  53  57
ENDBRANCH  26  50
BRANCH  38  61
ATOM     61  C   UNL A   1      43.316  35.254  31.637  1.00  0.00     0.023 A 
ATOM     62  C   UNL A   1      43.326  35.516  33.019  1.00  0.00     0.031 A 
ATOM     63  C   UNL A   1      43.638  36.305  30.761  1.00  0.00     0.131 A 
ATOM     64  C   UNL A   1      43.593  36.813  33.481  1.00  0.00     0.055 A 
ATOM     65  C   UNL A   1      43.961  37.579  31.230  1.00  0.00     0.041 A 
ATOM     66  F   UNL A   1      43.641  36.110  29.432  1.00  0.00    -0.206 F 
ATOM     67  C   UNL A   1      43.925  37.842  32.597  1.00  0.00     0.022 A 
BRANCH  64  68
ATOM     68  S   UNL A   1      43.408  37.162  35.252  1.00  0.00     0.124 S 
ATOM     69  O   UNL A   1      43.860  38.547  35.337  1.00  0.00    -0.237 OA
ATOM     70  O   UNL A   1      41.981  36.942  35.465  1.00  0.00    -0.237 OA
ATOM     71  O   UNL A   1      44.287  36.183  35.888  1.00  0.00    -0.744 OA
ENDBRANCH  64  68
ENDBRANCH  38  61
ENDBRANCH  12  13
ENDBRANCH   5   7
ENDBRANCH   2   3
ENDBRANCH   1   2
BRANCH   1  72
ATOM     72  C   UNL A   1      35.303  21.782  26.648  1.00  0.00     0.023 C 
BRANCH  72  73
ATOM     73  C   UNL A   1      33.972  21.392  27.282  1.00  0.00     0.116 C 
BRANCH  73  74
ATOM     74  N   UNL A   1      33.269  20.323  26.590  1.00  0.00    -0.352 N 
ATOM     75  C   UNL A   1      32.624  20.353  25.377  1.00  0.00     0.252 C 
ATOM     76  H   UNL A   1      33.251  19.456  27.057  1.00  0.00     0.163 HD
ATOM     77  O   UNL A   1      32.106  19.344  24.912  1.00  0.00    -0.269 OA
BRANCH  75  78
ATOM     78  C   UNL A   1      32.430  21.637  24.683  1.00  0.00     0.058 A 
ATOM     79  C   UNL A   1      33.324  21.917  23.648  1.00  0.00     0.017 A 
ATOM     80  C   UNL A   1      31.420  22.550  24.982  1.00  0.00     0.055 A 
ATOM     81  C   UNL A   1      33.126  23.033  22.834  1.00  0.00     0.027 A 
ATOM     82  C   UNL A   1      31.191  23.631  24.120  1.00  0.00     0.047 A 
ATOM     83  Cl  UNL A   1      30.423  22.415  26.384  1.00  0.00    -0.083 Cl
ATOM     84  C   UNL A   1      31.999  23.838  22.993  1.00  0.00     0.043 A 
BRANCH  84  85
ATOM     85  N   UNL A   1      31.587  24.842  22.092  1.00  0.00    -0.322 N 
ATOM     86  C   UNL A   1      31.582  26.218  22.157  1.00  0.00     0.257 C 
ATOM     87  H   UNL A   1      31.229  24.488  21.246  1.00  0.00     0.170 HD
ATOM     88  O   UNL A   1      31.115  26.882  21.234  1.00  0.00    -0.269 OA
BRANCH  86  89
ATOM     89  C   UNL A   1      32.095  26.941  23.328  1.00  0.00     0.059 A 
ATOM     90  C   UNL A   1      33.437  27.348  23.272  1.00  0.00     0.022 A 
ATOM     91  C   UNL A   1      31.295  27.275  24.430  1.00  0.00     0.060 A 
ATOM     92  C   UNL A   1      33.953  28.175  24.268  1.00  0.00     0.086 A 
ATOM     93  C   UNL A   1      31.804  28.115  25.424  1.00  0.00     0.107 A 
ATOM     94  Cl  UNL A   1      29.665  26.728  24.584  1.00  0.00    -0.083 Cl
ATOM     95  C   UNL A   1      33.124  28.581  25.324  1.00  0.00     0.270 A 
BRANCH  95  96
ATOM     96  N   UNL A   1      33.637  29.534  26.315  1.00  0.00     0.062 N 
ATOM     97  O   UNL A   1      32.955  30.541  26.549  1.00  0.00    -0.258 OA
ATOM     98  O   UNL A   1      34.713  29.264  26.865  1.00  0.00    -0.258 OA
ENDBRANCH  95  96
ENDBRANCH  86  89
ENDBRANCH  84  85
ENDBRANCH  75  78
ENDBRANCH  73  74
ENDBRANCH  72  73
ENDBRANCH   1  72
TORSDOF 17
ENDMDL
MODEL 3
REMARK VINA RESULT:     -12.6      5.427      8.696
REMARK SMILES O=C(NCCCCNC(=O)c1ccc(NC(=O)c2ccc([N+](=O)[O-])cc2Cl)cc1Cl)c1ccc(-c2c3nc(c(-c4cc(S(=O)(=O)[O-])ccc4F)c4ccc([nH]4)c(-c4cc(S(=O)(=O)[O-])ccc4F)c4nc(c(-c5cc(S(=O)(=O)[O-])ccc5F)c5ccc2[nH]5)C=C4)C=C3)cc1
REMARK SMILES IDX 5 1 4 2 3 3 1 4 2 5 31 7 32 8 93 9 33 10 92 11 34 12 35 13
REMARK SMILES IDX 36 14 86 15 37 16 91 17 85 18 87 19 38 20 90 21 84 22 83 23
REMARK SMILES IDX 39 25 71 26 51 27 70 28 52 29 55 30 69 31 88 32 53 33 54 34
REMARK SMILES IDX 68 36 89 37 56 38 40 39 41 40 49 41 42 42 48 43 50 44 47 45
REMARK SMILES IDX 43 46 44 47 45 48 46 49 72 50 73 51 81 52 74 53 80 54 82 55
REMARK SMILES IDX 79 56 75 57 76 58 77 59 78 60 57 61 58 62 66 63 59 64 65 65
REMARK SMILES IDX 67 66 64 67 60 68 61 69 62 70 63 71 6 72 7 73 8 74 9 75
REMARK SMILES IDX 10 77 11 78 12 79 29 80 13 81 28 82 30 83 14 84 15 85 16 86
REMARK SMILES IDX 17 88 18 89 19 90 26 91 20 92 25 93 27 94 21 95 22 96 23 97
REMARK SMILES IDX 24 98
REMARK H PARENT 3 6 87 24 55 35 8 76 15 87
REMARK Flexibility Score: inf
ROOT
ATOM      1  C   UNL A   1      35.633  22.881  26.084  1.00  0.00     0.023 C 
ENDROOT
BRANCH   1   2
ATOM      2  C   UNL A   1      36.794  22.728  25.110  1.00  0.00     0.116 C 
BRANCH   2   3
ATOM      3  N   UNL A   1      37.673  21.613  25.427  1.00  0.00    -0.352 N 
ATOM      4  O   UNL A   1      39.554  20.585  26.131  1.00  0.00    -0.269 OA
ATOM      5  C   UNL A   1      38.904  21.625  26.042  1.00  0.00     0.251 C 
ATOM      6  H   UNL A   1      37.341  20.724  25.164  1.00  0.00     0.163 HD
BRANCH   5   7
ATOM      7  C   UNL A   1      39.457  22.894  26.568  1.00  0.00     0.039 A 
ATOM      8  C   UNL A   1      39.035  24.123  26.056  1.00  0.00     0.014 A 
ATOM      9  C   UNL A   1      40.421  22.851  27.579  1.00  0.00     0.014 A 
ATOM     10  C   UNL A   1      39.685  25.291  26.441  1.00  0.00     0.010 A 
ATOM     11  C   UNL A   1      41.012  24.037  28.028  1.00  0.00     0.010 A 
ATOM     12  C   UNL A   1      40.674  25.265  27.438  1.00  0.00    -0.014 A 
BRANCH  12  13
ATOM     13  C   UNL A   1      41.301  26.540  27.876  1.00  0.00     0.031 A 
ATOM     14  C   UNL A   1      42.726  26.869  27.522  1.00  0.00     0.074 A 
ATOM     15  C   UNL A   1      40.556  27.419  28.575  1.00  0.00     0.049 A 
ATOM     16  N   UNL A   1      43.422  27.938  27.815  1.00  0.00    -0.248 NA
ATOM     17  C   UNL A   1      43.468  25.865  26.746  1.00  0.00     0.031 C 
ATOM     18  C   UNL A   1      39.163  27.204  28.978  1.00  0.00     0.029 A 
ATOM     19  N   UNL A   1      40.850  28.670  29.053  1.00  0.00    -0.354 N 
ATOM     20  C   UNL A   1      44.688  27.733  27.276  1.00  0.00     0.074 A 
ATOM     21  C   UNL A   1      44.670  26.419  26.666  1.00  0.00     0.031 C 
ATOM     22  C   UNL A   1      38.712  28.301  29.603  1.00  0.00     0.029 A 
ATOM     23  C   UNL A   1      39.798  29.268  29.706  1.00  0.00     0.049 A 
ATOM     24  H   UNL A   1      41.729  29.098  28.940  1.00  0.00     0.167 HD
ATOM     25  C   UNL A   1      45.759  28.567  27.282  1.00  0.00     0.034 A 
ATOM     26  C   UNL A   1      39.718  30.454  30.340  1.00  0.00     0.034 A 
ATOM     27  C   UNL A   1      45.757  29.877  27.893  1.00  0.00     0.049 A 
ATOM     28  C   UNL A   1      40.932  31.342  30.368  1.00  0.00     0.074 A 
ATOM     29  C   UNL A   1      46.774  30.816  27.928  1.00  0.00     0.029 A 
ATOM     30  N   UNL A   1      44.687  30.431  28.588  1.00  0.00    -0.354 N 
ATOM     31  N   UNL A   1      42.116  31.137  29.839  1.00  0.00    -0.248 NA
ATOM     32  C   UNL A   1      40.797  32.619  31.077  1.00  0.00     0.031 C 
ATOM     33  C   UNL A   1      46.345  31.904  28.697  1.00  0.00     0.029 A 
ATOM     34  C   UNL A   1      45.033  31.680  29.082  1.00  0.00     0.049 A 
ATOM     35  H   UNL A   1      43.812  29.998  28.710  1.00  0.00     0.167 HD
ATOM     36  C   UNL A   1      42.865  32.269  30.141  1.00  0.00     0.074 A 
ATOM     37  C   UNL A   1      41.990  33.161  30.876  1.00  0.00     0.031 C 
ATOM     38  C   UNL A   1      44.159  32.547  29.837  1.00  0.00     0.034 A 
BRANCH  25  39
ATOM     39  C   UNL A   1      47.038  28.066  26.648  1.00  0.00     0.023 A 
ATOM     40  C   UNL A   1      47.253  28.129  25.260  1.00  0.00     0.031 A 
ATOM     41  C   UNL A   1      48.051  27.503  27.445  1.00  0.00     0.131 A 
ATOM     42  C   UNL A   1      48.420  27.578  24.707  1.00  0.00     0.055 A 
ATOM     43  C   UNL A   1      49.242  27.024  26.896  1.00  0.00     0.041 A 
ATOM     44  F   UNL A   1      47.895  27.397  28.775  1.00  0.00    -0.206 F 
ATOM     45  C   UNL A   1      49.427  27.048  25.517  1.00  0.00     0.022 A 
BRANCH  42  46
ATOM     46  S   UNL A   1      48.545  27.443  22.901  1.00  0.00     0.124 S 
ATOM     47  O   UNL A   1      47.380  28.210  22.465  1.00  0.00    -0.237 OA
ATOM     48  O   UNL A   1      49.844  28.045  22.628  1.00  0.00    -0.237 OA
ATOM     49  O   UNL A   1      48.459  26.004  22.658  1.00  0.00    -0.744 OA
ENDBRANCH  42  46
ENDBRANCH  25  39
BRANCH  26  50
ATOM     50  C   UNL A   1      38.459  30.849  31.030  1.00  0.00     0.023 A 
ATOM     51  C   UNL A   1      37.426  31.501  30.340  1.00  0.00     0.031 A 
ATOM     52  C   UNL A   1      38.278  30.589  32.400  1.00  0.00     0.131 A 
ATOM     53  C   UNL A   1      36.273  31.903  31.030  1.00  0.00     0.055 A 
ATOM     54  C   UNL A   1      37.107  30.944  33.071  1.00  0.00     0.041 A 
ATOM     55  F   UNL A   1      39.234  29.963  33.105  1.00  0.00    -0.206 F 
ATOM     56  C   UNL A   1      36.100  31.616  32.386  1.00  0.00     0.022 A 
BRANCH  53  57
ATOM     57  S   UNL A   1      35.023  32.873  30.142  1.00  0.00     0.124 S 
ATOM     58  O   UNL A   1      34.538  31.909  29.162  1.00  0.00    -0.237 OA
ATOM     59  O   UNL A   1      34.095  33.224  31.212  1.00  0.00    -0.237 OA
ATOM     60  O   UNL A   1      35.788  33.991  29.593  1.00  0.00    -0.744 OA
ENDBRANCH  53  57
ENDBRANCH  26  50
BRANCH  38  61
ATOM     61  C   UNL A   1      44.683  33.889  30.285  1.00  0.00     0.023 A 
ATOM     62  C   UNL A   1      44.519  35.043  29.499  1.00  0.00     0.031 A 
ATOM     63  C   UNL A   1      45.383  34.007  31.498  1.00  0.00     0.131 A 
ATOM     64  C   UNL A   1      45.101  36.253  29.906  1.00  0.00     0.055 A 
ATOM     65  C   UNL A   1      45.909  35.226  31.926  1.00  0.00     0.041 A 
ATOM     66  F   UNL A   1      45.571  32.935  32.286  1.00  0.00    -0.206 F 
ATOM     67  C   UNL A   1      45.782  36.355  31.121  1.00  0.00     0.022 A 
BRANCH  64  68
ATOM     68  S   UNL A   1      45.038  37.673  28.778  1.00  0.00     0.124 S 
ATOM     69  O   UNL A   1      46.324  38.316  29.028  1.00  0.00    -0.237 OA
ATOM     70  O   UNL A   1      44.887  37.031  27.476  1.00  0.00    -0.237 OA
ATOM     71  O   UNL A   1      43.870  38.423  29.236  1.00  0.00    -0.744 OA
ENDBRANCH  64  68
ENDBRANCH  38  61
ENDBRANCH  12  13
ENDBRANCH   5   7
ENDBRANCH   2   3
ENDBRANCH   1   2
BRANCH   1  72
ATOM     72  C   UNL A   1      35.309  21.657  26.936  1.00  0.00     0.023 C 
BRANCH  72  73
ATOM     73  C   UNL A   1      33.843  21.472  27.312  1.00  0.00     0.116 C 
BRANCH  73  74
ATOM     74  N   UNL A   1      33.171  20.398  26.597  1.00  0.00    -0.352 N 
ATOM     75  C   UNL A   1      32.571  20.423  25.361  1.00  0.00     0.252 C 
ATOM     76  H   UNL A   1      33.140  19.533  27.066  1.00  0.00     0.163 HD
ATOM     77  O   UNL A   1      32.075  19.410  24.880  1.00  0.00    -0.269 OA
BRANCH  75  78
ATOM     78  C   UNL A   1      32.396  21.705  24.658  1.00  0.00     0.058 A 
ATOM     79  C   UNL A   1      33.317  21.980  23.645  1.00  0.00     0.017 A 
ATOM     80  C   UNL A   1      31.380  22.620  24.927  1.00  0.00     0.055 A 
ATOM     81  C   UNL A   1      33.141  23.092  22.822  1.00  0.00     0.027 A 
ATOM     82  C   UNL A   1      31.175  23.697  24.055  1.00  0.00     0.047 A 
ATOM     83  Cl  UNL A   1      30.347  22.491  26.303  1.00  0.00    -0.083 Cl
ATOM     84  C   UNL A   1      32.012  23.899  22.949  1.00  0.00     0.043 A 
BRANCH  84  85
ATOM     85  N   UNL A   1      31.624  24.900  22.033  1.00  0.00    -0.322 N 
ATOM     86  C   UNL A   1      31.599  26.276  22.101  1.00  0.00     0.257 C 
ATOM     87  H   UNL A   1      31.306  24.543  21.172  1.00  0.00     0.170 HD
ATOM     88  O   UNL A   1      31.161  26.937  21.161  1.00  0.00    -0.269 OA
BRANCH  86  89
ATOM     89  C   UNL A   1      32.054  27.003  23.294  1.00  0.00     0.059 A 
ATOM     90  C   UNL A   1      33.402  27.390  23.312  1.00  0.00     0.022 A 
ATOM     91  C   UNL A   1      31.196  27.356  24.345  1.00  0.00     0.060 A 
ATOM     92  C   UNL A   1      33.872  28.220  24.330  1.00  0.00     0.086 A 
ATOM     93  C   UNL A   1      31.659  28.199  25.360  1.00  0.00     0.107 A 
ATOM     94  Cl  UNL A   1      29.552  26.832  24.409  1.00  0.00    -0.083 Cl
ATOM     95  C   UNL A   1      32.989  28.646  25.333  1.00  0.00     0.270 A 
BRANCH  95  96
ATOM     96  N   UNL A   1      33.457  29.601  26.344  1.00  0.00     0.062 N 
ATOM     97  O   UNL A   1      32.676  30.498  26.690  1.00  0.00    -0.258 OA
ATOM     98  O   UNL A   1      34.597  29.441  26.797  1.00  0.00    -0.258 OA
ENDBRANCH  95  96
ENDBRANCH  86  89
ENDBRANCH  84  85
ENDBRANCH  75  78
ENDBRANCH  73  74
ENDBRANCH  72  73
ENDBRANCH   1  72
TORSDOF 17
ENDMDL
