MODEL 1
REMARK VINA RESULT:     -12.2      0.000      0.000
REMARK SMILES CC1(C)CCC[C@H]1NC(=O)N[C@@H]1COC[C@@]1(C)C(=O)NCCCCNC(=O)c1ccc(-c2c3nc(c(-c4cc(S(=O)(=O)[O-])ccc4F)c4ccc([nH]4)c(-c4cc(S(=O)(=O)[O-])ccc4F)c4nc(c(-c5cc(S(=O)(=O)[O-])ccc5F)c5ccc2[nH]5)C=C4)C=C3)cc1
REMARK SMILES IDX 23 1 22 2 21 3 20 4 18 5 19 6 16 8 12 9 13 10 14 11 15 12
REMARK SMILES IDX 17 13 11 14 8 15 9 16 10 18 7 20 1 21 2 22 3 23 4 24 5 25
REMARK SMILES IDX 6 26 24 27 25 28 26 29 27 31 28 32 29 33 90 34 30 35 89 36
REMARK SMILES IDX 31 37 32 38 33 39 83 40 34 41 88 42 82 43 84 44 35 45 87 46
REMARK SMILES IDX 81 47 80 48 36 50 68 51 48 52 67 53 49 54 52 55 66 56 85 57
REMARK SMILES IDX 50 58 51 59 65 61 86 62 53 63 37 64 38 65 46 66 39 67 45 68
REMARK SMILES IDX 47 69 44 70 40 71 41 72 42 73 43 74 69 75 70 76 78 77 71 78
REMARK SMILES IDX 77 79 79 80 76 81 72 82 73 83 74 84 75 85 54 86 55 87 63 88
REMARK SMILES IDX 56 89 62 90 64 91 61 92 57 93 58 94 59 95 60 96
REMARK H PARENT 20 7 8 17 11 19 25 30 84 49 52 60
REMARK Flexibility Score: inf
ROOT
ATOM      1  C   UNL A   1      31.980  28.732  27.232  1.00  0.00     0.023 C 
ENDROOT
BRANCH   1   2
ATOM      2  C   UNL A   1      32.083  27.256  26.866  1.00  0.00     0.023 C 
BRANCH   2   3
ATOM      3  C   UNL A   1      31.004  26.680  25.944  1.00  0.00     0.116 C 
BRANCH   3   4
ATOM      4  N   UNL A   1      31.035  27.105  24.555  1.00  0.00    -0.355 N 
ATOM      5  C   UNL A   1      31.389  26.434  23.416  1.00  0.00     0.230 C 
ATOM      6  O   UNL A   1      31.015  26.924  22.346  1.00  0.00    -0.274 OA
ATOM      7  H   UNL A   1      30.751  28.036  24.406  1.00  0.00     0.163 HD
BRANCH   5   8
ATOM      8  C   UNL A   1      32.294  25.194  23.446  1.00  0.00     0.092 C 
ATOM      9  C   UNL A   1      31.666  23.908  24.017  1.00  0.00     0.127 C 
ATOM     10  C   UNL A   1      32.019  22.780  23.051  1.00  0.00     0.186 C 
ATOM     11  O   UNL A   1      32.895  23.335  22.067  1.00  0.00    -0.378 OA
ATOM     12  C   UNL A   1      32.585  24.737  21.998  1.00  0.00     0.179 C 
ATOM     13  C   UNL A   1      33.613  25.625  24.041  1.00  0.00     0.026 C 
BRANCH   9  14
ATOM     14  N   UNL A   1      31.830  23.534  25.431  1.00  0.00    -0.332 N 
ATOM     15  N   UNL A   1      33.897  22.504  26.039  1.00  0.00    -0.335 N 
ATOM     16  C   UNL A   1      32.688  22.994  26.288  1.00  0.00     0.315 C 
ATOM     17  H   UNL A   1      34.408  22.377  26.871  1.00  0.00     0.165 HD
ATOM     18  O   UNL A   1      32.319  22.970  27.468  1.00  0.00    -0.249 OA
ATOM     19  H   UNL A   1      31.006  23.770  25.916  1.00  0.00     0.165 HD
BRANCH  15  20
ATOM     20  C   UNL A   1      34.679  22.100  24.871  1.00  0.00     0.089 C 
ATOM     21  C   UNL A   1      36.390  23.987  25.632  1.00  0.00     0.013 C 
ATOM     22  C   UNL A   1      36.149  22.668  24.873  1.00  0.00    -0.015 C 
ATOM     23  C   UNL A   1      36.686  22.832  23.429  1.00  0.00     0.013 C 
ATOM     24  C   UNL A   1      36.938  21.549  25.574  1.00  0.00     0.008 C 
ATOM     25  C   UNL A   1      36.345  20.276  25.006  1.00  0.00     0.003 C 
ATOM     26  C   UNL A   1      34.850  20.561  24.905  1.00  0.00     0.025 C 
ENDBRANCH  15  20
ENDBRANCH   9  14
ENDBRANCH   5   8
ENDBRANCH   3   4
ENDBRANCH   2   3
ENDBRANCH   1   2
BRANCH   1  27
ATOM     27  C   UNL A   1      33.057  29.618  26.643  1.00  0.00     0.116 C 
BRANCH  27  28
ATOM     28  N   UNL A   1      32.905  31.030  26.954  1.00  0.00    -0.352 N 
ATOM     29  C   UNL A   1      33.794  31.841  27.630  1.00  0.00     0.251 C 
ATOM     30  H   UNL A   1      32.073  31.456  26.649  1.00  0.00     0.163 HD
ATOM     31  O   UNL A   1      33.499  32.990  27.905  1.00  0.00    -0.269 OA
BRANCH  29  32
ATOM     32  C   UNL A   1      35.084  31.258  28.068  1.00  0.00     0.039 A 
ATOM     33  C   UNL A   1      36.235  32.043  28.001  1.00  0.00     0.014 A 
ATOM     34  C   UNL A   1      35.134  29.976  28.618  1.00  0.00     0.014 A 
ATOM     35  C   UNL A   1      37.424  31.560  28.549  1.00  0.00     0.010 A 
ATOM     36  C   UNL A   1      36.285  29.546  29.263  1.00  0.00     0.010 A 
ATOM     37  C   UNL A   1      37.450  30.325  29.218  1.00  0.00    -0.014 A 
BRANCH  37  38
ATOM     38  C   UNL A   1      38.696  29.808  29.836  1.00  0.00     0.031 A 
ATOM     39  C   UNL A   1      39.113  30.303  31.195  1.00  0.00     0.074 A 
ATOM     40  C   UNL A   1      39.469  28.938  29.156  1.00  0.00     0.049 A 
ATOM     41  N   UNL A   1      40.179  30.009  31.893  1.00  0.00    -0.248 NA
ATOM     42  C   UNL A   1      38.232  31.294  31.837  1.00  0.00     0.031 C 
ATOM     43  C   UNL A   1      39.196  28.439  27.805  1.00  0.00     0.029 A 
ATOM     44  N   UNL A   1      40.640  28.316  29.506  1.00  0.00    -0.354 N 
ATOM     45  C   UNL A   1      40.102  30.786  33.045  1.00  0.00     0.074 A 
ATOM     46  C   UNL A   1      38.933  31.626  32.909  1.00  0.00     0.031 C 
ATOM     47  C   UNL A   1      40.148  27.556  27.461  1.00  0.00     0.029 A 
ATOM     48  C   UNL A   1      41.120  27.456  28.545  1.00  0.00     0.049 A 
ATOM     49  H   UNL A   1      41.095  28.470  30.365  1.00  0.00     0.167 HD
ATOM     50  C   UNL A   1      40.910  30.774  34.133  1.00  0.00     0.034 A 
ATOM     51  C   UNL A   1      42.218  26.675  28.544  1.00  0.00     0.034 A 
ATOM     52  C   UNL A   1      42.057  29.909  34.258  1.00  0.00     0.049 A 
ATOM     53  C   UNL A   1      43.103  26.677  29.764  1.00  0.00     0.074 A 
ATOM     54  C   UNL A   1      42.914  29.762  35.333  1.00  0.00     0.029 A 
ATOM     55  N   UNL A   1      42.509  29.045  33.268  1.00  0.00    -0.354 N 
ATOM     56  N   UNL A   1      42.980  27.368  30.875  1.00  0.00    -0.248 NA
ATOM     57  C   UNL A   1      44.266  25.781  29.739  1.00  0.00     0.031 C 
ATOM     58  C   UNL A   1      43.920  28.860  34.970  1.00  0.00     0.029 A 
ATOM     59  C   UNL A   1      43.650  28.384  33.696  1.00  0.00     0.049 A 
ATOM     60  H   UNL A   1      42.082  28.919  32.390  1.00  0.00     0.167 HD
ATOM     61  C   UNL A   1      44.036  26.968  31.690  1.00  0.00     0.074 A 
ATOM     62  C   UNL A   1      44.769  25.960  30.950  1.00  0.00     0.031 C 
ATOM     63  C   UNL A   1      44.373  27.393  32.935  1.00  0.00     0.034 A 
BRANCH  50  64
ATOM     64  C   UNL A   1      40.580  31.732  35.253  1.00  0.00     0.023 A 
ATOM     65  C   UNL A   1      39.586  31.441  36.204  1.00  0.00     0.031 A 
ATOM     66  C   UNL A   1      41.235  32.972  35.348  1.00  0.00     0.131 A 
ATOM     67  C   UNL A   1      39.214  32.408  37.151  1.00  0.00     0.055 A 
ATOM     68  C   UNL A   1      40.922  33.896  36.349  1.00  0.00     0.041 A 
ATOM     69  F   UNL A   1      42.177  33.318  34.457  1.00  0.00    -0.206 F 
ATOM     70  C   UNL A   1      39.895  33.623  37.247  1.00  0.00     0.022 A 
BRANCH  67  71
ATOM     71  S   UNL A   1      37.727  32.117  38.148  1.00  0.00     0.124 S 
ATOM     72  O   UNL A   1      38.237  32.317  39.502  1.00  0.00    -0.237 OA
ATOM     73  O   UNL A   1      36.810  33.137  37.653  1.00  0.00    -0.237 OA
ATOM     74  O   UNL A   1      37.361  30.740  37.825  1.00  0.00    -0.744 OA
ENDBRANCH  67  71
ENDBRANCH  50  64
BRANCH  51  75
ATOM     75  C   UNL A   1      42.544  25.823  27.363  1.00  0.00     0.023 A 
ATOM     76  C   UNL A   1      42.126  24.483  27.299  1.00  0.00     0.031 A 
ATOM     77  C   UNL A   1      43.315  26.322  26.298  1.00  0.00     0.131 A 
ATOM     78  C   UNL A   1      42.523  23.675  26.223  1.00  0.00     0.055 A 
ATOM     79  C   UNL A   1      43.661  25.530  25.203  1.00  0.00     0.041 A 
ATOM     80  F   UNL A   1      43.735  27.597  26.303  1.00  0.00    -0.206 F 
ATOM     81  C   UNL A   1      43.277  24.192  25.167  1.00  0.00     0.022 A 
BRANCH  78  82
ATOM     82  S   UNL A   1      42.111  21.909  26.264  1.00  0.00     0.124 S 
ATOM     83  O   UNL A   1      43.039  21.365  25.279  1.00  0.00    -0.237 OA
ATOM     84  O   UNL A   1      42.380  21.568  27.657  1.00  0.00    -0.237 OA
ATOM     85  O   UNL A   1      40.702  21.879  25.878  1.00  0.00    -0.744 OA
ENDBRANCH  78  82
ENDBRANCH  51  75
BRANCH  63  86
ATOM     86  C   UNL A   1      45.569  26.736  33.578  1.00  0.00     0.023 A 
ATOM     87  C   UNL A   1      45.453  25.534  34.297  1.00  0.00     0.031 A 
ATOM     88  C   UNL A   1      46.839  27.332  33.484  1.00  0.00     0.131 A 
ATOM     89  C   UNL A   1      46.574  24.999  34.948  1.00  0.00     0.055 A 
ATOM     90  C   UNL A   1      47.964  26.759  34.078  1.00  0.00     0.041 A 
ATOM     91  F   UNL A   1      47.008  28.481  32.810  1.00  0.00    -0.206 F 
ATOM     92  C   UNL A   1      47.832  25.594  34.829  1.00  0.00     0.022 A 
BRANCH  89  93
ATOM     93  S   UNL A   1      46.342  23.572  36.042  1.00  0.00     0.124 S 
ATOM     94  O   UNL A   1      47.548  23.620  36.863  1.00  0.00    -0.237 OA
ATOM     95  O   UNL A   1      45.094  23.899  36.723  1.00  0.00    -0.237 OA
ATOM     96  O   UNL A   1      46.266  22.442  35.119  1.00  0.00    -0.744 OA
ENDBRANCH  89  93
ENDBRANCH  63  86
ENDBRANCH  37  38
ENDBRANCH  29  32
ENDBRANCH  27  28
ENDBRANCH   1  27
TORSDOF 16
ENDMDL
MODEL 2
REMARK VINA RESULT:     -12.1      1.888      2.159
REMARK SMILES CC1(C)CCC[C@H]1NC(=O)N[C@@H]1COC[C@@]1(C)C(=O)NCCCCNC(=O)c1ccc(-c2c3nc(c(-c4cc(S(=O)(=O)[O-])ccc4F)c4ccc([nH]4)c(-c4cc(S(=O)(=O)[O-])ccc4F)c4nc(c(-c5cc(S(=O)(=O)[O-])ccc5F)c5ccc2[nH]5)C=C4)C=C3)cc1
REMARK SMILES IDX 23 1 22 2 21 3 20 4 18 5 19 6 16 8 12 9 13 10 14 11 15 12
REMARK SMILES IDX 17 13 11 14 8 15 9 16 10 18 7 20 1 21 2 22 3 23 4 24 5 25
REMARK SMILES IDX 6 26 24 27 25 28 26 29 27 31 28 32 29 33 90 34 30 35 89 36
REMARK SMILES IDX 31 37 32 38 33 39 83 40 34 41 88 42 82 43 84 44 35 45 87 46
REMARK SMILES IDX 81 47 80 48 36 50 68 51 48 52 67 53 49 54 52 55 66 56 85 57
REMARK SMILES IDX 50 58 51 59 65 61 86 62 53 63 37 64 38 65 46 66 39 67 45 68
REMARK SMILES IDX 47 69 44 70 40 71 41 72 42 73 43 74 69 75 70 76 78 77 71 78
REMARK SMILES IDX 77 79 79 80 76 81 72 82 73 83 74 84 75 85 54 86 55 87 63 88
REMARK SMILES IDX 56 89 62 90 64 91 61 92 57 93 58 94 59 95 60 96
REMARK H PARENT 20 7 8 17 11 19 25 30 84 49 52 60
REMARK Flexibility Score: inf
ROOT
ATOM      1  C   UNL A   1      33.285  28.532  27.180  1.00  0.00     0.023 C 
ENDROOT
BRANCH   1   2
ATOM      2  C   UNL A   1      31.765  28.436  27.202  1.00  0.00     0.023 C 
BRANCH   2   3
ATOM      3  C   UNL A   1      31.096  27.561  26.137  1.00  0.00     0.116 C 
BRANCH   3   4
ATOM      4  N   UNL A   1      31.189  28.019  24.761  1.00  0.00    -0.355 N 
ATOM      5  C   UNL A   1      31.451  27.341  23.602  1.00  0.00     0.230 C 
ATOM      6  O   UNL A   1      31.150  27.910  22.548  1.00  0.00    -0.274 OA
ATOM      7  H   UNL A   1      31.036  28.985  24.641  1.00  0.00     0.163 HD
BRANCH   5   8
ATOM      8  C   UNL A   1      32.178  25.989  23.592  1.00  0.00     0.092 C 
ATOM      9  C   UNL A   1      31.355  24.772  24.060  1.00  0.00     0.127 C 
ATOM     10  C   UNL A   1      31.598  23.661  23.041  1.00  0.00     0.186 C 
ATOM     11  O   UNL A   1      32.586  24.142  22.128  1.00  0.00    -0.378 OA
ATOM     12  C   UNL A   1      32.472  25.576  22.132  1.00  0.00     0.179 C 
ATOM     13  C   UNL A   1      33.513  26.201  24.264  1.00  0.00     0.026 C 
BRANCH   9  14
ATOM     14  N   UNL A   1      31.400  24.303  25.453  1.00  0.00    -0.332 N 
ATOM     15  N   UNL A   1      33.246  22.916  26.063  1.00  0.00    -0.335 N 
ATOM     16  C   UNL A   1      32.124  23.585  26.304  1.00  0.00     0.315 C 
ATOM     17  H   UNL A   1      33.696  22.664  26.902  1.00  0.00     0.165 HD
ATOM     18  O   UNL A   1      31.710  23.560  27.469  1.00  0.00    -0.249 OA
ATOM     19  H   UNL A   1      30.606  24.645  25.926  1.00  0.00     0.165 HD
BRANCH  15  20
ATOM     20  C   UNL A   1      33.998  22.450  24.899  1.00  0.00     0.089 C 
ATOM     21  C   UNL A   1      35.971  23.964  25.836  1.00  0.00     0.013 C 
ATOM     22  C   UNL A   1      35.542  22.754  24.986  1.00  0.00    -0.015 C 
ATOM     23  C   UNL A   1      36.161  22.905  23.574  1.00  0.00     0.013 C 
ATOM     24  C   UNL A   1      36.096  21.476  25.639  1.00  0.00     0.008 C 
ATOM     25  C   UNL A   1      35.319  20.360  24.971  1.00  0.00     0.003 C 
ATOM     26  C   UNL A   1      33.901  20.906  24.840  1.00  0.00     0.025 C 
ENDBRANCH  15  20
ENDBRANCH   9  14
ENDBRANCH   5   8
ENDBRANCH   3   4
ENDBRANCH   2   3
ENDBRANCH   1   2
BRANCH   1  27
ATOM     27  C   UNL A   1      33.842  29.783  26.535  1.00  0.00     0.116 C 
BRANCH  27  28
ATOM     28  N   UNL A   1      33.629  30.998  27.304  1.00  0.00    -0.352 N 
ATOM     29  C   UNL A   1      34.441  31.522  28.289  1.00  0.00     0.251 C 
ATOM     30  H   UNL A   1      32.810  31.504  27.100  1.00  0.00     0.163 HD
ATOM     31  O   UNL A   1      34.095  32.503  28.921  1.00  0.00    -0.269 OA
BRANCH  29  32
ATOM     32  C   UNL A   1      35.710  30.822  28.599  1.00  0.00     0.039 A 
ATOM     33  C   UNL A   1      36.900  31.319  28.067  1.00  0.00     0.014 A 
ATOM     34  C   UNL A   1      35.727  29.736  29.476  1.00  0.00     0.014 A 
ATOM     35  C   UNL A   1      38.115  30.762  28.471  1.00  0.00     0.010 A 
ATOM     36  C   UNL A   1      36.936  29.261  29.962  1.00  0.00     0.010 A 
ATOM     37  C   UNL A   1      38.145  29.755  29.450  1.00  0.00    -0.014 A 
BRANCH  37  38
ATOM     38  C   UNL A   1      39.427  29.171  29.917  1.00  0.00     0.031 A 
ATOM     39  C   UNL A   1      40.115  29.757  31.121  1.00  0.00     0.074 A 
ATOM     40  C   UNL A   1      39.988  28.155  29.233  1.00  0.00     0.049 A 
ATOM     41  N   UNL A   1      41.255  29.423  31.669  1.00  0.00    -0.248 NA
ATOM     42  C   UNL A   1      39.453  30.901  31.770  1.00  0.00     0.031 C 
ATOM     43  C   UNL A   1      39.442  27.549  28.015  1.00  0.00     0.029 A 
ATOM     44  N   UNL A   1      41.141  27.448  29.463  1.00  0.00    -0.354 N 
ATOM     45  C   UNL A   1      41.448  30.320  32.714  1.00  0.00     0.074 A 
ATOM     46  C   UNL A   1      40.355  31.265  32.667  1.00  0.00     0.031 C 
ATOM     47  C   UNL A   1      40.236  26.536  27.633  1.00  0.00     0.029 A 
ATOM     48  C   UNL A   1      41.367  26.444  28.550  1.00  0.00     0.049 A 
ATOM     49  H   UNL A   1      41.749  27.641  30.213  1.00  0.00     0.167 HD
ATOM     50  C   UNL A   1      42.428  30.333  33.651  1.00  0.00     0.034 A 
ATOM     51  C   UNL A   1      42.372  25.551  28.467  1.00  0.00     0.034 A 
ATOM     52  C   UNL A   1      43.495  29.365  33.694  1.00  0.00     0.049 A 
ATOM     53  C   UNL A   1      43.452  25.583  29.520  1.00  0.00     0.074 A 
ATOM     54  C   UNL A   1      44.508  29.238  34.627  1.00  0.00     0.029 A 
ATOM     55  N   UNL A   1      43.690  28.357  32.757  1.00  0.00    -0.354 N 
ATOM     56  N   UNL A   1      43.585  26.397  30.543  1.00  0.00    -0.248 NA
ATOM     57  C   UNL A   1      44.506  24.567  29.416  1.00  0.00     0.031 C 
ATOM     58  C   UNL A   1      45.350  28.197  34.220  1.00  0.00     0.029 A 
ATOM     59  C   UNL A   1      44.822  27.624  33.074  1.00  0.00     0.049 A 
ATOM     60  H   UNL A   1      43.107  28.188  31.982  1.00  0.00     0.167 HD
ATOM     61  C   UNL A   1      44.725  25.971  31.219  1.00  0.00     0.074 A 
ATOM     62  C   UNL A   1      45.225  24.816  30.500  1.00  0.00     0.031 C 
ATOM     63  C   UNL A   1      45.309  26.484  32.333  1.00  0.00     0.034 A 
BRANCH  50  64
ATOM     64  C   UNL A   1      42.385  31.434  34.684  1.00  0.00     0.023 A 
ATOM     65  C   UNL A   1      41.402  31.465  35.690  1.00  0.00     0.031 A 
ATOM     66  C   UNL A   1      43.309  32.492  34.640  1.00  0.00     0.131 A 
ATOM     67  C   UNL A   1      41.311  32.568  36.551  1.00  0.00     0.055 A 
ATOM     68  C   UNL A   1      43.269  33.545  35.557  1.00  0.00     0.041 A 
ATOM     69  F   UNL A   1      44.257  32.533  33.691  1.00  0.00    -0.206 F 
ATOM     70  C   UNL A   1      42.255  33.596  36.509  1.00  0.00     0.022 A 
BRANCH  67  71
ATOM     71  S   UNL A   1      39.851  32.717  37.618  1.00  0.00     0.124 S 
ATOM     72  O   UNL A   1      40.452  32.653  38.948  1.00  0.00    -0.237 OA
ATOM     73  O   UNL A   1      39.304  34.010  37.226  1.00  0.00    -0.237 OA
ATOM     74  O   UNL A   1      39.040  31.558  37.253  1.00  0.00    -0.744 OA
ENDBRANCH  67  71
ENDBRANCH  50  64
BRANCH  51  75
ATOM     75  C   UNL A   1      42.410  24.549  27.363  1.00  0.00     0.023 A 
ATOM     76  C   UNL A   1      41.628  23.384  27.414  1.00  0.00     0.031 A 
ATOM     77  C   UNL A   1      43.262  24.719  26.256  1.00  0.00     0.131 A 
ATOM     78  C   UNL A   1      41.750  22.411  26.409  1.00  0.00     0.055 A 
ATOM     79  C   UNL A   1      43.339  23.776  25.231  1.00  0.00     0.041 A 
ATOM     80  F   UNL A   1      44.027  25.818  26.151  1.00  0.00    -0.206 F 
ATOM     81  C   UNL A   1      42.591  22.605  25.311  1.00  0.00     0.022 A 
BRANCH  78  82
ATOM     82  S   UNL A   1      40.855  20.845  26.602  1.00  0.00     0.124 S 
ATOM     83  O   UNL A   1      40.870  20.671  28.050  1.00  0.00    -0.237 OA
ATOM     84  O   UNL A   1      39.561  21.161  26.006  1.00  0.00    -0.237 OA
ATOM     85  O   UNL A   1      41.670  19.893  25.850  1.00  0.00    -0.744 OA
ENDBRANCH  78  82
ENDBRANCH  51  75
BRANCH  63  86
ATOM     86  C   UNL A   1      46.534  25.771  32.850  1.00  0.00     0.023 A 
ATOM     87  C   UNL A   1      47.812  26.024  32.322  1.00  0.00     0.031 A 
ATOM     88  C   UNL A   1      46.417  24.812  33.871  1.00  0.00     0.131 A 
ATOM     89  C   UNL A   1      48.913  25.281  32.773  1.00  0.00     0.055 A 
ATOM     90  C   UNL A   1      47.527  24.123  34.362  1.00  0.00     0.041 A 
ATOM     91  F   UNL A   1      45.219  24.529  34.411  1.00  0.00    -0.206 F 
ATOM     92  C   UNL A   1      48.781  24.345  33.802  1.00  0.00     0.022 A 
BRANCH  89  93
ATOM     93  S   UNL A   1      50.501  25.480  31.921  1.00  0.00     0.124 S 
ATOM     94  O   UNL A   1      50.209  26.562  30.986  1.00  0.00    -0.237 OA
ATOM     95  O   UNL A   1      51.404  25.812  33.018  1.00  0.00    -0.237 OA
ATOM     96  O   UNL A   1      50.727  24.173  31.307  1.00  0.00    -0.744 OA
ENDBRANCH  89  93
ENDBRANCH  63  86
ENDBRANCH  37  38
ENDBRANCH  29  32
ENDBRANCH  27  28
ENDBRANCH   1  27
TORSDOF 16
ENDMDL
MODEL 3
REMARK VINA RESULT:     -12.0      4.702     10.079
REMARK SMILES CC1(C)CCC[C@H]1NC(=O)N[C@@H]1COC[C@@]1(C)C(=O)NCCCCNC(=O)c1ccc(-c2c3nc(c(-c4cc(S(=O)(=O)[O-])ccc4F)c4ccc([nH]4)c(-c4cc(S(=O)(=O)[O-])ccc4F)c4nc(c(-c5cc(S(=O)(=O)[O-])ccc5F)c5ccc2[nH]5)C=C4)C=C3)cc1
REMARK SMILES IDX 23 1 22 2 21 3 20 4 18 5 19 6 16 8 12 9 13 10 14 11 15 12
REMARK SMILES IDX 17 13 11 14 8 15 9 16 10 18 7 20 1 21 2 22 3 23 4 24 5 25
REMARK SMILES IDX 6 26 24 27 25 28 26 29 27 31 28 32 29 33 90 34 30 35 89 36
REMARK SMILES IDX 31 37 32 38 33 39 83 40 34 41 88 42 82 43 84 44 35 45 87 46
REMARK SMILES IDX 81 47 80 48 36 50 68 51 48 52 67 53 49 54 52 55 66 56 85 57
REMARK SMILES IDX 50 58 51 59 65 61 86 62 53 63 37 64 38 65 46 66 39 67 45 68
REMARK SMILES IDX 47 69 44 70 40 71 41 72 42 73 43 74 69 75 70 76 78 77 71 78
REMARK SMILES IDX 77 79 79 80 76 81 72 82 73 83 74 84 75 85 54 86 55 87 63 88
REMARK SMILES IDX 56 89 62 90 64 91 61 92 57 93 58 94 59 95 60 96
REMARK H PARENT 20 7 8 17 11 19 25 30 84 49 52 60
REMARK Flexibility Score: inf
ROOT
ATOM      1  C   UNL A   1      36.733  21.756  24.225  1.00  0.00     0.023 C 
ENDROOT
BRANCH   1   2
ATOM      2  C   UNL A   1      36.085  22.923  23.491  1.00  0.00     0.023 C 
BRANCH   2   3
ATOM      3  C   UNL A   1      34.561  22.905  23.341  1.00  0.00     0.116 C 
BRANCH   3   4
ATOM      4  N   UNL A   1      33.817  22.124  24.315  1.00  0.00    -0.355 N 
ATOM      5  C   UNL A   1      32.728  22.441  25.081  1.00  0.00     0.230 C 
ATOM      6  O   UNL A   1      32.106  21.496  25.576  1.00  0.00    -0.274 OA
ATOM      7  H   UNL A   1      34.154  21.208  24.447  1.00  0.00     0.163 HD
BRANCH   5   8
ATOM      8  C   UNL A   1      32.349  23.894  25.402  1.00  0.00     0.092 C 
ATOM      9  C   UNL A   1      31.634  24.673  24.281  1.00  0.00     0.127 C 
ATOM     10  C   UNL A   1      30.448  25.384  24.930  1.00  0.00     0.186 C 
ATOM     11  O   UNL A   1      30.540  25.149  26.336  1.00  0.00    -0.378 OA
ATOM     12  C   UNL A   1      31.251  23.909  26.490  1.00  0.00     0.179 C 
ATOM     13  C   UNL A   1      33.570  24.545  26.004  1.00  0.00     0.026 C 
BRANCH   9  14
ATOM     14  N   UNL A   1      32.378  25.525  23.341  1.00  0.00    -0.332 N 
ATOM     15  N   UNL A   1      32.649  27.818  23.949  1.00  0.00    -0.335 N 
ATOM     16  C   UNL A   1      32.822  26.764  23.161  1.00  0.00     0.315 C 
ATOM     17  H   UNL A   1      33.264  28.548  23.707  1.00  0.00     0.165 HD
ATOM     18  O   UNL A   1      33.502  26.944  22.144  1.00  0.00    -0.249 OA
ATOM     19  H   UNL A   1      32.641  24.980  22.563  1.00  0.00     0.165 HD
BRANCH  15  20
ATOM     20  C   UNL A   1      31.797  28.197  25.076  1.00  0.00     0.089 C 
ATOM     21  C   UNL A   1      34.004  27.974  26.541  1.00  0.00     0.013 C 
ATOM     22  C   UNL A   1      32.607  28.599  26.367  1.00  0.00    -0.015 C 
ATOM     23  C   UNL A   1      31.785  28.318  27.651  1.00  0.00     0.013 C 
ATOM     24  C   UNL A   1      32.768  30.119  26.200  1.00  0.00     0.008 C 
ATOM     25  C   UNL A   1      31.423  30.571  25.667  1.00  0.00     0.003 C 
ATOM     26  C   UNL A   1      31.012  29.475  24.688  1.00  0.00     0.025 C 
ENDBRANCH  15  20
ENDBRANCH   9  14
ENDBRANCH   5   8
ENDBRANCH   3   4
ENDBRANCH   2   3
ENDBRANCH   1   2
BRANCH   1  27
ATOM     27  C   UNL A   1      37.637  22.142  25.376  1.00  0.00     0.116 C 
BRANCH  27  28
ATOM     28  N   UNL A   1      38.594  21.115  25.755  1.00  0.00    -0.352 N 
ATOM     29  C   UNL A   1      39.766  21.279  26.465  1.00  0.00     0.251 C 
ATOM     30  H   UNL A   1      38.382  20.197  25.471  1.00  0.00     0.163 HD
ATOM     31  O   UNL A   1      40.525  20.343  26.634  1.00  0.00    -0.269 OA
BRANCH  29  32
ATOM     32  C   UNL A   1      40.105  22.636  26.956  1.00  0.00     0.039 A 
ATOM     33  C   UNL A   1      41.033  22.766  27.990  1.00  0.00     0.014 A 
ATOM     34  C   UNL A   1      39.570  23.769  26.340  1.00  0.00     0.014 A 
ATOM     35  C   UNL A   1      41.473  24.038  28.358  1.00  0.00     0.010 A 
ATOM     36  C   UNL A   1      40.092  25.022  26.629  1.00  0.00     0.010 A 
ATOM     37  C   UNL A   1      41.035  25.173  27.655  1.00  0.00    -0.014 A 
BRANCH  37  38
ATOM     38  C   UNL A   1      41.515  26.532  28.010  1.00  0.00     0.031 A 
ATOM     39  C   UNL A   1      42.923  26.937  27.665  1.00  0.00     0.074 A 
ATOM     40  C   UNL A   1      40.703  27.374  28.680  1.00  0.00     0.049 A 
ATOM     41  N   UNL A   1      43.549  28.057  27.917  1.00  0.00    -0.248 NA
ATOM     42  C   UNL A   1      43.752  25.930  26.982  1.00  0.00     0.031 C 
ATOM     43  C   UNL A   1      39.340  27.066  29.122  1.00  0.00     0.029 A 
ATOM     44  N   UNL A   1      40.903  28.663  29.104  1.00  0.00    -0.354 N 
ATOM     45  C   UNL A   1      44.843  27.883  27.436  1.00  0.00     0.074 A 
ATOM     46  C   UNL A   1      44.935  26.521  26.959  1.00  0.00     0.031 C 
ATOM     47  C   UNL A   1      38.814  28.149  29.715  1.00  0.00     0.029 A 
ATOM     48  C   UNL A   1      39.811  29.215  29.734  1.00  0.00     0.049 A 
ATOM     49  H   UNL A   1      41.749  29.148  28.970  1.00  0.00     0.167 HD
ATOM     50  C   UNL A   1      45.850  28.787  27.364  1.00  0.00     0.034 A 
ATOM     51  C   UNL A   1      39.636  30.442  30.262  1.00  0.00     0.034 A 
ATOM     52  C   UNL A   1      45.727  30.148  27.823  1.00  0.00     0.049 A 
ATOM     53  C   UNL A   1      40.770  31.432  30.171  1.00  0.00     0.074 A 
ATOM     54  C   UNL A   1      46.654  31.171  27.748  1.00  0.00     0.029 A 
ATOM     55  N   UNL A   1      44.604  30.675  28.449  1.00  0.00    -0.354 N 
ATOM     56  N   UNL A   1      41.967  31.274  29.652  1.00  0.00    -0.248 NA
ATOM     57  C   UNL A   1      40.525  32.770  30.721  1.00  0.00     0.031 C 
ATOM     58  C   UNL A   1      46.118  32.295  28.385  1.00  0.00     0.029 A 
ATOM     59  C   UNL A   1      44.826  31.999  28.791  1.00  0.00     0.049 A 
ATOM     60  H   UNL A   1      43.771  30.180  28.623  1.00  0.00     0.167 HD
ATOM     61  C   UNL A   1      42.606  32.503  29.790  1.00  0.00     0.074 A 
ATOM     62  C   UNL A   1      41.653  33.395  30.420  1.00  0.00     0.031 C 
ATOM     63  C   UNL A   1      43.865  32.866  29.432  1.00  0.00     0.034 A 
BRANCH  50  64
ATOM     64  C   UNL A   1      47.162  28.317  26.781  1.00  0.00     0.023 A 
ATOM     65  C   UNL A   1      47.353  28.201  25.392  1.00  0.00     0.031 A 
ATOM     66  C   UNL A   1      48.223  27.940  27.621  1.00  0.00     0.131 A 
ATOM     67  C   UNL A   1      48.536  27.639  24.890  1.00  0.00     0.055 A 
ATOM     68  C   UNL A   1      49.434  27.463  27.112  1.00  0.00     0.041 A 
ATOM     69  F   UNL A   1      48.095  28.006  28.956  1.00  0.00    -0.206 F 
ATOM     70  C   UNL A   1      49.589  27.294  25.739  1.00  0.00     0.022 A 
BRANCH  67  71
ATOM     71  S   UNL A   1      48.615  27.218  23.127  1.00  0.00     0.124 S 
ATOM     72  O   UNL A   1      49.990  27.587  22.798  1.00  0.00    -0.237 OA
ATOM     73  O   UNL A   1      48.320  25.790  23.130  1.00  0.00    -0.237 OA
ATOM     74  O   UNL A   1      47.589  28.066  22.526  1.00  0.00    -0.744 OA
ENDBRANCH  67  71
ENDBRANCH  50  64
BRANCH  51  75
ATOM     75  C   UNL A   1      38.347  30.813  30.914  1.00  0.00     0.023 A 
ATOM     76  C   UNL A   1      37.339  31.479  30.199  1.00  0.00     0.031 A 
ATOM     77  C   UNL A   1      38.119  30.546  32.277  1.00  0.00     0.131 A 
ATOM     78  C   UNL A   1      36.173  31.901  30.857  1.00  0.00     0.055 A 
ATOM     79  C   UNL A   1      36.935  30.918  32.914  1.00  0.00     0.041 A 
ATOM     80  F   UNL A   1      39.046  29.905  33.007  1.00  0.00    -0.206 F 
ATOM     81  C   UNL A   1      35.958  31.613  32.207  1.00  0.00     0.022 A 
BRANCH  78  82
ATOM     82  S   UNL A   1      34.974  32.909  29.942  1.00  0.00     0.124 S 
ATOM     83  O   UNL A   1      35.834  33.929  29.352  1.00  0.00    -0.237 OA
ATOM     84  O   UNL A   1      34.403  31.936  29.017  1.00  0.00    -0.237 OA
ATOM     85  O   UNL A   1      34.065  33.385  30.983  1.00  0.00    -0.744 OA
ENDBRANCH  78  82
ENDBRANCH  51  75
BRANCH  63  86
ATOM     86  C   UNL A   1      44.259  34.299  29.688  1.00  0.00     0.023 A 
ATOM     87  C   UNL A   1      44.063  35.301  28.722  1.00  0.00     0.031 A 
ATOM     88  C   UNL A   1      44.855  34.663  30.908  1.00  0.00     0.131 A 
ATOM     89  C   UNL A   1      44.518  36.605  28.967  1.00  0.00     0.055 A 
ATOM     90  C   UNL A   1      45.245  35.976  31.172  1.00  0.00     0.041 A 
ATOM     91  F   UNL A   1      45.067  33.746  31.866  1.00  0.00    -0.206 F 
ATOM     92  C   UNL A   1      45.091  36.953  30.192  1.00  0.00     0.022 A 
BRANCH  89  93
ATOM     93  S   UNL A   1      44.445  37.816  27.619  1.00  0.00     0.124 S 
ATOM     94  O   UNL A   1      44.387  39.079  28.350  1.00  0.00    -0.237 OA
ATOM     95  O   UNL A   1      45.686  37.555  26.897  1.00  0.00    -0.237 OA
ATOM     96  O   UNL A   1      43.224  37.458  26.902  1.00  0.00    -0.744 OA
ENDBRANCH  89  93
ENDBRANCH  63  86
ENDBRANCH  37  38
ENDBRANCH  29  32
ENDBRANCH  27  28
ENDBRANCH   1  27
TORSDOF 16
ENDMDL
