MODEL 1
REMARK VINA RESULT:     -11.5      0.000      0.000
REMARK SMILES C[NH2+][C@@]1(C(=O)NCCCCNC(=O)c2ccc(-c3c4nc(c(-c5cc(S(=O)(=O)[O-])ccc5F)c5ccc([nH]5)c(-c5cc(S(=O)(=O)[O-])ccc5F)c5nc(c(-c6cc(S(=O)(=O)[O-])ccc6F)c6ccc3[nH]6)C=C5)C=C4)cc2)CCC[C@H](Oc2cccc(OC)c2)C1
REMARK SMILES IDX 8 1 7 2 6 3 4 4 5 5 3 7 77 8 90 9 78 10 80 11 79 12 2 13
REMARK SMILES IDX 1 14 81 17 82 18 83 19 89 20 84 21 86 22 85 23 87 24 88 25
REMARK SMILES IDX 9 26 10 27 11 28 12 29 13 31 14 32 15 33 76 34 16 35 75 36
REMARK SMILES IDX 17 37 18 38 19 39 69 40 20 41 74 42 68 43 70 44 21 45 73 46
REMARK SMILES IDX 67 47 66 48 22 50 54 51 34 52 53 53 35 54 38 55 52 56 71 57
REMARK SMILES IDX 36 58 37 59 51 61 72 62 39 63 23 64 24 65 32 66 25 67 31 68
REMARK SMILES IDX 33 69 30 70 26 71 27 72 28 73 29 74 55 75 56 76 64 77 57 78
REMARK SMILES IDX 63 79 65 80 62 81 58 82 59 83 60 84 61 85 40 86 41 87 49 88
REMARK SMILES IDX 42 89 48 90 50 91 47 92 43 93 44 94 45 95 46 96
REMARK H PARENT 6 6 2 15 2 16 11 30 70 49 38 60
REMARK Flexibility Score: inf
ROOT
ATOM      1  C   UNL A   1      35.060  23.475  25.900  1.00  0.00     0.023 C 
ENDROOT
BRANCH   1   2
ATOM      2  C   UNL A   1      34.592  24.921  25.789  1.00  0.00     0.116 C 
BRANCH   2   3
ATOM      3  N   UNL A   1      33.181  25.012  26.111  1.00  0.00    -0.351 N 
ATOM      4  C   UNL A   1      32.440  26.148  25.929  1.00  0.00     0.281 C 
ATOM      5  O   UNL A   1      31.906  26.596  26.953  1.00  0.00    -0.268 OA
ATOM      6  H   UNL A   1      32.733  24.216  26.477  1.00  0.00     0.163 HD
BRANCH   4   7
ATOM      7  C   UNL A   1      32.148  26.760  24.502  1.00  0.00     0.178 C 
ATOM      8  C   UNL A   1      30.962  27.737  24.379  1.00  0.00     0.079 C 
ATOM      9  C   UNL A   1      32.042  25.645  23.430  1.00  0.00     0.124 C 
ATOM     10  C   UNL A   1      29.633  27.203  23.871  1.00  0.00     0.011 C 
ATOM     11  C   UNL A   1      30.714  24.844  23.407  1.00  0.00     0.180 C 
ATOM     12  C   UNL A   1      29.474  25.709  23.674  1.00  0.00     0.046 C 
BRANCH   7  13
ATOM     13  N   UNL A   1      33.311  27.678  24.156  1.00  0.00    -0.336 N 
ATOM     14  C   UNL A   1      33.654  28.713  25.124  1.00  0.00     0.331 C 
ATOM     15  H   UNL A   1      34.136  27.093  24.027  1.00  0.00     0.346 HD
ATOM     16  H   UNL A   1      33.006  28.186  23.325  1.00  0.00     0.346 HD
ENDBRANCH   7  13
BRANCH  11  17
ATOM     17  O   UNL A   1      30.851  23.717  24.297  1.00  0.00    -0.490 OA
BRANCH  17  18
ATOM     18  C   UNL A   1      31.457  22.538  23.933  1.00  0.00     0.123 A 
ATOM     19  C   UNL A   1      31.733  22.112  22.636  1.00  0.00     0.047 A 
ATOM     20  C   UNL A   1      31.722  21.660  25.000  1.00  0.00     0.092 A 
ATOM     21  C   UNL A   1      32.157  20.799  22.397  1.00  0.00     0.008 A 
ATOM     22  C   UNL A   1      32.168  20.355  24.763  1.00  0.00     0.122 A 
ATOM     23  C   UNL A   1      32.373  19.922  23.458  1.00  0.00     0.046 A 
BRANCH  22  24
ATOM     24  O   UNL A   1      32.520  19.481  25.755  1.00  0.00    -0.497 OA
ATOM     25  C   UNL A   1      32.902  18.190  25.287  1.00  0.00     0.278 C 
ENDBRANCH  22  24
ENDBRANCH  17  18
ENDBRANCH  11  17
ENDBRANCH   4   7
ENDBRANCH   2   3
ENDBRANCH   1   2
BRANCH   1  26
ATOM     26  C   UNL A   1      35.162  22.732  24.589  1.00  0.00     0.023 C 
BRANCH  26  27
ATOM     27  C   UNL A   1      36.595  22.576  24.115  1.00  0.00     0.116 C 
BRANCH  27  28
ATOM     28  N   UNL A   1      37.246  21.349  24.579  1.00  0.00    -0.352 N 
ATOM     29  C   UNL A   1      38.305  21.129  25.431  1.00  0.00     0.251 C 
ATOM     30  H   UNL A   1      36.852  20.525  24.212  1.00  0.00     0.163 HD
ATOM     31  O   UNL A   1      38.699  19.979  25.618  1.00  0.00    -0.269 OA
BRANCH  29  32
ATOM     32  C   UNL A   1      39.001  22.262  26.079  1.00  0.00     0.039 A 
ATOM     33  C   UNL A   1      40.081  22.019  26.933  1.00  0.00     0.014 A 
ATOM     34  C   UNL A   1      38.618  23.570  25.818  1.00  0.00     0.014 A 
ATOM     35  C   UNL A   1      40.833  23.092  27.426  1.00  0.00     0.010 A 
ATOM     36  C   UNL A   1      39.463  24.614  26.154  1.00  0.00     0.010 A 
ATOM     37  C   UNL A   1      40.568  24.398  26.990  1.00  0.00    -0.014 A 
BRANCH  37  38
ATOM     38  C   UNL A   1      41.354  25.588  27.419  1.00  0.00     0.031 A 
ATOM     39  C   UNL A   1      40.683  26.622  28.292  1.00  0.00     0.074 A 
ATOM     40  C   UNL A   1      42.592  25.812  26.935  1.00  0.00     0.049 A 
ATOM     41  N   UNL A   1      41.029  27.858  28.539  1.00  0.00    -0.248 NA
ATOM     42  C   UNL A   1      39.399  26.229  28.897  1.00  0.00     0.031 C 
ATOM     43  C   UNL A   1      43.343  24.914  26.055  1.00  0.00     0.029 A 
ATOM     44  N   UNL A   1      43.430  26.887  27.101  1.00  0.00    -0.354 N 
ATOM     45  C   UNL A   1      39.972  28.406  29.262  1.00  0.00     0.074 A 
ATOM     46  C   UNL A   1      38.946  27.391  29.339  1.00  0.00     0.031 C 
ATOM     47  C   UNL A   1      44.540  25.460  25.787  1.00  0.00     0.029 A 
ATOM     48  C   UNL A   1      44.619  26.774  26.418  1.00  0.00     0.049 A 
ATOM     49  H   UNL A   1      43.202  27.666  27.659  1.00  0.00     0.167 HD
ATOM     50  C   UNL A   1      39.879  29.630  29.839  1.00  0.00     0.034 A 
ATOM     51  C   UNL A   1      45.644  27.640  26.299  1.00  0.00     0.034 A 
ATOM     52  C   UNL A   1      40.954  30.591  29.825  1.00  0.00     0.049 A 
ATOM     53  C   UNL A   1      45.545  28.978  26.988  1.00  0.00     0.074 A 
ATOM     54  C   UNL A   1      41.016  31.827  30.444  1.00  0.00     0.029 A 
ATOM     55  N   UNL A   1      42.168  30.409  29.174  1.00  0.00    -0.354 N 
ATOM     56  N   UNL A   1      44.547  29.480  27.680  1.00  0.00    -0.248 NA
ATOM     57  C   UNL A   1      46.712  29.864  26.886  1.00  0.00     0.031 C 
ATOM     58  C   UNL A   1      42.248  32.411  30.130  1.00  0.00     0.029 A 
ATOM     59  C   UNL A   1      42.981  31.513  29.369  1.00  0.00     0.049 A 
ATOM     60  H   UNL A   1      42.415  29.612  28.651  1.00  0.00     0.167 HD
ATOM     61  C   UNL A   1      44.982  30.726  28.123  1.00  0.00     0.074 A 
ATOM     62  C   UNL A   1      46.335  30.892  27.631  1.00  0.00     0.031 C 
ATOM     63  C   UNL A   1      44.328  31.651  28.870  1.00  0.00     0.034 A 
BRANCH  50  64
ATOM     64  C   UNL A   1      38.576  29.985  30.519  1.00  0.00     0.023 A 
ATOM     65  C   UNL A   1      37.557  30.684  29.849  1.00  0.00     0.031 A 
ATOM     66  C   UNL A   1      38.369  29.667  31.873  1.00  0.00     0.131 A 
ATOM     67  C   UNL A   1      36.433  31.136  30.556  1.00  0.00     0.055 A 
ATOM     68  C   UNL A   1      37.200  30.032  32.546  1.00  0.00     0.041 A 
ATOM     69  F   UNL A   1      39.310  29.016  32.575  1.00  0.00    -0.206 F 
ATOM     70  C   UNL A   1      36.233  30.790  31.892  1.00  0.00     0.022 A 
BRANCH  67  71
ATOM     71  S   UNL A   1      35.330  32.327  29.748  1.00  0.00     0.124 S 
ATOM     72  O   UNL A   1      34.404  32.650  30.831  1.00  0.00    -0.237 OA
ATOM     73  O   UNL A   1      36.246  33.391  29.354  1.00  0.00    -0.237 OA
ATOM     74  O   UNL A   1      34.749  31.563  28.646  1.00  0.00    -0.744 OA
ENDBRANCH  67  71
ENDBRANCH  50  64
BRANCH  51  75
ATOM     75  C   UNL A   1      46.854  27.282  25.504  1.00  0.00     0.023 A 
ATOM     76  C   UNL A   1      47.016  27.757  24.193  1.00  0.00     0.031 A 
ATOM     77  C   UNL A   1      47.846  26.431  26.024  1.00  0.00     0.131 A 
ATOM     78  C   UNL A   1      48.113  27.339  23.426  1.00  0.00     0.055 A 
ATOM     79  C   UNL A   1      48.965  26.060  25.275  1.00  0.00     0.041 A 
ATOM     80  F   UNL A   1      47.746  25.955  27.276  1.00  0.00    -0.206 F 
ATOM     81  C   UNL A   1      49.096  26.504  23.961  1.00  0.00     0.022 A 
BRANCH  78  82
ATOM     82  S   UNL A   1      48.193  27.838  21.684  1.00  0.00     0.124 S 
ATOM     83  O   UNL A   1      48.311  26.549  21.011  1.00  0.00    -0.237 OA
ATOM     84  O   UNL A   1      46.924  28.538  21.511  1.00  0.00    -0.237 OA
ATOM     85  O   UNL A   1      49.382  28.685  21.626  1.00  0.00    -0.744 OA
ENDBRANCH  78  82
ENDBRANCH  51  75
BRANCH  63  86
ATOM     86  C   UNL A   1      45.095  32.894  29.248  1.00  0.00     0.023 A 
ATOM     87  C   UNL A   1      45.044  34.060  28.465  1.00  0.00     0.031 A 
ATOM     88  C   UNL A   1      45.889  32.905  30.408  1.00  0.00     0.131 A 
ATOM     89  C   UNL A   1      45.817  35.174  28.826  1.00  0.00     0.055 A 
ATOM     90  C   UNL A   1      46.609  34.036  30.793  1.00  0.00     0.041 A 
ATOM     91  F   UNL A   1      45.971  31.816  31.189  1.00  0.00    -0.206 F 
ATOM     92  C   UNL A   1      46.585  35.175  29.993  1.00  0.00     0.022 A 
BRANCH  89  93
ATOM     93  S   UNL A   1      45.868  36.596  27.703  1.00  0.00     0.124 S 
ATOM     94  O   UNL A   1      47.290  36.925  27.694  1.00  0.00    -0.237 OA
ATOM     95  O   UNL A   1      45.337  36.035  26.464  1.00  0.00    -0.237 OA
ATOM     96  O   UNL A   1      45.007  37.580  28.356  1.00  0.00    -0.744 OA
ENDBRANCH  89  93
ENDBRANCH  63  86
ENDBRANCH  37  38
ENDBRANCH  29  32
ENDBRANCH  27  28
ENDBRANCH  26  27
ENDBRANCH   1  26
TORSDOF 18
ENDMDL
MODEL 2
REMARK VINA RESULT:     -11.5      5.106     10.176
REMARK SMILES C[NH2+][C@@]1(C(=O)NCCCCNC(=O)c2ccc(-c3c4nc(c(-c5cc(S(=O)(=O)[O-])ccc5F)c5ccc([nH]5)c(-c5cc(S(=O)(=O)[O-])ccc5F)c5nc(c(-c6cc(S(=O)(=O)[O-])ccc6F)c6ccc3[nH]6)C=C5)C=C4)cc2)CCC[C@H](Oc2cccc(OC)c2)C1
REMARK SMILES IDX 8 1 7 2 6 3 4 4 5 5 3 7 77 8 90 9 78 10 80 11 79 12 2 13
REMARK SMILES IDX 1 14 81 17 82 18 83 19 89 20 84 21 86 22 85 23 87 24 88 25
REMARK SMILES IDX 9 26 10 27 11 28 12 29 13 31 14 32 15 33 76 34 16 35 75 36
REMARK SMILES IDX 17 37 18 38 19 39 69 40 20 41 74 42 68 43 70 44 21 45 73 46
REMARK SMILES IDX 67 47 66 48 22 50 54 51 34 52 53 53 35 54 38 55 52 56 71 57
REMARK SMILES IDX 36 58 37 59 51 61 72 62 39 63 23 64 24 65 32 66 25 67 31 68
REMARK SMILES IDX 33 69 30 70 26 71 27 72 28 73 29 74 55 75 56 76 64 77 57 78
REMARK SMILES IDX 63 79 65 80 62 81 58 82 59 83 60 84 61 85 40 86 41 87 49 88
REMARK SMILES IDX 42 89 48 90 50 91 47 92 43 93 44 94 45 95 46 96
REMARK H PARENT 6 6 2 15 2 16 11 30 70 49 38 60
REMARK Flexibility Score: inf
ROOT
ATOM      1  C   UNL A   1      31.780  27.613  26.075  1.00  0.00     0.023 C 
ENDROOT
BRANCH   1   2
ATOM      2  C   UNL A   1      32.904  26.662  26.468  1.00  0.00     0.116 C 
BRANCH   2   3
ATOM      3  N   UNL A   1      33.441  26.013  25.288  1.00  0.00    -0.351 N 
ATOM      4  C   UNL A   1      33.928  24.734  25.288  1.00  0.00     0.281 C 
ATOM      5  O   UNL A   1      35.109  24.622  24.935  1.00  0.00    -0.268 OA
ATOM      6  H   UNL A   1      33.456  26.518  24.443  1.00  0.00     0.163 HD
BRANCH   4   7
ATOM      7  C   UNL A   1      33.016  23.473  25.558  1.00  0.00     0.178 C 
ATOM      8  C   UNL A   1      33.498  22.118  25.003  1.00  0.00     0.079 C 
ATOM      9  C   UNL A   1      31.552  23.741  25.127  1.00  0.00     0.124 C 
ATOM     10  C   UNL A   1      32.922  21.629  23.684  1.00  0.00     0.011 C 
ATOM     11  C   UNL A   1      31.266  23.677  23.603  1.00  0.00     0.180 C 
ATOM     12  C   UNL A   1      32.036  22.562  22.884  1.00  0.00     0.046 C 
BRANCH   7  13
ATOM     13  N   UNL A   1      33.055  23.198  27.054  1.00  0.00    -0.336 N 
ATOM     14  C   UNL A   1      34.124  22.337  27.547  1.00  0.00     0.331 C 
ATOM     15  H   UNL A   1      33.141  24.096  27.529  1.00  0.00     0.346 HD
ATOM     16  H   UNL A   1      32.194  22.686  27.249  1.00  0.00     0.346 HD
ENDBRANCH   7  13
BRANCH  11  17
ATOM     17  O   UNL A   1      31.474  24.993  23.049  1.00  0.00    -0.490 OA
BRANCH  17  18
ATOM     18  C   UNL A   1      30.577  26.024  23.196  1.00  0.00     0.123 A 
ATOM     19  C   UNL A   1      29.370  25.982  23.891  1.00  0.00     0.047 A 
ATOM     20  C   UNL A   1      30.900  27.190  22.478  1.00  0.00     0.092 A 
ATOM     21  C   UNL A   1      28.453  27.035  23.781  1.00  0.00     0.008 A 
ATOM     22  C   UNL A   1      29.994  28.252  22.388  1.00  0.00     0.122 A 
ATOM     23  C   UNL A   1      28.765  28.167  23.030  1.00  0.00     0.046 A 
BRANCH  22  24
ATOM     24  O   UNL A   1      30.278  29.443  21.776  1.00  0.00    -0.497 OA
ATOM     25  C   UNL A   1      29.365  30.491  22.087  1.00  0.00     0.278 C 
ENDBRANCH  22  24
ENDBRANCH  17  18
ENDBRANCH  11  17
ENDBRANCH   4   7
ENDBRANCH   2   3
ENDBRANCH   1   2
BRANCH   1  26
ATOM     26  C   UNL A   1      31.768  28.932  26.812  1.00  0.00     0.023 C 
BRANCH  26  27
ATOM     27  C   UNL A   1      32.603  29.995  26.123  1.00  0.00     0.116 C 
BRANCH  27  28
ATOM     28  N   UNL A   1      32.315  31.360  26.568  1.00  0.00    -0.352 N 
ATOM     29  C   UNL A   1      33.032  32.257  27.327  1.00  0.00     0.251 C 
ATOM     30  H   UNL A   1      31.442  31.701  26.267  1.00  0.00     0.163 HD
ATOM     31  O   UNL A   1      32.532  33.344  27.608  1.00  0.00    -0.269 OA
BRANCH  29  32
ATOM     32  C   UNL A   1      34.372  31.905  27.846  1.00  0.00     0.039 A 
ATOM     33  C   UNL A   1      35.361  32.889  27.945  1.00  0.00     0.014 A 
ATOM     34  C   UNL A   1      34.648  30.614  28.273  1.00  0.00     0.014 A 
ATOM     35  C   UNL A   1      36.576  32.592  28.573  1.00  0.00     0.010 A 
ATOM     36  C   UNL A   1      35.768  30.372  29.051  1.00  0.00     0.010 A 
ATOM     37  C   UNL A   1      36.766  31.347  29.189  1.00  0.00    -0.014 A 
BRANCH  37  38
ATOM     38  C   UNL A   1      38.004  30.970  29.927  1.00  0.00     0.031 A 
ATOM     39  C   UNL A   1      38.966  30.002  29.281  1.00  0.00     0.074 A 
ATOM     40  C   UNL A   1      38.202  31.374  31.198  1.00  0.00     0.049 A 
ATOM     41  N   UNL A   1      39.924  29.294  29.817  1.00  0.00    -0.248 NA
ATOM     42  C   UNL A   1      38.756  29.736  27.848  1.00  0.00     0.031 C 
ATOM     43  C   UNL A   1      37.334  32.279  31.955  1.00  0.00     0.029 A 
ATOM     44  N   UNL A   1      39.196  31.051  32.089  1.00  0.00    -0.354 N 
ATOM     45  C   UNL A   1      40.378  28.450  28.807  1.00  0.00     0.074 A 
ATOM     46  C   UNL A   1      39.533  28.681  27.657  1.00  0.00     0.031 C 
ATOM     47  C   UNL A   1      37.851  32.463  33.181  1.00  0.00     0.029 A 
ATOM     48  C   UNL A   1      39.047  31.640  33.323  1.00  0.00     0.049 A 
ATOM     49  H   UNL A   1      39.945  30.453  31.864  1.00  0.00     0.167 HD
ATOM     50  C   UNL A   1      41.423  27.585  28.825  1.00  0.00     0.034 A 
ATOM     51  C   UNL A   1      39.782  31.513  34.445  1.00  0.00     0.034 A 
ATOM     52  C   UNL A   1      42.305  27.439  29.954  1.00  0.00     0.049 A 
ATOM     53  C   UNL A   1      40.970  30.585  34.432  1.00  0.00     0.074 A 
ATOM     54  C   UNL A   1      43.446  26.664  30.065  1.00  0.00     0.029 A 
ATOM     55  N   UNL A   1      42.156  28.104  31.165  1.00  0.00    -0.354 N 
ATOM     56  N   UNL A   1      41.397  29.801  33.468  1.00  0.00    -0.248 NA
ATOM     57  C   UNL A   1      41.780  30.527  35.656  1.00  0.00     0.031 C 
ATOM     58  C   UNL A   1      43.960  26.826  31.357  1.00  0.00     0.029 A 
ATOM     59  C   UNL A   1      43.178  27.751  32.030  1.00  0.00     0.049 A 
ATOM     60  H   UNL A   1      41.430  28.736  31.377  1.00  0.00     0.167 HD
ATOM     61  C   UNL A   1      42.545  29.185  33.959  1.00  0.00     0.074 A 
ATOM     62  C   UNL A   1      42.749  29.698  35.299  1.00  0.00     0.031 C 
ATOM     63  C   UNL A   1      43.360  28.280  33.361  1.00  0.00     0.034 A 
BRANCH  50  64
ATOM     64  C   UNL A   1      41.651  26.741  27.591  1.00  0.00     0.023 A 
ATOM     65  C   UNL A   1      41.240  25.398  27.525  1.00  0.00     0.031 A 
ATOM     66  C   UNL A   1      42.338  27.269  26.483  1.00  0.00     0.131 A 
ATOM     67  C   UNL A   1      41.612  24.603  26.431  1.00  0.00     0.055 A 
ATOM     68  C   UNL A   1      42.616  26.498  25.352  1.00  0.00     0.041 A 
ATOM     69  F   UNL A   1      42.773  28.539  26.489  1.00  0.00    -0.206 F 
ATOM     70  C   UNL A   1      42.272  25.150  25.331  1.00  0.00     0.022 A 
BRANCH  67  71
ATOM     71  S   UNL A   1      41.375  22.808  26.552  1.00  0.00     0.124 S 
ATOM     72  O   UNL A   1      42.160  22.332  25.416  1.00  0.00    -0.237 OA
ATOM     73  O   UNL A   1      41.914  22.506  27.873  1.00  0.00    -0.237 OA
ATOM     74  O   UNL A   1      39.929  22.644  26.416  1.00  0.00    -0.744 OA
ENDBRANCH  67  71
ENDBRANCH  50  64
BRANCH  51  75
ATOM     75  C   UNL A   1      39.428  32.277  35.676  1.00  0.00     0.023 A 
ATOM     76  C   UNL A   1      38.643  31.692  36.682  1.00  0.00     0.031 A 
ATOM     77  C   UNL A   1      39.834  33.613  35.851  1.00  0.00     0.131 A 
ATOM     78  C   UNL A   1      38.242  32.452  37.791  1.00  0.00     0.055 A 
ATOM     79  C   UNL A   1      39.477  34.349  36.983  1.00  0.00     0.041 A 
ATOM     80  F   UNL A   1      40.594  34.219  34.924  1.00  0.00    -0.206 F 
ATOM     81  C   UNL A   1      38.664  33.773  37.955  1.00  0.00     0.022 A 
BRANCH  78  82
ATOM     82  S   UNL A   1      37.088  31.711  38.978  1.00  0.00     0.124 S 
ATOM     83  O   UNL A   1      35.951  32.620  38.892  1.00  0.00    -0.237 OA
ATOM     84  O   UNL A   1      36.889  30.380  38.416  1.00  0.00    -0.237 OA
ATOM     85  O   UNL A   1      37.825  31.750  40.239  1.00  0.00    -0.744 OA
ENDBRANCH  78  82
ENDBRANCH  51  75
BRANCH  63  86
ATOM     86  C   UNL A   1      44.578  27.839  34.133  1.00  0.00     0.023 A 
ATOM     87  C   UNL A   1      44.549  26.719  34.981  1.00  0.00     0.031 A 
ATOM     88  C   UNL A   1      45.782  28.555  34.017  1.00  0.00     0.131 A 
ATOM     89  C   UNL A   1      45.690  26.377  35.722  1.00  0.00     0.055 A 
ATOM     90  C   UNL A   1      46.930  28.175  34.712  1.00  0.00     0.041 A 
ATOM     91  F   UNL A   1      45.862  29.632  33.221  1.00  0.00    -0.206 F 
ATOM     92  C   UNL A   1      46.884  27.088  35.580  1.00  0.00     0.022 A 
BRANCH  89  93
ATOM     93  S   UNL A   1      45.568  25.038  36.938  1.00  0.00     0.124 S 
ATOM     94  O   UNL A   1      44.151  24.697  36.874  1.00  0.00    -0.237 OA
ATOM     95  O   UNL A   1      46.488  24.041  36.397  1.00  0.00    -0.237 OA
ATOM     96  O   UNL A   1      46.001  25.666  38.184  1.00  0.00    -0.744 OA
ENDBRANCH  89  93
ENDBRANCH  63  86
ENDBRANCH  37  38
ENDBRANCH  29  32
ENDBRANCH  27  28
ENDBRANCH  26  27
ENDBRANCH   1  26
TORSDOF 18
ENDMDL
MODEL 3
REMARK VINA RESULT:     -11.3      4.601      9.511
REMARK SMILES C[NH2+][C@@]1(C(=O)NCCCCNC(=O)c2ccc(-c3c4nc(c(-c5cc(S(=O)(=O)[O-])ccc5F)c5ccc([nH]5)c(-c5cc(S(=O)(=O)[O-])ccc5F)c5nc(c(-c6cc(S(=O)(=O)[O-])ccc6F)c6ccc3[nH]6)C=C5)C=C4)cc2)CCC[C@H](Oc2cccc(OC)c2)C1
REMARK SMILES IDX 8 1 7 2 6 3 4 4 5 5 3 7 77 8 90 9 78 10 80 11 79 12 2 13
REMARK SMILES IDX 1 14 81 17 82 18 83 19 89 20 84 21 86 22 85 23 87 24 88 25
REMARK SMILES IDX 9 26 10 27 11 28 12 29 13 31 14 32 15 33 76 34 16 35 75 36
REMARK SMILES IDX 17 37 18 38 19 39 69 40 20 41 74 42 68 43 70 44 21 45 73 46
REMARK SMILES IDX 67 47 66 48 22 50 54 51 34 52 53 53 35 54 38 55 52 56 71 57
REMARK SMILES IDX 36 58 37 59 51 61 72 62 39 63 23 64 24 65 32 66 25 67 31 68
REMARK SMILES IDX 33 69 30 70 26 71 27 72 28 73 29 74 55 75 56 76 64 77 57 78
REMARK SMILES IDX 63 79 65 80 62 81 58 82 59 83 60 84 61 85 40 86 41 87 49 88
REMARK SMILES IDX 42 89 48 90 50 91 47 92 43 93 44 94 45 95 46 96
REMARK H PARENT 6 6 2 15 2 16 11 30 70 49 38 60
REMARK Flexibility Score: inf
ROOT
ATOM      1  C   UNL A   1      33.773  28.337  22.832  1.00  0.00     0.023 C 
ENDROOT
BRANCH   1   2
ATOM      2  C   UNL A   1      33.099  27.056  22.356  1.00  0.00     0.116 C 
BRANCH   2   3
ATOM      3  N   UNL A   1      33.381  25.974  23.280  1.00  0.00    -0.351 N 
ATOM      4  C   UNL A   1      32.813  25.877  24.521  1.00  0.00     0.281 C 
ATOM      5  O   UNL A   1      33.613  25.854  25.465  1.00  0.00    -0.268 OA
ATOM      6  H   UNL A   1      34.013  25.274  23.000  1.00  0.00     0.163 HD
BRANCH   4   7
ATOM      7  C   UNL A   1      31.265  25.649  24.736  1.00  0.00     0.178 C 
ATOM      8  C   UNL A   1      30.792  25.295  26.160  1.00  0.00     0.079 C 
ATOM      9  C   UNL A   1      30.705  24.627  23.714  1.00  0.00     0.124 C 
ATOM     10  C   UNL A   1      30.547  23.834  26.501  1.00  0.00     0.011 C 
ATOM     11  C   UNL A   1      31.011  23.134  24.003  1.00  0.00     0.180 C 
ATOM     12  C   UNL A   1      30.941  22.774  25.493  1.00  0.00     0.046 C 
BRANCH   7  13
ATOM     13  N   UNL A   1      30.576  26.990  24.532  1.00  0.00    -0.336 N 
ATOM     14  C   UNL A   1      29.548  27.062  23.501  1.00  0.00     0.331 C 
ATOM     15  H   UNL A   1      30.142  27.250  25.418  1.00  0.00     0.346 HD
ATOM     16  H   UNL A   1      31.314  27.617  24.211  1.00  0.00     0.346 HD
ENDBRANCH   7  13
BRANCH  11  17
ATOM     17  O   UNL A   1      32.263  22.799  23.371  1.00  0.00    -0.490 OA
BRANCH  17  18
ATOM     18  C   UNL A   1      33.054  21.750  23.773  1.00  0.00     0.123 A 
ATOM     19  C   UNL A   1      32.736  20.395  23.704  1.00  0.00     0.047 A 
ATOM     20  C   UNL A   1      34.258  22.126  24.397  1.00  0.00     0.092 A 
ATOM     21  C   UNL A   1      33.541  19.445  24.345  1.00  0.00     0.008 A 
ATOM     22  C   UNL A   1      35.074  21.174  25.017  1.00  0.00     0.122 A 
ATOM     23  C   UNL A   1      34.707  19.834  25.000  1.00  0.00     0.046 A 
BRANCH  22  24
ATOM     24  O   UNL A   1      36.292  21.463  25.570  1.00  0.00    -0.497 OA
ATOM     25  C   UNL A   1      37.404  21.073  24.769  1.00  0.00     0.278 C 
ENDBRANCH  22  24
ENDBRANCH  17  18
ENDBRANCH  11  17
ENDBRANCH   4   7
ENDBRANCH   2   3
ENDBRANCH   1   2
BRANCH   1  26
ATOM     26  C   UNL A   1      32.895  29.262  23.641  1.00  0.00     0.023 C 
BRANCH  26  27
ATOM     27  C   UNL A   1      33.307  29.333  25.099  1.00  0.00     0.116 C 
BRANCH  27  28
ATOM     28  N   UNL A   1      32.695  30.439  25.838  1.00  0.00    -0.352 N 
ATOM     29  C   UNL A   1      33.138  31.204  26.894  1.00  0.00     0.251 C 
ATOM     30  H   UNL A   1      31.796  30.683  25.519  1.00  0.00     0.163 HD
ATOM     31  O   UNL A   1      32.393  32.056  27.376  1.00  0.00    -0.269 OA
BRANCH  29  32
ATOM     32  C   UNL A   1      34.476  30.977  27.482  1.00  0.00     0.039 A 
ATOM     33  C   UNL A   1      35.365  32.047  27.626  1.00  0.00     0.014 A 
ATOM     34  C   UNL A   1      34.846  29.716  27.931  1.00  0.00     0.014 A 
ATOM     35  C   UNL A   1      36.568  31.863  28.317  1.00  0.00     0.010 A 
ATOM     36  C   UNL A   1      35.942  29.579  28.766  1.00  0.00     0.010 A 
ATOM     37  C   UNL A   1      36.839  30.641  28.949  1.00  0.00    -0.014 A 
BRANCH  37  38
ATOM     38  C   UNL A   1      38.066  30.380  29.751  1.00  0.00     0.031 A 
ATOM     39  C   UNL A   1      39.108  29.438  29.196  1.00  0.00     0.074 A 
ATOM     40  C   UNL A   1      38.191  30.863  31.003  1.00  0.00     0.049 A 
ATOM     41  N   UNL A   1      40.084  28.818  29.805  1.00  0.00    -0.248 NA
ATOM     42  C   UNL A   1      38.970  29.082  27.773  1.00  0.00     0.031 C 
ATOM     43  C   UNL A   1      37.243  31.754  31.676  1.00  0.00     0.029 A 
ATOM     44  N   UNL A   1      39.166  30.649  31.946  1.00  0.00    -0.354 N 
ATOM     45  C   UNL A   1      40.624  27.949  28.861  1.00  0.00     0.074 A 
ATOM     46  C   UNL A   1      39.813  28.067  27.669  1.00  0.00     0.031 C 
ATOM     47  C   UNL A   1      37.700  32.034  32.907  1.00  0.00     0.029 A 
ATOM     48  C   UNL A   1      38.936  31.294  33.139  1.00  0.00     0.049 A 
ATOM     49  H   UNL A   1      39.957  30.086  31.783  1.00  0.00     0.167 HD
ATOM     50  C   UNL A   1      41.716  27.151  28.964  1.00  0.00     0.034 A 
ATOM     51  C   UNL A   1      39.631  31.272  34.292  1.00  0.00     0.034 A 
ATOM     52  C   UNL A   1      42.561  27.120  30.132  1.00  0.00     0.049 A 
ATOM     53  C   UNL A   1      40.871  30.417  34.374  1.00  0.00     0.074 A 
ATOM     54  C   UNL A   1      43.740  26.422  30.327  1.00  0.00     0.029 A 
ATOM     55  N   UNL A   1      42.326  27.840  31.296  1.00  0.00    -0.354 N 
ATOM     56  N   UNL A   1      41.381  29.610  33.471  1.00  0.00    -0.248 NA
ATOM     57  C   UNL A   1      41.634  30.475  35.628  1.00  0.00     0.031 C 
ATOM     58  C   UNL A   1      44.192  26.684  31.625  1.00  0.00     0.029 A 
ATOM     59  C   UNL A   1      43.332  27.596  32.217  1.00  0.00     0.049 A 
ATOM     60  H   UNL A   1      41.557  28.437  31.446  1.00  0.00     0.167 HD
ATOM     61  C   UNL A   1      42.542  29.092  34.037  1.00  0.00     0.074 A 
ATOM     62  C   UNL A   1      42.663  29.687  35.353  1.00  0.00     0.031 C 
ATOM     63  C   UNL A   1      43.431  28.206  33.521  1.00  0.00     0.034 A 
BRANCH  50  64
ATOM     64  C   UNL A   1      42.042  26.257  27.789  1.00  0.00     0.023 A 
ATOM     65  C   UNL A   1      41.545  24.945  27.697  1.00  0.00     0.031 A 
ATOM     66  C   UNL A   1      42.904  26.702  26.772  1.00  0.00     0.131 A 
ATOM     67  C   UNL A   1      41.998  24.093  26.678  1.00  0.00     0.055 A 
ATOM     68  C   UNL A   1      43.270  25.880  25.703  1.00  0.00     0.041 A 
ATOM     69  F   UNL A   1      43.426  27.939  26.810  1.00  0.00    -0.206 F 
ATOM     70  C   UNL A   1      42.834  24.559  25.664  1.00  0.00     0.022 A 
BRANCH  67  71
ATOM     71  S   UNL A   1      41.615  22.324  26.803  1.00  0.00     0.124 S 
ATOM     72  O   UNL A   1      41.913  21.864  25.448  1.00  0.00    -0.237 OA
ATOM     73  O   UNL A   1      42.531  21.875  27.845  1.00  0.00    -0.237 OA
ATOM     74  O   UNL A   1      40.199  22.304  27.164  1.00  0.00    -0.744 OA
ENDBRANCH  67  71
ENDBRANCH  50  64
BRANCH  51  75
ATOM     75  C   UNL A   1      39.186  32.079  35.465  1.00  0.00     0.023 A 
ATOM     76  C   UNL A   1      38.521  31.472  36.542  1.00  0.00     0.031 A 
ATOM     77  C   UNL A   1      39.381  33.471  35.512  1.00  0.00     0.131 A 
ATOM     78  C   UNL A   1      38.028  32.257  37.595  1.00  0.00     0.055 A 
ATOM     79  C   UNL A   1      38.936  34.242  36.588  1.00  0.00     0.041 A 
ATOM     80  F   UNL A   1      40.019  34.102  34.513  1.00  0.00    -0.206 F 
ATOM     81  C   UNL A   1      38.241  33.636  37.632  1.00  0.00     0.022 A 
BRANCH  78  82
ATOM     82  S   UNL A   1      37.027  31.455  38.877  1.00  0.00     0.124 S 
ATOM     83  O   UNL A   1      37.890  31.578  40.047  1.00  0.00    -0.237 OA
ATOM     84  O   UNL A   1      35.823  32.278  38.880  1.00  0.00    -0.237 OA
ATOM     85  O   UNL A   1      36.850  30.096  38.371  1.00  0.00    -0.744 OA
ENDBRANCH  78  82
ENDBRANCH  51  75
BRANCH  63  86
ATOM     86  C   UNL A   1      44.641  27.880  34.361  1.00  0.00     0.023 A 
ATOM     87  C   UNL A   1      45.838  28.608  34.246  1.00  0.00     0.031 A 
ATOM     88  C   UNL A   1      44.590  26.824  35.286  1.00  0.00     0.131 A 
ATOM     89  C   UNL A   1      46.954  28.234  35.009  1.00  0.00     0.055 A 
ATOM     90  C   UNL A   1      45.686  26.495  36.084  1.00  0.00     0.041 A 
ATOM     91  F   UNL A   1      43.470  26.098  35.433  1.00  0.00    -0.206 F 
ATOM     92  C   UNL A   1      46.880  27.194  35.938  1.00  0.00     0.022 A 
BRANCH  89  93
ATOM     93  S   UNL A   1      48.532  29.077  34.710  1.00  0.00     0.124 S 
ATOM     94  O   UNL A   1      48.882  29.548  36.046  1.00  0.00    -0.237 OA
ATOM     95  O   UNL A   1      49.363  28.001  34.176  1.00  0.00    -0.237 OA
ATOM     96  O   UNL A   1      48.185  30.124  33.753  1.00  0.00    -0.744 OA
ENDBRANCH  89  93
ENDBRANCH  63  86
ENDBRANCH  37  38
ENDBRANCH  29  32
ENDBRANCH  27  28
ENDBRANCH  26  27
ENDBRANCH   1  26
TORSDOF 18
ENDMDL
