MODEL 1
REMARK VINA RESULT:     -13.3      0.000      0.000
REMARK SMILES O=C(NCCCCNC(=O)c1cnccc1C(=O)N1CCC(Cc2ccccc2)CC1)c1ccc(-c2c3nc(c(-c4cc(S(=O)(=O)[O-])ccc4F)c4ccc([nH]4)c(-c4cc(S(=O)(=O)[O-])ccc4F)c4nc(c(-c5cc(S(=O)(=O)[O-])ccc5F)c5ccc2[nH]5)C=C4)C=C3)cc1
REMARK SMILES IDX 5 1 4 2 3 3 1 4 2 5 32 7 33 8 94 9 34 10 93 11 35 12 36 13
REMARK SMILES IDX 37 14 87 15 38 16 92 17 86 18 88 19 39 20 91 21 85 22 84 23
REMARK SMILES IDX 40 25 72 26 52 27 71 28 53 29 56 30 70 31 89 32 54 33 55 34
REMARK SMILES IDX 69 36 90 37 57 38 41 39 42 40 50 41 43 42 49 43 51 44 48 45
REMARK SMILES IDX 44 46 45 47 46 48 47 49 73 50 74 51 82 52 75 53 81 54 83 55
REMARK SMILES IDX 80 56 76 57 77 58 78 59 79 60 58 61 59 62 67 63 60 64 66 65
REMARK SMILES IDX 68 66 65 67 61 68 62 69 63 70 64 71 6 72 7 73 8 74 9 75
REMARK SMILES IDX 10 77 11 78 12 79 16 80 13 81 15 82 14 83 17 84 18 85 19 86
REMARK SMILES IDX 20 87 31 88 21 89 30 90 22 91 23 92 24 93 25 94 29 95 26 96
REMARK SMILES IDX 28 97 27 98
REMARK H PARENT 3 6 88 24 56 35 8 76
REMARK Flexibility Score: inf
ROOT
ATOM      1  C   UNL A   1      31.408  32.005  26.572  1.00  0.00     0.023 C 
ENDROOT
BRANCH   1   2
ATOM      2  C   UNL A   1      32.649  32.594  27.239  1.00  0.00     0.116 C 
BRANCH   2   3
ATOM      3  N   UNL A   1      32.482  33.972  27.666  1.00  0.00    -0.352 N 
ATOM      4  O   UNL A   1      32.726  35.798  28.953  1.00  0.00    -0.269 OA
ATOM      5  C   UNL A   1      33.131  34.675  28.657  1.00  0.00     0.251 C 
ATOM      6  H   UNL A   1      31.800  34.483  27.172  1.00  0.00     0.163 HD
BRANCH   5   7
ATOM      7  C   UNL A   1      34.289  34.099  29.386  1.00  0.00     0.039 A 
ATOM      8  C   UNL A   1      34.113  33.220  30.457  1.00  0.00     0.014 A 
ATOM      9  C   UNL A   1      35.586  34.388  28.938  1.00  0.00     0.014 A 
ATOM     10  C   UNL A   1      35.223  32.708  31.132  1.00  0.00     0.010 A 
ATOM     11  C   UNL A   1      36.700  33.839  29.588  1.00  0.00     0.010 A 
ATOM     12  C   UNL A   1      36.525  33.004  30.699  1.00  0.00    -0.014 A 
BRANCH  12  13
ATOM     13  C   UNL A   1      37.678  32.353  31.374  1.00  0.00     0.031 A 
ATOM     14  C   UNL A   1      38.447  31.262  30.696  1.00  0.00     0.074 A 
ATOM     15  C   UNL A   1      38.057  32.801  32.586  1.00  0.00     0.049 A 
ATOM     16  N   UNL A   1      39.501  30.617  31.120  1.00  0.00    -0.248 NA
ATOM     17  C   UNL A   1      37.964  30.832  29.376  1.00  0.00     0.031 C 
ATOM     18  C   UNL A   1      37.361  33.849  33.327  1.00  0.00     0.029 A 
ATOM     19  N   UNL A   1      39.112  32.469  33.398  1.00  0.00    -0.354 N 
ATOM     20  C   UNL A   1      39.795  29.681  30.137  1.00  0.00     0.074 A 
ATOM     21  C   UNL A   1      38.811  29.852  29.088  1.00  0.00     0.031 C 
ATOM     22  C   UNL A   1      38.045  34.131  34.446  1.00  0.00     0.029 A 
ATOM     23  C   UNL A   1      39.178  33.217  34.554  1.00  0.00     0.049 A 
ATOM     24  H   UNL A   1      39.761  31.762  33.176  1.00  0.00     0.167 HD
ATOM     25  C   UNL A   1      40.784  28.752  30.131  1.00  0.00     0.034 A 
ATOM     26  C   UNL A   1      40.033  33.151  35.596  1.00  0.00     0.034 A 
ATOM     27  C   UNL A   1      41.746  28.595  31.196  1.00  0.00     0.049 A 
ATOM     28  C   UNL A   1      41.104  32.088  35.567  1.00  0.00     0.074 A 
ATOM     29  C   UNL A   1      42.806  27.709  31.273  1.00  0.00     0.029 A 
ATOM     30  N   UNL A   1      41.752  29.323  32.378  1.00  0.00    -0.354 N 
ATOM     31  N   UNL A   1      41.386  31.230  34.611  1.00  0.00    -0.248 NA
ATOM     32  C   UNL A   1      41.949  31.959  36.761  1.00  0.00     0.031 C 
ATOM     33  C   UNL A   1      43.404  27.849  32.530  1.00  0.00     0.029 A 
ATOM     34  C   UNL A   1      42.764  28.871  33.212  1.00  0.00     0.049 A 
ATOM     35  H   UNL A   1      41.130  30.054  32.594  1.00  0.00     0.167 HD
ATOM     36  C   UNL A   1      42.431  30.453  35.100  1.00  0.00     0.074 A 
ATOM     37  C   UNL A   1      42.763  30.974  36.409  1.00  0.00     0.031 C 
ATOM     38  C   UNL A   1      43.052  29.389  34.528  1.00  0.00     0.034 A 
BRANCH  25  39
ATOM     39  C   UNL A   1      40.817  27.780  28.981  1.00  0.00     0.023 A 
ATOM     40  C   UNL A   1      41.744  27.892  27.931  1.00  0.00     0.031 A 
ATOM     41  C   UNL A   1      39.892  26.721  28.938  1.00  0.00     0.131 A 
ATOM     42  C   UNL A   1      41.692  26.989  26.857  1.00  0.00     0.055 A 
ATOM     43  C   UNL A   1      39.887  25.789  27.900  1.00  0.00     0.041 A 
ATOM     44  F   UNL A   1      38.971  26.581  29.904  1.00  0.00    -0.206 F 
ATOM     45  C   UNL A   1      40.784  25.926  26.846  1.00  0.00     0.022 A 
BRANCH  42  46
ATOM     46  S   UNL A   1      42.761  27.281  25.422  1.00  0.00     0.124 S 
ATOM     47  O   UNL A   1      44.054  27.520  26.059  1.00  0.00    -0.237 OA
ATOM     48  O   UNL A   1      42.639  26.033  24.676  1.00  0.00    -0.237 OA
ATOM     49  O   UNL A   1      42.163  28.451  24.781  1.00  0.00    -0.744 OA
ENDBRANCH  42  46
ENDBRANCH  25  39
BRANCH  26  50
ATOM     50  C   UNL A   1      39.871  34.038  36.789  1.00  0.00     0.023 A 
ATOM     51  C   UNL A   1      39.356  33.548  38.000  1.00  0.00     0.031 A 
ATOM     52  C   UNL A   1      40.160  35.414  36.713  1.00  0.00     0.131 A 
ATOM     53  C   UNL A   1      39.097  34.431  39.063  1.00  0.00     0.055 A 
ATOM     54  C   UNL A   1      39.970  36.274  37.796  1.00  0.00     0.041 A 
ATOM     55  F   UNL A   1      40.638  35.948  35.578  1.00  0.00    -0.206 F 
ATOM     56  C   UNL A   1      39.419  35.787  38.975  1.00  0.00     0.022 A 
BRANCH  53  57
ATOM     57  S   UNL A   1      38.212  33.808  40.520  1.00  0.00     0.124 S 
ATOM     58  O   UNL A   1      36.990  33.280  39.921  1.00  0.00    -0.237 OA
ATOM     59  O   UNL A   1      39.149  32.820  41.044  1.00  0.00    -0.237 OA
ATOM     60  O   UNL A   1      38.036  34.999  41.347  1.00  0.00    -0.744 OA
ENDBRANCH  53  57
ENDBRANCH  26  50
BRANCH  38  61
ATOM     61  C   UNL A   1      44.139  28.727  35.334  1.00  0.00     0.023 A 
ATOM     62  C   UNL A   1      43.854  27.661  36.206  1.00  0.00     0.031 A 
ATOM     63  C   UNL A   1      45.471  29.165  35.233  1.00  0.00     0.131 A 
ATOM     64  C   UNL A   1      44.880  27.095  36.976  1.00  0.00     0.055 A 
ATOM     65  C   UNL A   1      46.497  28.563  35.962  1.00  0.00     0.041 A 
ATOM     66  F   UNL A   1      45.795  30.180  34.417  1.00  0.00    -0.206 F 
ATOM     67  C   UNL A   1      46.202  27.528  36.846  1.00  0.00     0.022 A 
BRANCH  64  68
ATOM     68  S   UNL A   1      44.455  25.821  38.195  1.00  0.00     0.124 S 
ATOM     69  O   UNL A   1      45.770  25.321  38.582  1.00  0.00    -0.237 OA
ATOM     70  O   UNL A   1      43.738  26.585  39.212  1.00  0.00    -0.237 OA
ATOM     71  O   UNL A   1      43.632  24.881  37.435  1.00  0.00    -0.744 OA
ENDBRANCH  64  68
ENDBRANCH  38  61
ENDBRANCH  12  13
ENDBRANCH   5   7
ENDBRANCH   2   3
ENDBRANCH   1   2
BRANCH   1  72
ATOM     72  C   UNL A   1      31.529  30.645  25.871  1.00  0.00     0.023 C 
BRANCH  72  73
ATOM     73  C   UNL A   1      32.432  29.576  26.490  1.00  0.00     0.116 C 
BRANCH  73  74
ATOM     74  N   UNL A   1      33.330  28.929  25.554  1.00  0.00    -0.352 N 
ATOM     75  C   UNL A   1      33.038  28.176  24.451  1.00  0.00     0.253 C 
ATOM     76  H   UNL A   1      34.290  29.050  25.741  1.00  0.00     0.163 HD
ATOM     77  O   UNL A   1      33.948  27.703  23.770  1.00  0.00    -0.269 OA
BRANCH  75  78
ATOM     78  C   UNL A   1      31.666  27.848  24.066  1.00  0.00     0.070 A 
ATOM     79  C   UNL A   1      31.162  28.596  23.005  1.00  0.00     0.125 A 
ATOM     80  C   UNL A   1      30.819  26.917  24.665  1.00  0.00     0.055 A 
ATOM     81  N   UNL A   1      29.929  28.432  22.464  1.00  0.00    -0.264 NA
ATOM     82  C   UNL A   1      29.536  26.735  24.117  1.00  0.00     0.035 A 
ATOM     83  C   UNL A   1      29.146  27.495  23.028  1.00  0.00     0.112 A 
BRANCH  80  84
ATOM     84  C   UNL A   1      31.217  25.914  25.678  1.00  0.00     0.254 C 
ATOM     85  O   UNL A   1      31.071  26.284  26.847  1.00  0.00    -0.269 OA
ATOM     86  N   UNL A   1      31.643  24.626  25.373  1.00  0.00    -0.339 N 
ATOM     87  C   UNL A   1      31.347  23.613  26.378  1.00  0.00     0.120 C 
ATOM     88  C   UNL A   1      32.158  24.133  24.092  1.00  0.00     0.120 C 
ATOM     89  C   UNL A   1      32.427  22.573  26.555  1.00  0.00     0.025 C 
ATOM     90  C   UNL A   1      33.271  23.090  24.270  1.00  0.00     0.025 C 
ATOM     91  C   UNL A   1      32.832  21.953  25.213  1.00  0.00    -0.003 C 
BRANCH  91  92
ATOM     92  C   UNL A   1      33.950  20.907  25.384  1.00  0.00     0.039 C 
BRANCH  92  93
ATOM     93  C   UNL A   1      33.710  19.636  24.601  1.00  0.00    -0.048 A 
ATOM     94  C   UNL A   1      32.564  19.501  23.800  1.00  0.00     0.004 A 
ATOM     95  C   UNL A   1      34.631  18.584  24.644  1.00  0.00     0.004 A 
ATOM     96  C   UNL A   1      32.359  18.356  23.033  1.00  0.00     0.000 A 
ATOM     97  C   UNL A   1      34.402  17.421  23.909  1.00  0.00     0.000 A 
ATOM     98  C   UNL A   1      33.274  17.312  23.096  1.00  0.00     0.000 A 
ENDBRANCH  92  93
ENDBRANCH  91  92
ENDBRANCH  80  84
ENDBRANCH  75  78
ENDBRANCH  73  74
ENDBRANCH  72  73
ENDBRANCH   1  72
TORSDOF 17
ENDMDL
MODEL 2
REMARK VINA RESULT:     -12.9      0.522      7.587
REMARK SMILES O=C(NCCCCNC(=O)c1cnccc1C(=O)N1CCC(Cc2ccccc2)CC1)c1ccc(-c2c3nc(c(-c4cc(S(=O)(=O)[O-])ccc4F)c4ccc([nH]4)c(-c4cc(S(=O)(=O)[O-])ccc4F)c4nc(c(-c5cc(S(=O)(=O)[O-])ccc5F)c5ccc2[nH]5)C=C4)C=C3)cc1
REMARK SMILES IDX 5 1 4 2 3 3 1 4 2 5 32 7 33 8 94 9 34 10 93 11 35 12 36 13
REMARK SMILES IDX 37 14 87 15 38 16 92 17 86 18 88 19 39 20 91 21 85 22 84 23
REMARK SMILES IDX 40 25 72 26 52 27 71 28 53 29 56 30 70 31 89 32 54 33 55 34
REMARK SMILES IDX 69 36 90 37 57 38 41 39 42 40 50 41 43 42 49 43 51 44 48 45
REMARK SMILES IDX 44 46 45 47 46 48 47 49 73 50 74 51 82 52 75 53 81 54 83 55
REMARK SMILES IDX 80 56 76 57 77 58 78 59 79 60 58 61 59 62 67 63 60 64 66 65
REMARK SMILES IDX 68 66 65 67 61 68 62 69 63 70 64 71 6 72 7 73 8 74 9 75
REMARK SMILES IDX 10 77 11 78 12 79 16 80 13 81 15 82 14 83 17 84 18 85 19 86
REMARK SMILES IDX 20 87 31 88 21 89 30 90 22 91 23 92 24 93 25 94 29 95 26 96
REMARK SMILES IDX 28 97 27 98
REMARK H PARENT 3 6 88 24 56 35 8 76
REMARK Flexibility Score: inf
ROOT
ATOM      1  C   UNL A   1      31.594  32.080  26.930  1.00  0.00     0.023 C 
ENDROOT
BRANCH   1   2
ATOM      2  C   UNL A   1      32.930  32.753  27.235  1.00  0.00     0.116 C 
BRANCH   2   3
ATOM      3  N   UNL A   1      32.801  34.119  27.709  1.00  0.00    -0.352 N 
ATOM      4  O   UNL A   1      33.084  35.890  29.063  1.00  0.00    -0.269 OA
ATOM      5  C   UNL A   1      33.458  34.766  28.732  1.00  0.00     0.251 C 
ATOM      6  H   UNL A   1      32.142  34.668  27.225  1.00  0.00     0.163 HD
BRANCH   5   7
ATOM      7  C   UNL A   1      34.588  34.128  29.453  1.00  0.00     0.039 A 
ATOM      8  C   UNL A   1      34.372  33.197  30.472  1.00  0.00     0.014 A 
ATOM      9  C   UNL A   1      35.900  34.414  29.049  1.00  0.00     0.014 A 
ATOM     10  C   UNL A   1      35.456  32.628  31.142  1.00  0.00     0.010 A 
ATOM     11  C   UNL A   1      36.988  33.809  29.693  1.00  0.00     0.010 A 
ATOM     12  C   UNL A   1      36.772  32.920  30.754  1.00  0.00    -0.014 A 
BRANCH  12  13
ATOM     13  C   UNL A   1      37.898  32.211  31.417  1.00  0.00     0.031 A 
ATOM     14  C   UNL A   1      38.312  32.568  32.811  1.00  0.00     0.074 A 
ATOM     15  C   UNL A   1      38.503  31.201  30.764  1.00  0.00     0.049 A 
ATOM     16  N   UNL A   1      39.241  32.025  33.554  1.00  0.00    -0.248 NA
ATOM     17  C   UNL A   1      37.601  33.684  33.450  1.00  0.00     0.031 C 
ATOM     18  C   UNL A   1      38.175  30.792  29.401  1.00  0.00     0.029 A 
ATOM     19  N   UNL A   1      39.487  30.323  31.143  1.00  0.00    -0.354 N 
ATOM     20  C   UNL A   1      39.252  32.750  34.738  1.00  0.00     0.074 A 
ATOM     21  C   UNL A   1      38.226  33.765  34.617  1.00  0.00     0.031 C 
ATOM     22  C   UNL A   1      38.884  29.699  29.082  1.00  0.00     0.029 A 
ATOM     23  C   UNL A   1      39.790  29.383  30.181  1.00  0.00     0.049 A 
ATOM     24  H   UNL A   1      39.934  30.360  32.019  1.00  0.00     0.167 HD
ATOM     25  C   UNL A   1      40.064  32.590  35.813  1.00  0.00     0.034 A 
ATOM     26  C   UNL A   1      40.716  28.401  30.173  1.00  0.00     0.034 A 
ATOM     27  C   UNL A   1      41.087  31.575  35.903  1.00  0.00     0.049 A 
ATOM     28  C   UNL A   1      41.619  28.269  31.376  1.00  0.00     0.074 A 
ATOM     29  C   UNL A   1      41.940  31.307  36.959  1.00  0.00     0.029 A 
ATOM     30  N   UNL A   1      41.413  30.679  34.894  1.00  0.00    -0.354 N 
ATOM     31  N   UNL A   1      41.593  28.946  32.502  1.00  0.00    -0.248 NA
ATOM     32  C   UNL A   1      42.693  27.271  31.297  1.00  0.00     0.031 C 
ATOM     33  C   UNL A   1      42.829  30.302  36.561  1.00  0.00     0.029 A 
ATOM     34  C   UNL A   1      42.487  29.893  35.282  1.00  0.00     0.049 A 
ATOM     35  H   UNL A   1      40.949  30.611  34.028  1.00  0.00     0.167 HD
ATOM     36  C   UNL A   1      42.657  28.462  33.257  1.00  0.00     0.074 A 
ATOM     37  C   UNL A   1      43.271  27.405  32.482  1.00  0.00     0.031 C 
ATOM     38  C   UNL A   1      43.101  28.866  34.475  1.00  0.00     0.034 A 
BRANCH  25  39
ATOM     39  C   UNL A   1      39.937  33.587  36.935  1.00  0.00     0.023 A 
ATOM     40  C   UNL A   1      39.305  33.272  38.149  1.00  0.00     0.031 A 
ATOM     41  C   UNL A   1      40.458  34.883  36.775  1.00  0.00     0.131 A 
ATOM     42  C   UNL A   1      39.167  34.259  39.139  1.00  0.00     0.055 A 
ATOM     43  C   UNL A   1      40.374  35.841  37.787  1.00  0.00     0.041 A 
ATOM     44  F   UNL A   1      41.052  35.243  35.627  1.00  0.00    -0.206 F 
ATOM     45  C   UNL A   1      39.716  35.534  38.974  1.00  0.00     0.022 A 
BRANCH  42  46
ATOM     46  S   UNL A   1      38.169  33.887  40.606  1.00  0.00     0.124 S 
ATOM     47  O   UNL A   1      39.058  32.999  41.352  1.00  0.00    -0.237 OA
ATOM     48  O   UNL A   1      37.954  35.208  41.187  1.00  0.00    -0.237 OA
ATOM     49  O   UNL A   1      36.976  33.246  40.057  1.00  0.00    -0.744 OA
ENDBRANCH  42  46
ENDBRANCH  25  39
BRANCH  26  50
ATOM     50  C   UNL A   1      40.909  27.528  28.974  1.00  0.00     0.023 A 
ATOM     51  C   UNL A   1      41.916  27.793  28.031  1.00  0.00     0.031 A 
ATOM     52  C   UNL A   1      40.038  26.453  28.713  1.00  0.00     0.131 A 
ATOM     53  C   UNL A   1      41.994  27.031  26.853  1.00  0.00     0.055 A 
ATOM     54  C   UNL A   1      40.165  25.654  27.576  1.00  0.00     0.041 A 
ATOM     55  F   UNL A   1      39.044  26.159  29.566  1.00  0.00    -0.206 F 
ATOM     56  C   UNL A   1      41.137  25.951  26.628  1.00  0.00     0.022 A 
BRANCH  53  57
ATOM     57  S   UNL A   1      43.147  27.551  25.551  1.00  0.00     0.124 S 
ATOM     58  O   UNL A   1      44.109  28.346  26.308  1.00  0.00    -0.237 OA
ATOM     59  O   UNL A   1      43.630  26.270  25.045  1.00  0.00    -0.237 OA
ATOM     60  O   UNL A   1      42.303  28.306  24.629  1.00  0.00    -0.744 OA
ENDBRANCH  53  57
ENDBRANCH  26  50
BRANCH  38  61
ATOM     61  C   UNL A   1      44.314  28.159  35.020  1.00  0.00     0.023 A 
ATOM     62  C   UNL A   1      44.192  26.983  35.781  1.00  0.00     0.031 A 
ATOM     63  C   UNL A   1      45.604  28.663  34.778  1.00  0.00     0.131 A 
ATOM     64  C   UNL A   1      45.336  26.372  36.311  1.00  0.00     0.055 A 
ATOM     65  C   UNL A   1      46.744  28.021  35.264  1.00  0.00     0.041 A 
ATOM     66  F   UNL A   1      45.776  29.783  34.058  1.00  0.00    -0.206 F 
ATOM     67  C   UNL A   1      46.613  26.873  36.043  1.00  0.00     0.022 A 
BRANCH  64  68
ATOM     68  S   UNL A   1      45.134  24.942  37.408  1.00  0.00     0.124 S 
ATOM     69  O   UNL A   1      46.515  24.635  37.765  1.00  0.00    -0.237 OA
ATOM     70  O   UNL A   1      44.303  25.481  38.480  1.00  0.00    -0.237 OA
ATOM     71  O   UNL A   1      44.477  23.949  36.558  1.00  0.00    -0.744 OA
ENDBRANCH  64  68
ENDBRANCH  38  61
ENDBRANCH  12  13
ENDBRANCH   5   7
ENDBRANCH   2   3
ENDBRANCH   1   2
BRANCH   1  72
ATOM     72  C   UNL A   1      31.599  30.764  26.140  1.00  0.00     0.023 C 
BRANCH  72  73
ATOM     73  C   UNL A   1      32.442  29.597  26.660  1.00  0.00     0.116 C 
BRANCH  73  74
ATOM     74  N   UNL A   1      33.353  29.030  25.686  1.00  0.00    -0.352 N 
ATOM     75  C   UNL A   1      33.077  28.296  24.565  1.00  0.00     0.253 C 
ATOM     76  H   UNL A   1      34.308  29.198  25.856  1.00  0.00     0.163 HD
ATOM     77  O   UNL A   1      33.997  27.895  23.851  1.00  0.00    -0.269 OA
BRANCH  75  78
ATOM     78  C   UNL A   1      31.717  27.905  24.198  1.00  0.00     0.070 A 
ATOM     79  C   UNL A   1      31.154  28.648  23.162  1.00  0.00     0.125 A 
ATOM     80  C   UNL A   1      30.931  26.920  24.792  1.00  0.00     0.055 A 
ATOM     81  N   UNL A   1      29.922  28.431  22.641  1.00  0.00    -0.264 NA
ATOM     82  C   UNL A   1      29.648  26.683  24.264  1.00  0.00     0.035 A 
ATOM     83  C   UNL A   1      29.199  27.443  23.199  1.00  0.00     0.112 A 
BRANCH  80  84
ATOM     84  C   UNL A   1      31.399  25.919  25.776  1.00  0.00     0.254 C 
ATOM     85  O   UNL A   1      31.327  26.287  26.953  1.00  0.00    -0.269 OA
ATOM     86  N   UNL A   1      31.812  24.633  25.443  1.00  0.00    -0.339 N 
ATOM     87  C   UNL A   1      31.588  23.618  26.464  1.00  0.00     0.120 C 
ATOM     88  C   UNL A   1      32.247  24.145  24.131  1.00  0.00     0.120 C 
ATOM     89  C   UNL A   1      32.683  22.585  26.569  1.00  0.00     0.025 C 
ATOM     90  C   UNL A   1      33.375  23.109  24.235  1.00  0.00     0.025 C 
ATOM     91  C   UNL A   1      33.005  21.968  25.204  1.00  0.00    -0.003 C 
BRANCH  91  92
ATOM     92  C   UNL A   1      34.138  20.928  25.301  1.00  0.00     0.039 C 
BRANCH  92  93
ATOM     93  C   UNL A   1      33.830  19.634  24.582  1.00  0.00    -0.048 A 
ATOM     94  C   UNL A   1      34.737  18.562  24.630  1.00  0.00     0.004 A 
ATOM     95  C   UNL A   1      32.633  19.475  23.878  1.00  0.00     0.004 A 
ATOM     96  C   UNL A   1      34.440  17.348  24.016  1.00  0.00     0.000 A 
ATOM     97  C   UNL A   1      32.358  18.271  23.228  1.00  0.00     0.000 A 
ATOM     98  C   UNL A   1      33.254  17.206  23.307  1.00  0.00     0.000 A 
ENDBRANCH  92  93
ENDBRANCH  91  92
ENDBRANCH  80  84
ENDBRANCH  75  78
ENDBRANCH  73  74
ENDBRANCH  72  73
ENDBRANCH   1  72
TORSDOF 17
ENDMDL
MODEL 3
REMARK VINA RESULT:     -12.6      5.639     11.832
REMARK SMILES O=C(NCCCCNC(=O)c1cnccc1C(=O)N1CCC(Cc2ccccc2)CC1)c1ccc(-c2c3nc(c(-c4cc(S(=O)(=O)[O-])ccc4F)c4ccc([nH]4)c(-c4cc(S(=O)(=O)[O-])ccc4F)c4nc(c(-c5cc(S(=O)(=O)[O-])ccc5F)c5ccc2[nH]5)C=C4)C=C3)cc1
REMARK SMILES IDX 5 1 4 2 3 3 1 4 2 5 32 7 33 8 94 9 34 10 93 11 35 12 36 13
REMARK SMILES IDX 37 14 87 15 38 16 92 17 86 18 88 19 39 20 91 21 85 22 84 23
REMARK SMILES IDX 40 25 72 26 52 27 71 28 53 29 56 30 70 31 89 32 54 33 55 34
REMARK SMILES IDX 69 36 90 37 57 38 41 39 42 40 50 41 43 42 49 43 51 44 48 45
REMARK SMILES IDX 44 46 45 47 46 48 47 49 73 50 74 51 82 52 75 53 81 54 83 55
REMARK SMILES IDX 80 56 76 57 77 58 78 59 79 60 58 61 59 62 67 63 60 64 66 65
REMARK SMILES IDX 68 66 65 67 61 68 62 69 63 70 64 71 6 72 7 73 8 74 9 75
REMARK SMILES IDX 10 77 11 78 12 79 16 80 13 81 15 82 14 83 17 84 18 85 19 86
REMARK SMILES IDX 20 87 31 88 21 89 30 90 22 91 23 92 24 93 25 94 29 95 26 96
REMARK SMILES IDX 28 97 27 98
REMARK H PARENT 3 6 88 24 56 35 8 76
REMARK Flexibility Score: inf
ROOT
ATOM      1  C   UNL A   1      38.235  19.328  25.179  1.00  0.00     0.023 C 
ENDROOT
BRANCH   1   2
ATOM      2  C   UNL A   1      39.431  20.037  25.811  1.00  0.00     0.116 C 
BRANCH   2   3
ATOM      3  N   UNL A   1      40.578  19.170  26.019  1.00  0.00    -0.352 N 
ATOM      4  O   UNL A   1      42.735  18.596  26.277  1.00  0.00    -0.269 OA
ATOM      5  C   UNL A   1      41.891  19.491  26.284  1.00  0.00     0.251 C 
ATOM      6  H   UNL A   1      40.388  18.206  25.962  1.00  0.00     0.163 HD
BRANCH   5   7
ATOM      7  C   UNL A   1      42.309  20.889  26.555  1.00  0.00     0.039 A 
ATOM      8  C   UNL A   1      42.595  21.327  27.850  1.00  0.00     0.014 A 
ATOM      9  C   UNL A   1      42.490  21.766  25.476  1.00  0.00     0.014 A 
ATOM     10  C   UNL A   1      42.969  22.654  28.074  1.00  0.00     0.010 A 
ATOM     11  C   UNL A   1      42.908  23.085  25.696  1.00  0.00     0.010 A 
ATOM     12  C   UNL A   1      43.139  23.541  27.001  1.00  0.00    -0.014 A 
BRANCH  12  13
ATOM     13  C   UNL A   1      43.644  24.913  27.268  1.00  0.00     0.031 A 
ATOM     14  C   UNL A   1      42.762  25.945  27.901  1.00  0.00     0.074 A 
ATOM     15  C   UNL A   1      44.929  25.198  26.984  1.00  0.00     0.049 A 
ATOM     16  N   UNL A   1      43.051  27.173  28.242  1.00  0.00    -0.248 NA
ATOM     17  C   UNL A   1      41.373  25.551  28.176  1.00  0.00     0.031 C 
ATOM     18  C   UNL A   1      45.857  24.262  26.356  1.00  0.00     0.029 A 
ATOM     19  N   UNL A   1      45.688  26.321  27.197  1.00  0.00    -0.354 N 
ATOM     20  C   UNL A   1      41.876  27.715  28.745  1.00  0.00     0.074 A 
ATOM     21  C   UNL A   1      40.871  26.674  28.674  1.00  0.00     0.031 C 
ATOM     22  C   UNL A   1      47.078  24.815  26.303  1.00  0.00     0.029 A 
ATOM     23  C   UNL A   1      47.002  26.183  26.804  1.00  0.00     0.049 A 
ATOM     24  H   UNL A   1      45.328  27.148  27.592  1.00  0.00     0.167 HD
ATOM     25  C   UNL A   1      41.659  28.974  29.200  1.00  0.00     0.034 A 
ATOM     26  C   UNL A   1      48.020  27.069  26.816  1.00  0.00     0.034 A 
ATOM     27  C   UNL A   1      42.677  29.996  29.250  1.00  0.00     0.049 A 
ATOM     28  C   UNL A   1      47.736  28.469  27.304  1.00  0.00     0.074 A 
ATOM     29  C   UNL A   1      42.571  31.293  29.723  1.00  0.00     0.029 A 
ATOM     30  N   UNL A   1      43.980  29.849  28.791  1.00  0.00    -0.354 N 
ATOM     31  N   UNL A   1      46.623  28.955  27.806  1.00  0.00    -0.248 NA
ATOM     32  C   UNL A   1      48.827  29.447  27.200  1.00  0.00     0.031 C 
ATOM     33  C   UNL A   1      43.783  31.949  29.481  1.00  0.00     0.029 A 
ATOM     34  C   UNL A   1      44.670  31.044  28.921  1.00  0.00     0.049 A 
ATOM     35  H   UNL A   1      44.358  29.017  28.426  1.00  0.00     0.167 HD
ATOM     36  C   UNL A   1      46.879  30.297  28.062  1.00  0.00     0.074 A 
ATOM     37  C   UNL A   1      48.263  30.533  27.708  1.00  0.00     0.031 C 
ATOM     38  C   UNL A   1      46.042  31.259  28.529  1.00  0.00     0.034 A 
BRANCH  25  39
ATOM     39  C   UNL A   1      40.252  29.339  29.594  1.00  0.00     0.023 A 
ATOM     40  C   UNL A   1      39.842  29.402  30.936  1.00  0.00     0.031 A 
ATOM     41  C   UNL A   1      39.302  29.622  28.596  1.00  0.00     0.131 A 
ATOM     42  C   UNL A   1      38.503  29.694  31.241  1.00  0.00     0.055 A 
ATOM     43  C   UNL A   1      37.988  29.973  28.909  1.00  0.00     0.041 A 
ATOM     44  F   UNL A   1      39.635  29.554  27.297  1.00  0.00    -0.206 F 
ATOM     45  C   UNL A   1      37.579  30.001  30.238  1.00  0.00     0.022 A 
BRANCH  42  46
ATOM     46  S   UNL A   1      37.956  29.567  32.966  1.00  0.00     0.124 S 
ATOM     47  O   UNL A   1      36.981  30.652  33.048  1.00  0.00    -0.237 OA
ATOM     48  O   UNL A   1      37.411  28.215  33.027  1.00  0.00    -0.237 OA
ATOM     49  O   UNL A   1      39.182  29.780  33.732  1.00  0.00    -0.744 OA
ENDBRANCH  42  46
ENDBRANCH  25  39
BRANCH  26  50
ATOM     50  C   UNL A   1      49.367  26.709  26.274  1.00  0.00     0.023 A 
ATOM     51  C   UNL A   1      49.828  27.232  25.054  1.00  0.00     0.031 A 
ATOM     52  C   UNL A   1      50.187  25.773  26.933  1.00  0.00     0.131 A 
ATOM     53  C   UNL A   1      51.042  26.779  24.509  1.00  0.00     0.055 A 
ATOM     54  C   UNL A   1      51.425  25.381  26.423  1.00  0.00     0.041 A 
ATOM     55  F   UNL A   1      49.795  25.222  28.093  1.00  0.00    -0.206 F 
ATOM     56  C   UNL A   1      51.853  25.872  25.195  1.00  0.00     0.022 A 
BRANCH  53  57
ATOM     57  S   UNL A   1      51.490  27.292  22.827  1.00  0.00     0.124 S 
ATOM     58  O   UNL A   1      50.180  27.407  22.193  1.00  0.00    -0.237 OA
ATOM     59  O   UNL A   1      52.197  28.546  23.070  1.00  0.00    -0.237 OA
ATOM     60  O   UNL A   1      52.321  26.192  22.344  1.00  0.00    -0.744 OA
ENDBRANCH  53  57
ENDBRANCH  26  50
BRANCH  38  61
ATOM     61  C   UNL A   1      46.616  32.645  28.667  1.00  0.00     0.023 A 
ATOM     62  C   UNL A   1      46.666  33.525  27.571  1.00  0.00     0.031 A 
ATOM     63  C   UNL A   1      47.119  33.092  29.901  1.00  0.00     0.131 A 
ATOM     64  C   UNL A   1      47.246  34.793  27.720  1.00  0.00     0.055 A 
ATOM     65  C   UNL A   1      47.647  34.374  30.057  1.00  0.00     0.041 A 
ATOM     66  F   UNL A   1      47.096  32.290  30.978  1.00  0.00    -0.206 F 
ATOM     67  C   UNL A   1      47.721  35.229  28.960  1.00  0.00     0.022 A 
BRANCH  64  68
ATOM     68  S   UNL A   1      47.426  35.848  26.255  1.00  0.00     0.124 S 
ATOM     69  O   UNL A   1      46.098  36.442  26.144  1.00  0.00    -0.237 OA
ATOM     70  O   UNL A   1      48.500  36.754  26.650  1.00  0.00    -0.237 OA
ATOM     71  O   UNL A   1      47.775  34.904  25.195  1.00  0.00    -0.744 OA
ENDBRANCH  64  68
ENDBRANCH  38  61
ENDBRANCH  12  13
ENDBRANCH   5   7
ENDBRANCH   2   3
ENDBRANCH   1   2
BRANCH   1  72
ATOM     72  C   UNL A   1      36.943  20.128  24.957  1.00  0.00     0.023 C 
BRANCH  72  73
ATOM     73  C   UNL A   1      37.032  21.651  24.841  1.00  0.00     0.116 C 
BRANCH  73  74
ATOM     74  N   UNL A   1      36.291  22.377  25.853  1.00  0.00    -0.352 N 
ATOM     75  C   UNL A   1      34.949  22.372  26.116  1.00  0.00     0.253 C 
ATOM     76  H   UNL A   1      36.833  22.958  26.435  1.00  0.00     0.163 HD
ATOM     77  O   UNL A   1      34.498  23.065  27.028  1.00  0.00    -0.269 OA
BRANCH  75  78
ATOM     78  C   UNL A   1      33.994  21.613  25.308  1.00  0.00     0.070 A 
ATOM     79  C   UNL A   1      33.503  20.460  25.915  1.00  0.00     0.125 A 
ATOM     80  C   UNL A   1      33.570  21.896  24.012  1.00  0.00     0.055 A 
ATOM     81  N   UNL A   1      32.584  19.631  25.362  1.00  0.00    -0.264 NA
ATOM     82  C   UNL A   1      32.617  21.045  23.422  1.00  0.00     0.035 A 
ATOM     83  C   UNL A   1      32.153  19.950  24.128  1.00  0.00     0.112 A 
BRANCH  80  84
ATOM     84  C   UNL A   1      33.837  23.149  23.270  1.00  0.00     0.254 C 
ATOM     85  O   UNL A   1      34.868  23.131  22.592  1.00  0.00    -0.269 OA
ATOM     86  N   UNL A   1      32.976  24.241  23.251  1.00  0.00    -0.339 N 
ATOM     87  C   UNL A   1      33.008  25.044  22.036  1.00  0.00     0.120 C 
ATOM     88  C   UNL A   1      31.906  24.555  24.204  1.00  0.00     0.120 C 
ATOM     89  C   UNL A   1      32.858  26.529  22.263  1.00  0.00     0.025 C 
ATOM     90  C   UNL A   1      31.766  26.063  24.452  1.00  0.00     0.025 C 
ATOM     91  C   UNL A   1      31.633  26.843  23.129  1.00  0.00    -0.003 C 
BRANCH  91  92
ATOM     92  C   UNL A   1      31.488  28.355  23.384  1.00  0.00     0.039 C 
BRANCH  92  93
ATOM     93  C   UNL A   1      30.181  28.927  22.882  1.00  0.00    -0.048 A 
ATOM     94  C   UNL A   1      30.177  29.996  21.971  1.00  0.00     0.004 A 
ATOM     95  C   UNL A   1      28.959  28.389  23.297  1.00  0.00     0.004 A 
ATOM     96  C   UNL A   1      28.981  30.497  21.461  1.00  0.00     0.000 A 
ATOM     97  C   UNL A   1      27.761  28.921  22.818  1.00  0.00     0.000 A 
ATOM     98  C   UNL A   1      27.773  29.964  21.893  1.00  0.00     0.000 A 
ENDBRANCH  92  93
ENDBRANCH  91  92
ENDBRANCH  80  84
ENDBRANCH  75  78
ENDBRANCH  73  74
ENDBRANCH  72  73
ENDBRANCH   1  72
TORSDOF 17
ENDMDL
