MODEL 1
REMARK VINA RESULT:     -11.1      0.000      0.000
REMARK SMILES COc1cc(/C=C/C(=O)NCCCCNC(=O)c2ccc(-c3c4nc(c(-c5cc(S(=O)(=O)[O-])ccc5F)c5ccc([nH]5)c(-c5cc(S(=O)(=O)[O-])ccc5F)c5nc(c(-c6cc(S(=O)(=O)[O-])ccc6F)c6ccc3[nH]6)C=C5)C=C4)cc2)cc(OC)c1O
REMARK SMILES IDX 13 1 12 2 11 3 10 4 8 5 9 6 7 8 6 9 5 10 3 11 4 12 85 13
REMARK SMILES IDX 82 14 81 15 2 16 1 17 86 18 83 20 84 21 14 22 15 23 16 24
REMARK SMILES IDX 17 26 18 27 19 28 80 29 20 30 79 31 21 32 22 33 23 34 73 35
REMARK SMILES IDX 24 36 78 37 72 38 74 39 25 40 77 41 71 42 70 43 26 45 58 46
REMARK SMILES IDX 38 47 57 48 39 49 42 50 56 51 75 52 40 53 41 54 55 56 76 57
REMARK SMILES IDX 43 58 27 59 28 60 36 61 29 62 35 63 37 64 34 65 30 66 31 67
REMARK SMILES IDX 32 68 33 69 59 70 60 71 68 72 61 73 67 74 69 75 66 76 62 77
REMARK SMILES IDX 63 78 64 79 65 80 44 81 45 82 53 83 46 84 52 85 54 86 51 87
REMARK SMILES IDX 47 88 48 89 49 90 50 91
REMARK H PARENT 10 7 86 19 15 25 74 44 42 55
REMARK Flexibility Score: inf
ROOT
ATOM      1  C   UNL A   1      31.604  28.697  25.590  1.00  0.00     0.023 C 
ENDROOT
BRANCH   1   2
ATOM      2  C   UNL A   1      30.798  29.073  24.341  1.00  0.00     0.023 C 
BRANCH   2   3
ATOM      3  C   UNL A   1      30.904  28.073  23.189  1.00  0.00     0.116 C 
BRANCH   3   4
ATOM      4  N   UNL A   1      32.099  28.300  22.396  1.00  0.00    -0.353 N 
ATOM      5  C   UNL A   1      33.339  27.748  22.477  1.00  0.00     0.243 C 
ATOM      6  O   UNL A   1      34.175  27.996  21.609  1.00  0.00    -0.270 OA
ATOM      7  H   UNL A   1      31.994  28.967  21.680  1.00  0.00     0.163 HD
BRANCH   5   8
ATOM      8  C   UNL A   1      33.695  26.790  23.551  1.00  0.00     0.072 C 
ATOM      9  C   UNL A   1      33.524  25.464  23.457  1.00  0.00     0.014 C 
BRANCH   9  10
ATOM     10  C   UNL A   1      33.802  24.510  24.538  1.00  0.00    -0.018 A 
ATOM     11  C   UNL A   1      35.312  23.194  25.883  1.00  0.00     0.165 A 
ATOM     12  C   UNL A   1      35.075  23.972  24.750  1.00  0.00     0.058 A 
ATOM     13  C   UNL A   1      34.303  22.976  26.833  1.00  0.00     0.200 A 
ATOM     14  C   UNL A   1      33.013  23.458  26.607  1.00  0.00     0.165 A 
ATOM     15  C   UNL A   1      32.780  24.226  25.457  1.00  0.00     0.058 A 
BRANCH  11  16
ATOM     16  O   UNL A   1      36.595  22.763  26.128  1.00  0.00    -0.493 OA
ATOM     17  C   UNL A   1      36.895  21.588  25.370  1.00  0.00     0.278 C 
ENDBRANCH  11  16
BRANCH  13  18
ATOM     18  O   UNL A   1      34.646  22.342  27.999  1.00  0.00    -0.502 OA
ATOM     19  H   UNL A   1      35.180  22.781  28.631  1.00  0.00     0.293 HD
ENDBRANCH  13  18
BRANCH  14  20
ATOM     20  O   UNL A   1      31.902  23.327  27.396  1.00  0.00    -0.493 OA
ATOM     21  C   UNL A   1      30.638  23.216  26.760  1.00  0.00     0.278 C 
ENDBRANCH  14  20
ENDBRANCH   9  10
ENDBRANCH   5   8
ENDBRANCH   3   4
ENDBRANCH   2   3
ENDBRANCH   1   2
BRANCH   1  22
ATOM     22  C   UNL A   1      32.802  29.594  25.896  1.00  0.00     0.116 C 
BRANCH  22  23
ATOM     23  N   UNL A   1      32.429  30.908  26.401  1.00  0.00    -0.352 N 
ATOM     24  C   UNL A   1      33.130  31.732  27.252  1.00  0.00     0.251 C 
ATOM     25  H   UNL A   1      31.560  31.252  26.093  1.00  0.00     0.163 HD
ATOM     26  O   UNL A   1      32.623  32.774  27.656  1.00  0.00    -0.269 OA
BRANCH  24  27
ATOM     27  C   UNL A   1      34.474  31.324  27.708  1.00  0.00     0.039 A 
ATOM     28  C   UNL A   1      35.464  32.300  27.847  1.00  0.00     0.014 A 
ATOM     29  C   UNL A   1      34.733  29.996  28.056  1.00  0.00     0.014 A 
ATOM     30  C   UNL A   1      36.688  31.962  28.429  1.00  0.00     0.010 A 
ATOM     31  C   UNL A   1      35.934  29.673  28.683  1.00  0.00     0.010 A 
ATOM     32  C   UNL A   1      36.910  30.658  28.899  1.00  0.00    -0.014 A 
BRANCH  32  33
ATOM     33  C   UNL A   1      38.129  30.311  29.675  1.00  0.00     0.031 A 
ATOM     34  C   UNL A   1      39.107  29.306  29.137  1.00  0.00     0.074 A 
ATOM     35  C   UNL A   1      38.295  30.828  30.909  1.00  0.00     0.049 A 
ATOM     36  N   UNL A   1      40.145  28.767  29.722  1.00  0.00    -0.248 NA
ATOM     37  C   UNL A   1      38.866  28.827  27.768  1.00  0.00     0.031 C 
ATOM     38  C   UNL A   1      37.394  31.790  31.550  1.00  0.00     0.029 A 
ATOM     39  N   UNL A   1      39.262  30.602  31.856  1.00  0.00    -0.354 N 
ATOM     40  C   UNL A   1      40.680  27.877  28.798  1.00  0.00     0.074 A 
ATOM     41  C   UNL A   1      39.819  27.915  27.633  1.00  0.00     0.031 C 
ATOM     42  C   UNL A   1      37.856  32.075  32.778  1.00  0.00     0.029 A 
ATOM     43  C   UNL A   1      39.051  31.280  33.035  1.00  0.00     0.049 A 
ATOM     44  H   UNL A   1      40.035  30.011  31.706  1.00  0.00     0.167 HD
ATOM     45  C   UNL A   1      41.794  27.111  28.908  1.00  0.00     0.034 A 
ATOM     46  C   UNL A   1      39.726  31.242  34.201  1.00  0.00     0.034 A 
ATOM     47  C   UNL A   1      42.642  27.091  30.074  1.00  0.00     0.049 A 
ATOM     48  C   UNL A   1      40.927  30.338  34.318  1.00  0.00     0.074 A 
ATOM     49  C   UNL A   1      43.832  26.408  30.264  1.00  0.00     0.029 A 
ATOM     50  N   UNL A   1      42.386  27.774  31.257  1.00  0.00    -0.354 N 
ATOM     51  N   UNL A   1      41.448  29.538  33.418  1.00  0.00    -0.248 NA
ATOM     52  C   UNL A   1      41.627  30.331  35.609  1.00  0.00     0.031 C 
ATOM     53  C   UNL A   1      44.258  26.624  31.580  1.00  0.00     0.029 A 
ATOM     54  C   UNL A   1      43.372  27.495  32.192  1.00  0.00     0.049 A 
ATOM     55  H   UNL A   1      41.617  28.369  31.409  1.00  0.00     0.167 HD
ATOM     56  C   UNL A   1      42.548  28.945  34.030  1.00  0.00     0.074 A 
ATOM     57  C   UNL A   1      42.625  29.493  35.369  1.00  0.00     0.031 C 
ATOM     58  C   UNL A   1      43.418  28.031  33.531  1.00  0.00     0.034 A 
BRANCH  45  59
ATOM     59  C   UNL A   1      42.138  26.216  27.744  1.00  0.00     0.023 A 
ATOM     60  C   UNL A   1      41.630  24.909  27.644  1.00  0.00     0.031 A 
ATOM     61  C   UNL A   1      43.000  26.667  26.729  1.00  0.00     0.131 A 
ATOM     62  C   UNL A   1      42.042  24.076  26.593  1.00  0.00     0.055 A 
ATOM     63  C   UNL A   1      43.348  25.858  25.645  1.00  0.00     0.041 A 
ATOM     64  F   UNL A   1      43.531  27.899  26.780  1.00  0.00    -0.206 F 
ATOM     65  C   UNL A   1      42.880  24.549  25.580  1.00  0.00     0.022 A 
BRANCH  62  66
ATOM     66  S   UNL A   1      41.572  22.326  26.642  1.00  0.00     0.124 S 
ATOM     67  O   UNL A   1      40.117  22.414  26.738  1.00  0.00    -0.237 OA
ATOM     68  O   UNL A   1      42.098  21.822  25.379  1.00  0.00    -0.237 OA
ATOM     69  O   UNL A   1      42.239  21.824  27.840  1.00  0.00    -0.744 OA
ENDBRANCH  62  66
ENDBRANCH  45  59
BRANCH  46  70
ATOM     70  C   UNL A   1      39.268  32.048  35.368  1.00  0.00     0.023 A 
ATOM     71  C   UNL A   1      39.694  33.374  35.542  1.00  0.00     0.031 A 
ATOM     72  C   UNL A   1      38.433  31.489  36.353  1.00  0.00     0.131 A 
ATOM     73  C   UNL A   1      39.323  34.083  36.694  1.00  0.00     0.055 A 
ATOM     74  C   UNL A   1      38.025  32.215  37.473  1.00  0.00     0.041 A 
ATOM     75  F   UNL A   1      37.994  30.226  36.233  1.00  0.00    -0.206 F 
ATOM     76  C   UNL A   1      38.481  33.517  37.654  1.00  0.00     0.022 A 
BRANCH  73  77
ATOM     77  S   UNL A   1      40.023  35.735  36.959  1.00  0.00     0.124 S 
ATOM     78  O   UNL A   1      39.610  36.432  35.747  1.00  0.00    -0.237 OA
ATOM     79  O   UNL A   1      39.364  36.148  38.195  1.00  0.00    -0.237 OA
ATOM     80  O   UNL A   1      41.458  35.482  37.076  1.00  0.00    -0.744 OA
ENDBRANCH  73  77
ENDBRANCH  46  70
BRANCH  58  81
ATOM     81  C   UNL A   1      44.538  27.591  34.440  1.00  0.00     0.023 A 
ATOM     82  C   UNL A   1      45.758  28.287  34.490  1.00  0.00     0.031 A 
ATOM     83  C   UNL A   1      44.385  26.458  35.257  1.00  0.00     0.131 A 
ATOM     84  C   UNL A   1      46.796  27.818  35.308  1.00  0.00     0.055 A 
ATOM     85  C   UNL A   1      45.402  26.026  36.109  1.00  0.00     0.041 A 
ATOM     86  F   UNL A   1      43.241  25.756  35.245  1.00  0.00    -0.206 F 
ATOM     87  C   UNL A   1      46.620  26.701  36.130  1.00  0.00     0.022 A 
BRANCH  84  88
ATOM     88  S   UNL A   1      48.406  28.648  35.237  1.00  0.00     0.124 S 
ATOM     89  O   UNL A   1      49.286  27.564  34.808  1.00  0.00    -0.237 OA
ATOM     90  O   UNL A   1      48.173  29.705  34.258  1.00  0.00    -0.237 OA
ATOM     91  O   UNL A   1      48.615  29.110  36.608  1.00  0.00    -0.744 OA
ENDBRANCH  84  88
ENDBRANCH  58  81
ENDBRANCH  32  33
ENDBRANCH  24  27
ENDBRANCH  22  23
ENDBRANCH   1  22
TORSDOF 18
ENDMDL
MODEL 2
REMARK VINA RESULT:     -10.9      4.968      9.993
REMARK SMILES COc1cc(/C=C/C(=O)NCCCCNC(=O)c2ccc(-c3c4nc(c(-c5cc(S(=O)(=O)[O-])ccc5F)c5ccc([nH]5)c(-c5cc(S(=O)(=O)[O-])ccc5F)c5nc(c(-c6cc(S(=O)(=O)[O-])ccc6F)c6ccc3[nH]6)C=C5)C=C4)cc2)cc(OC)c1O
REMARK SMILES IDX 13 1 12 2 11 3 10 4 8 5 9 6 7 8 6 9 5 10 3 11 4 12 85 13
REMARK SMILES IDX 82 14 81 15 2 16 1 17 86 18 83 20 84 21 14 22 15 23 16 24
REMARK SMILES IDX 17 26 18 27 19 28 80 29 20 30 79 31 21 32 22 33 23 34 73 35
REMARK SMILES IDX 24 36 78 37 72 38 74 39 25 40 77 41 71 42 70 43 26 45 58 46
REMARK SMILES IDX 38 47 57 48 39 49 42 50 56 51 75 52 40 53 41 54 55 56 76 57
REMARK SMILES IDX 43 58 27 59 28 60 36 61 29 62 35 63 37 64 34 65 30 66 31 67
REMARK SMILES IDX 32 68 33 69 59 70 60 71 68 72 61 73 67 74 69 75 66 76 62 77
REMARK SMILES IDX 63 78 64 79 65 80 44 81 45 82 53 83 46 84 52 85 54 86 51 87
REMARK SMILES IDX 47 88 48 89 49 90 50 91
REMARK H PARENT 10 7 86 19 15 25 74 44 42 55
REMARK Flexibility Score: inf
ROOT
ATOM      1  C   UNL A   1      36.457  22.456  23.759  1.00  0.00     0.023 C 
ENDROOT
BRANCH   1   2
ATOM      2  C   UNL A   1      35.349  23.500  23.578  1.00  0.00     0.023 C 
BRANCH   2   3
ATOM      3  C   UNL A   1      34.078  22.971  22.913  1.00  0.00     0.116 C 
BRANCH   3   4
ATOM      4  N   UNL A   1      33.237  22.263  23.861  1.00  0.00    -0.353 N 
ATOM      5  C   UNL A   1      32.307  22.720  24.741  1.00  0.00     0.243 C 
ATOM      6  O   UNL A   1      31.611  21.921  25.365  1.00  0.00    -0.270 OA
ATOM      7  H   UNL A   1      33.362  21.286  23.870  1.00  0.00     0.163 HD
BRANCH   5   8
ATOM      8  C   UNL A   1      32.053  24.170  24.920  1.00  0.00     0.072 C 
ATOM      9  C   UNL A   1      31.089  24.845  24.279  1.00  0.00     0.014 C 
BRANCH   9  10
ATOM     10  C   UNL A   1      30.872  26.294  24.390  1.00  0.00    -0.018 A 
ATOM     11  C   UNL A   1      31.293  28.441  25.407  1.00  0.00     0.165 A 
ATOM     12  C   UNL A   1      31.402  27.050  25.440  1.00  0.00     0.058 A 
ATOM     13  C   UNL A   1      30.695  29.093  24.318  1.00  0.00     0.200 A 
ATOM     14  C   UNL A   1      30.113  28.350  23.291  1.00  0.00     0.165 A 
ATOM     15  C   UNL A   1      30.213  26.951  23.340  1.00  0.00     0.058 A 
BRANCH  11  16
ATOM     16  O   UNL A   1      31.912  29.171  26.394  1.00  0.00    -0.493 OA
ATOM     17  C   UNL A   1      32.761  28.340  27.191  1.00  0.00     0.278 C 
ENDBRANCH  11  16
BRANCH  13  18
ATOM     18  O   UNL A   1      30.768  30.461  24.272  1.00  0.00    -0.502 OA
ATOM     19  H   UNL A   1      30.049  30.978  24.576  1.00  0.00     0.293 HD
ENDBRANCH  13  18
BRANCH  14  20
ATOM     20  O   UNL A   1      29.470  28.801  22.170  1.00  0.00    -0.493 OA
ATOM     21  C   UNL A   1      28.187  29.390  22.325  1.00  0.00     0.278 C 
ENDBRANCH  14  20
ENDBRANCH   9  10
ENDBRANCH   5   8
ENDBRANCH   3   4
ENDBRANCH   2   3
ENDBRANCH   1   2
BRANCH   1  22
ATOM     22  C   UNL A   1      36.806  22.108  25.205  1.00  0.00     0.116 C 
BRANCH  22  23
ATOM     23  N   UNL A   1      37.768  21.020  25.324  1.00  0.00    -0.352 N 
ATOM     24  C   UNL A   1      39.026  21.044  25.880  1.00  0.00     0.251 C 
ATOM     25  H   UNL A   1      37.479  20.154  24.957  1.00  0.00     0.163 HD
ATOM     26  O   UNL A   1      39.748  20.054  25.812  1.00  0.00    -0.269 OA
BRANCH  24  27
ATOM     27  C   UNL A   1      39.512  22.286  26.516  1.00  0.00     0.039 A 
ATOM     28  C   UNL A   1      40.496  22.198  27.504  1.00  0.00     0.014 A 
ATOM     29  C   UNL A   1      39.042  23.532  26.092  1.00  0.00     0.014 A 
ATOM     30  C   UNL A   1      41.082  23.364  27.999  1.00  0.00     0.010 A 
ATOM     31  C   UNL A   1      39.663  24.691  26.550  1.00  0.00     0.010 A 
ATOM     32  C   UNL A   1      40.706  24.616  27.486  1.00  0.00    -0.014 A 
BRANCH  32  33
ATOM     33  C   UNL A   1      41.428  25.858  27.865  1.00  0.00     0.031 A 
ATOM     34  C   UNL A   1      40.714  26.950  28.610  1.00  0.00     0.074 A 
ATOM     35  C   UNL A   1      42.697  26.038  27.445  1.00  0.00     0.049 A 
ATOM     36  N   UNL A   1      41.125  28.157  28.903  1.00  0.00    -0.248 NA
ATOM     37  C   UNL A   1      39.348  26.649  29.062  1.00  0.00     0.031 C 
ATOM     38  C   UNL A   1      43.482  25.060  26.688  1.00  0.00     0.029 A 
ATOM     39  N   UNL A   1      43.542  27.112  27.573  1.00  0.00    -0.354 N 
ATOM     40  C   UNL A   1      40.066  28.766  29.565  1.00  0.00     0.074 A 
ATOM     41  C   UNL A   1      38.979  27.809  29.586  1.00  0.00     0.031 C 
ATOM     42  C   UNL A   1      44.694  25.577  26.426  1.00  0.00     0.029 A 
ATOM     43  C   UNL A   1      44.755  26.938  26.946  1.00  0.00     0.049 A 
ATOM     44  H   UNL A   1      43.303  27.929  28.067  1.00  0.00     0.167 HD
ATOM     45  C   UNL A   1      40.014  30.004  30.117  1.00  0.00     0.034 A 
ATOM     46  C   UNL A   1      45.787  27.788  26.783  1.00  0.00     0.034 A 
ATOM     47  C   UNL A   1      41.110  30.942  30.091  1.00  0.00     0.049 A 
ATOM     48  C   UNL A   1      45.682  29.179  27.355  1.00  0.00     0.074 A 
ATOM     49  C   UNL A   1      41.189  32.193  30.680  1.00  0.00     0.029 A 
ATOM     50  N   UNL A   1      42.315  30.740  29.430  1.00  0.00    -0.354 N 
ATOM     51  N   UNL A   1      44.691  29.724  28.021  1.00  0.00    -0.248 NA
ATOM     52  C   UNL A   1      46.832  30.069  27.149  1.00  0.00     0.031 C 
ATOM     53  C   UNL A   1      42.411  32.772  30.320  1.00  0.00     0.029 A 
ATOM     54  C   UNL A   1      43.125  31.858  29.562  1.00  0.00     0.049 A 
ATOM     55  H   UNL A   1      42.559  29.922  28.939  1.00  0.00     0.167 HD
ATOM     56  C   UNL A   1      45.107  31.017  28.328  1.00  0.00     0.074 A 
ATOM     57  C   UNL A   1      46.445  31.162  27.790  1.00  0.00     0.031 C 
ATOM     58  C   UNL A   1      44.445  31.995  28.996  1.00  0.00     0.034 A 
BRANCH  45  59
ATOM     59  C   UNL A   1      38.719  30.418  30.770  1.00  0.00     0.023 A 
ATOM     60  C   UNL A   1      37.721  31.107  30.057  1.00  0.00     0.031 A 
ATOM     61  C   UNL A   1      38.484  30.139  32.127  1.00  0.00     0.131 A 
ATOM     62  C   UNL A   1      36.569  31.553  30.721  1.00  0.00     0.055 A 
ATOM     63  C   UNL A   1      37.301  30.520  32.764  1.00  0.00     0.041 A 
ATOM     64  F   UNL A   1      39.408  29.500  32.864  1.00  0.00    -0.206 F 
ATOM     65  C   UNL A   1      36.341  31.244  32.064  1.00  0.00     0.022 A 
BRANCH  62  66
ATOM     66  S   UNL A   1      35.433  32.654  29.835  1.00  0.00     0.124 S 
ATOM     67  O   UNL A   1      35.236  31.930  28.582  1.00  0.00    -0.237 OA
ATOM     68  O   UNL A   1      34.283  32.707  30.729  1.00  0.00    -0.237 OA
ATOM     69  O   UNL A   1      36.187  33.900  29.714  1.00  0.00    -0.744 OA
ENDBRANCH  62  66
ENDBRANCH  45  59
BRANCH  46  70
ATOM     70  C   UNL A   1      46.995  27.375  26.014  1.00  0.00     0.023 A 
ATOM     71  C   UNL A   1      47.172  27.771  24.679  1.00  0.00     0.031 A 
ATOM     72  C   UNL A   1      47.970  26.539  26.589  1.00  0.00     0.131 A 
ATOM     73  C   UNL A   1      48.271  27.295  23.949  1.00  0.00     0.055 A 
ATOM     74  C   UNL A   1      49.088  26.109  25.873  1.00  0.00     0.041 A 
ATOM     75  F   UNL A   1      47.851  26.134  27.863  1.00  0.00    -0.206 F 
ATOM     76  C   UNL A   1      49.236  26.478  24.540  1.00  0.00     0.022 A 
BRANCH  73  77
ATOM     77  S   UNL A   1      48.379  27.698  22.183  1.00  0.00     0.124 S 
ATOM     78  O   UNL A   1      47.137  28.433  21.970  1.00  0.00    -0.237 OA
ATOM     79  O   UNL A   1      49.608  28.483  22.126  1.00  0.00    -0.237 OA
ATOM     80  O   UNL A   1      48.449  26.389  21.539  1.00  0.00    -0.744 OA
ENDBRANCH  73  77
ENDBRANCH  46  70
BRANCH  58  81
ATOM     81  C   UNL A   1      45.178  33.297  29.196  1.00  0.00     0.023 A 
ATOM     82  C   UNL A   1      44.991  34.385  28.325  1.00  0.00     0.031 A 
ATOM     83  C   UNL A   1      46.080  33.448  30.263  1.00  0.00     0.131 A 
ATOM     84  C   UNL A   1      45.730  35.562  28.511  1.00  0.00     0.055 A 
ATOM     85  C   UNL A   1      46.772  34.641  30.475  1.00  0.00     0.041 A 
ATOM     86  F   UNL A   1      46.296  32.439  31.122  1.00  0.00    -0.206 F 
ATOM     87  C   UNL A   1      46.607  35.703  29.589  1.00  0.00     0.022 A 
BRANCH  84  88
ATOM     88  S   UNL A   1      45.580  36.889  27.284  1.00  0.00     0.124 S 
ATOM     89  O   UNL A   1      46.503  36.445  26.244  1.00  0.00    -0.237 OA
ATOM     90  O   UNL A   1      44.163  36.842  26.941  1.00  0.00    -0.237 OA
ATOM     91  O   UNL A   1      45.999  38.083  28.017  1.00  0.00    -0.744 OA
ENDBRANCH  84  88
ENDBRANCH  58  81
ENDBRANCH  32  33
ENDBRANCH  24  27
ENDBRANCH  22  23
ENDBRANCH   1  22
TORSDOF 18
ENDMDL
MODEL 3
REMARK VINA RESULT:     -10.9      4.948      7.648
REMARK SMILES COc1cc(/C=C/C(=O)NCCCCNC(=O)c2ccc(-c3c4nc(c(-c5cc(S(=O)(=O)[O-])ccc5F)c5ccc([nH]5)c(-c5cc(S(=O)(=O)[O-])ccc5F)c5nc(c(-c6cc(S(=O)(=O)[O-])ccc6F)c6ccc3[nH]6)C=C5)C=C4)cc2)cc(OC)c1O
REMARK SMILES IDX 13 1 12 2 11 3 10 4 8 5 9 6 7 8 6 9 5 10 3 11 4 12 85 13
REMARK SMILES IDX 82 14 81 15 2 16 1 17 86 18 83 20 84 21 14 22 15 23 16 24
REMARK SMILES IDX 17 26 18 27 19 28 80 29 20 30 79 31 21 32 22 33 23 34 73 35
REMARK SMILES IDX 24 36 78 37 72 38 74 39 25 40 77 41 71 42 70 43 26 45 58 46
REMARK SMILES IDX 38 47 57 48 39 49 42 50 56 51 75 52 40 53 41 54 55 56 76 57
REMARK SMILES IDX 43 58 27 59 28 60 36 61 29 62 35 63 37 64 34 65 30 66 31 67
REMARK SMILES IDX 32 68 33 69 59 70 60 71 68 72 61 73 67 74 69 75 66 76 62 77
REMARK SMILES IDX 63 78 64 79 65 80 44 81 45 82 53 83 46 84 52 85 54 86 51 87
REMARK SMILES IDX 47 88 48 89 49 90 50 91
REMARK H PARENT 10 7 86 19 15 25 74 44 42 55
REMARK Flexibility Score: inf
ROOT
ATOM      1  C   UNL A   1      35.978  21.390  25.697  1.00  0.00     0.023 C 
ENDROOT
BRANCH   1   2
ATOM      2  C   UNL A   1      34.828  21.274  24.690  1.00  0.00     0.023 C 
BRANCH   2   3
ATOM      3  C   UNL A   1      34.166  22.603  24.322  1.00  0.00     0.116 C 
BRANCH   3   4
ATOM      4  N   UNL A   1      33.882  22.680  22.901  1.00  0.00    -0.353 N 
ATOM      5  C   UNL A   1      33.365  23.688  22.149  1.00  0.00     0.243 C 
ATOM      6  O   UNL A   1      33.331  23.581  20.924  1.00  0.00    -0.270 OA
ATOM      7  H   UNL A   1      34.099  21.863  22.395  1.00  0.00     0.163 HD
BRANCH   5   8
ATOM      8  C   UNL A   1      32.904  24.957  22.763  1.00  0.00     0.072 C 
ATOM      9  C   UNL A   1      31.670  25.457  22.608  1.00  0.00     0.014 C 
BRANCH   9  10
ATOM     10  C   UNL A   1      31.221  26.747  23.148  1.00  0.00    -0.018 A 
ATOM     11  C   UNL A   1      31.171  28.436  24.870  1.00  0.00     0.165 A 
ATOM     12  C   UNL A   1      31.488  27.140  24.463  1.00  0.00     0.058 A 
ATOM     13  C   UNL A   1      30.626  29.363  23.969  1.00  0.00     0.200 A 
ATOM     14  C   UNL A   1      30.302  28.969  22.671  1.00  0.00     0.165 A 
ATOM     15  C   UNL A   1      30.609  27.659  22.274  1.00  0.00     0.058 A 
BRANCH  11  16
ATOM     16  O   UNL A   1      31.538  28.835  26.134  1.00  0.00    -0.493 OA
ATOM     17  C   UNL A   1      31.737  27.707  26.991  1.00  0.00     0.278 C 
ENDBRANCH  11  16
BRANCH  13  18
ATOM     18  O   UNL A   1      30.492  30.661  24.388  1.00  0.00    -0.502 OA
ATOM     19  H   UNL A   1      31.206  31.093  24.812  1.00  0.00     0.293 HD
ENDBRANCH  13  18
BRANCH  14  20
ATOM     20  O   UNL A   1      29.747  29.715  21.666  1.00  0.00    -0.493 OA
ATOM     21  C   UNL A   1      28.355  29.985  21.723  1.00  0.00     0.278 C 
ENDBRANCH  14  20
ENDBRANCH   9  10
ENDBRANCH   5   8
ENDBRANCH   3   4
ENDBRANCH   2   3
ENDBRANCH   1   2
BRANCH   1  22
ATOM     22  C   UNL A   1      37.361  21.633  25.094  1.00  0.00     0.116 C 
BRANCH  22  23
ATOM     23  N   UNL A   1      38.347  20.634  25.483  1.00  0.00    -0.352 N 
ATOM     24  C   UNL A   1      39.526  20.814  26.170  1.00  0.00     0.251 C 
ATOM     25  H   UNL A   1      38.144  19.709  25.218  1.00  0.00     0.163 HD
ATOM     26  O   UNL A   1      40.293  19.870  26.333  1.00  0.00    -0.269 OA
BRANCH  24  27
ATOM     27  C   UNL A   1      39.876  22.161  26.665  1.00  0.00     0.039 A 
ATOM     28  C   UNL A   1      40.950  22.297  27.549  1.00  0.00     0.014 A 
ATOM     29  C   UNL A   1      39.186  23.287  26.208  1.00  0.00     0.014 A 
ATOM     30  C   UNL A   1      41.396  23.573  27.899  1.00  0.00     0.010 A 
ATOM     31  C   UNL A   1      39.666  24.557  26.517  1.00  0.00     0.010 A 
ATOM     32  C   UNL A   1      40.790  24.711  27.343  1.00  0.00    -0.014 A 
BRANCH  32  33
ATOM     33  C   UNL A   1      41.349  26.071  27.559  1.00  0.00     0.031 A 
ATOM     34  C   UNL A   1      42.728  26.407  27.069  1.00  0.00     0.074 A 
ATOM     35  C   UNL A   1      40.648  26.964  28.286  1.00  0.00     0.049 A 
ATOM     36  N   UNL A   1      43.442  27.481  27.283  1.00  0.00    -0.248 NA
ATOM     37  C   UNL A   1      43.399  25.387  26.251  1.00  0.00     0.031 C 
ATOM     38  C   UNL A   1      39.311  26.739  28.841  1.00  0.00     0.029 A 
ATOM     39  N   UNL A   1      40.970  28.230  28.706  1.00  0.00    -0.354 N 
ATOM     40  C   UNL A   1      44.653  27.265  26.635  1.00  0.00     0.074 A 
ATOM     41  C   UNL A   1      44.590  25.936  26.063  1.00  0.00     0.031 C 
ATOM     42  C   UNL A   1      38.926  27.831  29.520  1.00  0.00     0.029 A 
ATOM     43  C   UNL A   1      40.004  28.812  29.497  1.00  0.00     0.049 A 
ATOM     44  H   UNL A   1      41.811  28.681  28.464  1.00  0.00     0.167 HD
ATOM     45  C   UNL A   1      45.711  28.106  26.517  1.00  0.00     0.034 A 
ATOM     46  C   UNL A   1      40.002  29.989  30.153  1.00  0.00     0.034 A 
ATOM     47  C   UNL A   1      45.753  29.429  27.090  1.00  0.00     0.049 A 
ATOM     48  C   UNL A   1      41.214  30.880  30.055  1.00  0.00     0.074 A 
ATOM     49  C   UNL A   1      46.743  30.390  26.972  1.00  0.00     0.029 A 
ATOM     50  N   UNL A   1      44.767  29.977  27.902  1.00  0.00    -0.354 N 
ATOM     51  N   UNL A   1      42.333  30.682  29.398  1.00  0.00    -0.248 NA
ATOM     52  C   UNL A   1      41.163  32.151  30.790  1.00  0.00     0.031 C 
ATOM     53  C   UNL A   1      46.388  31.488  27.764  1.00  0.00     0.029 A 
ATOM     54  C   UNL A   1      45.145  31.243  28.324  1.00  0.00     0.049 A 
ATOM     55  H   UNL A   1      43.922  29.532  28.142  1.00  0.00     0.167 HD
ATOM     56  C   UNL A   1      43.112  31.812  29.628  1.00  0.00     0.074 A 
ATOM     57  C   UNL A   1      42.327  32.695  30.468  1.00  0.00     0.031 C 
ATOM     58  C   UNL A   1      44.361  32.097  29.183  1.00  0.00     0.034 A 
BRANCH  45  59
ATOM     59  C   UNL A   1      46.916  27.603  25.763  1.00  0.00     0.023 A 
ATOM     60  C   UNL A   1      47.151  27.964  24.424  1.00  0.00     0.031 A 
ATOM     61  C   UNL A   1      47.832  26.735  26.381  1.00  0.00     0.131 A 
ATOM     62  C   UNL A   1      48.234  27.406  23.729  1.00  0.00     0.055 A 
ATOM     63  C   UNL A   1      48.951  26.241  25.705  1.00  0.00     0.041 A 
ATOM     64  F   UNL A   1      47.650  26.340  27.652  1.00  0.00    -0.206 F 
ATOM     65  C   UNL A   1      49.148  26.565  24.367  1.00  0.00     0.022 A 
BRANCH  62  66
ATOM     66  S   UNL A   1      48.354  27.693  21.942  1.00  0.00     0.124 S 
ATOM     67  O   UNL A   1      49.490  28.608  21.866  1.00  0.00    -0.237 OA
ATOM     68  O   UNL A   1      48.579  26.350  21.422  1.00  0.00    -0.237 OA
ATOM     69  O   UNL A   1      47.062  28.286  21.602  1.00  0.00    -0.744 OA
ENDBRANCH  62  66
ENDBRANCH  45  59
BRANCH  46  70
ATOM     70  C   UNL A   1      38.837  30.384  30.995  1.00  0.00     0.023 A 
ATOM     71  C   UNL A   1      37.723  31.025  30.432  1.00  0.00     0.031 A 
ATOM     72  C   UNL A   1      38.841  30.168  32.386  1.00  0.00     0.131 A 
ATOM     73  C   UNL A   1      36.679  31.468  31.258  1.00  0.00     0.055 A 
ATOM     74  C   UNL A   1      37.777  30.565  33.197  1.00  0.00     0.041 A 
ATOM     75  F   UNL A   1      39.880  29.556  32.974  1.00  0.00    -0.206 F 
ATOM     76  C   UNL A   1      36.693  31.231  32.634  1.00  0.00     0.022 A 
BRANCH  73  77
ATOM     77  S   UNL A   1      35.335  32.433  30.515  1.00  0.00     0.124 S 
ATOM     78  O   UNL A   1      35.994  33.707  30.252  1.00  0.00    -0.237 OA
ATOM     79  O   UNL A   1      34.998  31.630  29.343  1.00  0.00    -0.237 OA
ATOM     80  O   UNL A   1      34.316  32.460  31.562  1.00  0.00    -0.744 OA
ENDBRANCH  73  77
ENDBRANCH  46  70
BRANCH  58  81
ATOM     81  C   UNL A   1      44.939  33.431  29.586  1.00  0.00     0.023 A 
ATOM     82  C   UNL A   1      44.679  34.596  28.844  1.00  0.00     0.031 A 
ATOM     83  C   UNL A   1      45.765  33.534  30.718  1.00  0.00     0.131 A 
ATOM     84  C   UNL A   1      45.276  35.808  29.218  1.00  0.00     0.055 A 
ATOM     85  C   UNL A   1      46.314  34.753  31.116  1.00  0.00     0.041 A 
ATOM     86  F   UNL A   1      46.046  32.451  31.459  1.00  0.00    -0.206 F 
ATOM     87  C   UNL A   1      46.079  35.898  30.358  1.00  0.00     0.022 A 
BRANCH  84  88
ATOM     88  S   UNL A   1      45.044  37.260  28.156  1.00  0.00     0.124 S 
ATOM     89  O   UNL A   1      43.599  37.251  27.944  1.00  0.00    -0.237 OA
ATOM     90  O   UNL A   1      45.561  38.343  28.985  1.00  0.00    -0.237 OA
ATOM     91  O   UNL A   1      45.846  36.951  26.972  1.00  0.00    -0.744 OA
ENDBRANCH  84  88
ENDBRANCH  58  81
ENDBRANCH  32  33
ENDBRANCH  24  27
ENDBRANCH  22  23
ENDBRANCH   1  22
TORSDOF 18
ENDMDL
