MODEL 1
REMARK VINA RESULT:     -11.2      0.000      0.000
REMARK SMILES CSCc1ccc(C(=O)N2C[C@@H](O)C[C@@H]2C(=O)NCCCCNC(=O)c2ccc(-c3c4nc(c(-c5cc(S(=O)(=O)[O-])ccc5F)c5ccc([nH]5)c(-c5cc(S(=O)(=O)[O-])ccc5F)c5nc(c(-c6cc(S(=O)(=O)[O-])ccc6F)c6ccc3[nH]6)C=C5)C=C4)cc2)o1
REMARK SMILES IDX 20 1 19 2 18 3 16 4 17 5 15 7 10 8 11 9 12 10 14 11 8 12
REMARK SMILES IDX 9 13 7 14 4 15 5 16 89 17 6 18 3 19 2 20 1 21 13 22 21 24
REMARK SMILES IDX 22 25 23 26 24 27 25 29 26 30 27 31 88 32 28 33 87 34 29 35
REMARK SMILES IDX 30 36 31 37 81 38 32 39 86 40 80 41 82 42 33 43 85 44 79 45
REMARK SMILES IDX 78 46 34 48 66 49 46 50 65 51 47 52 50 53 64 54 83 55 48 56
REMARK SMILES IDX 49 57 63 59 84 60 51 61 35 62 36 63 44 64 37 65 43 66 45 67
REMARK SMILES IDX 42 68 38 69 39 70 40 71 41 72 67 73 68 74 76 75 69 76 75 77
REMARK SMILES IDX 77 78 74 79 70 80 71 81 72 82 73 83 52 84 53 85 61 86 54 87
REMARK SMILES IDX 60 88 62 89 59 90 55 91 56 92 57 93 58 94
REMARK H PARENT 18 6 13 23 23 28 82 47 50 58
REMARK Flexibility Score: inf
ROOT
ATOM      1  C   UNL A   1      32.376  26.839  26.505  1.00  0.00     0.023 C 
ENDROOT
BRANCH   1   2
ATOM      2  C   UNL A   1      32.704  25.685  25.563  1.00  0.00     0.116 C 
BRANCH   2   3
ATOM      3  N   UNL A   1      33.118  24.481  26.253  1.00  0.00    -0.354 N 
ATOM      4  C   UNL A   1      34.319  23.833  26.222  1.00  0.00     0.242 C 
ATOM      5  O   UNL A   1      34.508  22.937  27.048  1.00  0.00    -0.273 OA
ATOM      6  H   UNL A   1      32.434  24.068  26.828  1.00  0.00     0.163 HD
BRANCH   4   7
ATOM      7  C   UNL A   1      35.405  24.269  25.210  1.00  0.00     0.177 C 
ATOM      8  N   UNL A   1      35.368  23.376  24.051  1.00  0.00    -0.321 N 
ATOM      9  C   UNL A   1      36.540  22.520  23.988  1.00  0.00     0.152 C 
ATOM     10  C   UNL A   1      37.157  22.629  25.377  1.00  0.00     0.136 C 
ATOM     11  C   UNL A   1      36.802  24.056  25.798  1.00  0.00     0.069 C 
BRANCH   8  12
ATOM     12  C   UNL A   1      34.305  23.392  23.172  1.00  0.00     0.290 C 
ATOM     13  O   UNL A   1      34.085  24.408  22.486  1.00  0.00    -0.265 OA
BRANCH  12  14
ATOM     14  C   UNL A   1      33.418  22.246  23.198  1.00  0.00     0.191 A 
ATOM     15  C   UNL A   1      32.722  20.245  23.839  1.00  0.00     0.114 A 
ATOM     16  C   UNL A   1      31.993  20.573  22.714  1.00  0.00     0.047 A 
ATOM     17  O   UNL A   1      33.581  21.268  24.143  1.00  0.00    -0.455 OA
ATOM     18  C   UNL A   1      32.434  21.847  22.305  1.00  0.00     0.056 A 
BRANCH  15  19
ATOM     19  C   UNL A   1      32.806  19.053  24.724  1.00  0.00     0.144 C 
BRANCH  19  20
ATOM     20  S   UNL A   1      34.313  18.050  24.504  1.00  0.00    -0.157 SA
ATOM     21  C   UNL A   1      33.635  16.700  23.506  1.00  0.00     0.085 C 
ENDBRANCH  19  20
ENDBRANCH  15  19
ENDBRANCH  12  14
ENDBRANCH   8  12
BRANCH  10  22
ATOM     22  O   UNL A   1      38.559  22.420  25.379  1.00  0.00    -0.391 OA
ATOM     23  H   UNL A   1      38.972  23.005  26.034  1.00  0.00     0.211 HD
ENDBRANCH  10  22
ENDBRANCH   4   7
ENDBRANCH   2   3
ENDBRANCH   1   2
BRANCH   1  24
ATOM     24  C   UNL A   1      31.870  28.125  25.845  1.00  0.00     0.023 C 
BRANCH  24  25
ATOM     25  C   UNL A   1      32.907  29.219  25.595  1.00  0.00     0.116 C 
BRANCH  25  26
ATOM     26  N   UNL A   1      32.476  30.533  26.035  1.00  0.00    -0.352 N 
ATOM     27  C   UNL A   1      33.041  31.379  26.962  1.00  0.00     0.251 C 
ATOM     28  H   UNL A   1      31.656  30.870  25.606  1.00  0.00     0.163 HD
ATOM     29  O   UNL A   1      32.453  32.419  27.255  1.00  0.00    -0.269 OA
BRANCH  27  30
ATOM     30  C   UNL A   1      34.317  31.032  27.631  1.00  0.00     0.039 A 
ATOM     31  C   UNL A   1      35.239  32.055  27.880  1.00  0.00     0.014 A 
ATOM     32  C   UNL A   1      34.619  29.718  27.999  1.00  0.00     0.014 A 
ATOM     33  C   UNL A   1      36.426  31.774  28.565  1.00  0.00     0.010 A 
ATOM     34  C   UNL A   1      35.778  29.449  28.729  1.00  0.00     0.010 A 
ATOM     35  C   UNL A   1      36.689  30.475  29.026  1.00  0.00    -0.014 A 
BRANCH  35  36
ATOM     36  C   UNL A   1      37.904  30.169  29.824  1.00  0.00     0.031 A 
ATOM     37  C   UNL A   1      38.957  29.247  29.277  1.00  0.00     0.074 A 
ATOM     38  C   UNL A   1      38.024  30.661  31.073  1.00  0.00     0.049 A 
ATOM     39  N   UNL A   1      40.025  28.766  29.861  1.00  0.00    -0.248 NA
ATOM     40  C   UNL A   1      38.764  28.781  27.896  1.00  0.00     0.031 C 
ATOM     41  C   UNL A   1      37.055  31.538  31.735  1.00  0.00     0.029 A 
ATOM     42  N   UNL A   1      39.002  30.475  32.018  1.00  0.00    -0.354 N 
ATOM     43  C   UNL A   1      40.621  27.924  28.930  1.00  0.00     0.074 A 
ATOM     44  C   UNL A   1      39.769  27.930  27.758  1.00  0.00     0.031 C 
ATOM     45  C   UNL A   1      37.489  31.817  32.974  1.00  0.00     0.029 A 
ATOM     46  C   UNL A   1      38.746  31.113  33.209  1.00  0.00     0.049 A 
ATOM     47  H   UNL A   1      39.811  29.937  31.857  1.00  0.00     0.167 HD
ATOM     48  C   UNL A   1      41.776  27.219  29.035  1.00  0.00     0.034 A 
ATOM     49  C   UNL A   1      39.435  31.115  34.367  1.00  0.00     0.034 A 
ATOM     50  C   UNL A   1      42.627  27.234  30.201  1.00  0.00     0.049 A 
ATOM     51  C   UNL A   1      40.714  30.328  34.464  1.00  0.00     0.074 A 
ATOM     52  C   UNL A   1      43.847  26.606  30.389  1.00  0.00     0.029 A 
ATOM     53  N   UNL A   1      42.344  27.907  31.382  1.00  0.00    -0.354 N 
ATOM     54  N   UNL A   1      41.280  29.560  33.563  1.00  0.00    -0.248 NA
ATOM     55  C   UNL A   1      41.448  30.415  35.732  1.00  0.00     0.031 C 
ATOM     56  C   UNL A   1      44.278  26.862  31.697  1.00  0.00     0.029 A 
ATOM     57  C   UNL A   1      43.353  27.692  32.309  1.00  0.00     0.049 A 
ATOM     58  H   UNL A   1      41.543  28.458  31.539  1.00  0.00     0.167 HD
ATOM     59  C   UNL A   1      42.448  29.087  34.151  1.00  0.00     0.074 A 
ATOM     60  C   UNL A   1      42.510  29.662  35.480  1.00  0.00     0.031 C 
ATOM     61  C   UNL A   1      43.391  28.257  33.636  1.00  0.00     0.034 A 
BRANCH  48  62
ATOM     62  C   UNL A   1      42.159  26.351  27.863  1.00  0.00     0.023 A 
ATOM     63  C   UNL A   1      41.918  24.966  27.863  1.00  0.00     0.031 A 
ATOM     64  C   UNL A   1      42.818  26.905  26.752  1.00  0.00     0.131 A 
ATOM     65  C   UNL A   1      42.408  24.170  26.817  1.00  0.00     0.055 A 
ATOM     66  C   UNL A   1      43.235  26.119  25.676  1.00  0.00     0.041 A 
ATOM     67  F   UNL A   1      43.091  28.219  26.705  1.00  0.00    -0.206 F 
ATOM     68  C   UNL A   1      43.046  24.740  25.712  1.00  0.00     0.022 A 
BRANCH  65  69
ATOM     69  S   UNL A   1      42.332  22.367  26.993  1.00  0.00     0.124 S 
ATOM     70  O   UNL A   1      42.653  22.195  28.407  1.00  0.00    -0.237 OA
ATOM     71  O   UNL A   1      40.957  22.069  26.608  1.00  0.00    -0.237 OA
ATOM     72  O   UNL A   1      43.357  21.888  26.066  1.00  0.00    -0.744 OA
ENDBRANCH  65  69
ENDBRANCH  48  62
BRANCH  49  73
ATOM     73  C   UNL A   1      38.922  31.870  35.541  1.00  0.00     0.023 A 
ATOM     74  C   UNL A   1      38.299  31.205  36.609  1.00  0.00     0.031 A 
ATOM     75  C   UNL A   1      39.026  33.270  35.597  1.00  0.00     0.131 A 
ATOM     76  C   UNL A   1      37.773  31.946  37.678  1.00  0.00     0.055 A 
ATOM     77  C   UNL A   1      38.531  34.000  36.679  1.00  0.00     0.041 A 
ATOM     78  F   UNL A   1      39.623  33.946  34.603  1.00  0.00    -0.206 F 
ATOM     79  C   UNL A   1      37.892  33.337  37.723  1.00  0.00     0.022 A 
BRANCH  76  80
ATOM     80  S   UNL A   1      36.886  31.065  38.990  1.00  0.00     0.124 S 
ATOM     81  O   UNL A   1      35.630  31.804  39.051  1.00  0.00    -0.237 OA
ATOM     82  O   UNL A   1      36.808  29.713  38.448  1.00  0.00    -0.237 OA
ATOM     83  O   UNL A   1      37.758  31.217  40.153  1.00  0.00    -0.744 OA
ENDBRANCH  76  80
ENDBRANCH  49  73
BRANCH  61  84
ATOM     84  C   UNL A   1      44.580  27.960  34.510  1.00  0.00     0.023 A 
ATOM     85  C   UNL A   1      44.596  26.857  35.381  1.00  0.00     0.031 A 
ATOM     86  C   UNL A   1      45.700  28.808  34.486  1.00  0.00     0.131 A 
ATOM     87  C   UNL A   1      45.697  26.656  36.228  1.00  0.00     0.055 A 
ATOM     88  C   UNL A   1      46.810  28.578  35.301  1.00  0.00     0.041 A 
ATOM     89  F   UNL A   1      45.731  29.875  33.674  1.00  0.00    -0.206 F 
ATOM     90  C   UNL A   1      46.807  27.503  36.186  1.00  0.00     0.022 A 
BRANCH  87  91
ATOM     91  S   UNL A   1      45.630  25.308  37.441  1.00  0.00     0.124 S 
ATOM     92  O   UNL A   1      47.043  24.996  37.627  1.00  0.00    -0.237 OA
ATOM     93  O   UNL A   1      44.963  25.940  38.575  1.00  0.00    -0.237 OA
ATOM     94  O   UNL A   1      44.850  24.274  36.764  1.00  0.00    -0.744 OA
ENDBRANCH  87  91
ENDBRANCH  61  84
ENDBRANCH  35  36
ENDBRANCH  27  30
ENDBRANCH  25  26
ENDBRANCH  24  25
ENDBRANCH   1  24
TORSDOF 19
ENDMDL
MODEL 2
REMARK VINA RESULT:     -10.9      5.130     10.061
REMARK SMILES CSCc1ccc(C(=O)N2C[C@@H](O)C[C@@H]2C(=O)NCCCCNC(=O)c2ccc(-c3c4nc(c(-c5cc(S(=O)(=O)[O-])ccc5F)c5ccc([nH]5)c(-c5cc(S(=O)(=O)[O-])ccc5F)c5nc(c(-c6cc(S(=O)(=O)[O-])ccc6F)c6ccc3[nH]6)C=C5)C=C4)cc2)o1
REMARK SMILES IDX 20 1 19 2 18 3 16 4 17 5 15 7 10 8 11 9 12 10 14 11 8 12
REMARK SMILES IDX 9 13 7 14 4 15 5 16 89 17 6 18 3 19 2 20 1 21 13 22 21 24
REMARK SMILES IDX 22 25 23 26 24 27 25 29 26 30 27 31 88 32 28 33 87 34 29 35
REMARK SMILES IDX 30 36 31 37 81 38 32 39 86 40 80 41 82 42 33 43 85 44 79 45
REMARK SMILES IDX 78 46 34 48 66 49 46 50 65 51 47 52 50 53 64 54 83 55 48 56
REMARK SMILES IDX 49 57 63 59 84 60 51 61 35 62 36 63 44 64 37 65 43 66 45 67
REMARK SMILES IDX 42 68 38 69 39 70 40 71 41 72 67 73 68 74 76 75 69 76 75 77
REMARK SMILES IDX 77 78 74 79 70 80 71 81 72 82 73 83 52 84 53 85 61 86 54 87
REMARK SMILES IDX 60 88 62 89 59 90 55 91 56 92 57 93 58 94
REMARK H PARENT 18 6 13 23 23 28 82 47 50 58
REMARK Flexibility Score: inf
ROOT
ATOM      1  C   UNL A   1      36.370  23.492  23.875  1.00  0.00     0.023 C 
ENDROOT
BRANCH   1   2
ATOM      2  C   UNL A   1      35.249  24.276  24.548  1.00  0.00     0.116 C 
BRANCH   2   3
ATOM      3  N   UNL A   1      33.981  24.178  23.854  1.00  0.00    -0.354 N 
ATOM      4  C   UNL A   1      32.716  24.374  24.326  1.00  0.00     0.242 C 
ATOM      5  O   UNL A   1      31.799  24.433  23.503  1.00  0.00    -0.273 OA
ATOM      6  H   UNL A   1      34.040  23.933  22.902  1.00  0.00     0.163 HD
BRANCH   4   7
ATOM      7  C   UNL A   1      32.481  24.570  25.843  1.00  0.00     0.177 C 
ATOM      8  N   UNL A   1      32.172  23.275  26.452  1.00  0.00    -0.321 N 
ATOM      9  C   UNL A   1      30.787  23.195  26.882  1.00  0.00     0.152 C 
ATOM     10  C   UNL A   1      30.107  24.359  26.173  1.00  0.00     0.136 C 
ATOM     11  C   UNL A   1      31.221  25.404  26.086  1.00  0.00     0.069 C 
BRANCH   8  12
ATOM     12  C   UNL A   1      33.131  22.290  26.558  1.00  0.00     0.290 C 
ATOM     13  O   UNL A   1      34.165  22.503  27.219  1.00  0.00    -0.265 OA
BRANCH  12  14
ATOM     14  C   UNL A   1      32.928  21.091  25.769  1.00  0.00     0.191 A 
ATOM     15  C   UNL A   1      32.917  18.913  25.373  1.00  0.00     0.114 A 
ATOM     16  C   UNL A   1      32.797  19.537  24.148  1.00  0.00     0.047 A 
ATOM     17  O   UNL A   1      32.984  19.858  26.363  1.00  0.00    -0.455 OA
ATOM     18  C   UNL A   1      32.802  20.924  24.398  1.00  0.00     0.056 A 
BRANCH  15  19
ATOM     19  C   UNL A   1      33.034  17.501  25.824  1.00  0.00     0.144 C 
BRANCH  19  20
ATOM     20  S   UNL A   1      33.174  16.283  24.475  1.00  0.00    -0.157 SA
ATOM     21  C   UNL A   1      32.731  14.778  25.378  1.00  0.00     0.085 C 
ENDBRANCH  19  20
ENDBRANCH  15  19
ENDBRANCH  12  14
ENDBRANCH   8  12
BRANCH  10  22
ATOM     22  O   UNL A   1      28.982  24.857  26.877  1.00  0.00    -0.391 OA
ATOM     23  H   UNL A   1      29.238  25.069  27.789  1.00  0.00     0.211 HD
ENDBRANCH  10  22
ENDBRANCH   4   7
ENDBRANCH   2   3
ENDBRANCH   1   2
BRANCH   1  24
ATOM     24  C   UNL A   1      36.465  22.007  24.238  1.00  0.00     0.023 C 
BRANCH  24  25
ATOM     25  C   UNL A   1      36.885  21.678  25.669  1.00  0.00     0.116 C 
BRANCH  25  26
ATOM     26  N   UNL A   1      37.916  20.658  25.748  1.00  0.00    -0.352 N 
ATOM     27  C   UNL A   1      39.239  20.772  26.104  1.00  0.00     0.251 C 
ATOM     28  H   UNL A   1      37.623  19.749  25.510  1.00  0.00     0.163 HD
ATOM     29  O   UNL A   1      39.968  19.787  26.011  1.00  0.00    -0.269 OA
BRANCH  27  30
ATOM     30  C   UNL A   1      39.797  22.069  26.555  1.00  0.00     0.039 A 
ATOM     31  C   UNL A   1      40.798  22.061  27.534  1.00  0.00     0.014 A 
ATOM     32  C   UNL A   1      39.339  23.285  26.040  1.00  0.00     0.014 A 
ATOM     33  C   UNL A   1      41.390  23.262  27.939  1.00  0.00     0.010 A 
ATOM     34  C   UNL A   1      39.967  24.477  26.405  1.00  0.00     0.010 A 
ATOM     35  C   UNL A   1      41.004  24.477  27.352  1.00  0.00    -0.014 A 
BRANCH  35  36
ATOM     36  C   UNL A   1      41.673  25.754  27.708  1.00  0.00     0.031 A 
ATOM     37  C   UNL A   1      40.927  26.813  28.469  1.00  0.00     0.074 A 
ATOM     38  C   UNL A   1      42.928  25.993  27.278  1.00  0.00     0.049 A 
ATOM     39  N   UNL A   1      41.293  28.033  28.770  1.00  0.00    -0.248 NA
ATOM     40  C   UNL A   1      39.576  26.459  28.926  1.00  0.00     0.031 C 
ATOM     41  C   UNL A   1      43.748  25.062  26.499  1.00  0.00     0.029 A 
ATOM     42  N   UNL A   1      43.727  27.100  27.418  1.00  0.00    -0.354 N 
ATOM     43  C   UNL A   1      40.212  28.603  29.433  1.00  0.00     0.074 A 
ATOM     44  C   UNL A   1      39.162  27.604  29.449  1.00  0.00     0.031 C 
ATOM     45  C   UNL A   1      44.933  25.634  26.235  1.00  0.00     0.029 A 
ATOM     46  C   UNL A   1      44.945  26.984  26.791  1.00  0.00     0.049 A 
ATOM     47  H   UNL A   1      43.453  27.902  27.920  1.00  0.00     0.167 HD
ATOM     48  C   UNL A   1      40.106  29.837  29.986  1.00  0.00     0.034 A 
ATOM     49  C   UNL A   1      45.952  27.869  26.663  1.00  0.00     0.034 A 
ATOM     50  C   UNL A   1      41.165  30.818  29.979  1.00  0.00     0.049 A 
ATOM     51  C   UNL A   1      45.816  29.234  27.285  1.00  0.00     0.074 A 
ATOM     52  C   UNL A   1      41.184  32.074  30.562  1.00  0.00     0.029 A 
ATOM     53  N   UNL A   1      42.393  30.657  29.352  1.00  0.00    -0.354 N 
ATOM     54  N   UNL A   1      44.798  29.746  27.934  1.00  0.00    -0.248 NA
ATOM     55  C   UNL A   1      46.969  30.134  27.159  1.00  0.00     0.031 C 
ATOM     56  C   UNL A   1      42.403  32.689  30.248  1.00  0.00     0.029 A 
ATOM     57  C   UNL A   1      43.167  31.796  29.514  1.00  0.00     0.049 A 
ATOM     58  H   UNL A   1      42.674  29.850  28.862  1.00  0.00     0.167 HD
ATOM     59  C   UNL A   1      45.195  31.024  28.311  1.00  0.00     0.074 A 
ATOM     60  C   UNL A   1      46.548  31.202  27.824  1.00  0.00     0.031 C 
ATOM     61  C   UNL A   1      44.506  31.966  29.005  1.00  0.00     0.034 A 
BRANCH  48  62
ATOM     62  C   UNL A   1      38.782  30.196  30.614  1.00  0.00     0.023 A 
ATOM     63  C   UNL A   1      37.819  30.949  29.920  1.00  0.00     0.031 A 
ATOM     64  C   UNL A   1      38.499  29.824  31.939  1.00  0.00     0.131 A 
ATOM     65  C   UNL A   1      36.658  31.379  30.580  1.00  0.00     0.055 A 
ATOM     66  C   UNL A   1      37.307  30.188  32.567  1.00  0.00     0.041 A 
ATOM     67  F   UNL A   1      39.389  29.120  32.656  1.00  0.00    -0.206 F 
ATOM     68  C   UNL A   1      36.385  30.985  31.892  1.00  0.00     0.022 A 
BRANCH  65  69
ATOM     69  S   UNL A   1      35.585  32.581  29.749  1.00  0.00     0.124 S 
ATOM     70  O   UNL A   1      36.416  33.782  29.771  1.00  0.00    -0.237 OA
ATOM     71  O   UNL A   1      35.379  31.970  28.441  1.00  0.00    -0.237 OA
ATOM     72  O   UNL A   1      34.402  32.635  30.606  1.00  0.00    -0.744 OA
ENDBRANCH  65  69
ENDBRANCH  48  62
BRANCH  49  73
ATOM     73  C   UNL A   1      47.174  27.507  25.897  1.00  0.00     0.023 A 
ATOM     74  C   UNL A   1      47.281  27.805  24.529  1.00  0.00     0.031 A 
ATOM     75  C   UNL A   1      48.241  26.836  26.518  1.00  0.00     0.131 A 
ATOM     76  C   UNL A   1      48.420  27.402  23.817  1.00  0.00     0.055 A 
ATOM     77  C   UNL A   1      49.386  26.467  25.812  1.00  0.00     0.041 A 
ATOM     78  F   UNL A   1      48.186  26.541  27.827  1.00  0.00    -0.206 F 
ATOM     79  C   UNL A   1      49.476  26.742  24.450  1.00  0.00     0.022 A 
BRANCH  76  80
ATOM     80  S   UNL A   1      48.481  27.711  22.031  1.00  0.00     0.124 S 
ATOM     81  O   UNL A   1      47.187  28.342  21.793  1.00  0.00    -0.237 OA
ATOM     82  O   UNL A   1      49.648  28.579  21.914  1.00  0.00    -0.237 OA
ATOM     83  O   UNL A   1      48.640  26.376  21.460  1.00  0.00    -0.744 OA
ENDBRANCH  76  80
ENDBRANCH  49  73
BRANCH  61  84
ATOM     84  C   UNL A   1      45.231  33.251  29.303  1.00  0.00     0.023 A 
ATOM     85  C   UNL A   1      45.095  34.381  28.477  1.00  0.00     0.031 A 
ATOM     86  C   UNL A   1      46.087  33.336  30.414  1.00  0.00     0.131 A 
ATOM     87  C   UNL A   1      45.841  35.537  28.751  1.00  0.00     0.055 A 
ATOM     88  C   UNL A   1      46.794  34.503  30.705  1.00  0.00     0.041 A 
ATOM     89  F   UNL A   1      46.253  32.284  31.229  1.00  0.00    -0.206 F 
ATOM     90  C   UNL A   1      46.682  35.609  29.865  1.00  0.00     0.022 A 
BRANCH  87  91
ATOM     91  S   UNL A   1      45.753  36.928  27.590  1.00  0.00     0.124 S 
ATOM     92  O   UNL A   1      46.977  36.755  26.814  1.00  0.00    -0.237 OA
ATOM     93  O   UNL A   1      44.506  36.665  26.880  1.00  0.00    -0.237 OA
ATOM     94  O   UNL A   1      45.732  38.102  28.461  1.00  0.00    -0.744 OA
ENDBRANCH  87  91
ENDBRANCH  61  84
ENDBRANCH  35  36
ENDBRANCH  27  30
ENDBRANCH  25  26
ENDBRANCH  24  25
ENDBRANCH   1  24
TORSDOF 19
ENDMDL
MODEL 3
REMARK VINA RESULT:     -10.9      5.858     10.915
REMARK SMILES CSCc1ccc(C(=O)N2C[C@@H](O)C[C@@H]2C(=O)NCCCCNC(=O)c2ccc(-c3c4nc(c(-c5cc(S(=O)(=O)[O-])ccc5F)c5ccc([nH]5)c(-c5cc(S(=O)(=O)[O-])ccc5F)c5nc(c(-c6cc(S(=O)(=O)[O-])ccc6F)c6ccc3[nH]6)C=C5)C=C4)cc2)o1
REMARK SMILES IDX 20 1 19 2 18 3 16 4 17 5 15 7 10 8 11 9 12 10 14 11 8 12
REMARK SMILES IDX 9 13 7 14 4 15 5 16 89 17 6 18 3 19 2 20 1 21 13 22 21 24
REMARK SMILES IDX 22 25 23 26 24 27 25 29 26 30 27 31 88 32 28 33 87 34 29 35
REMARK SMILES IDX 30 36 31 37 81 38 32 39 86 40 80 41 82 42 33 43 85 44 79 45
REMARK SMILES IDX 78 46 34 48 66 49 46 50 65 51 47 52 50 53 64 54 83 55 48 56
REMARK SMILES IDX 49 57 63 59 84 60 51 61 35 62 36 63 44 64 37 65 43 66 45 67
REMARK SMILES IDX 42 68 38 69 39 70 40 71 41 72 67 73 68 74 76 75 69 76 75 77
REMARK SMILES IDX 77 78 74 79 70 80 71 81 72 82 73 83 52 84 53 85 61 86 54 87
REMARK SMILES IDX 60 88 62 89 59 90 55 91 56 92 57 93 58 94
REMARK H PARENT 18 6 13 23 23 28 82 47 50 58
REMARK Flexibility Score: inf
ROOT
ATOM      1  C   UNL A   1      36.873  21.026  25.103  1.00  0.00     0.023 C 
ENDROOT
BRANCH   1   2
ATOM      2  C   UNL A   1      36.840  22.188  24.116  1.00  0.00     0.116 C 
BRANCH   2   3
ATOM      3  N   UNL A   1      36.365  23.426  24.700  1.00  0.00    -0.354 N 
ATOM      4  C   UNL A   1      35.101  23.780  25.072  1.00  0.00     0.242 C 
ATOM      5  O   UNL A   1      34.966  24.811  25.734  1.00  0.00    -0.273 OA
ATOM      6  H   UNL A   1      37.055  24.112  24.850  1.00  0.00     0.163 HD
BRANCH   4   7
ATOM      7  C   UNL A   1      33.906  22.868  24.708  1.00  0.00     0.177 C 
ATOM      8  N   UNL A   1      32.829  23.687  24.150  1.00  0.00    -0.321 N 
ATOM      9  C   UNL A   1      31.689  23.768  25.047  1.00  0.00     0.152 C 
ATOM     10  C   UNL A   1      32.230  23.279  26.384  1.00  0.00     0.136 C 
ATOM     11  C   UNL A   1      33.292  22.259  25.971  1.00  0.00     0.069 C 
BRANCH   8  12
ATOM     12  C   UNL A   1      32.958  24.292  22.917  1.00  0.00     0.290 C 
ATOM     13  O   UNL A   1      33.539  23.693  21.993  1.00  0.00    -0.265 OA
BRANCH  12  14
ATOM     14  C   UNL A   1      32.513  25.667  22.813  1.00  0.00     0.191 A 
ATOM     15  C   UNL A   1      32.350  27.789  23.425  1.00  0.00     0.114 A 
ATOM     16  C   UNL A   1      31.369  27.576  22.479  1.00  0.00     0.047 A 
ATOM     17  O   UNL A   1      33.057  26.631  23.620  1.00  0.00    -0.455 OA
ATOM     18  C   UNL A   1      31.471  26.225  22.087  1.00  0.00     0.056 A 
BRANCH  15  19
ATOM     19  C   UNL A   1      32.756  28.940  24.275  1.00  0.00     0.144 C 
BRANCH  19  20
ATOM     20  S   UNL A   1      32.434  28.717  26.056  1.00  0.00    -0.157 SA
ATOM     21  C   UNL A   1      34.136  28.579  26.656  1.00  0.00     0.085 C 
ENDBRANCH  19  20
ENDBRANCH  15  19
ENDBRANCH  12  14
ENDBRANCH   8  12
BRANCH  10  22
ATOM     22  O   UNL A   1      31.234  22.690  27.203  1.00  0.00    -0.391 OA
ATOM     23  H   UNL A   1      30.402  23.180  27.105  1.00  0.00     0.211 HD
ENDBRANCH  10  22
ENDBRANCH   4   7
ENDBRANCH   2   3
ENDBRANCH   1   2
BRANCH   1  24
ATOM     24  C   UNL A   1      38.075  20.084  24.996  1.00  0.00     0.023 C 
BRANCH  24  25
ATOM     25  C   UNL A   1      39.266  20.389  25.902  1.00  0.00     0.116 C 
BRANCH  25  26
ATOM     26  N   UNL A   1      40.260  19.331  25.924  1.00  0.00    -0.352 N 
ATOM     27  C   UNL A   1      41.619  19.406  26.127  1.00  0.00     0.251 C 
ATOM     28  H   UNL A   1      39.909  18.425  25.770  1.00  0.00     0.163 HD
ATOM     29  O   UNL A   1      42.296  18.387  26.009  1.00  0.00    -0.269 OA
BRANCH  27  30
ATOM     30  C   UNL A   1      42.270  20.699  26.443  1.00  0.00     0.039 A 
ATOM     31  C   UNL A   1      42.697  21.507  25.382  1.00  0.00     0.014 A 
ATOM     32  C   UNL A   1      42.476  21.116  27.761  1.00  0.00     0.014 A 
ATOM     33  C   UNL A   1      43.260  22.761  25.642  1.00  0.00     0.010 A 
ATOM     34  C   UNL A   1      42.989  22.389  28.016  1.00  0.00     0.010 A 
ATOM     35  C   UNL A   1      43.378  23.227  26.960  1.00  0.00    -0.014 A 
BRANCH  35  36
ATOM     36  C   UNL A   1      43.899  24.587  27.255  1.00  0.00     0.031 A 
ATOM     37  C   UNL A   1      42.977  25.655  27.773  1.00  0.00     0.074 A 
ATOM     38  C   UNL A   1      45.185  24.883  26.982  1.00  0.00     0.049 A 
ATOM     39  N   UNL A   1      43.211  26.926  27.979  1.00  0.00    -0.248 NA
ATOM     40  C   UNL A   1      41.600  25.239  28.073  1.00  0.00     0.031 C 
ATOM     41  C   UNL A   1      46.174  23.947  26.442  1.00  0.00     0.029 A 
ATOM     42  N   UNL A   1      45.877  26.063  27.103  1.00  0.00    -0.354 N 
ATOM     43  C   UNL A   1      42.007  27.470  28.410  1.00  0.00     0.074 A 
ATOM     44  C   UNL A   1      41.036  26.394  28.394  1.00  0.00     0.031 C 
ATOM     45  C   UNL A   1      47.343  24.586  26.282  1.00  0.00     0.029 A 
ATOM     46  C   UNL A   1      47.181  25.983  26.673  1.00  0.00     0.049 A 
ATOM     47  H   UNL A   1      45.477  26.887  27.463  1.00  0.00     0.167 HD
ATOM     48  C   UNL A   1      41.736  28.743  28.794  1.00  0.00     0.034 A 
ATOM     49  C   UNL A   1      48.134  26.931  26.586  1.00  0.00     0.034 A 
ATOM     50  C   UNL A   1      42.715  29.803  28.822  1.00  0.00     0.049 A 
ATOM     51  C   UNL A   1      47.814  28.338  27.018  1.00  0.00     0.074 A 
ATOM     52  C   UNL A   1      42.561  31.111  29.251  1.00  0.00     0.029 A 
ATOM     53  N   UNL A   1      44.031  29.679  28.398  1.00  0.00    -0.354 N 
ATOM     54  N   UNL A   1      46.677  28.828  27.452  1.00  0.00    -0.248 NA
ATOM     55  C   UNL A   1      48.909  29.313  26.952  1.00  0.00     0.031 C 
ATOM     56  C   UNL A   1      43.769  31.788  29.042  1.00  0.00     0.029 A 
ATOM     57  C   UNL A   1      44.693  30.891  28.533  1.00  0.00     0.049 A 
ATOM     58  H   UNL A   1      44.436  28.851  28.051  1.00  0.00     0.167 HD
ATOM     59  C   UNL A   1      46.926  30.168  27.729  1.00  0.00     0.074 A 
ATOM     60  C   UNL A   1      48.322  30.406  27.421  1.00  0.00     0.031 C 
ATOM     61  C   UNL A   1      46.080  31.117  28.203  1.00  0.00     0.034 A 
BRANCH  48  62
ATOM     62  C   UNL A   1      40.311  29.054  29.181  1.00  0.00     0.023 A 
ATOM     63  C   UNL A   1      39.898  29.055  30.525  1.00  0.00     0.031 A 
ATOM     64  C   UNL A   1      39.344  29.303  28.193  1.00  0.00     0.131 A 
ATOM     65  C   UNL A   1      38.540  29.216  30.839  1.00  0.00     0.055 A 
ATOM     66  C   UNL A   1      38.006  29.540  28.517  1.00  0.00     0.041 A 
ATOM     67  F   UNL A   1      39.677  29.296  26.893  1.00  0.00    -0.206 F 
ATOM     68  C   UNL A   1      37.595  29.480  29.846  1.00  0.00     0.022 A 
BRANCH  65  69
ATOM     69  S   UNL A   1      38.008  28.925  32.548  1.00  0.00     0.124 S 
ATOM     70  O   UNL A   1      38.997  29.692  33.300  1.00  0.00    -0.237 OA
ATOM     71  O   UNL A   1      36.650  29.456  32.550  1.00  0.00    -0.237 OA
ATOM     72  O   UNL A   1      38.111  27.474  32.697  1.00  0.00    -0.744 OA
ENDBRANCH  65  69
ENDBRANCH  48  62
BRANCH  49  73
ATOM     73  C   UNL A   1      49.478  26.594  26.047  1.00  0.00     0.023 A 
ATOM     74  C   UNL A   1      49.864  27.005  24.763  1.00  0.00     0.031 A 
ATOM     75  C   UNL A   1      50.385  25.833  26.804  1.00  0.00     0.131 A 
ATOM     76  C   UNL A   1      51.116  26.625  24.257  1.00  0.00     0.055 A 
ATOM     77  C   UNL A   1      51.643  25.485  26.309  1.00  0.00     0.041 A 
ATOM     78  F   UNL A   1      50.063  25.426  28.042  1.00  0.00    -0.206 F 
ATOM     79  C   UNL A   1      52.011  25.875  25.024  1.00  0.00     0.022 A 
BRANCH  76  80
ATOM     80  S   UNL A   1      51.541  27.087  22.556  1.00  0.00     0.124 S 
ATOM     81  O   UNL A   1      51.803  28.516  22.690  1.00  0.00    -0.237 OA
ATOM     82  O   UNL A   1      52.703  26.245  22.295  1.00  0.00    -0.237 OA
ATOM     83  O   UNL A   1      50.341  26.740  21.799  1.00  0.00    -0.744 OA
ENDBRANCH  76  80
ENDBRANCH  49  73
BRANCH  61  84
ATOM     84  C   UNL A   1      46.663  32.483  28.447  1.00  0.00     0.023 A 
ATOM     85  C   UNL A   1      46.803  33.420  27.408  1.00  0.00     0.031 A 
ATOM     86  C   UNL A   1      47.107  32.840  29.732  1.00  0.00     0.131 A 
ATOM     87  C   UNL A   1      47.414  34.656  27.665  1.00  0.00     0.055 A 
ATOM     88  C   UNL A   1      47.676  34.087  29.989  1.00  0.00     0.041 A 
ATOM     89  F   UNL A   1      46.997  31.978  30.755  1.00  0.00    -0.206 F 
ATOM     90  C   UNL A   1      47.842  35.000  28.950  1.00  0.00     0.022 A 
BRANCH  87  91
ATOM     91  S   UNL A   1      47.710  35.788  26.278  1.00  0.00     0.124 S 
ATOM     92  O   UNL A   1      49.010  36.354  26.619  1.00  0.00    -0.237 OA
ATOM     93  O   UNL A   1      47.688  34.888  25.129  1.00  0.00    -0.237 OA
ATOM     94  O   UNL A   1      46.588  36.723  26.352  1.00  0.00    -0.744 OA
ENDBRANCH  87  91
ENDBRANCH  61  84
ENDBRANCH  35  36
ENDBRANCH  27  30
ENDBRANCH  25  26
ENDBRANCH  24  25
ENDBRANCH   1  24
TORSDOF 19
ENDMDL
