MODEL 1
REMARK VINA RESULT:     -13.0      0.000      0.000
REMARK SMILES C[NH+]1CCC(C(=O)N2C[C@@H](C(=O)NCCCCNC(=O)c3ccc(-c4c5nc(c(-c6cc(S(=O)(=O)[O-])ccc6F)c6ccc([nH]6)c(-c6cc(S(=O)(=O)[O-])ccc6F)c6nc(c(-c7cc(S(=O)(=O)[O-])ccc7F)c7ccc4[nH]7)C=C6)C=C5)cc3)[C@H](c3ccc4c(c3)OCO4)C2)CC1
REMARK SMILES IDX 16 1 15 2 14 3 13 4 11 5 12 6 10 8 8 9 9 10 94 11 84 12 6 13
REMARK SMILES IDX 7 14 5 15 1 16 2 17 3 18 96 19 4 21 95 22 85 23 86 24 90 25
REMARK SMILES IDX 87 26 89 27 88 28 91 29 93 30 92 31 17 32 18 33 19 34 20 36
REMARK SMILES IDX 21 37 22 38 83 39 23 40 82 41 24 42 25 43 26 44 76 45 27 46
REMARK SMILES IDX 81 47 75 48 77 49 28 50 80 51 74 52 73 53 29 55 61 56 41 57
REMARK SMILES IDX 60 58 42 59 45 60 59 61 78 62 43 63 44 64 58 66 79 67 46 68
REMARK SMILES IDX 30 69 31 70 39 71 32 72 38 73 40 74 37 75 33 76 34 77 35 78
REMARK SMILES IDX 36 79 62 80 63 81 71 82 64 83 70 84 72 85 69 86 65 87 66 88
REMARK SMILES IDX 67 89 68 90 47 91 48 92 56 93 49 94 55 95 57 96 54 97 50 98
REMARK SMILES IDX 51 99 52 100 53 101
REMARK H PARENT 13 7 2 20 18 35 77 54 45 65
REMARK Flexibility Score: inf
ROOT
ATOM      1  C   UNL A   1      31.004  32.007  26.322  1.00  0.00     0.023 C 
ENDROOT
BRANCH   1   2
ATOM      2  C   UNL A   1      31.014  30.725  25.486  1.00  0.00     0.023 C 
BRANCH   2   3
ATOM      3  C   UNL A   1      32.203  29.801  25.718  1.00  0.00     0.116 C 
BRANCH   3   4
ATOM      4  N   UNL A   1      33.134  29.762  24.600  1.00  0.00    -0.356 N 
ATOM      5  C   UNL A   1      33.298  28.807  23.638  1.00  0.00     0.225 C 
ATOM      6  O   UNL A   1      34.049  29.048  22.692  1.00  0.00    -0.275 OA
ATOM      7  H   UNL A   1      33.733  30.539  24.526  1.00  0.00     0.163 HD
BRANCH   5   8
ATOM      8  C   UNL A   1      32.570  27.484  23.755  1.00  0.00     0.107 C 
ATOM      9  N   UNL A   1      32.706  25.189  23.554  1.00  0.00    -0.341 N 
ATOM     10  C   UNL A   1      33.559  26.336  23.784  1.00  0.00     0.133 C 
ATOM     11  C   UNL A   1      31.677  25.555  22.582  1.00  0.00     0.128 C 
ATOM     12  C   UNL A   1      31.705  27.106  22.529  1.00  0.00     0.053 C 
BRANCH   9  13
ATOM     13  C   UNL A   1      32.753  23.923  24.079  1.00  0.00     0.226 C 
ATOM     14  O   UNL A   1      31.702  23.344  24.380  1.00  0.00    -0.275 OA
BRANCH  13  15
ATOM     15  C   UNL A   1      34.075  23.328  24.588  1.00  0.00     0.090 C 
ATOM     16  C   UNL A   1      37.613  20.904  24.910  1.00  0.00     0.332 C 
ATOM     17  N   UNL A   1      36.285  21.432  24.612  1.00  0.00    -0.337 N 
ATOM     18  C   UNL A   1      36.376  22.639  23.783  1.00  0.00     0.262 C 
ATOM     19  C   UNL A   1      35.531  21.698  25.846  1.00  0.00     0.262 C 
ATOM     20  H   UNL A   1      35.777  20.723  24.083  1.00  0.00     0.347 HD
ATOM     21  C   UNL A   1      34.984  23.108  23.370  1.00  0.00     0.075 C 
ATOM     22  C   UNL A   1      34.094  22.099  25.493  1.00  0.00     0.075 C 
ENDBRANCH  13  15
ENDBRANCH   9  13
BRANCH  12  23
ATOM     23  C   UNL A   1      30.386  27.856  22.565  1.00  0.00    -0.038 A 
ATOM     24  C   UNL A   1      29.245  27.366  23.242  1.00  0.00     0.008 A 
ATOM     25  C   UNL A   1      30.371  29.174  22.064  1.00  0.00     0.054 A 
ATOM     26  C   UNL A   1      28.130  28.185  23.463  1.00  0.00     0.051 A 
ATOM     27  C   UNL A   1      29.278  29.969  22.340  1.00  0.00     0.166 A 
ATOM     28  C   UNL A   1      28.194  29.490  23.031  1.00  0.00     0.165 A 
ATOM     29  O   UNL A   1      29.182  31.300  22.079  1.00  0.00    -0.454 OA
ATOM     30  O   UNL A   1      27.271  30.459  23.277  1.00  0.00    -0.454 OA
ATOM     31  C   UNL A   1      27.978  31.628  22.807  1.00  0.00     0.468 C 
ENDBRANCH  12  23
ENDBRANCH   5   8
ENDBRANCH   3   4
ENDBRANCH   2   3
ENDBRANCH   1   2
BRANCH   1  32
ATOM     32  C   UNL A   1      32.365  32.538  26.769  1.00  0.00     0.116 C 
BRANCH  32  33
ATOM     33  N   UNL A   1      32.305  33.818  27.457  1.00  0.00    -0.352 N 
ATOM     34  C   UNL A   1      33.180  34.349  28.377  1.00  0.00     0.251 C 
ATOM     35  H   UNL A   1      31.530  34.381  27.235  1.00  0.00     0.163 HD
ATOM     36  O   UNL A   1      32.947  35.453  28.865  1.00  0.00    -0.269 OA
BRANCH  34  37
ATOM     37  C   UNL A   1      34.370  33.582  28.810  1.00  0.00     0.039 A 
ATOM     38  C   UNL A   1      35.630  34.168  28.660  1.00  0.00     0.014 A 
ATOM     39  C   UNL A   1      34.254  32.313  29.384  1.00  0.00     0.014 A 
ATOM     40  C   UNL A   1      36.762  33.526  29.169  1.00  0.00     0.010 A 
ATOM     41  C   UNL A   1      35.375  31.700  29.943  1.00  0.00     0.010 A 
ATOM     42  C   UNL A   1      36.636  32.310  29.860  1.00  0.00    -0.014 A 
BRANCH  42  43
ATOM     43  C   UNL A   1      37.806  31.698  30.546  1.00  0.00     0.031 A 
ATOM     44  C   UNL A   1      38.643  30.659  29.854  1.00  0.00     0.074 A 
ATOM     45  C   UNL A   1      38.061  32.025  31.828  1.00  0.00     0.049 A 
ATOM     46  N   UNL A   1      39.657  29.972  30.315  1.00  0.00    -0.248 NA
ATOM     47  C   UNL A   1      38.271  30.331  28.472  1.00  0.00     0.031 C 
ATOM     48  C   UNL A   1      37.284  32.977  32.626  1.00  0.00     0.029 A 
ATOM     49  N   UNL A   1      39.032  31.582  32.694  1.00  0.00    -0.354 N 
ATOM     50  C   UNL A   1      40.038  29.120  29.285  1.00  0.00     0.074 A 
ATOM     51  C   UNL A   1      39.110  29.344  28.196  1.00  0.00     0.031 C 
ATOM     52  C   UNL A   1      37.812  33.051  33.859  1.00  0.00     0.029 A 
ATOM     53  C   UNL A   1      38.937  32.127  33.955  1.00  0.00     0.049 A 
ATOM     54  H   UNL A   1      39.728  30.937  32.437  1.00  0.00     0.167 HD
ATOM     55  C   UNL A   1      41.077  28.247  29.246  1.00  0.00     0.034 A 
ATOM     56  C   UNL A   1      39.661  31.897  35.068  1.00  0.00     0.034 A 
ATOM     57  C   UNL A   1      41.995  28.039  30.342  1.00  0.00     0.049 A 
ATOM     58  C   UNL A   1      40.807  30.922  35.006  1.00  0.00     0.074 A 
ATOM     59  C   UNL A   1      43.123  27.238  30.383  1.00  0.00     0.029 A 
ATOM     60  N   UNL A   1      41.882  28.623  31.599  1.00  0.00    -0.354 N 
ATOM     61  N   UNL A   1      41.204  30.181  33.997  1.00  0.00    -0.248 NA
ATOM     62  C   UNL A   1      41.609  30.763  36.225  1.00  0.00     0.031 C 
ATOM     63  C   UNL A   1      43.648  27.281  31.679  1.00  0.00     0.029 A 
ATOM     64  C   UNL A   1      42.896  28.170  32.430  1.00  0.00     0.049 A 
ATOM     65  H   UNL A   1      41.183  29.265  31.860  1.00  0.00     0.167 HD
ATOM     66  C   UNL A   1      42.319  29.484  34.456  1.00  0.00     0.074 A 
ATOM     67  C   UNL A   1      42.538  29.906  35.824  1.00  0.00     0.031 C 
ATOM     68  C   UNL A   1      43.094  28.582  33.801  1.00  0.00     0.034 A 
BRANCH  55  69
ATOM     69  C   UNL A   1      41.247  27.427  27.987  1.00  0.00     0.023 A 
ATOM     70  C   UNL A   1      40.883  26.069  27.934  1.00  0.00     0.031 A 
ATOM     71  C   UNL A   1      41.816  27.999  26.836  1.00  0.00     0.131 A 
ATOM     72  C   UNL A   1      41.173  25.310  26.790  1.00  0.00     0.055 A 
ATOM     73  C   UNL A   1      42.022  27.258  25.669  1.00  0.00     0.041 A 
ATOM     74  F   UNL A   1      42.200  29.285  26.829  1.00  0.00    -0.206 F 
ATOM     75  C   UNL A   1      41.717  25.901  25.647  1.00  0.00     0.022 A 
BRANCH  72  76
ATOM     76  S   UNL A   1      40.977  23.509  26.877  1.00  0.00     0.124 S 
ATOM     77  O   UNL A   1      39.539  23.358  26.663  1.00  0.00    -0.237 OA
ATOM     78  O   UNL A   1      41.836  23.045  25.794  1.00  0.00    -0.237 OA
ATOM     79  O   UNL A   1      41.436  23.179  28.225  1.00  0.00    -0.744 OA
ENDBRANCH  72  76
ENDBRANCH  55  69
BRANCH  56  80
ATOM     80  C   UNL A   1      39.311  32.589  36.341  1.00  0.00     0.023 A 
ATOM     81  C   UNL A   1      39.917  33.802  36.702  1.00  0.00     0.031 A 
ATOM     82  C   UNL A   1      38.373  32.029  37.227  1.00  0.00     0.131 A 
ATOM     83  C   UNL A   1      39.605  34.400  37.934  1.00  0.00     0.055 A 
ATOM     84  C   UNL A   1      38.031  32.650  38.429  1.00  0.00     0.041 A 
ATOM     85  F   UNL A   1      37.758  30.875  36.923  1.00  0.00    -0.206 F 
ATOM     86  C   UNL A   1      38.656  33.839  38.792  1.00  0.00     0.022 A 
BRANCH  83  87
ATOM     87  S   UNL A   1      40.502  35.897  38.427  1.00  0.00     0.124 S 
ATOM     88  O   UNL A   1      41.860  35.585  37.998  1.00  0.00    -0.237 OA
ATOM     89  O   UNL A   1      39.809  36.930  37.665  1.00  0.00    -0.237 OA
ATOM     90  O   UNL A   1      40.299  35.954  39.873  1.00  0.00    -0.744 OA
ENDBRANCH  83  87
ENDBRANCH  56  80
BRANCH  68  91
ATOM     91  C   UNL A   1      44.275  28.019  34.556  1.00  0.00     0.023 A 
ATOM     92  C   UNL A   1      44.178  26.837  35.310  1.00  0.00     0.031 A 
ATOM     93  C   UNL A   1      45.512  28.686  34.528  1.00  0.00     0.131 A 
ATOM     94  C   UNL A   1      45.284  26.385  36.047  1.00  0.00     0.055 A 
ATOM     95  C   UNL A   1      46.626  28.200  35.216  1.00  0.00     0.041 A 
ATOM     96  F   UNL A   1      45.662  29.821  33.827  1.00  0.00    -0.206 F 
ATOM     97  C   UNL A   1      46.511  27.051  35.992  1.00  0.00     0.022 A 
BRANCH  94  98
ATOM     98  S   UNL A   1      45.073  24.963  37.154  1.00  0.00     0.124 S 
ATOM     99  O   UNL A   1      44.954  23.858  36.209  1.00  0.00    -0.237 OA
ATOM    100  O   UNL A   1      46.299  24.999  37.945  1.00  0.00    -0.237 OA
ATOM    101  O   UNL A   1      43.852  25.282  37.891  1.00  0.00    -0.744 OA
ENDBRANCH  94  98
ENDBRANCH  68  91
ENDBRANCH  42  43
ENDBRANCH  34  37
ENDBRANCH  32  33
ENDBRANCH   1  32
TORSDOF 17
ENDMDL
MODEL 2
REMARK VINA RESULT:     -13.0      1.735      2.046
REMARK SMILES C[NH+]1CCC(C(=O)N2C[C@@H](C(=O)NCCCCNC(=O)c3ccc(-c4c5nc(c(-c6cc(S(=O)(=O)[O-])ccc6F)c6ccc([nH]6)c(-c6cc(S(=O)(=O)[O-])ccc6F)c6nc(c(-c7cc(S(=O)(=O)[O-])ccc7F)c7ccc4[nH]7)C=C6)C=C5)cc3)[C@H](c3ccc4c(c3)OCO4)C2)CC1
REMARK SMILES IDX 16 1 15 2 14 3 13 4 11 5 12 6 10 8 8 9 9 10 94 11 84 12 6 13
REMARK SMILES IDX 7 14 5 15 1 16 2 17 3 18 96 19 4 21 95 22 85 23 86 24 90 25
REMARK SMILES IDX 87 26 89 27 88 28 91 29 93 30 92 31 17 32 18 33 19 34 20 36
REMARK SMILES IDX 21 37 22 38 83 39 23 40 82 41 24 42 25 43 26 44 76 45 27 46
REMARK SMILES IDX 81 47 75 48 77 49 28 50 80 51 74 52 73 53 29 55 61 56 41 57
REMARK SMILES IDX 60 58 42 59 45 60 59 61 78 62 43 63 44 64 58 66 79 67 46 68
REMARK SMILES IDX 30 69 31 70 39 71 32 72 38 73 40 74 37 75 33 76 34 77 35 78
REMARK SMILES IDX 36 79 62 80 63 81 71 82 64 83 70 84 72 85 69 86 65 87 66 88
REMARK SMILES IDX 67 89 68 90 47 91 48 92 56 93 49 94 55 95 57 96 54 97 50 98
REMARK SMILES IDX 51 99 52 100 53 101
REMARK H PARENT 13 7 2 20 18 35 77 54 45 65
REMARK Flexibility Score: inf
ROOT
ATOM      1  C   UNL A   1      31.033  31.989  26.445  1.00  0.00     0.023 C 
ENDROOT
BRANCH   1   2
ATOM      2  C   UNL A   1      30.988  30.830  25.447  1.00  0.00     0.023 C 
BRANCH   2   3
ATOM      3  C   UNL A   1      32.038  29.745  25.655  1.00  0.00     0.116 C 
BRANCH   3   4
ATOM      4  N   UNL A   1      33.062  29.723  24.622  1.00  0.00    -0.356 N 
ATOM      5  C   UNL A   1      33.313  28.781  23.666  1.00  0.00     0.225 C 
ATOM      6  O   UNL A   1      34.142  29.036  22.792  1.00  0.00    -0.275 OA
ATOM      7  H   UNL A   1      33.663  30.502  24.611  1.00  0.00     0.163 HD
BRANCH   5   8
ATOM      8  C   UNL A   1      32.583  27.455  23.702  1.00  0.00     0.107 C 
ATOM      9  N   UNL A   1      32.717  25.175  23.370  1.00  0.00    -0.341 N 
ATOM     10  C   UNL A   1      33.571  26.305  23.671  1.00  0.00     0.133 C 
ATOM     11  C   UNL A   1      31.694  25.598  22.416  1.00  0.00     0.128 C 
ATOM     12  C   UNL A   1      31.724  27.149  22.452  1.00  0.00     0.053 C 
BRANCH   9  13
ATOM     13  C   UNL A   1      32.760  23.880  23.821  1.00  0.00     0.226 C 
ATOM     14  O   UNL A   1      31.706  23.255  23.991  1.00  0.00    -0.275 OA
BRANCH  13  15
ATOM     15  C   UNL A   1      34.051  23.292  24.411  1.00  0.00     0.090 C 
ATOM     16  C   UNL A   1      37.572  20.884  24.957  1.00  0.00     0.332 C 
ATOM     17  N   UNL A   1      36.262  21.406  24.577  1.00  0.00    -0.337 N 
ATOM     18  C   UNL A   1      36.399  22.611  23.752  1.00  0.00     0.262 C 
ATOM     19  C   UNL A   1      35.433  21.672  25.762  1.00  0.00     0.262 C 
ATOM     20  H   UNL A   1      35.791  20.693  24.020  1.00  0.00     0.347 HD
ATOM     21  C   UNL A   1      35.034  23.074  23.252  1.00  0.00     0.075 C 
ATOM     22  C   UNL A   1      34.019  22.065  25.320  1.00  0.00     0.075 C 
ENDBRANCH  13  15
ENDBRANCH   9  13
BRANCH  12  23
ATOM     23  C   UNL A   1      30.407  27.898  22.524  1.00  0.00    -0.038 A 
ATOM     24  C   UNL A   1      29.278  27.396  23.213  1.00  0.00     0.008 A 
ATOM     25  C   UNL A   1      30.382  29.224  22.045  1.00  0.00     0.054 A 
ATOM     26  C   UNL A   1      28.166  28.211  23.468  1.00  0.00     0.051 A 
ATOM     27  C   UNL A   1      29.294  30.014  22.354  1.00  0.00     0.166 A 
ATOM     28  C   UNL A   1      28.222  29.523  23.056  1.00  0.00     0.165 A 
ATOM     29  O   UNL A   1      29.193  31.349  22.116  1.00  0.00    -0.454 OA
ATOM     30  O   UNL A   1      27.304  30.487  23.335  1.00  0.00    -0.454 OA
ATOM     31  C   UNL A   1      28.002  31.664  22.872  1.00  0.00     0.468 C 
ENDBRANCH  12  23
ENDBRANCH   5   8
ENDBRANCH   3   4
ENDBRANCH   2   3
ENDBRANCH   1   2
BRANCH   1  32
ATOM     32  C   UNL A   1      32.421  32.493  26.840  1.00  0.00     0.116 C 
BRANCH  32  33
ATOM     33  N   UNL A   1      32.419  33.807  27.462  1.00  0.00    -0.352 N 
ATOM     34  C   UNL A   1      33.333  34.355  28.334  1.00  0.00     0.251 C 
ATOM     35  H   UNL A   1      31.657  34.384  27.229  1.00  0.00     0.163 HD
ATOM     36  O   UNL A   1      33.148  35.490  28.768  1.00  0.00    -0.269 OA
BRANCH  34  37
ATOM     37  C   UNL A   1      34.508  33.571  28.778  1.00  0.00     0.039 A 
ATOM     38  C   UNL A   1      35.781  34.121  28.598  1.00  0.00     0.014 A 
ATOM     39  C   UNL A   1      34.366  32.324  29.392  1.00  0.00     0.014 A 
ATOM     40  C   UNL A   1      36.901  33.466  29.115  1.00  0.00     0.010 A 
ATOM     41  C   UNL A   1      35.477  31.700  29.959  1.00  0.00     0.010 A 
ATOM     42  C   UNL A   1      36.753  32.275  29.845  1.00  0.00    -0.014 A 
BRANCH  42  43
ATOM     43  C   UNL A   1      37.914  31.654  30.538  1.00  0.00     0.031 A 
ATOM     44  C   UNL A   1      38.733  30.593  29.860  1.00  0.00     0.074 A 
ATOM     45  C   UNL A   1      38.175  31.995  31.815  1.00  0.00     0.049 A 
ATOM     46  N   UNL A   1      39.737  29.897  30.329  1.00  0.00    -0.248 NA
ATOM     47  C   UNL A   1      38.354  30.252  28.482  1.00  0.00     0.031 C 
ATOM     48  C   UNL A   1      37.414  32.970  32.601  1.00  0.00     0.029 A 
ATOM     49  N   UNL A   1      39.140  31.550  32.686  1.00  0.00    -0.354 N 
ATOM     50  C   UNL A   1      40.104  29.025  29.310  1.00  0.00     0.074 A 
ATOM     51  C   UNL A   1      39.178  29.248  28.220  1.00  0.00     0.031 C 
ATOM     52  C   UNL A   1      37.944  33.053  33.832  1.00  0.00     0.029 A 
ATOM     53  C   UNL A   1      39.055  32.114  33.939  1.00  0.00     0.049 A 
ATOM     54  H   UNL A   1      39.826  30.890  32.437  1.00  0.00     0.167 HD
ATOM     55  C   UNL A   1      41.129  28.135  29.283  1.00  0.00     0.034 A 
ATOM     56  C   UNL A   1      39.777  31.888  35.055  1.00  0.00     0.034 A 
ATOM     57  C   UNL A   1      42.046  27.929  30.380  1.00  0.00     0.049 A 
ATOM     58  C   UNL A   1      40.907  30.894  35.005  1.00  0.00     0.074 A 
ATOM     59  C   UNL A   1      43.161  27.111  30.431  1.00  0.00     0.029 A 
ATOM     60  N   UNL A   1      41.942  28.532  31.629  1.00  0.00    -0.354 N 
ATOM     61  N   UNL A   1      41.292  30.133  34.006  1.00  0.00    -0.248 NA
ATOM     62  C   UNL A   1      41.708  30.740  36.225  1.00  0.00     0.031 C 
ATOM     63  C   UNL A   1      43.688  27.164  31.726  1.00  0.00     0.029 A 
ATOM     64  C   UNL A   1      42.951  28.075  32.465  1.00  0.00     0.049 A 
ATOM     65  H   UNL A   1      41.254  29.188  31.882  1.00  0.00     0.167 HD
ATOM     66  C   UNL A   1      42.396  29.426  34.474  1.00  0.00     0.074 A 
ATOM     67  C   UNL A   1      42.624  29.864  35.836  1.00  0.00     0.031 C 
ATOM     68  C   UNL A   1      43.157  28.502  33.830  1.00  0.00     0.034 A 
BRANCH  55  69
ATOM     69  C   UNL A   1      41.285  27.296  28.035  1.00  0.00     0.023 A 
ATOM     70  C   UNL A   1      40.899  25.943  28.001  1.00  0.00     0.031 A 
ATOM     71  C   UNL A   1      41.863  27.842  26.876  1.00  0.00     0.131 A 
ATOM     72  C   UNL A   1      41.176  25.164  26.867  1.00  0.00     0.055 A 
ATOM     73  C   UNL A   1      42.055  27.082  25.719  1.00  0.00     0.041 A 
ATOM     74  F   UNL A   1      42.267  29.122  26.851  1.00  0.00    -0.206 F 
ATOM     75  C   UNL A   1      41.728  25.730  25.717  1.00  0.00     0.022 A 
BRANCH  72  76
ATOM     76  S   UNL A   1      40.950  23.367  26.979  1.00  0.00     0.124 S 
ATOM     77  O   UNL A   1      41.754  22.899  25.852  1.00  0.00    -0.237 OA
ATOM     78  O   UNL A   1      41.473  23.066  28.306  1.00  0.00    -0.237 OA
ATOM     79  O   UNL A   1      39.508  23.192  26.820  1.00  0.00    -0.744 OA
ENDBRANCH  72  76
ENDBRANCH  55  69
BRANCH  56  80
ATOM     80  C   UNL A   1      39.440  32.603  36.319  1.00  0.00     0.023 A 
ATOM     81  C   UNL A   1      38.542  32.056  37.248  1.00  0.00     0.031 A 
ATOM     82  C   UNL A   1      40.002  33.860  36.603  1.00  0.00     0.131 A 
ATOM     83  C   UNL A   1      38.205  32.780  38.403  1.00  0.00     0.055 A 
ATOM     84  C   UNL A   1      39.700  34.555  37.775  1.00  0.00     0.041 A 
ATOM     85  F   UNL A   1      40.874  34.422  35.751  1.00  0.00    -0.206 F 
ATOM     86  C   UNL A   1      38.787  34.019  38.678  1.00  0.00     0.022 A 
BRANCH  83  87
ATOM     87  S   UNL A   1      36.944  32.103  39.517  1.00  0.00     0.124 S 
ATOM     88  O   UNL A   1      37.342  32.673  40.799  1.00  0.00    -0.237 OA
ATOM     89  O   UNL A   1      35.713  32.629  38.936  1.00  0.00    -0.237 OA
ATOM     90  O   UNL A   1      37.120  30.658  39.392  1.00  0.00    -0.744 OA
ENDBRANCH  83  87
ENDBRANCH  56  80
BRANCH  68  91
ATOM     91  C   UNL A   1      44.330  27.932  34.592  1.00  0.00     0.023 A 
ATOM     92  C   UNL A   1      45.598  28.540  34.563  1.00  0.00     0.031 A 
ATOM     93  C   UNL A   1      44.177  26.756  35.347  1.00  0.00     0.131 A 
ATOM     94  C   UNL A   1      46.675  27.940  35.234  1.00  0.00     0.055 A 
ATOM     95  C   UNL A   1      45.239  26.196  36.060  1.00  0.00     0.041 A 
ATOM     96  F   UNL A   1      42.990  26.132  35.407  1.00  0.00    -0.206 F 
ATOM     97  C   UNL A   1      46.499  26.782  35.995  1.00  0.00     0.022 A 
BRANCH  94  98
ATOM     98  S   UNL A   1      48.334  28.646  35.026  1.00  0.00     0.124 S 
ATOM     99  O   UNL A   1      48.096  30.061  35.286  1.00  0.00    -0.237 OA
ATOM    100  O   UNL A   1      49.106  27.931  36.038  1.00  0.00    -0.237 OA
ATOM    101  O   UNL A   1      48.674  28.318  33.643  1.00  0.00    -0.744 OA
ENDBRANCH  94  98
ENDBRANCH  68  91
ENDBRANCH  42  43
ENDBRANCH  34  37
ENDBRANCH  32  33
ENDBRANCH   1  32
TORSDOF 17
ENDMDL
MODEL 3
REMARK VINA RESULT:     -13.0      1.488      1.780
REMARK SMILES C[NH+]1CCC(C(=O)N2C[C@@H](C(=O)NCCCCNC(=O)c3ccc(-c4c5nc(c(-c6cc(S(=O)(=O)[O-])ccc6F)c6ccc([nH]6)c(-c6cc(S(=O)(=O)[O-])ccc6F)c6nc(c(-c7cc(S(=O)(=O)[O-])ccc7F)c7ccc4[nH]7)C=C6)C=C5)cc3)[C@H](c3ccc4c(c3)OCO4)C2)CC1
REMARK SMILES IDX 16 1 15 2 14 3 13 4 11 5 12 6 10 8 8 9 9 10 94 11 84 12 6 13
REMARK SMILES IDX 7 14 5 15 1 16 2 17 3 18 96 19 4 21 95 22 85 23 86 24 90 25
REMARK SMILES IDX 87 26 89 27 88 28 91 29 93 30 92 31 17 32 18 33 19 34 20 36
REMARK SMILES IDX 21 37 22 38 83 39 23 40 82 41 24 42 25 43 26 44 76 45 27 46
REMARK SMILES IDX 81 47 75 48 77 49 28 50 80 51 74 52 73 53 29 55 61 56 41 57
REMARK SMILES IDX 60 58 42 59 45 60 59 61 78 62 43 63 44 64 58 66 79 67 46 68
REMARK SMILES IDX 30 69 31 70 39 71 32 72 38 73 40 74 37 75 33 76 34 77 35 78
REMARK SMILES IDX 36 79 62 80 63 81 71 82 64 83 70 84 72 85 69 86 65 87 66 88
REMARK SMILES IDX 67 89 68 90 47 91 48 92 56 93 49 94 55 95 57 96 54 97 50 98
REMARK SMILES IDX 51 99 52 100 53 101
REMARK H PARENT 13 7 2 20 18 35 77 54 45 65
REMARK Flexibility Score: inf
ROOT
ATOM      1  C   UNL A   1      31.026  32.089  26.201  1.00  0.00     0.023 C 
ENDROOT
BRANCH   1   2
ATOM      2  C   UNL A   1      31.019  30.821  25.344  1.00  0.00     0.023 C 
BRANCH   2   3
ATOM      3  C   UNL A   1      31.956  29.712  25.808  1.00  0.00     0.116 C 
BRANCH   3   4
ATOM      4  N   UNL A   1      33.078  29.487  24.911  1.00  0.00    -0.356 N 
ATOM      5  C   UNL A   1      33.448  28.352  24.248  1.00  0.00     0.225 C 
ATOM      6  O   UNL A   1      34.354  28.426  23.417  1.00  0.00    -0.275 OA
ATOM      7  H   UNL A   1      33.656  30.269  24.759  1.00  0.00     0.163 HD
BRANCH   5   8
ATOM      8  C   UNL A   1      32.754  27.041  24.549  1.00  0.00     0.107 C 
ATOM      9  N   UNL A   1      32.983  24.761  24.824  1.00  0.00    -0.341 N 
ATOM     10  C   UNL A   1      33.768  25.974  24.909  1.00  0.00     0.133 C 
ATOM     11  C   UNL A   1      32.059  24.877  23.696  1.00  0.00     0.128 C 
ATOM     12  C   UNL A   1      32.044  26.387  23.339  1.00  0.00     0.053 C 
BRANCH   9  13
ATOM     13  C   UNL A   1      33.010  23.625  25.591  1.00  0.00     0.226 C 
ATOM     14  O   UNL A   1      32.810  23.703  26.810  1.00  0.00    -0.275 OA
BRANCH  13  15
ATOM     15  C   UNL A   1      33.582  22.311  25.038  1.00  0.00     0.090 C 
ATOM     16  C   UNL A   1      34.367  18.127  24.430  1.00  0.00     0.332 C 
ATOM     17  N   UNL A   1      34.016  19.433  24.980  1.00  0.00    -0.337 N 
ATOM     18  C   UNL A   1      32.865  20.005  24.273  1.00  0.00     0.262 C 
ATOM     19  C   UNL A   1      35.165  20.350  24.943  1.00  0.00     0.262 C 
ATOM     20  H   UNL A   1      33.753  19.301  25.957  1.00  0.00     0.347 HD
ATOM     21  C   UNL A   1      32.425  21.307  24.937  1.00  0.00     0.075 C 
ATOM     22  C   UNL A   1      34.806  21.651  25.669  1.00  0.00     0.075 C 
ENDBRANCH  13  15
ENDBRANCH   9  13
BRANCH  12  23
ATOM     23  C   UNL A   1      30.708  27.058  23.087  1.00  0.00    -0.038 A 
ATOM     24  C   UNL A   1      29.513  26.650  23.725  1.00  0.00     0.008 A 
ATOM     25  C   UNL A   1      30.707  28.252  22.336  1.00  0.00     0.054 A 
ATOM     26  C   UNL A   1      28.355  27.436  23.662  1.00  0.00     0.051 A 
ATOM     27  C   UNL A   1      29.566  29.027  22.333  1.00  0.00     0.166 A 
ATOM     28  C   UNL A   1      28.427  28.635  22.988  1.00  0.00     0.165 A 
ATOM     29  O   UNL A   1      29.459  30.275  21.803  1.00  0.00    -0.454 OA
ATOM     30  O   UNL A   1      27.453  29.582  22.939  1.00  0.00    -0.454 OA
ATOM     31  C   UNL A   1      28.171  30.674  22.323  1.00  0.00     0.468 C 
ENDBRANCH  12  23
ENDBRANCH   5   8
ENDBRANCH   3   4
ENDBRANCH   2   3
ENDBRANCH   1   2
BRANCH   1  32
ATOM     32  C   UNL A   1      32.353  32.451  26.868  1.00  0.00     0.116 C 
BRANCH  32  33
ATOM     33  N   UNL A   1      32.376  33.781  27.457  1.00  0.00    -0.352 N 
ATOM     34  C   UNL A   1      33.310  34.340  28.299  1.00  0.00     0.251 C 
ATOM     35  H   UNL A   1      31.617  34.361  27.221  1.00  0.00     0.163 HD
ATOM     36  O   UNL A   1      33.145  35.487  28.708  1.00  0.00    -0.269 OA
BRANCH  34  37
ATOM     37  C   UNL A   1      34.482  33.554  28.745  1.00  0.00     0.039 A 
ATOM     38  C   UNL A   1      35.759  34.083  28.528  1.00  0.00     0.014 A 
ATOM     39  C   UNL A   1      34.336  32.326  29.394  1.00  0.00     0.014 A 
ATOM     40  C   UNL A   1      36.880  33.429  29.045  1.00  0.00     0.010 A 
ATOM     41  C   UNL A   1      35.449  31.703  29.959  1.00  0.00     0.010 A 
ATOM     42  C   UNL A   1      36.729  32.260  29.809  1.00  0.00    -0.014 A 
BRANCH  42  43
ATOM     43  C   UNL A   1      37.895  31.643  30.498  1.00  0.00     0.031 A 
ATOM     44  C   UNL A   1      38.719  30.588  29.817  1.00  0.00     0.074 A 
ATOM     45  C   UNL A   1      38.157  31.983  31.776  1.00  0.00     0.049 A 
ATOM     46  N   UNL A   1      39.727  29.896  30.283  1.00  0.00    -0.248 NA
ATOM     47  C   UNL A   1      38.340  30.248  28.439  1.00  0.00     0.031 C 
ATOM     48  C   UNL A   1      37.391  32.952  32.565  1.00  0.00     0.029 A 
ATOM     49  N   UNL A   1      39.125  31.541  32.645  1.00  0.00    -0.354 N 
ATOM     50  C   UNL A   1      40.097  29.028  29.262  1.00  0.00     0.074 A 
ATOM     51  C   UNL A   1      39.168  29.249  28.173  1.00  0.00     0.031 C 
ATOM     52  C   UNL A   1      37.923  33.035  33.795  1.00  0.00     0.029 A 
ATOM     53  C   UNL A   1      39.039  32.101  33.899  1.00  0.00     0.049 A 
ATOM     54  H   UNL A   1      39.814  30.885  32.394  1.00  0.00     0.167 HD
ATOM     55  C   UNL A   1      41.127  28.144  29.231  1.00  0.00     0.034 A 
ATOM     56  C   UNL A   1      39.764  31.877  35.013  1.00  0.00     0.034 A 
ATOM     57  C   UNL A   1      42.046  27.940  30.327  1.00  0.00     0.049 A 
ATOM     58  C   UNL A   1      40.899  30.889  34.960  1.00  0.00     0.074 A 
ATOM     59  C   UNL A   1      43.166  27.128  30.374  1.00  0.00     0.029 A 
ATOM     60  N   UNL A   1      41.941  28.540  31.577  1.00  0.00    -0.354 N 
ATOM     61  N   UNL A   1      41.286  30.132  33.959  1.00  0.00    -0.248 NA
ATOM     62  C   UNL A   1      41.702  30.737  36.179  1.00  0.00     0.031 C 
ATOM     63  C   UNL A   1      43.695  27.181  31.668  1.00  0.00     0.029 A 
ATOM     64  C   UNL A   1      42.954  28.086  32.411  1.00  0.00     0.049 A 
ATOM     65  H   UNL A   1      41.250  29.192  31.832  1.00  0.00     0.167 HD
ATOM     66  C   UNL A   1      42.395  29.430  34.423  1.00  0.00     0.074 A 
ATOM     67  C   UNL A   1      42.622  29.866  35.785  1.00  0.00     0.031 C 
ATOM     68  C   UNL A   1      43.159  28.512  33.776  1.00  0.00     0.034 A 
BRANCH  55  69
ATOM     69  C   UNL A   1      41.285  27.308  27.981  1.00  0.00     0.023 A 
ATOM     70  C   UNL A   1      40.890  25.959  27.939  1.00  0.00     0.031 A 
ATOM     71  C   UNL A   1      41.875  27.855  26.828  1.00  0.00     0.131 A 
ATOM     72  C   UNL A   1      41.168  25.181  26.805  1.00  0.00     0.055 A 
ATOM     73  C   UNL A   1      42.070  27.097  25.670  1.00  0.00     0.041 A 
ATOM     74  F   UNL A   1      42.290  29.131  26.811  1.00  0.00    -0.206 F 
ATOM     75  C   UNL A   1      41.733  25.748  25.660  1.00  0.00     0.022 A 
BRANCH  72  76
ATOM     76  S   UNL A   1      40.929  23.386  26.908  1.00  0.00     0.124 S 
ATOM     77  O   UNL A   1      39.500  23.263  26.627  1.00  0.00    -0.237 OA
ATOM     78  O   UNL A   1      41.829  22.888  25.875  1.00  0.00    -0.237 OA
ATOM     79  O   UNL A   1      41.314  23.068  28.282  1.00  0.00    -0.744 OA
ENDBRANCH  72  76
ENDBRANCH  55  69
BRANCH  56  80
ATOM     80  C   UNL A   1      39.424  32.587  36.279  1.00  0.00     0.023 A 
ATOM     81  C   UNL A   1      38.501  32.052  37.190  1.00  0.00     0.031 A 
ATOM     82  C   UNL A   1      40.011  33.829  36.584  1.00  0.00     0.131 A 
ATOM     83  C   UNL A   1      38.164  32.773  38.348  1.00  0.00     0.055 A 
ATOM     84  C   UNL A   1      39.708  34.519  37.758  1.00  0.00     0.041 A 
ATOM     85  F   UNL A   1      40.907  34.378  35.750  1.00  0.00    -0.206 F 
ATOM     86  C   UNL A   1      38.770  33.996  38.643  1.00  0.00     0.022 A 
BRANCH  83  87
ATOM     87  S   UNL A   1      36.871  32.115  39.436  1.00  0.00     0.124 S 
ATOM     88  O   UNL A   1      37.095  30.677  39.329  1.00  0.00    -0.237 OA
ATOM     89  O   UNL A   1      37.215  32.723  40.717  1.00  0.00    -0.237 OA
ATOM     90  O   UNL A   1      35.635  32.603  38.830  1.00  0.00    -0.744 OA
ENDBRANCH  83  87
ENDBRANCH  56  80
BRANCH  68  91
ATOM     91  C   UNL A   1      44.336  27.947  34.535  1.00  0.00     0.023 A 
ATOM     92  C   UNL A   1      44.236  26.761  35.284  1.00  0.00     0.031 A 
ATOM     93  C   UNL A   1      45.574  28.613  34.515  1.00  0.00     0.131 A 
ATOM     94  C   UNL A   1      45.338  26.306  36.025  1.00  0.00     0.055 A 
ATOM     95  C   UNL A   1      46.684  28.125  35.207  1.00  0.00     0.041 A 
ATOM     96  F   UNL A   1      45.727  29.751  33.820  1.00  0.00    -0.206 F 
ATOM     97  C   UNL A   1      46.565  26.972  35.978  1.00  0.00     0.022 A 
BRANCH  94  98
ATOM     98  S   UNL A   1      45.121  24.880  37.125  1.00  0.00     0.124 S 
ATOM     99  O   UNL A   1      44.017  25.316  37.973  1.00  0.00    -0.237 OA
ATOM    100  O   UNL A   1      44.819  23.804  36.186  1.00  0.00    -0.237 OA
ATOM    101  O   UNL A   1      46.414  24.768  37.799  1.00  0.00    -0.744 OA
ENDBRANCH  94  98
ENDBRANCH  68  91
ENDBRANCH  42  43
ENDBRANCH  34  37
ENDBRANCH  32  33
ENDBRANCH   1  32
TORSDOF 17
ENDMDL
