MODEL 1
REMARK VINA RESULT:     -12.0      0.000      0.000
REMARK SMILES COc1ccc(-c2cc(=O)oc3cc(OCC(=O)N[C@@H](C)C(=O)NCCCCNC(=O)c4ccc(-c5c6nc(c(-c7cc(S(=O)(=O)[O-])ccc7F)c7ccc([nH]7)c(-c7cc(S(=O)(=O)[O-])ccc7F)c7nc(c(-c8cc(S(=O)(=O)[O-])ccc8F)c8ccc5[nH]8)C=C7)C=C6)cc4)ccc23)cc1
REMARK SMILES IDX 25 1 24 2 22 3 23 4 20 6 21 7 19 8 17 9 18 10 16 12 15 13
REMARK SMILES IDX 14 14 7 15 8 16 97 17 9 18 12 19 96 20 10 21 11 22 13 23
REMARK SMILES IDX 95 24 6 25 3 26 4 27 99 28 5 29 98 30 2 31 1 32 26 33 27 34
REMARK SMILES IDX 28 35 29 36 30 37 31 39 32 40 33 41 94 42 34 43 93 44 35 45
REMARK SMILES IDX 36 46 37 47 87 48 38 49 92 50 86 51 88 52 39 53 91 54 85 55
REMARK SMILES IDX 84 56 40 58 72 59 52 60 71 61 53 62 56 63 70 64 89 65 54 66
REMARK SMILES IDX 55 67 69 69 90 70 57 71 41 72 42 73 50 74 43 75 49 76 51 77
REMARK SMILES IDX 48 78 44 79 45 80 46 81 47 82 73 83 74 84 82 85 75 86 81 87
REMARK SMILES IDX 83 88 80 89 76 90 77 91 78 92 79 93 58 94 59 95 67 96 60 97
REMARK SMILES IDX 66 98 68 99 65 100 61 101 62 102 63 103 64 104
REMARK H PARENT 24 5 19 11 29 38 88 57 56 68
REMARK Flexibility Score: inf
ROOT
ATOM      1  C   UNL A   1      33.926  28.699  22.838  1.00  0.00     0.116 C 
ENDROOT
BRANCH   1   2
ATOM      2  N   UNL A   1      32.566  29.000  22.414  1.00  0.00    -0.354 N 
ATOM      3  C   UNL A   1      31.458  28.198  22.354  1.00  0.00     0.242 C 
ATOM      4  O   UNL A   1      30.368  28.718  22.107  1.00  0.00    -0.273 OA
ATOM      5  H   UNL A   1      32.419  29.929  22.124  1.00  0.00     0.163 HD
BRANCH   3   6
ATOM      6  C   UNL A   1      31.560  26.704  22.690  1.00  0.00     0.168 C 
ATOM      7  C   UNL A   1      31.785  25.908  21.400  1.00  0.00     0.041 C 
BRANCH   6   8
ATOM      8  N   UNL A   1      30.370  26.307  23.454  1.00  0.00    -0.342 N 
ATOM      9  C   UNL A   1      30.257  25.975  24.773  1.00  0.00     0.258 C 
ATOM     10  O   UNL A   1      29.136  25.797  25.250  1.00  0.00    -0.271 OA
ATOM     11  H   UNL A   1      29.531  26.277  22.940  1.00  0.00     0.164 HD
BRANCH   9  12
ATOM     12  C   UNL A   1      31.508  25.842  25.615  1.00  0.00     0.329 C 
BRANCH  12  13
ATOM     13  O   UNL A   1      31.792  24.454  25.628  1.00  0.00    -0.484 OA
BRANCH  13  14
ATOM     14  C   UNL A   1      32.864  24.001  24.924  1.00  0.00     0.123 A 
ATOM     15  C   UNL A   1      35.391  20.957  24.605  1.00  0.00    -0.000 A 
ATOM     16  C   UNL A   1      36.532  20.900  25.308  1.00  0.00     0.103 A 
ATOM     17  C   UNL A   1      34.890  22.302  24.236  1.00  0.00     0.026 A 
ATOM     18  C   UNL A   1      37.176  22.149  25.769  1.00  0.00     0.336 A 
ATOM     19  C   UNL A   1      35.120  23.258  25.212  1.00  0.00     0.142 A 
ATOM     20  C   UNL A   1      33.782  22.409  23.386  1.00  0.00     0.016 A 
ATOM     21  O   UNL A   1      38.348  22.166  26.128  1.00  0.00    -0.246 OA
ATOM     22  O   UNL A   1      36.316  23.235  25.944  1.00  0.00    -0.423 OA
ATOM     23  C   UNL A   1      34.090  24.096  25.592  1.00  0.00     0.094 A 
ATOM     24  C   UNL A   1      32.740  23.252  23.754  1.00  0.00     0.047 A 
BRANCH  15  25
ATOM     25  C   UNL A   1      34.419  19.845  24.763  1.00  0.00    -0.017 A 
ATOM     26  C   UNL A   1      33.114  17.507  25.518  1.00  0.00     0.118 A 
ATOM     27  C   UNL A   1      32.585  18.752  25.872  1.00  0.00     0.047 A 
ATOM     28  C   UNL A   1      34.215  17.416  24.680  1.00  0.00     0.047 A 
ATOM     29  C   UNL A   1      33.247  19.931  25.507  1.00  0.00     0.012 A 
ATOM     30  C   UNL A   1      34.859  18.583  24.299  1.00  0.00     0.012 A 
BRANCH  26  31
ATOM     31  O   UNL A   1      32.532  16.373  26.017  1.00  0.00    -0.497 OA
ATOM     32  C   UNL A   1      32.887  15.246  25.205  1.00  0.00     0.278 C 
ENDBRANCH  26  31
ENDBRANCH  15  25
ENDBRANCH  13  14
ENDBRANCH  12  13
ENDBRANCH   9  12
ENDBRANCH   6   8
ENDBRANCH   3   6
ENDBRANCH   1   2
BRANCH   1  33
ATOM     33  C   UNL A   1      33.991  28.296  24.308  1.00  0.00     0.023 C 
BRANCH  33  34
ATOM     34  C   UNL A   1      33.081  29.111  25.225  1.00  0.00     0.023 C 
BRANCH  34  35
ATOM     35  C   UNL A   1      33.590  29.272  26.651  1.00  0.00     0.116 C 
BRANCH  35  36
ATOM     36  N   UNL A   1      33.676  30.663  27.070  1.00  0.00    -0.352 N 
ATOM     37  C   UNL A   1      34.661  31.255  27.827  1.00  0.00     0.251 C 
ATOM     38  H   UNL A   1      32.943  31.250  26.776  1.00  0.00     0.163 HD
ATOM     39  O   UNL A   1      34.546  32.416  28.205  1.00  0.00    -0.269 OA
BRANCH  37  40
ATOM     40  C   UNL A   1      35.834  30.444  28.203  1.00  0.00     0.039 A 
ATOM     41  C   UNL A   1      36.953  30.439  27.369  1.00  0.00     0.014 A 
ATOM     42  C   UNL A   1      35.854  29.782  29.434  1.00  0.00     0.014 A 
ATOM     43  C   UNL A   1      38.131  29.833  27.808  1.00  0.00     0.010 A 
ATOM     44  C   UNL A   1      37.046  29.237  29.894  1.00  0.00     0.010 A 
ATOM     45  C   UNL A   1      38.199  29.267  29.091  1.00  0.00    -0.014 A 
BRANCH  45  46
ATOM     46  C   UNL A   1      39.460  28.698  29.633  1.00  0.00     0.031 A 
ATOM     47  C   UNL A   1      40.173  29.414  30.744  1.00  0.00     0.074 A 
ATOM     48  C   UNL A   1      40.011  27.612  29.057  1.00  0.00     0.049 A 
ATOM     49  N   UNL A   1      41.365  29.203  31.237  1.00  0.00    -0.248 NA
ATOM     50  C   UNL A   1      39.458  30.547  31.354  1.00  0.00     0.031 C 
ATOM     51  C   UNL A   1      39.425  26.846  27.955  1.00  0.00     0.029 A 
ATOM     52  N   UNL A   1      41.202  26.976  29.304  1.00  0.00    -0.354 N 
ATOM     53  C   UNL A   1      41.558  30.195  32.192  1.00  0.00     0.074 A 
ATOM     54  C   UNL A   1      40.377  31.032  32.174  1.00  0.00     0.031 C 
ATOM     55  C   UNL A   1      40.252  25.840  27.629  1.00  0.00     0.029 A 
ATOM     56  C   UNL A   1      41.450  25.919  28.459  1.00  0.00     0.049 A 
ATOM     57  H   UNL A   1      41.821  27.251  30.018  1.00  0.00     0.167 HD
ATOM     58  C   UNL A   1      42.618  30.379  33.018  1.00  0.00     0.034 A 
ATOM     59  C   UNL A   1      42.530  25.120  28.351  1.00  0.00     0.034 A 
ATOM     60  C   UNL A   1      43.773  29.517  33.042  1.00  0.00     0.049 A 
ATOM     61  C   UNL A   1      43.706  25.355  29.266  1.00  0.00     0.074 A 
ATOM     62  C   UNL A   1      44.872  29.568  33.881  1.00  0.00     0.029 A 
ATOM     63  N   UNL A   1      43.980  28.445  32.182  1.00  0.00    -0.354 N 
ATOM     64  N   UNL A   1      43.862  26.278  30.186  1.00  0.00    -0.248 NA
ATOM     65  C   UNL A   1      44.848  24.442  29.128  1.00  0.00     0.031 C 
ATOM     66  C   UNL A   1      45.767  28.566  33.493  1.00  0.00     0.029 A 
ATOM     67  C   UNL A   1      45.199  27.845  32.455  1.00  0.00     0.049 A 
ATOM     68  H   UNL A   1      43.352  28.153  31.482  1.00  0.00     0.167 HD
ATOM     69  C   UNL A   1      45.106  26.031  30.762  1.00  0.00     0.074 A 
ATOM     70  C   UNL A   1      45.657  24.876  30.083  1.00  0.00     0.031 C 
ATOM     71  C   UNL A   1      45.731  26.693  31.768  1.00  0.00     0.034 A 
BRANCH  58  72
ATOM     72  C   UNL A   1      42.582  31.577  33.934  1.00  0.00     0.023 A 
ATOM     73  C   UNL A   1      42.105  31.485  35.253  1.00  0.00     0.031 A 
ATOM     74  C   UNL A   1      42.991  32.840  33.469  1.00  0.00     0.131 A 
ATOM     75  C   UNL A   1      41.972  32.643  36.032  1.00  0.00     0.055 A 
ATOM     76  C   UNL A   1      42.935  33.975  34.278  1.00  0.00     0.041 A 
ATOM     77  F   UNL A   1      43.437  32.993  32.211  1.00  0.00    -0.206 F 
ATOM     78  C   UNL A   1      42.407  33.885  35.563  1.00  0.00     0.022 A 
BRANCH  75  79
ATOM     79  S   UNL A   1      41.082  32.527  37.608  1.00  0.00     0.124 S 
ATOM     80  O   UNL A   1      41.025  33.929  38.017  1.00  0.00    -0.237 OA
ATOM     81  O   UNL A   1      39.815  31.925  37.211  1.00  0.00    -0.237 OA
ATOM     82  O   UNL A   1      41.946  31.681  38.428  1.00  0.00    -0.744 OA
ENDBRANCH  75  79
ENDBRANCH  58  72
BRANCH  59  83
ATOM     83  C   UNL A   1      42.568  24.034  27.332  1.00  0.00     0.023 A 
ATOM     84  C   UNL A   1      41.958  22.795  27.579  1.00  0.00     0.031 A 
ATOM     85  C   UNL A   1      43.248  24.204  26.113  1.00  0.00     0.131 A 
ATOM     86  C   UNL A   1      42.072  21.759  26.639  1.00  0.00     0.055 A 
ATOM     87  C   UNL A   1      43.320  23.186  25.161  1.00  0.00     0.041 A 
ATOM     88  F   UNL A   1      43.843  25.373  25.824  1.00  0.00    -0.206 F 
ATOM     89  C   UNL A   1      42.740  21.949  25.427  1.00  0.00     0.022 A 
BRANCH  86  90
ATOM     90  S   UNL A   1      41.396  20.128  27.059  1.00  0.00     0.124 S 
ATOM     91  O   UNL A   1      40.734  20.400  28.329  1.00  0.00    -0.237 OA
ATOM     92  O   UNL A   1      40.522  19.862  25.921  1.00  0.00    -0.237 OA
ATOM     93  O   UNL A   1      42.583  19.280  27.141  1.00  0.00    -0.744 OA
ENDBRANCH  86  90
ENDBRANCH  59  83
BRANCH  71  94
ATOM     94  C   UNL A   1      47.051  26.140  32.237  1.00  0.00     0.023 A 
ATOM     95  C   UNL A   1      48.271  26.556  31.677  1.00  0.00     0.031 A 
ATOM     96  C   UNL A   1      47.083  25.193  33.275  1.00  0.00     0.131 A 
ATOM     97  C   UNL A   1      49.472  25.996  32.135  1.00  0.00     0.055 A 
ATOM     98  C   UNL A   1      48.284  24.674  33.760  1.00  0.00     0.041 A 
ATOM     99  F   UNL A   1      45.944  24.764  33.843  1.00  0.00    -0.206 F 
ATOM    100  C   UNL A   1      49.487  25.071  33.183  1.00  0.00     0.022 A 
BRANCH  97 101
ATOM    101  S   UNL A   1      51.022  26.456  31.312  1.00  0.00     0.124 S 
ATOM    102  O   UNL A   1      50.792  27.862  30.998  1.00  0.00    -0.237 OA
ATOM    103  O   UNL A   1      52.018  26.188  32.344  1.00  0.00    -0.237 OA
ATOM    104  O   UNL A   1      51.075  25.562  30.156  1.00  0.00    -0.744 OA
ENDBRANCH  97 101
ENDBRANCH  71  94
ENDBRANCH  45  46
ENDBRANCH  37  40
ENDBRANCH  35  36
ENDBRANCH  34  35
ENDBRANCH  33  34
ENDBRANCH   1  33
TORSDOF 20
ENDMDL
MODEL 2
REMARK VINA RESULT:     -11.8      4.065      9.781
REMARK SMILES COc1ccc(-c2cc(=O)oc3cc(OCC(=O)N[C@@H](C)C(=O)NCCCCNC(=O)c4ccc(-c5c6nc(c(-c7cc(S(=O)(=O)[O-])ccc7F)c7ccc([nH]7)c(-c7cc(S(=O)(=O)[O-])ccc7F)c7nc(c(-c8cc(S(=O)(=O)[O-])ccc8F)c8ccc5[nH]8)C=C7)C=C6)cc4)ccc23)cc1
REMARK SMILES IDX 25 1 24 2 22 3 23 4 20 6 21 7 19 8 17 9 18 10 16 12 15 13
REMARK SMILES IDX 14 14 7 15 8 16 97 17 9 18 12 19 96 20 10 21 11 22 13 23
REMARK SMILES IDX 95 24 6 25 3 26 4 27 99 28 5 29 98 30 2 31 1 32 26 33 27 34
REMARK SMILES IDX 28 35 29 36 30 37 31 39 32 40 33 41 94 42 34 43 93 44 35 45
REMARK SMILES IDX 36 46 37 47 87 48 38 49 92 50 86 51 88 52 39 53 91 54 85 55
REMARK SMILES IDX 84 56 40 58 72 59 52 60 71 61 53 62 56 63 70 64 89 65 54 66
REMARK SMILES IDX 55 67 69 69 90 70 57 71 41 72 42 73 50 74 43 75 49 76 51 77
REMARK SMILES IDX 48 78 44 79 45 80 46 81 47 82 73 83 74 84 82 85 75 86 81 87
REMARK SMILES IDX 83 88 80 89 76 90 77 91 78 92 79 93 58 94 59 95 67 96 60 97
REMARK SMILES IDX 66 98 68 99 65 100 61 101 62 102 63 103 64 104
REMARK H PARENT 24 5 19 11 29 38 88 57 56 68
REMARK Flexibility Score: inf
ROOT
ATOM      1  C   UNL A   1      35.240  20.802  25.810  1.00  0.00     0.116 C 
ENDROOT
BRANCH   1   2
ATOM      2  N   UNL A   1      34.018  20.089  25.471  1.00  0.00    -0.354 N 
ATOM      3  C   UNL A   1      32.853  20.542  24.912  1.00  0.00     0.242 C 
ATOM      4  O   UNL A   1      32.004  19.715  24.571  1.00  0.00    -0.273 OA
ATOM      5  H   UNL A   1      34.030  19.126  25.676  1.00  0.00     0.163 HD
BRANCH   3   6
ATOM      6  C   UNL A   1      32.658  22.037  24.622  1.00  0.00     0.168 C 
ATOM      7  C   UNL A   1      31.369  22.519  25.294  1.00  0.00     0.041 C 
BRANCH   6   8
ATOM      8  N   UNL A   1      32.710  22.249  23.170  1.00  0.00    -0.342 N 
ATOM      9  C   UNL A   1      33.388  23.192  22.455  1.00  0.00     0.258 C 
ATOM     10  O   UNL A   1      33.400  23.115  21.225  1.00  0.00    -0.271 OA
ATOM     11  H   UNL A   1      32.175  21.618  22.634  1.00  0.00     0.164 HD
BRANCH   9  12
ATOM     12  C   UNL A   1      34.115  24.299  23.187  1.00  0.00     0.329 C 
BRANCH  12  13
ATOM     13  O   UNL A   1      33.300  25.445  23.014  1.00  0.00    -0.484 OA
BRANCH  13  14
ATOM     14  C   UNL A   1      32.762  26.036  24.115  1.00  0.00     0.123 A 
ATOM     15  C   UNL A   1      31.505  29.515  25.552  1.00  0.00    -0.000 A 
ATOM     16  C   UNL A   1      32.328  30.366  26.183  1.00  0.00     0.103 A 
ATOM     17  C   UNL A   1      31.807  28.069  25.669  1.00  0.00     0.026 A 
ATOM     18  C   UNL A   1      33.535  29.852  26.866  1.00  0.00     0.336 A 
ATOM     19  C   UNL A   1      33.164  27.794  25.687  1.00  0.00     0.142 A 
ATOM     20  C   UNL A   1      30.902  27.137  25.147  1.00  0.00     0.016 A 
ATOM     21  O   UNL A   1      34.130  30.527  27.699  1.00  0.00    -0.246 OA
ATOM     22  O   UNL A   1      34.044  28.655  26.361  1.00  0.00    -0.423 OA
ATOM     23  C   UNL A   1      33.661  26.792  24.876  1.00  0.00     0.094 A 
ATOM     24  C   UNL A   1      31.387  26.121  24.333  1.00  0.00     0.047 A 
BRANCH  15  25
ATOM     25  C   UNL A   1      30.786  30.005  24.348  1.00  0.00    -0.017 A 
ATOM     26  C   UNL A   1      29.160  30.243  22.104  1.00  0.00     0.118 A 
ATOM     27  C   UNL A   1      28.892  31.001  23.248  1.00  0.00     0.047 A 
ATOM     28  C   UNL A   1      30.305  29.466  22.019  1.00  0.00     0.047 A 
ATOM     29  C   UNL A   1      29.700  30.874  24.385  1.00  0.00     0.012 A 
ATOM     30  C   UNL A   1      31.118  29.355  23.137  1.00  0.00     0.012 A 
BRANCH  26  31
ATOM     31  O   UNL A   1      28.268  30.273  21.065  1.00  0.00    -0.497 OA
ATOM     32  C   UNL A   1      28.070  31.625  20.633  1.00  0.00     0.278 C 
ENDBRANCH  26  31
ENDBRANCH  15  25
ENDBRANCH  13  14
ENDBRANCH  12  13
ENDBRANCH   9  12
ENDBRANCH   6   8
ENDBRANCH   3   6
ENDBRANCH   1   2
BRANCH   1  33
ATOM     33  C   UNL A   1      36.166  20.956  24.607  1.00  0.00     0.023 C 
BRANCH  33  34
ATOM     34  C   UNL A   1      36.732  22.362  24.423  1.00  0.00     0.023 C 
BRANCH  34  35
ATOM     35  C   UNL A   1      37.409  22.943  25.657  1.00  0.00     0.116 C 
BRANCH  35  36
ATOM     36  N   UNL A   1      38.551  22.158  26.102  1.00  0.00    -0.352 N 
ATOM     37  C   UNL A   1      39.702  22.611  26.705  1.00  0.00     0.251 C 
ATOM     38  H   UNL A   1      38.493  21.186  25.954  1.00  0.00     0.163 HD
ATOM     39  O   UNL A   1      40.637  21.848  26.921  1.00  0.00    -0.269 OA
BRANCH  37  40
ATOM     40  C   UNL A   1      39.794  24.044  27.043  1.00  0.00     0.039 A 
ATOM     41  C   UNL A   1      39.612  24.442  28.368  1.00  0.00     0.014 A 
ATOM     42  C   UNL A   1      40.167  24.966  26.062  1.00  0.00     0.014 A 
ATOM     43  C   UNL A   1      39.885  25.762  28.730  1.00  0.00     0.010 A 
ATOM     44  C   UNL A   1      40.501  26.261  26.437  1.00  0.00     0.010 A 
ATOM     45  C   UNL A   1      40.374  26.669  27.776  1.00  0.00    -0.014 A 
BRANCH  45  46
ATOM     46  C   UNL A   1      40.768  28.055  28.139  1.00  0.00     0.031 A 
ATOM     47  C   UNL A   1      42.223  28.425  28.160  1.00  0.00     0.074 A 
ATOM     48  C   UNL A   1      39.833  28.934  28.551  1.00  0.00     0.049 A 
ATOM     49  N   UNL A   1      42.798  29.505  28.619  1.00  0.00    -0.248 NA
ATOM     50  C   UNL A   1      43.158  27.422  27.626  1.00  0.00     0.031 C 
ATOM     51  C   UNL A   1      38.392  28.682  28.598  1.00  0.00     0.029 A 
ATOM     52  N   UNL A   1      39.960  30.214  29.032  1.00  0.00    -0.354 N 
ATOM     53  C   UNL A   1      44.164  29.301  28.460  1.00  0.00     0.074 A 
ATOM     54  C   UNL A   1      44.329  27.975  27.904  1.00  0.00     0.031 C 
ATOM     55  C   UNL A   1      37.769  29.773  29.070  1.00  0.00     0.029 A 
ATOM     56  C   UNL A   1      38.767  30.783  29.410  1.00  0.00     0.049 A 
ATOM     57  H   UNL A   1      40.825  30.680  29.100  1.00  0.00     0.167 HD
ATOM     58  C   UNL A   1      45.185  30.150  28.739  1.00  0.00     0.034 A 
ATOM     59  C   UNL A   1      38.509  31.974  29.987  1.00  0.00     0.034 A 
ATOM     60  C   UNL A   1      44.998  31.479  29.264  1.00  0.00     0.049 A 
ATOM     61  C   UNL A   1      39.660  32.894  30.307  1.00  0.00     0.074 A 
ATOM     62  C   UNL A   1      45.953  32.448  29.520  1.00  0.00     0.029 A 
ATOM     63  N   UNL A   1      43.771  32.027  29.619  1.00  0.00    -0.354 N 
ATOM     64  N   UNL A   1      40.946  32.700  30.122  1.00  0.00    -0.248 NA
ATOM     65  C   UNL A   1      39.327  34.191  30.910  1.00  0.00     0.031 C 
ATOM     66  C   UNL A   1      45.312  33.558  30.081  1.00  0.00     0.029 A 
ATOM     67  C   UNL A   1      43.949  33.309  30.114  1.00  0.00     0.049 A 
ATOM     68  H   UNL A   1      42.903  31.572  29.530  1.00  0.00     0.167 HD
ATOM     69  C   UNL A   1      41.570  33.868  30.554  1.00  0.00     0.074 A 
ATOM     70  C   UNL A   1      40.520  34.758  31.009  1.00  0.00     0.031 C 
ATOM     71  C   UNL A   1      42.889  34.181  30.562  1.00  0.00     0.034 A 
BRANCH  58  72
ATOM     72  C   UNL A   1      46.587  29.645  28.508  1.00  0.00     0.023 A 
ATOM     73  C   UNL A   1      47.300  28.958  29.506  1.00  0.00     0.031 A 
ATOM     74  C   UNL A   1      47.238  29.890  27.285  1.00  0.00     0.131 A 
ATOM     75  C   UNL A   1      48.643  28.615  29.296  1.00  0.00     0.055 A 
ATOM     76  C   UNL A   1      48.548  29.469  27.052  1.00  0.00     0.041 A 
ATOM     77  F   UNL A   1      46.614  30.559  26.302  1.00  0.00    -0.206 F 
ATOM     78  C   UNL A   1      49.265  28.843  28.066  1.00  0.00     0.022 A 
BRANCH  75  79
ATOM     79  S   UNL A   1      49.608  28.002  30.704  1.00  0.00     0.124 S 
ATOM     80  O   UNL A   1      50.069  26.709  30.204  1.00  0.00    -0.237 OA
ATOM     81  O   UNL A   1      50.630  29.031  30.857  1.00  0.00    -0.237 OA
ATOM     82  O   UNL A   1      48.628  27.929  31.786  1.00  0.00    -0.744 OA
ENDBRANCH  75  79
ENDBRANCH  58  72
BRANCH  59  83
ATOM     83  C   UNL A   1      37.111  32.366  30.320  1.00  0.00     0.023 A 
ATOM     84  C   UNL A   1      36.308  33.031  29.381  1.00  0.00     0.031 A 
ATOM     85  C   UNL A   1      36.569  32.116  31.593  1.00  0.00     0.131 A 
ATOM     86  C   UNL A   1      35.022  33.462  29.740  1.00  0.00     0.055 A 
ATOM     87  C   UNL A   1      35.272  32.506  31.931  1.00  0.00     0.041 A 
ATOM     88  F   UNL A   1      37.293  31.477  32.526  1.00  0.00    -0.206 F 
ATOM     89  C   UNL A   1      34.494  33.194  31.005  1.00  0.00     0.022 A 
BRANCH  86  90
ATOM     90  S   UNL A   1      34.072  34.446  28.548  1.00  0.00     0.124 S 
ATOM     91  O   UNL A   1      34.810  35.704  28.547  1.00  0.00    -0.237 OA
ATOM     92  O   UNL A   1      34.178  33.638  27.337  1.00  0.00    -0.237 OA
ATOM     93  O   UNL A   1      32.738  34.503  29.141  1.00  0.00    -0.744 OA
ENDBRANCH  86  90
ENDBRANCH  59  83
BRANCH  71  94
ATOM     94  C   UNL A   1      43.264  35.567  31.018  1.00  0.00     0.023 A 
ATOM     95  C   UNL A   1      43.443  36.624  30.110  1.00  0.00     0.031 A 
ATOM     96  C   UNL A   1      43.427  35.831  32.390  1.00  0.00     0.131 A 
ATOM     97  C   UNL A   1      43.811  37.892  30.584  1.00  0.00     0.055 A 
ATOM     98  C   UNL A   1      43.747  37.105  32.859  1.00  0.00     0.041 A 
ATOM     99  F   UNL A   1      43.267  34.854  33.297  1.00  0.00    -0.206 F 
ATOM    100  C   UNL A   1      43.949  38.142  31.953  1.00  0.00     0.022 A 
BRANCH  97 101
ATOM    101  S   UNL A   1      44.158  39.207  29.384  1.00  0.00     0.124 S 
ATOM    102  O   UNL A   1      43.526  38.689  28.175  1.00  0.00    -0.237 OA
ATOM    103  O   UNL A   1      43.513  40.366  29.993  1.00  0.00    -0.237 OA
ATOM    104  O   UNL A   1      45.619  39.262  29.347  1.00  0.00    -0.744 OA
ENDBRANCH  97 101
ENDBRANCH  71  94
ENDBRANCH  45  46
ENDBRANCH  37  40
ENDBRANCH  35  36
ENDBRANCH  34  35
ENDBRANCH  33  34
ENDBRANCH   1  33
TORSDOF 20
ENDMDL
MODEL 3
REMARK VINA RESULT:     -11.7      4.564      8.760
REMARK SMILES COc1ccc(-c2cc(=O)oc3cc(OCC(=O)N[C@@H](C)C(=O)NCCCCNC(=O)c4ccc(-c5c6nc(c(-c7cc(S(=O)(=O)[O-])ccc7F)c7ccc([nH]7)c(-c7cc(S(=O)(=O)[O-])ccc7F)c7nc(c(-c8cc(S(=O)(=O)[O-])ccc8F)c8ccc5[nH]8)C=C7)C=C6)cc4)ccc23)cc1
REMARK SMILES IDX 25 1 24 2 22 3 23 4 20 6 21 7 19 8 17 9 18 10 16 12 15 13
REMARK SMILES IDX 14 14 7 15 8 16 97 17 9 18 12 19 96 20 10 21 11 22 13 23
REMARK SMILES IDX 95 24 6 25 3 26 4 27 99 28 5 29 98 30 2 31 1 32 26 33 27 34
REMARK SMILES IDX 28 35 29 36 30 37 31 39 32 40 33 41 94 42 34 43 93 44 35 45
REMARK SMILES IDX 36 46 37 47 87 48 38 49 92 50 86 51 88 52 39 53 91 54 85 55
REMARK SMILES IDX 84 56 40 58 72 59 52 60 71 61 53 62 56 63 70 64 89 65 54 66
REMARK SMILES IDX 55 67 69 69 90 70 57 71 41 72 42 73 50 74 43 75 49 76 51 77
REMARK SMILES IDX 48 78 44 79 45 80 46 81 47 82 73 83 74 84 82 85 75 86 81 87
REMARK SMILES IDX 83 88 80 89 76 90 77 91 78 92 79 93 58 94 59 95 67 96 60 97
REMARK SMILES IDX 66 98 68 99 65 100 61 101 62 102 63 103 64 104
REMARK H PARENT 24 5 19 11 29 38 88 57 56 68
REMARK Flexibility Score: inf
ROOT
ATOM      1  C   UNL A   1      35.372  20.352  24.934  1.00  0.00     0.116 C 
ENDROOT
BRANCH   1   2
ATOM      2  N   UNL A   1      34.443  19.240  25.072  1.00  0.00    -0.354 N 
ATOM      3  C   UNL A   1      33.086  19.236  25.248  1.00  0.00     0.242 C 
ATOM      4  O   UNL A   1      32.487  18.161  25.184  1.00  0.00    -0.273 OA
ATOM      5  H   UNL A   1      34.857  18.348  25.033  1.00  0.00     0.163 HD
BRANCH   3   6
ATOM      6  C   UNL A   1      32.319  20.556  25.417  1.00  0.00     0.168 C 
ATOM      7  C   UNL A   1      32.367  21.342  24.104  1.00  0.00     0.041 C 
BRANCH   6   8
ATOM      8  N   UNL A   1      32.858  21.272  26.581  1.00  0.00    -0.342 N 
ATOM      9  C   UNL A   1      32.312  22.296  27.298  1.00  0.00     0.258 C 
ATOM     10  O   UNL A   1      32.876  22.671  28.327  1.00  0.00    -0.271 OA
ATOM     11  H   UNL A   1      33.743  20.968  26.888  1.00  0.00     0.164 HD
BRANCH   9  12
ATOM     12  C   UNL A   1      31.028  22.938  26.818  1.00  0.00     0.329 C 
BRANCH  12  13
ATOM     13  O   UNL A   1      31.205  24.324  27.053  1.00  0.00    -0.484 OA
BRANCH  13  14
ATOM     14  C   UNL A   1      31.988  25.035  26.197  1.00  0.00     0.123 A 
ATOM     15  C   UNL A   1      31.896  27.205  22.875  1.00  0.00    -0.000 A 
ATOM     16  C   UNL A   1      32.031  26.655  21.660  1.00  0.00     0.103 A 
ATOM     17  C   UNL A   1      32.595  26.541  24.000  1.00  0.00     0.026 A 
ATOM     18  C   UNL A   1      32.765  25.380  21.506  1.00  0.00     0.336 A 
ATOM     19  C   UNL A   1      32.616  25.160  23.892  1.00  0.00     0.142 A 
ATOM     20  C   UNL A   1      32.599  27.153  25.260  1.00  0.00     0.016 A 
ATOM     21  O   UNL A   1      33.178  25.011  20.412  1.00  0.00    -0.246 OA
ATOM     22  O   UNL A   1      32.781  24.560  22.635  1.00  0.00    -0.423 OA
ATOM     23  C   UNL A   1      32.274  24.392  24.988  1.00  0.00     0.094 A 
ATOM     24  C   UNL A   1      32.261  26.392  26.372  1.00  0.00     0.047 A 
BRANCH  15  25
ATOM     25  C   UNL A   1      30.662  27.984  23.154  1.00  0.00    -0.017 A 
ATOM     26  C   UNL A   1      28.377  29.558  22.950  1.00  0.00     0.118 A 
ATOM     27  C   UNL A   1      28.273  28.215  23.324  1.00  0.00     0.047 A 
ATOM     28  C   UNL A   1      29.618  30.161  22.805  1.00  0.00     0.047 A 
ATOM     29  C   UNL A   1      29.419  27.415  23.413  1.00  0.00     0.012 A 
ATOM     30  C   UNL A   1      30.755  29.375  22.915  1.00  0.00     0.012 A 
BRANCH  26  31
ATOM     31  O   UNL A   1      27.233  30.274  22.722  1.00  0.00    -0.497 OA
ATOM     32  C   UNL A   1      27.257  31.487  23.485  1.00  0.00     0.278 C 
ENDBRANCH  26  31
ENDBRANCH  15  25
ENDBRANCH  13  14
ENDBRANCH  12  13
ENDBRANCH   9  12
ENDBRANCH   6   8
ENDBRANCH   3   6
ENDBRANCH   1   2
BRANCH   1  33
ATOM     33  C   UNL A   1      36.826  19.891  24.978  1.00  0.00     0.023 C 
BRANCH  33  34
ATOM     34  C   UNL A   1      37.848  21.018  24.847  1.00  0.00     0.023 C 
BRANCH  34  35
ATOM     35  C   UNL A   1      38.936  21.021  25.913  1.00  0.00     0.116 C 
BRANCH  35  36
ATOM     36  N   UNL A   1      39.767  19.826  25.880  1.00  0.00    -0.352 N 
ATOM     37  C   UNL A   1      41.131  19.744  26.042  1.00  0.00     0.251 C 
ATOM     38  H   UNL A   1      39.296  18.975  25.724  1.00  0.00     0.163 HD
ATOM     39  O   UNL A   1      41.718  18.681  25.873  1.00  0.00    -0.269 OA
BRANCH  37  40
ATOM     40  C   UNL A   1      41.868  20.976  26.381  1.00  0.00     0.039 A 
ATOM     41  C   UNL A   1      42.171  21.888  25.369  1.00  0.00     0.014 A 
ATOM     42  C   UNL A   1      42.156  21.266  27.718  1.00  0.00     0.014 A 
ATOM     43  C   UNL A   1      42.694  23.137  25.707  1.00  0.00     0.010 A 
ATOM     44  C   UNL A   1      42.615  22.533  28.055  1.00  0.00     0.010 A 
ATOM     45  C   UNL A   1      42.878  23.484  27.055  1.00  0.00    -0.014 A 
BRANCH  45  46
ATOM     46  C   UNL A   1      43.341  24.836  27.462  1.00  0.00     0.031 A 
ATOM     47  C   UNL A   1      42.361  25.797  28.072  1.00  0.00     0.074 A 
ATOM     48  C   UNL A   1      44.600  25.229  27.182  1.00  0.00     0.049 A 
ATOM     49  N   UNL A   1      42.499  27.072  28.326  1.00  0.00    -0.248 NA
ATOM     50  C   UNL A   1      41.035  25.253  28.402  1.00  0.00     0.031 C 
ATOM     51  C   UNL A   1      45.633  24.393  26.569  1.00  0.00     0.029 A 
ATOM     52  N   UNL A   1      45.217  26.442  27.358  1.00  0.00    -0.354 N 
ATOM     53  C   UNL A   1      41.267  27.492  28.817  1.00  0.00     0.074 A 
ATOM     54  C   UNL A   1      40.386  26.344  28.779  1.00  0.00     0.031 C 
ATOM     55  C   UNL A   1      46.757  25.114  26.430  1.00  0.00     0.029 A 
ATOM     56  C   UNL A   1      46.511  26.476  26.892  1.00  0.00     0.049 A 
ATOM     57  H   UNL A   1      44.775  27.216  27.778  1.00  0.00     0.167 HD
ATOM     58  C   UNL A   1      40.911  28.720  29.270  1.00  0.00     0.034 A 
ATOM     59  C   UNL A   1      47.390  27.496  26.824  1.00  0.00     0.034 A 
ATOM     60  C   UNL A   1      41.813  29.843  29.328  1.00  0.00     0.049 A 
ATOM     61  C   UNL A   1      46.967  28.858  27.316  1.00  0.00     0.074 A 
ATOM     62  C   UNL A   1      41.580  31.111  29.830  1.00  0.00     0.029 A 
ATOM     63  N   UNL A   1      43.122  29.834  28.863  1.00  0.00    -0.354 N 
ATOM     64  N   UNL A   1      45.808  29.234  27.806  1.00  0.00    -0.248 NA
ATOM     65  C   UNL A   1      47.968  29.931  27.246  1.00  0.00     0.031 C 
ATOM     66  C   UNL A   1      42.727  31.884  29.618  1.00  0.00     0.029 A 
ATOM     67  C   UNL A   1      43.700  31.081  29.043  1.00  0.00     0.049 A 
ATOM     68  H   UNL A   1      43.574  29.056  28.463  1.00  0.00     0.167 HD
ATOM     69  C   UNL A   1      45.956  30.578  28.137  1.00  0.00     0.074 A 
ATOM     70  C   UNL A   1      47.313  30.947  27.788  1.00  0.00     0.031 C 
ATOM     71  C   UNL A   1      45.055  31.428  28.690  1.00  0.00     0.034 A 
BRANCH  58  72
ATOM     72  C   UNL A   1      39.480  28.908  29.706  1.00  0.00     0.023 A 
ATOM     73  C   UNL A   1      38.515  29.474  28.855  1.00  0.00     0.031 A 
ATOM     74  C   UNL A   1      39.081  28.554  31.008  1.00  0.00     0.131 A 
ATOM     75  C   UNL A   1      37.228  29.746  29.338  1.00  0.00     0.055 A 
ATOM     76  C   UNL A   1      37.774  28.749  31.455  1.00  0.00     0.041 A 
ATOM     77  F   UNL A   1      39.963  28.027  31.873  1.00  0.00    -0.206 F 
ATOM     78  C   UNL A   1      36.842  29.364  30.625  1.00  0.00     0.022 A 
BRANCH  75  79
ATOM     79  S   UNL A   1      36.112  30.741  28.311  1.00  0.00     0.124 S 
ATOM     80  O   UNL A   1      37.026  31.746  27.773  1.00  0.00    -0.237 OA
ATOM     81  O   UNL A   1      35.604  29.762  27.358  1.00  0.00    -0.237 OA
ATOM     82  O   UNL A   1      35.130  31.251  29.266  1.00  0.00    -0.744 OA
ENDBRANCH  75  79
ENDBRANCH  58  72
BRANCH  59  83
ATOM     83  C   UNL A   1      48.750  27.285  26.256  1.00  0.00     0.023 A 
ATOM     84  C   UNL A   1      49.011  27.540  24.901  1.00  0.00     0.031 A 
ATOM     85  C   UNL A   1      49.801  26.789  27.048  1.00  0.00     0.131 A 
ATOM     86  C   UNL A   1      50.278  27.260  24.367  1.00  0.00     0.055 A 
ATOM     87  C   UNL A   1      51.073  26.556  26.524  1.00  0.00     0.041 A 
ATOM     88  F   UNL A   1      49.606  26.535  28.353  1.00  0.00    -0.206 F 
ATOM     89  C   UNL A   1      51.314  26.779  25.172  1.00  0.00     0.022 A 
BRANCH  86  90
ATOM     90  S   UNL A   1      50.533  27.463  22.582  1.00  0.00     0.124 S 
ATOM     91  O   UNL A   1      50.378  28.904  22.423  1.00  0.00    -0.237 OA
ATOM     92  O   UNL A   1      51.883  26.938  22.408  1.00  0.00    -0.237 OA
ATOM     93  O   UNL A   1      49.470  26.651  21.994  1.00  0.00    -0.744 OA
ENDBRANCH  86  90
ENDBRANCH  59  83
BRANCH  71  94
ATOM     94  C   UNL A   1      45.532  32.820  29.011  1.00  0.00     0.023 A 
ATOM     95  C   UNL A   1      45.433  33.871  28.083  1.00  0.00     0.031 A 
ATOM     96  C   UNL A   1      46.079  33.098  30.276  1.00  0.00     0.131 A 
ATOM     97  C   UNL A   1      45.910  35.145  28.424  1.00  0.00     0.055 A 
ATOM     98  C   UNL A   1      46.508  34.378  30.627  1.00  0.00     0.041 A 
ATOM     99  F   UNL A   1      46.193  32.127  31.197  1.00  0.00    -0.206 F 
ATOM    100  C   UNL A   1      46.432  35.408  29.694  1.00  0.00     0.022 A 
BRANCH  97 101
ATOM    101  S   UNL A   1      45.887  36.453  27.166  1.00  0.00     0.124 S 
ATOM    102  O   UNL A   1      47.023  37.278  27.566  1.00  0.00    -0.237 OA
ATOM    103  O   UNL A   1      46.051  35.700  25.927  1.00  0.00    -0.237 OA
ATOM    104  O   UNL A   1      44.575  37.075  27.342  1.00  0.00    -0.744 OA
ENDBRANCH  97 101
ENDBRANCH  71  94
ENDBRANCH  45  46
ENDBRANCH  37  40
ENDBRANCH  35  36
ENDBRANCH  34  35
ENDBRANCH  33  34
ENDBRANCH   1  33
TORSDOF 20
ENDMDL
