MODEL 1
REMARK VINA RESULT:     -12.2      0.000      0.000
REMARK SMILES C[C@H](C(=O)NCCCCNC(=O)c1ccc(-c2c3nc(c(-c4cc(S(=O)(=O)[O-])ccc4F)c4ccc([nH]4)c(-c4cc(S(=O)(=O)[O-])ccc4F)c4nc(c(-c5cc(S(=O)(=O)[O-])ccc5F)c5ccc2[nH]5)C=C4)C=C3)cc1)c1ccc2c3cc(Cl)ccc3n(C(=O)c3cocn3)c2c1
REMARK SMILES IDX 7 1 6 2 5 3 3 4 4 5 2 7 1 8 76 9 77 10 96 11 78 12 95 13
REMARK SMILES IDX 79 14 87 15 80 16 86 17 81 18 85 19 82 20 84 21 83 22 88 23
REMARK SMILES IDX 89 24 90 25 91 26 94 27 92 28 93 29 8 30 9 31 10 32 11 33
REMARK SMILES IDX 12 35 13 36 14 37 75 38 15 39 74 40 16 41 17 42 18 43 68 44
REMARK SMILES IDX 19 45 73 46 67 47 69 48 20 49 72 50 66 51 65 52 21 54 53 55
REMARK SMILES IDX 33 56 52 57 34 58 37 59 51 60 70 61 35 62 36 63 50 65 71 66
REMARK SMILES IDX 38 67 22 68 23 69 31 70 24 71 30 72 32 73 29 74 25 75 26 76
REMARK SMILES IDX 27 77 28 78 54 79 55 80 63 81 56 82 62 83 64 84 61 85 57 86
REMARK SMILES IDX 58 87 59 88 60 89 39 90 40 91 48 92 41 93 47 94 49 95 46 96
REMARK SMILES IDX 42 97 43 98 44 99 45 100
REMARK H PARENT 5 6 10 34 69 53 37 64
REMARK Flexibility Score: inf
ROOT
ATOM      1  C   UNL A   1      32.750  30.309  27.249  1.00  0.00     0.023 C 
ENDROOT
BRANCH   1   2
ATOM      2  C   UNL A   1      31.748  29.193  26.941  1.00  0.00     0.116 C 
BRANCH   2   3
ATOM      3  N   UNL A   1      31.444  29.106  25.524  1.00  0.00    -0.356 N 
ATOM      4  C   UNL A   1      31.185  28.013  24.741  1.00  0.00     0.227 C 
ATOM      5  O   UNL A   1      30.993  28.218  23.540  1.00  0.00    -0.274 OA
ATOM      6  H   UNL A   1      31.421  29.969  25.051  1.00  0.00     0.163 HD
BRANCH   4   7
ATOM      7  C   UNL A   1      31.089  26.605  25.364  1.00  0.00     0.105 C 
ATOM      8  C   UNL A   1      29.874  25.815  24.855  1.00  0.00     0.023 C 
BRANCH   7   9
ATOM      9  C   UNL A   1      32.365  25.792  25.187  1.00  0.00    -0.034 A 
ATOM     10  C   UNL A   1      33.629  26.357  25.346  1.00  0.00     0.005 A 
ATOM     11  C   UNL A   1      32.246  24.411  24.945  1.00  0.00     0.032 A 
ATOM     12  C   UNL A   1      34.765  25.541  25.390  1.00  0.00     0.011 A 
ATOM     13  C   UNL A   1      33.384  23.584  25.024  1.00  0.00     0.058 A 
ATOM     14  C   UNL A   1      34.637  24.137  25.274  1.00  0.00     0.008 A 
ATOM     15  N   UNL A   1      33.513  22.183  24.973  1.00  0.00    -0.274 N 
ATOM     16  C   UNL A   1      35.564  23.063  25.369  1.00  0.00     0.009 A 
ATOM     17  C   UNL A   1      34.878  21.873  25.091  1.00  0.00     0.057 A 
ATOM     18  C   UNL A   1      36.949  23.026  25.642  1.00  0.00     0.031 A 
ATOM     19  C   UNL A   1      35.592  20.665  24.950  1.00  0.00     0.029 A 
ATOM     20  C   UNL A   1      37.631  21.815  25.577  1.00  0.00     0.041 A 
ATOM     21  C   UNL A   1      36.967  20.652  25.215  1.00  0.00     0.023 A 
ATOM     22  Cl  UNL A   1      39.318  21.769  25.912  1.00  0.00    -0.084 Cl
BRANCH  15  23
ATOM     23  C   UNL A   1      32.414  21.282  24.830  1.00  0.00     0.284 C 
ATOM     24  O   UNL A   1      31.502  21.404  25.649  1.00  0.00    -0.266 OA
BRANCH  23  25
ATOM     25  C   UNL A   1      32.295  20.232  23.824  1.00  0.00     0.167 A 
ATOM     26  C   UNL A   1      32.125  20.344  22.459  1.00  0.00     0.231 A 
ATOM     27  N   UNL A   1      32.489  18.891  24.133  1.00  0.00    -0.211 NA
ATOM     28  O   UNL A   1      32.180  19.094  21.915  1.00  0.00    -0.451 OA
ATOM     29  C   UNL A   1      32.425  18.279  22.975  1.00  0.00     0.308 A 
ENDBRANCH  23  25
ENDBRANCH  15  23
ENDBRANCH   7   9
ENDBRANCH   4   7
ENDBRANCH   2   3
ENDBRANCH   1   2
BRANCH   1  30
ATOM     30  C   UNL A   1      32.180  31.727  27.235  1.00  0.00     0.023 C 
BRANCH  30  31
ATOM     31  C   UNL A   1      33.218  32.831  27.103  1.00  0.00     0.116 C 
BRANCH  31  32
ATOM     32  N   UNL A   1      32.802  34.074  27.729  1.00  0.00    -0.352 N 
ATOM     33  C   UNL A   1      33.260  34.658  28.886  1.00  0.00     0.251 C 
ATOM     34  H   UNL A   1      32.091  34.566  27.259  1.00  0.00     0.163 HD
ATOM     35  O   UNL A   1      32.682  35.648  29.324  1.00  0.00    -0.269 OA
BRANCH  33  36
ATOM     36  C   UNL A   1      34.413  34.075  29.612  1.00  0.00     0.039 A 
ATOM     37  C   UNL A   1      34.170  33.089  30.573  1.00  0.00     0.014 A 
ATOM     38  C   UNL A   1      35.722  34.500  29.370  1.00  0.00     0.014 A 
ATOM     39  C   UNL A   1      35.239  32.505  31.257  1.00  0.00     0.010 A 
ATOM     40  C   UNL A   1      36.791  33.864  29.994  1.00  0.00     0.010 A 
ATOM     41  C   UNL A   1      36.560  32.873  30.959  1.00  0.00    -0.014 A 
BRANCH  41  42
ATOM     42  C   UNL A   1      37.707  32.270  31.687  1.00  0.00     0.031 A 
ATOM     43  C   UNL A   1      38.531  31.196  31.029  1.00  0.00     0.074 A 
ATOM     44  C   UNL A   1      37.977  32.655  32.950  1.00  0.00     0.049 A 
ATOM     45  N   UNL A   1      39.548  30.523  31.503  1.00  0.00    -0.248 NA
ATOM     46  C   UNL A   1      38.133  30.802  29.669  1.00  0.00     0.031 C 
ATOM     47  C   UNL A   1      37.217  33.647  33.712  1.00  0.00     0.029 A 
ATOM     48  N   UNL A   1      38.963  32.256  33.815  1.00  0.00    -0.354 N 
ATOM     49  C   UNL A   1      39.899  29.615  30.509  1.00  0.00     0.074 A 
ATOM     50  C   UNL A   1      38.942  29.781  29.435  1.00  0.00     0.031 C 
ATOM     51  C   UNL A   1      37.784  33.802  34.920  1.00  0.00     0.029 A 
ATOM     52  C   UNL A   1      38.927  32.900  35.030  1.00  0.00     0.049 A 
ATOM     53  H   UNL A   1      39.634  31.572  33.588  1.00  0.00     0.167 HD
ATOM     54  C   UNL A   1      40.937  28.741  30.482  1.00  0.00     0.034 A 
ATOM     55  C   UNL A   1      39.728  32.779  36.107  1.00  0.00     0.034 A 
ATOM     56  C   UNL A   1      41.897  28.607  31.550  1.00  0.00     0.049 A 
ATOM     57  C   UNL A   1      40.890  31.821  36.045  1.00  0.00     0.074 A 
ATOM     58  C   UNL A   1      43.022  27.801  31.606  1.00  0.00     0.029 A 
ATOM     59  N   UNL A   1      41.846  29.299  32.754  1.00  0.00    -0.354 N 
ATOM     60  N   UNL A   1      41.246  31.012  35.074  1.00  0.00    -0.248 NA
ATOM     61  C   UNL A   1      41.771  31.777  37.220  1.00  0.00     0.031 C 
ATOM     62  C   UNL A   1      43.616  27.964  32.863  1.00  0.00     0.029 A 
ATOM     63  C   UNL A   1      42.905  28.923  33.566  1.00  0.00     0.049 A 
ATOM     64  H   UNL A   1      41.157  29.959  32.996  1.00  0.00     0.167 HD
ATOM     65  C   UNL A   1      42.414  30.392  35.507  1.00  0.00     0.074 A 
ATOM     66  C   UNL A   1      42.707  30.931  36.820  1.00  0.00     0.031 C 
ATOM     67  C   UNL A   1      43.181  29.466  34.875  1.00  0.00     0.034 A 
BRANCH  54  68
ATOM     68  C   UNL A   1      41.064  27.853  29.265  1.00  0.00     0.023 A 
ATOM     69  C   UNL A   1      42.067  28.058  28.301  1.00  0.00     0.031 A 
ATOM     70  C   UNL A   1      40.141  26.816  29.040  1.00  0.00     0.131 A 
ATOM     71  C   UNL A   1      42.071  27.301  27.120  1.00  0.00     0.055 A 
ATOM     72  C   UNL A   1      40.204  26.007  27.904  1.00  0.00     0.041 A 
ATOM     73  F   UNL A   1      39.149  26.583  29.914  1.00  0.00    -0.206 F 
ATOM     74  C   UNL A   1      41.161  26.259  26.925  1.00  0.00     0.022 A 
BRANCH  71  75
ATOM     75  S   UNL A   1      43.179  27.802  25.773  1.00  0.00     0.124 S 
ATOM     76  O   UNL A   1      43.537  29.160  26.178  1.00  0.00    -0.237 OA
ATOM     77  O   UNL A   1      44.244  26.809  25.856  1.00  0.00    -0.237 OA
ATOM     78  O   UNL A   1      42.335  27.717  24.584  1.00  0.00    -0.744 OA
ENDBRANCH  71  75
ENDBRANCH  54  68
BRANCH  55  79
ATOM     79  C   UNL A   1      39.482  33.598  37.328  1.00  0.00     0.023 A 
ATOM     80  C   UNL A   1      38.817  33.053  38.437  1.00  0.00     0.031 A 
ATOM     81  C   UNL A   1      39.870  34.947  37.387  1.00  0.00     0.131 A 
ATOM     82  C   UNL A   1      38.514  33.865  39.540  1.00  0.00     0.055 A 
ATOM     83  C   UNL A   1      39.609  35.740  38.506  1.00  0.00     0.041 A 
ATOM     84  F   UNL A   1      40.519  35.513  36.357  1.00  0.00    -0.206 F 
ATOM     85  C   UNL A   1      38.915  35.202  39.587  1.00  0.00     0.022 A 
BRANCH  82  86
ATOM     86  S   UNL A   1      37.518  33.167  40.885  1.00  0.00     0.124 S 
ATOM     87  O   UNL A   1      38.290  31.984  41.246  1.00  0.00    -0.237 OA
ATOM     88  O   UNL A   1      37.517  34.255  41.857  1.00  0.00    -0.237 OA
ATOM     89  O   UNL A   1      36.228  32.902  40.250  1.00  0.00    -0.744 OA
ENDBRANCH  82  86
ENDBRANCH  55  79
BRANCH  67  90
ATOM     90  C   UNL A   1      44.440  29.026  35.582  1.00  0.00     0.023 A 
ATOM     91  C   UNL A   1      44.416  28.074  36.615  1.00  0.00     0.031 A 
ATOM     92  C   UNL A   1      45.678  29.594  35.232  1.00  0.00     0.131 A 
ATOM     93  C   UNL A   1      45.598  27.766  37.307  1.00  0.00     0.055 A 
ATOM     94  C   UNL A   1      46.859  29.239  35.883  1.00  0.00     0.041 A 
ATOM     95  F   UNL A   1      45.758  30.510  34.252  1.00  0.00    -0.206 F 
ATOM     96  C   UNL A   1      46.821  28.331  36.938  1.00  0.00     0.022 A 
BRANCH  93  97
ATOM     97  S   UNL A   1      45.496  26.696  38.769  1.00  0.00     0.124 S 
ATOM     98  O   UNL A   1      46.178  27.497  39.780  1.00  0.00    -0.237 OA
ATOM     99  O   UNL A   1      44.056  26.541  38.941  1.00  0.00    -0.237 OA
ATOM    100  O   UNL A   1      46.204  25.485  38.356  1.00  0.00    -0.744 OA
ENDBRANCH  93  97
ENDBRANCH  67  90
ENDBRANCH  41  42
ENDBRANCH  33  36
ENDBRANCH  31  32
ENDBRANCH  30  31
ENDBRANCH   1  30
TORSDOF 17
ENDMDL
MODEL 2
REMARK VINA RESULT:     -11.9      2.066      7.513
REMARK SMILES C[C@H](C(=O)NCCCCNC(=O)c1ccc(-c2c3nc(c(-c4cc(S(=O)(=O)[O-])ccc4F)c4ccc([nH]4)c(-c4cc(S(=O)(=O)[O-])ccc4F)c4nc(c(-c5cc(S(=O)(=O)[O-])ccc5F)c5ccc2[nH]5)C=C4)C=C3)cc1)c1ccc2c3cc(Cl)ccc3n(C(=O)c3cocn3)c2c1
REMARK SMILES IDX 7 1 6 2 5 3 3 4 4 5 2 7 1 8 76 9 77 10 96 11 78 12 95 13
REMARK SMILES IDX 79 14 87 15 80 16 86 17 81 18 85 19 82 20 84 21 83 22 88 23
REMARK SMILES IDX 89 24 90 25 91 26 94 27 92 28 93 29 8 30 9 31 10 32 11 33
REMARK SMILES IDX 12 35 13 36 14 37 75 38 15 39 74 40 16 41 17 42 18 43 68 44
REMARK SMILES IDX 19 45 73 46 67 47 69 48 20 49 72 50 66 51 65 52 21 54 53 55
REMARK SMILES IDX 33 56 52 57 34 58 37 59 51 60 70 61 35 62 36 63 50 65 71 66
REMARK SMILES IDX 38 67 22 68 23 69 31 70 24 71 30 72 32 73 29 74 25 75 26 76
REMARK SMILES IDX 27 77 28 78 54 79 55 80 63 81 56 82 62 83 64 84 61 85 57 86
REMARK SMILES IDX 58 87 59 88 60 89 39 90 40 91 48 92 41 93 47 94 49 95 46 96
REMARK SMILES IDX 42 97 43 98 44 99 45 100
REMARK H PARENT 5 6 10 34 69 53 37 64
REMARK Flexibility Score: inf
ROOT
ATOM      1  C   UNL A   1      32.881  30.541  27.236  1.00  0.00     0.023 C 
ENDROOT
BRANCH   1   2
ATOM      2  C   UNL A   1      31.864  29.414  27.038  1.00  0.00     0.116 C 
BRANCH   2   3
ATOM      3  N   UNL A   1      31.486  29.256  25.644  1.00  0.00    -0.356 N 
ATOM      4  C   UNL A   1      31.185  28.125  24.934  1.00  0.00     0.227 C 
ATOM      5  O   UNL A   1      30.932  28.270  23.735  1.00  0.00    -0.274 OA
ATOM      6  H   UNL A   1      31.441  30.094  25.130  1.00  0.00     0.163 HD
BRANCH   4   7
ATOM      7  C   UNL A   1      31.119  26.751  25.632  1.00  0.00     0.105 C 
ATOM      8  C   UNL A   1      29.858  25.959  25.258  1.00  0.00     0.023 C 
BRANCH   7   9
ATOM      9  C   UNL A   1      32.366  25.908  25.398  1.00  0.00    -0.034 A 
ATOM     10  C   UNL A   1      33.648  26.449  25.481  1.00  0.00     0.005 A 
ATOM     11  C   UNL A   1      32.205  24.527  25.185  1.00  0.00     0.032 A 
ATOM     12  C   UNL A   1      34.767  25.609  25.475  1.00  0.00     0.011 A 
ATOM     13  C   UNL A   1      33.329  23.677  25.215  1.00  0.00     0.058 A 
ATOM     14  C   UNL A   1      34.605  24.206  25.388  1.00  0.00     0.008 A 
ATOM     15  N   UNL A   1      33.425  22.273  25.180  1.00  0.00    -0.274 N 
ATOM     16  C   UNL A   1      35.512  23.114  25.450  1.00  0.00     0.009 A 
ATOM     17  C   UNL A   1      34.788  21.935  25.228  1.00  0.00     0.057 A 
ATOM     18  C   UNL A   1      36.910  23.052  25.648  1.00  0.00     0.031 A 
ATOM     19  C   UNL A   1      35.468  20.710  25.067  1.00  0.00     0.029 A 
ATOM     20  C   UNL A   1      37.562  21.825  25.565  1.00  0.00     0.041 A 
ATOM     21  C   UNL A   1      36.855  20.672  25.257  1.00  0.00     0.023 A 
ATOM     22  Cl  UNL A   1      39.263  21.748  25.808  1.00  0.00    -0.084 Cl
BRANCH  15  23
ATOM     23  C   UNL A   1      32.301  21.394  25.110  1.00  0.00     0.284 C 
ATOM     24  O   UNL A   1      31.249  21.819  25.590  1.00  0.00    -0.266 OA
BRANCH  23  25
ATOM     25  C   UNL A   1      32.303  20.048  24.547  1.00  0.00     0.167 A 
ATOM     26  C   UNL A   1      32.346  19.653  23.226  1.00  0.00     0.231 A 
ATOM     27  N   UNL A   1      32.404  18.916  25.346  1.00  0.00    -0.211 NA
ATOM     28  O   UNL A   1      32.443  18.292  23.186  1.00  0.00    -0.451 OA
ATOM     29  C   UNL A   1      32.498  17.925  24.494  1.00  0.00     0.308 A 
ENDBRANCH  23  25
ENDBRANCH  15  23
ENDBRANCH   7   9
ENDBRANCH   4   7
ENDBRANCH   2   3
ENDBRANCH   1   2
BRANCH   1  30
ATOM     30  C   UNL A   1      32.291  31.946  27.355  1.00  0.00     0.023 C 
BRANCH  30  31
ATOM     31  C   UNL A   1      33.311  33.072  27.313  1.00  0.00     0.116 C 
BRANCH  31  32
ATOM     32  N   UNL A   1      32.961  34.184  28.179  1.00  0.00    -0.352 N 
ATOM     33  C   UNL A   1      33.486  34.530  29.401  1.00  0.00     0.251 C 
ATOM     34  H   UNL A   1      32.246  34.772  27.845  1.00  0.00     0.163 HD
ATOM     35  O   UNL A   1      32.958  35.432  30.044  1.00  0.00    -0.269 OA
BRANCH  33  36
ATOM     36  C   UNL A   1      34.652  33.796  29.949  1.00  0.00     0.039 A 
ATOM     37  C   UNL A   1      35.936  34.218  29.592  1.00  0.00     0.014 A 
ATOM     38  C   UNL A   1      34.493  32.692  30.791  1.00  0.00     0.014 A 
ATOM     39  C   UNL A   1      37.054  33.560  30.111  1.00  0.00     0.010 A 
ATOM     40  C   UNL A   1      35.605  32.086  31.368  1.00  0.00     0.010 A 
ATOM     41  C   UNL A   1      36.898  32.501  31.019  1.00  0.00    -0.014 A 
BRANCH  41  42
ATOM     42  C   UNL A   1      38.077  31.783  31.570  1.00  0.00     0.031 A 
ATOM     43  C   UNL A   1      38.632  32.173  32.914  1.00  0.00     0.074 A 
ATOM     44  C   UNL A   1      38.673  30.817  30.844  1.00  0.00     0.049 A 
ATOM     45  N   UNL A   1      39.667  31.695  33.555  1.00  0.00    -0.248 NA
ATOM     46  C   UNL A   1      37.951  33.273  33.613  1.00  0.00     0.031 C 
ATOM     47  C   UNL A   1      38.260  30.387  29.507  1.00  0.00     0.029 A 
ATOM     48  N   UNL A   1      39.753  30.021  31.129  1.00  0.00    -0.354 N 
ATOM     49  C   UNL A   1      39.773  32.448  34.720  1.00  0.00     0.074 A 
ATOM     50  C   UNL A   1      38.735  33.455  34.662  1.00  0.00     0.031 C 
ATOM     51  C   UNL A   1      39.058  29.386  29.101  1.00  0.00     0.029 A 
ATOM     52  C   UNL A   1      40.057  29.122  30.132  1.00  0.00     0.049 A 
ATOM     53  H   UNL A   1      40.265  30.088  31.968  1.00  0.00     0.167 HD
ATOM     54  C   UNL A   1      40.638  32.297  35.755  1.00  0.00     0.034 A 
ATOM     55  C   UNL A   1      41.027  28.190  30.064  1.00  0.00     0.034 A 
ATOM     56  C   UNL A   1      41.650  31.271  35.808  1.00  0.00     0.049 A 
ATOM     57  C   UNL A   1      41.961  28.024  31.235  1.00  0.00     0.074 A 
ATOM     58  C   UNL A   1      42.540  30.985  36.830  1.00  0.00     0.029 A 
ATOM     59  N   UNL A   1      41.909  30.358  34.793  1.00  0.00    -0.354 N 
ATOM     60  N   UNL A   1      42.010  28.702  32.358  1.00  0.00    -0.248 NA
ATOM     61  C   UNL A   1      42.956  26.948  31.136  1.00  0.00     0.031 C 
ATOM     62  C   UNL A   1      43.370  29.940  36.410  1.00  0.00     0.029 A 
ATOM     63  C   UNL A   1      42.956  29.524  35.155  1.00  0.00     0.049 A 
ATOM     64  H   UNL A   1      41.420  30.311  33.939  1.00  0.00     0.167 HD
ATOM     65  C   UNL A   1      43.017  28.110  33.114  1.00  0.00     0.074 A 
ATOM     66  C   UNL A   1      43.538  27.013  32.324  1.00  0.00     0.031 C 
ATOM     67  C   UNL A   1      43.466  28.437  34.354  1.00  0.00     0.034 A 
BRANCH  54  68
ATOM     68  C   UNL A   1      40.533  33.284  36.895  1.00  0.00     0.023 A 
ATOM     69  C   UNL A   1      41.461  34.330  37.055  1.00  0.00     0.031 A 
ATOM     70  C   UNL A   1      39.521  33.153  37.861  1.00  0.00     0.131 A 
ATOM     71  C   UNL A   1      41.411  35.143  38.197  1.00  0.00     0.055 A 
ATOM     72  C   UNL A   1      39.424  34.022  38.950  1.00  0.00     0.041 A 
ATOM     73  F   UNL A   1      38.617  32.164  37.774  1.00  0.00    -0.206 F 
ATOM     74  C   UNL A   1      40.384  35.013  39.134  1.00  0.00     0.022 A 
BRANCH  71  75
ATOM     75  S   UNL A   1      42.799  36.266  38.521  1.00  0.00     0.124 S 
ATOM     76  O   UNL A   1      43.738  35.885  37.468  1.00  0.00    -0.237 OA
ATOM     77  O   UNL A   1      42.181  37.579  38.383  1.00  0.00    -0.237 OA
ATOM     78  O   UNL A   1      43.219  35.912  39.876  1.00  0.00    -0.744 OA
ENDBRANCH  71  75
ENDBRANCH  54  68
BRANCH  55  79
ATOM     79  C   UNL A   1      41.157  27.323  28.859  1.00  0.00     0.023 A 
ATOM     80  C   UNL A   1      42.164  27.558  27.909  1.00  0.00     0.031 A 
ATOM     81  C   UNL A   1      40.253  26.274  28.618  1.00  0.00     0.131 A 
ATOM     82  C   UNL A   1      42.213  26.788  26.737  1.00  0.00     0.055 A 
ATOM     83  C   UNL A   1      40.335  25.479  27.474  1.00  0.00     0.041 A 
ATOM     84  F   UNL A   1      39.280  26.001  29.501  1.00  0.00    -0.206 F 
ATOM     85  C   UNL A   1      41.312  25.743  26.517  1.00  0.00     0.022 A 
BRANCH  82  86
ATOM     86  S   UNL A   1      43.428  27.224  25.463  1.00  0.00     0.124 S 
ATOM     87  O   UNL A   1      44.427  27.947  26.239  1.00  0.00    -0.237 OA
ATOM     88  O   UNL A   1      43.828  25.911  24.966  1.00  0.00    -0.237 OA
ATOM     89  O   UNL A   1      42.659  28.035  24.523  1.00  0.00    -0.744 OA
ENDBRANCH  82  86
ENDBRANCH  55  79
BRANCH  67  90
ATOM     90  C   UNL A   1      44.540  27.555  34.944  1.00  0.00     0.023 A 
ATOM     91  C   UNL A   1      45.904  27.777  34.691  1.00  0.00     0.031 A 
ATOM     92  C   UNL A   1      44.185  26.458  35.749  1.00  0.00     0.131 A 
ATOM     93  C   UNL A   1      46.861  26.876  35.184  1.00  0.00     0.055 A 
ATOM     94  C   UNL A   1      45.144  25.601  36.287  1.00  0.00     0.041 A 
ATOM     95  F   UNL A   1      42.895  26.200  36.022  1.00  0.00    -0.206 F 
ATOM     96  C   UNL A   1      46.490  25.798  35.992  1.00  0.00     0.022 A 
BRANCH  93  97
ATOM     97  S   UNL A   1      48.589  27.071  34.665  1.00  0.00     0.124 S 
ATOM     98  O   UNL A   1      49.311  26.479  35.787  1.00  0.00    -0.237 OA
ATOM     99  O   UNL A   1      48.624  26.319  33.415  1.00  0.00    -0.237 OA
ATOM    100  O   UNL A   1      48.742  28.517  34.522  1.00  0.00    -0.744 OA
ENDBRANCH  93  97
ENDBRANCH  67  90
ENDBRANCH  41  42
ENDBRANCH  33  36
ENDBRANCH  31  32
ENDBRANCH  30  31
ENDBRANCH   1  30
TORSDOF 17
ENDMDL
MODEL 3
REMARK VINA RESULT:     -11.6      4.362      9.209
REMARK SMILES C[C@H](C(=O)NCCCCNC(=O)c1ccc(-c2c3nc(c(-c4cc(S(=O)(=O)[O-])ccc4F)c4ccc([nH]4)c(-c4cc(S(=O)(=O)[O-])ccc4F)c4nc(c(-c5cc(S(=O)(=O)[O-])ccc5F)c5ccc2[nH]5)C=C4)C=C3)cc1)c1ccc2c3cc(Cl)ccc3n(C(=O)c3cocn3)c2c1
REMARK SMILES IDX 7 1 6 2 5 3 3 4 4 5 2 7 1 8 76 9 77 10 96 11 78 12 95 13
REMARK SMILES IDX 79 14 87 15 80 16 86 17 81 18 85 19 82 20 84 21 83 22 88 23
REMARK SMILES IDX 89 24 90 25 91 26 94 27 92 28 93 29 8 30 9 31 10 32 11 33
REMARK SMILES IDX 12 35 13 36 14 37 75 38 15 39 74 40 16 41 17 42 18 43 68 44
REMARK SMILES IDX 19 45 73 46 67 47 69 48 20 49 72 50 66 51 65 52 21 54 53 55
REMARK SMILES IDX 33 56 52 57 34 58 37 59 51 60 70 61 35 62 36 63 50 65 71 66
REMARK SMILES IDX 38 67 22 68 23 69 31 70 24 71 30 72 32 73 29 74 25 75 26 76
REMARK SMILES IDX 27 77 28 78 54 79 55 80 63 81 56 82 62 83 64 84 61 85 57 86
REMARK SMILES IDX 58 87 59 88 60 89 39 90 40 91 48 92 41 93 47 94 49 95 46 96
REMARK SMILES IDX 42 97 43 98 44 99 45 100
REMARK H PARENT 5 6 10 34 69 53 37 64
REMARK Flexibility Score: inf
ROOT
ATOM      1  C   UNL A   1      45.088  28.631  26.588  1.00  0.00     0.023 C 
ENDROOT
BRANCH   1   2
ATOM      2  C   UNL A   1      45.141  27.642  27.755  1.00  0.00     0.116 C 
BRANCH   2   3
ATOM      3  N   UNL A   1      44.060  27.856  28.702  1.00  0.00    -0.356 N 
ATOM      4  C   UNL A   1      43.106  26.989  29.164  1.00  0.00     0.227 C 
ATOM      5  O   UNL A   1      42.269  27.445  29.947  1.00  0.00    -0.274 OA
ATOM      6  H   UNL A   1      44.005  28.767  29.069  1.00  0.00     0.163 HD
BRANCH   4   7
ATOM      7  C   UNL A   1      43.129  25.502  28.753  1.00  0.00     0.105 C 
ATOM      8  C   UNL A   1      43.632  24.586  29.878  1.00  0.00     0.023 C 
BRANCH   7   9
ATOM      9  C   UNL A   1      41.785  25.013  28.229  1.00  0.00    -0.034 A 
ATOM     10  C   UNL A   1      40.754  25.893  27.906  1.00  0.00     0.005 A 
ATOM     11  C   UNL A   1      41.628  23.637  27.982  1.00  0.00     0.032 A 
ATOM     12  C   UNL A   1      39.620  25.431  27.229  1.00  0.00     0.011 A 
ATOM     13  C   UNL A   1      40.504  23.176  27.268  1.00  0.00     0.058 A 
ATOM     14  C   UNL A   1      39.514  24.068  26.865  1.00  0.00     0.008 A 
ATOM     15  N   UNL A   1      40.187  21.898  26.769  1.00  0.00    -0.274 N 
ATOM     16  C   UNL A   1      38.559  23.332  26.113  1.00  0.00     0.009 A 
ATOM     17  C   UNL A   1      38.934  21.982  26.139  1.00  0.00     0.057 A 
ATOM     18  C   UNL A   1      37.381  23.719  25.436  1.00  0.00     0.031 A 
ATOM     19  C   UNL A   1      38.070  21.000  25.611  1.00  0.00     0.029 A 
ATOM     20  C   UNL A   1      36.574  22.748  24.850  1.00  0.00     0.041 A 
ATOM     21  C   UNL A   1      36.902  21.404  24.954  1.00  0.00     0.023 A 
ATOM     22  Cl  UNL A   1      35.139  23.219  24.025  1.00  0.00    -0.084 Cl
BRANCH  15  23
ATOM     23  C   UNL A   1      41.029  20.752  26.907  1.00  0.00     0.284 C 
ATOM     24  O   UNL A   1      40.768  19.997  27.845  1.00  0.00    -0.266 OA
BRANCH  23  25
ATOM     25  C   UNL A   1      42.167  20.421  26.056  1.00  0.00     0.167 A 
ATOM     26  C   UNL A   1      43.183  21.234  25.599  1.00  0.00     0.231 A 
ATOM     27  N   UNL A   1      42.454  19.111  25.689  1.00  0.00    -0.211 NA
ATOM     28  O   UNL A   1      44.085  20.460  24.927  1.00  0.00    -0.451 OA
ATOM     29  C   UNL A   1      43.593  19.198  25.046  1.00  0.00     0.308 A 
ENDBRANCH  23  25
ENDBRANCH  15  23
ENDBRANCH   7   9
ENDBRANCH   4   7
ENDBRANCH   2   3
ENDBRANCH   1   2
BRANCH   1  30
ATOM     30  C   UNL A   1      46.356  29.456  26.367  1.00  0.00     0.023 C 
BRANCH  30  31
ATOM     31  C   UNL A   1      46.292  30.880  26.896  1.00  0.00     0.116 C 
BRANCH  31  32
ATOM     32  N   UNL A   1      45.628  31.792  25.982  1.00  0.00    -0.352 N 
ATOM     33  C   UNL A   1      44.506  32.560  26.185  1.00  0.00     0.251 C 
ATOM     34  H   UNL A   1      46.038  31.870  25.091  1.00  0.00     0.163 HD
ATOM     35  O   UNL A   1      44.019  33.167  25.236  1.00  0.00    -0.269 OA
BRANCH  33  36
ATOM     36  C   UNL A   1      43.876  32.623  27.525  1.00  0.00     0.039 A 
ATOM     37  C   UNL A   1      43.762  33.867  28.153  1.00  0.00     0.014 A 
ATOM     38  C   UNL A   1      43.416  31.473  28.173  1.00  0.00     0.014 A 
ATOM     39  C   UNL A   1      43.151  33.960  29.407  1.00  0.00     0.010 A 
ATOM     40  C   UNL A   1      42.738  31.577  29.385  1.00  0.00     0.010 A 
ATOM     41  C   UNL A   1      42.617  32.819  30.024  1.00  0.00    -0.014 A 
BRANCH  41  42
ATOM     42  C   UNL A   1      41.976  32.900  31.362  1.00  0.00     0.031 A 
ATOM     43  C   UNL A   1      40.504  33.197  31.472  1.00  0.00     0.074 A 
ATOM     44  C   UNL A   1      42.723  32.753  32.474  1.00  0.00     0.049 A 
ATOM     45  N   UNL A   1      39.763  33.340  32.541  1.00  0.00    -0.248 NA
ATOM     46  C   UNL A   1      39.777  33.395  30.209  1.00  0.00     0.031 C 
ATOM     47  C   UNL A   1      44.167  32.515  32.497  1.00  0.00     0.029 A 
ATOM     48  N   UNL A   1      42.371  32.782  33.799  1.00  0.00    -0.354 N 
ATOM     49  C   UNL A   1      38.491  33.663  32.081  1.00  0.00     0.074 A 
ATOM     50  C   UNL A   1      38.580  33.758  30.640  1.00  0.00     0.031 C 
ATOM     51  C   UNL A   1      44.572  32.390  33.771  1.00  0.00     0.029 A 
ATOM     52  C   UNL A   1      43.425  32.568  34.656  1.00  0.00     0.049 A 
ATOM     53  H   UNL A   1      41.450  32.943  34.108  1.00  0.00     0.167 HD
ATOM     54  C   UNL A   1      37.348  33.838  32.792  1.00  0.00     0.034 A 
ATOM     55  C   UNL A   1      43.460  32.516  36.002  1.00  0.00     0.034 A 
ATOM     56  C   UNL A   1      37.272  33.714  34.227  1.00  0.00     0.049 A 
ATOM     57  C   UNL A   1      42.174  32.689  36.770  1.00  0.00     0.074 A 
ATOM     58  C   UNL A   1      36.159  33.809  35.046  1.00  0.00     0.029 A 
ATOM     59  N   UNL A   1      38.355  33.466  35.060  1.00  0.00    -0.354 N 
ATOM     60  N   UNL A   1      40.966  32.933  36.318  1.00  0.00    -0.248 NA
ATOM     61  C   UNL A   1      42.256  32.557  38.231  1.00  0.00     0.031 C 
ATOM     62  C   UNL A   1      36.579  33.676  36.374  1.00  0.00     0.029 A 
ATOM     63  C   UNL A   1      37.942  33.426  36.383  1.00  0.00     0.049 A 
ATOM     64  H   UNL A   1      39.283  33.338  34.756  1.00  0.00     0.167 HD
ATOM     65  C   UNL A   1      40.138  32.945  37.437  1.00  0.00     0.074 A 
ATOM     66  C   UNL A   1      40.984  32.672  38.582  1.00  0.00     0.031 C 
ATOM     67  C   UNL A   1      38.798  33.156  37.513  1.00  0.00     0.034 A 
BRANCH  54  68
ATOM     68  C   UNL A   1      36.102  34.207  32.019  1.00  0.00     0.023 A 
ATOM     69  C   UNL A   1      35.437  35.429  32.227  1.00  0.00     0.031 A 
ATOM     70  C   UNL A   1      35.542  33.306  31.096  1.00  0.00     0.131 A 
ATOM     71  C   UNL A   1      34.212  35.678  31.592  1.00  0.00     0.055 A 
ATOM     72  C   UNL A   1      34.367  33.597  30.401  1.00  0.00     0.041 A 
ATOM     73  F   UNL A   1      36.119  32.115  30.869  1.00  0.00    -0.206 F 
ATOM     74  C   UNL A   1      33.683  34.782  30.661  1.00  0.00     0.022 A 
BRANCH  71  75
ATOM     75  S   UNL A   1      33.239  37.116  32.122  1.00  0.00     0.124 S 
ATOM     76  O   UNL A   1      32.047  36.476  32.675  1.00  0.00    -0.237 OA
ATOM     77  O   UNL A   1      34.125  37.758  33.085  1.00  0.00    -0.237 OA
ATOM     78  O   UNL A   1      33.020  37.858  30.882  1.00  0.00    -0.744 OA
ENDBRANCH  71  75
ENDBRANCH  54  68
BRANCH  55  79
ATOM     79  C   UNL A   1      44.744  32.269  36.717  1.00  0.00     0.023 A 
ATOM     80  C   UNL A   1      45.031  31.010  37.267  1.00  0.00     0.031 A 
ATOM     81  C   UNL A   1      45.685  33.298  36.896  1.00  0.00     0.131 A 
ATOM     82  C   UNL A   1      46.204  30.823  38.013  1.00  0.00     0.055 A 
ATOM     83  C   UNL A   1      46.874  33.095  37.598  1.00  0.00     0.041 A 
ATOM     84  F   UNL A   1      45.463  34.517  36.379  1.00  0.00    -0.206 F 
ATOM     85  C   UNL A   1      47.133  31.854  38.174  1.00  0.00     0.022 A 
BRANCH  82  86
ATOM     86  S   UNL A   1      46.462  29.229  38.839  1.00  0.00     0.124 S 
ATOM     87  O   UNL A   1      45.161  28.998  39.453  1.00  0.00    -0.237 OA
ATOM     88  O   UNL A   1      46.808  28.362  37.719  1.00  0.00    -0.237 OA
ATOM     89  O   UNL A   1      47.554  29.503  39.771  1.00  0.00    -0.744 OA
ENDBRANCH  82  86
ENDBRANCH  55  79
BRANCH  67  90
ATOM     90  C   UNL A   1      38.167  33.040  38.879  1.00  0.00     0.023 A 
ATOM     91  C   UNL A   1      38.346  34.026  39.865  1.00  0.00     0.031 A 
ATOM     92  C   UNL A   1      37.398  31.909  39.205  1.00  0.00     0.131 A 
ATOM     93  C   UNL A   1      37.818  33.830  41.150  1.00  0.00     0.055 A 
ATOM     94  C   UNL A   1      36.825  31.749  40.466  1.00  0.00     0.041 A 
ATOM     95  F   UNL A   1      37.196  30.936  38.300  1.00  0.00    -0.206 F 
ATOM     96  C   UNL A   1      37.047  32.706  41.453  1.00  0.00     0.022 A 
BRANCH  93  97
ATOM     97  S   UNL A   1      38.244  35.017  42.456  1.00  0.00     0.124 S 
ATOM     98  O   UNL A   1      39.395  34.377  43.084  1.00  0.00    -0.237 OA
ATOM     99  O   UNL A   1      38.525  36.229  41.694  1.00  0.00    -0.237 OA
ATOM    100  O   UNL A   1      37.037  35.069  43.279  1.00  0.00    -0.744 OA
ENDBRANCH  93  97
ENDBRANCH  67  90
ENDBRANCH  41  42
ENDBRANCH  33  36
ENDBRANCH  31  32
ENDBRANCH  30  31
ENDBRANCH   1  30
TORSDOF 17
ENDMDL
