MODEL 1
REMARK VINA RESULT:     -10.1      0.000      0.000
REMARK SMILES COc1cc([C@H]([NH3+])CC(=O)NCCCCNC(=O)c2ccc(-c3c4nc(c(-c5cc(S(=O)(=O)[O-])ccc5F)c5ccc([nH]5)c(-c5cc(S(=O)(=O)[O-])ccc5F)c5nc(c(-c6cc(S(=O)(=O)[O-])ccc6F)c6ccc3[nH]6)C=C5)C=C4)cc2)c([N+](=O)[O-])cc1OC
REMARK SMILES IDX 13 1 12 2 11 3 9 4 10 5 8 7 6 8 5 9 3 10 4 11 87 12 86 13
REMARK SMILES IDX 82 14 2 15 1 16 88 17 89 18 83 19 84 20 85 21 7 22 14 26
REMARK SMILES IDX 15 27 16 28 17 29 18 31 19 32 20 33 81 34 21 35 80 36 22 37
REMARK SMILES IDX 23 38 24 39 74 40 25 41 79 42 73 43 75 44 26 45 78 46 72 47
REMARK SMILES IDX 71 48 27 50 59 51 39 52 58 53 40 54 43 55 57 56 76 57 41 58
REMARK SMILES IDX 42 59 56 61 77 62 44 63 28 64 29 65 37 66 30 67 36 68 38 69
REMARK SMILES IDX 35 70 31 71 32 72 33 73 34 74 60 75 61 76 69 77 62 78 68 79
REMARK SMILES IDX 70 80 67 81 63 82 64 83 65 84 66 85 45 86 46 87 54 88 47 89
REMARK SMILES IDX 53 90 55 91 52 92 48 93 49 94 50 95 51 96
REMARK H PARENT 11 6 7 23 7 24 7 25 16 30 75 49 43 60
REMARK Flexibility Score: inf
ROOT
ATOM      1  C   UNL A   1      34.374  23.250  26.643  1.00  0.00     0.023 C 
ENDROOT
BRANCH   1   2
ATOM      2  C   UNL A   1      34.049  21.813  27.047  1.00  0.00     0.116 C 
BRANCH   2   3
ATOM      3  N   UNL A   1      34.584  20.878  26.080  1.00  0.00    -0.356 N 
ATOM      4  C   UNL A   1      33.930  20.271  25.049  1.00  0.00     0.226 C 
ATOM      5  O   UNL A   1      34.486  19.354  24.444  1.00  0.00    -0.275 OA
ATOM      6  H   UNL A   1      35.538  20.653  26.178  1.00  0.00     0.163 HD
BRANCH   4   7
ATOM      7  C   UNL A   1      32.569  20.774  24.618  1.00  0.00     0.170 C 
BRANCH   7   8
ATOM      8  C   UNL A   1      32.600  21.764  23.443  1.00  0.00     0.228 C 
BRANCH   8   9
ATOM      9  C   UNL A   1      32.054  23.105  23.932  1.00  0.00     0.091 A 
ATOM     10  C   UNL A   1      30.736  24.348  25.608  1.00  0.00     0.161 A 
ATOM     11  C   UNL A   1      31.161  23.142  25.029  1.00  0.00     0.067 A 
ATOM     12  C   UNL A   1      31.233  25.565  25.139  1.00  0.00     0.167 A 
ATOM     13  C   UNL A   1      32.105  25.554  24.046  1.00  0.00     0.136 A 
ATOM     14  C   UNL A   1      32.505  24.347  23.448  1.00  0.00     0.282 A 
BRANCH  10  15
ATOM     15  O   UNL A   1      29.932  24.272  26.713  1.00  0.00    -0.493 OA
ATOM     16  C   UNL A   1      29.731  22.922  27.138  1.00  0.00     0.278 C 
ENDBRANCH  10  15
BRANCH  12  17
ATOM     17  O   UNL A   1      30.999  26.824  25.614  1.00  0.00    -0.493 OA
ATOM     18  C   UNL A   1      31.567  27.199  26.860  1.00  0.00     0.278 C 
ENDBRANCH  12  17
BRANCH  14  19
ATOM     19  N   UNL A   1      33.437  24.458  22.327  1.00  0.00     0.063 N 
ATOM     20  O   UNL A   1      33.120  23.915  21.263  1.00  0.00    -0.258 OA
ATOM     21  O   UNL A   1      34.452  25.145  22.506  1.00  0.00    -0.258 OA
ENDBRANCH  14  19
ENDBRANCH   8   9
BRANCH   8  22
ATOM     22  N   UNL A   1      31.853  21.305  22.268  1.00  0.00    -0.351 N 
ATOM     23  H   UNL A   1      32.455  20.718  21.691  1.00  0.00     0.345 HD
ATOM     24  H   UNL A   1      31.545  22.112  21.725  1.00  0.00     0.345 HD
ATOM     25  H   UNL A   1      31.041  20.768  22.570  1.00  0.00     0.345 HD
ENDBRANCH   8  22
ENDBRANCH   7   8
ENDBRANCH   4   7
ENDBRANCH   2   3
ENDBRANCH   1   2
BRANCH   1  26
ATOM     26  C   UNL A   1      35.503  23.386  25.628  1.00  0.00     0.023 C 
BRANCH  26  27
ATOM     27  C   UNL A   1      36.864  23.706  26.226  1.00  0.00     0.116 C 
BRANCH  27  28
ATOM     28  N   UNL A   1      37.803  22.598  26.158  1.00  0.00    -0.352 N 
ATOM     29  C   UNL A   1      39.160  22.607  26.393  1.00  0.00     0.251 C 
ATOM     30  H   UNL A   1      37.419  21.726  25.910  1.00  0.00     0.163 HD
ATOM     31  O   UNL A   1      39.826  21.607  26.183  1.00  0.00    -0.269 OA
BRANCH  29  32
ATOM     32  C   UNL A   1      39.792  23.864  26.854  1.00  0.00     0.039 A 
ATOM     33  C   UNL A   1      40.026  24.876  25.923  1.00  0.00     0.014 A 
ATOM     34  C   UNL A   1      40.086  24.061  28.205  1.00  0.00     0.014 A 
ATOM     35  C   UNL A   1      40.490  26.116  26.364  1.00  0.00     0.010 A 
ATOM     36  C   UNL A   1      40.457  25.324  28.652  1.00  0.00     0.010 A 
ATOM     37  C   UNL A   1      40.667  26.363  27.736  1.00  0.00    -0.014 A 
BRANCH  37  38
ATOM     38  C   UNL A   1      41.068  27.708  28.221  1.00  0.00     0.031 A 
ATOM     39  C   UNL A   1      42.522  28.094  28.257  1.00  0.00     0.074 A 
ATOM     40  C   UNL A   1      40.124  28.558  28.672  1.00  0.00     0.049 A 
ATOM     41  N   UNL A   1      43.070  29.214  28.653  1.00  0.00    -0.248 NA
ATOM     42  C   UNL A   1      43.491  27.075  27.822  1.00  0.00     0.031 C 
ATOM     43  C   UNL A   1      38.690  28.262  28.753  1.00  0.00     0.029 A 
ATOM     44  N   UNL A   1      40.221  29.840  29.149  1.00  0.00    -0.354 N 
ATOM     45  C   UNL A   1      44.442  29.031  28.527  1.00  0.00     0.074 A 
ATOM     46  C   UNL A   1      44.646  27.670  28.082  1.00  0.00     0.031 C 
ATOM     47  C   UNL A   1      38.042  29.345  29.213  1.00  0.00     0.029 A 
ATOM     48  C   UNL A   1      39.012  30.396  29.499  1.00  0.00     0.049 A 
ATOM     49  H   UNL A   1      41.078  30.319  29.233  1.00  0.00     0.167 HD
ATOM     50  C   UNL A   1      45.439  29.926  28.737  1.00  0.00     0.034 A 
ATOM     51  C   UNL A   1      38.719  31.614  29.994  1.00  0.00     0.034 A 
ATOM     52  C   UNL A   1      45.213  31.287  29.160  1.00  0.00     0.049 A 
ATOM     53  C   UNL A   1      39.844  32.597  30.202  1.00  0.00     0.074 A 
ATOM     54  C   UNL A   1      46.138  32.301  29.330  1.00  0.00     0.029 A 
ATOM     55  N   UNL A   1      43.973  31.821  29.490  1.00  0.00    -0.354 N 
ATOM     56  N   UNL A   1      41.131  32.435  29.996  1.00  0.00    -0.248 NA
ATOM     57  C   UNL A   1      39.475  33.930  30.692  1.00  0.00     0.031 C 
ATOM     58  C   UNL A   1      45.471  33.424  29.827  1.00  0.00     0.029 A 
ATOM     59  C   UNL A   1      44.116  33.140  29.894  1.00  0.00     0.049 A 
ATOM     60  H   UNL A   1      43.119  31.335  29.444  1.00  0.00     0.167 HD
ATOM     61  C   UNL A   1      41.721  33.656  30.308  1.00  0.00     0.074 A 
ATOM     62  C   UNL A   1      40.645  34.550  30.687  1.00  0.00     0.031 C 
ATOM     63  C   UNL A   1      43.032  34.010  30.286  1.00  0.00     0.034 A 
BRANCH  50  64
ATOM     64  C   UNL A   1      46.858  29.454  28.530  1.00  0.00     0.023 A 
ATOM     65  C   UNL A   1      47.643  28.973  29.594  1.00  0.00     0.031 A 
ATOM     66  C   UNL A   1      47.442  29.497  27.252  1.00  0.00     0.131 A 
ATOM     67  C   UNL A   1      48.982  28.617  29.374  1.00  0.00     0.055 A 
ATOM     68  C   UNL A   1      48.750  29.066  27.023  1.00  0.00     0.041 A 
ATOM     69  F   UNL A   1      46.751  29.967  26.202  1.00  0.00    -0.206 F 
ATOM     70  C   UNL A   1      49.534  28.636  28.090  1.00  0.00     0.022 A 
BRANCH  67  71
ATOM     71  S   UNL A   1      50.031  28.253  30.808  1.00  0.00     0.124 S 
ATOM     72  O   UNL A   1      49.385  29.043  31.854  1.00  0.00    -0.237 OA
ATOM     73  O   UNL A   1      49.906  26.806  30.931  1.00  0.00    -0.237 OA
ATOM     74  O   UNL A   1      51.349  28.734  30.399  1.00  0.00    -0.744 OA
ENDBRANCH  67  71
ENDBRANCH  50  64
BRANCH  51  75
ATOM     75  C   UNL A   1      37.313  31.981  30.331  1.00  0.00     0.023 A 
ATOM     76  C   UNL A   1      36.471  32.585  29.384  1.00  0.00     0.031 A 
ATOM     77  C   UNL A   1      36.804  31.779  31.627  1.00  0.00     0.131 A 
ATOM     78  C   UNL A   1      35.189  33.017  29.758  1.00  0.00     0.055 A 
ATOM     79  C   UNL A   1      35.507  32.157  31.980  1.00  0.00     0.041 A 
ATOM     80  F   UNL A   1      37.562  31.200  32.572  1.00  0.00    -0.206 F 
ATOM     81  C   UNL A   1      34.697  32.796  31.046  1.00  0.00     0.022 A 
BRANCH  78  82
ATOM     82  S   UNL A   1      34.207  33.964  28.562  1.00  0.00     0.124 S 
ATOM     83  O   UNL A   1      34.096  33.021  27.455  1.00  0.00    -0.237 OA
ATOM     84  O   UNL A   1      32.983  34.220  29.312  1.00  0.00    -0.237 OA
ATOM     85  O   UNL A   1      35.034  35.141  28.300  1.00  0.00    -0.744 OA
ENDBRANCH  78  82
ENDBRANCH  51  75
BRANCH  63  86
ATOM     86  C   UNL A   1      43.357  35.437  30.657  1.00  0.00     0.023 A 
ATOM     87  C   UNL A   1      43.516  35.832  31.996  1.00  0.00     0.031 A 
ATOM     88  C   UNL A   1      43.480  36.420  29.658  1.00  0.00     0.131 A 
ATOM     89  C   UNL A   1      43.717  37.185  32.306  1.00  0.00     0.055 A 
ATOM     90  C   UNL A   1      43.751  37.753  29.969  1.00  0.00     0.041 A 
ATOM     91  F   UNL A   1      43.338  36.099  28.362  1.00  0.00    -0.206 F 
ATOM     92  C   UNL A   1      43.852  38.145  31.301  1.00  0.00     0.022 A 
BRANCH  89  93
ATOM     93  S   UNL A   1      43.681  37.692  34.048  1.00  0.00     0.124 S 
ATOM     94  O   UNL A   1      44.901  37.081  34.566  1.00  0.00    -0.237 OA
ATOM     95  O   UNL A   1      43.691  39.148  33.949  1.00  0.00    -0.237 OA
ATOM     96  O   UNL A   1      42.437  37.112  34.548  1.00  0.00    -0.744 OA
ENDBRANCH  89  93
ENDBRANCH  63  86
ENDBRANCH  37  38
ENDBRANCH  29  32
ENDBRANCH  27  28
ENDBRANCH  26  27
ENDBRANCH   1  26
TORSDOF 20
ENDMDL
MODEL 2
REMARK VINA RESULT:     -10.1      2.771      3.789
REMARK SMILES COc1cc([C@H]([NH3+])CC(=O)NCCCCNC(=O)c2ccc(-c3c4nc(c(-c5cc(S(=O)(=O)[O-])ccc5F)c5ccc([nH]5)c(-c5cc(S(=O)(=O)[O-])ccc5F)c5nc(c(-c6cc(S(=O)(=O)[O-])ccc6F)c6ccc3[nH]6)C=C5)C=C4)cc2)c([N+](=O)[O-])cc1OC
REMARK SMILES IDX 13 1 12 2 11 3 9 4 10 5 8 7 6 8 5 9 3 10 4 11 87 12 86 13
REMARK SMILES IDX 82 14 2 15 1 16 88 17 89 18 83 19 84 20 85 21 7 22 14 26
REMARK SMILES IDX 15 27 16 28 17 29 18 31 19 32 20 33 81 34 21 35 80 36 22 37
REMARK SMILES IDX 23 38 24 39 74 40 25 41 79 42 73 43 75 44 26 45 78 46 72 47
REMARK SMILES IDX 71 48 27 50 59 51 39 52 58 53 40 54 43 55 57 56 76 57 41 58
REMARK SMILES IDX 42 59 56 61 77 62 44 63 28 64 29 65 37 66 30 67 36 68 38 69
REMARK SMILES IDX 35 70 31 71 32 72 33 73 34 74 60 75 61 76 69 77 62 78 68 79
REMARK SMILES IDX 70 80 67 81 63 82 64 83 65 84 66 85 45 86 46 87 54 88 47 89
REMARK SMILES IDX 53 90 55 91 52 92 48 93 49 94 50 95 51 96
REMARK H PARENT 11 6 7 23 7 24 7 25 16 30 75 49 43 60
REMARK Flexibility Score: inf
ROOT
ATOM      1  C   UNL A   1      34.468  21.185  24.422  1.00  0.00     0.023 C 
ENDROOT
BRANCH   1   2
ATOM      2  C   UNL A   1      33.241  21.959  23.941  1.00  0.00     0.116 C 
BRANCH   2   3
ATOM      3  N   UNL A   1      33.618  22.949  22.955  1.00  0.00    -0.356 N 
ATOM      4  C   UNL A   1      33.592  24.307  23.076  1.00  0.00     0.226 C 
ATOM      5  O   UNL A   1      33.758  25.001  22.073  1.00  0.00    -0.275 OA
ATOM      6  H   UNL A   1      33.932  22.599  22.089  1.00  0.00     0.163 HD
BRANCH   4   7
ATOM      7  C   UNL A   1      33.431  24.939  24.442  1.00  0.00     0.170 C 
BRANCH   7   8
ATOM      8  C   UNL A   1      31.986  25.326  24.796  1.00  0.00     0.228 C 
BRANCH   8   9
ATOM      9  C   UNL A   1      31.981  26.784  25.257  1.00  0.00     0.091 A 
ATOM     10  C   UNL A   1      32.967  28.535  26.689  1.00  0.00     0.161 A 
ATOM     11  C   UNL A   1      32.828  27.189  26.316  1.00  0.00     0.067 A 
ATOM     12  C   UNL A   1      32.297  29.533  25.980  1.00  0.00     0.167 A 
ATOM     13  C   UNL A   1      31.443  29.155  24.939  1.00  0.00     0.136 A 
ATOM     14  C   UNL A   1      31.282  27.804  24.586  1.00  0.00     0.282 A 
BRANCH  10  15
ATOM     15  O   UNL A   1      33.869  28.829  27.675  1.00  0.00    -0.493 OA
ATOM     16  C   UNL A   1      35.131  29.235  27.143  1.00  0.00     0.278 C 
ENDBRANCH  10  15
BRANCH  12  17
ATOM     17  O   UNL A   1      32.362  30.888  26.142  1.00  0.00    -0.493 OA
ATOM     18  C   UNL A   1      31.159  31.606  26.369  1.00  0.00     0.278 C 
ENDBRANCH  12  17
BRANCH  14  19
ATOM     19  N   UNL A   1      30.380  27.531  23.469  1.00  0.00     0.063 N 
ATOM     20  O   UNL A   1      30.849  27.587  22.326  1.00  0.00    -0.258 OA
ATOM     21  O   UNL A   1      29.220  27.198  23.750  1.00  0.00    -0.258 OA
ENDBRANCH  14  19
ENDBRANCH   8   9
BRANCH   8  22
ATOM     22  N   UNL A   1      31.380  24.465  25.815  1.00  0.00    -0.351 N 
ATOM     23  H   UNL A   1      31.002  23.628  25.371  1.00  0.00     0.345 HD
ATOM     24  H   UNL A   1      30.627  24.970  26.282  1.00  0.00     0.345 HD
ATOM     25  H   UNL A   1      32.087  24.198  26.499  1.00  0.00     0.345 HD
ENDBRANCH   8  22
ENDBRANCH   7   8
ENDBRANCH   4   7
ENDBRANCH   2   3
ENDBRANCH   1   2
BRANCH   1  26
ATOM     26  C   UNL A   1      35.767  21.981  24.413  1.00  0.00     0.023 C 
BRANCH  26  27
ATOM     27  C   UNL A   1      36.573  21.901  25.699  1.00  0.00     0.116 C 
BRANCH  27  28
ATOM     28  N   UNL A   1      37.621  20.892  25.666  1.00  0.00    -0.352 N 
ATOM     29  C   UNL A   1      38.953  21.027  25.988  1.00  0.00     0.251 C 
ATOM     30  H   UNL A   1      37.341  19.994  25.375  1.00  0.00     0.163 HD
ATOM     31  O   UNL A   1      39.726  20.103  25.798  1.00  0.00    -0.269 OA
BRANCH  29  32
ATOM     32  C   UNL A   1      39.428  22.326  26.516  1.00  0.00     0.039 A 
ATOM     33  C   UNL A   1      40.382  22.325  27.534  1.00  0.00     0.014 A 
ATOM     34  C   UNL A   1      38.983  23.528  25.960  1.00  0.00     0.014 A 
ATOM     35  C   UNL A   1      40.943  23.535  27.944  1.00  0.00     0.010 A 
ATOM     36  C   UNL A   1      39.611  24.719  26.304  1.00  0.00     0.010 A 
ATOM     37  C   UNL A   1      40.594  24.736  27.303  1.00  0.00    -0.014 A 
BRANCH  37  38
ATOM     38  C   UNL A   1      41.256  26.014  27.669  1.00  0.00     0.031 A 
ATOM     39  C   UNL A   1      42.664  26.292  27.216  1.00  0.00     0.074 A 
ATOM     40  C   UNL A   1      40.602  26.898  28.449  1.00  0.00     0.049 A 
ATOM     41  N   UNL A   1      43.412  27.341  27.440  1.00  0.00    -0.248 NA
ATOM     42  C   UNL A   1      43.332  25.237  26.437  1.00  0.00     0.031 C 
ATOM     43  C   UNL A   1      39.261  26.701  29.008  1.00  0.00     0.029 A 
ATOM     44  N   UNL A   1      40.971  28.136  28.910  1.00  0.00    -0.354 N 
ATOM     45  C   UNL A   1      44.637  27.069  26.842  1.00  0.00     0.074 A 
ATOM     46  C   UNL A   1      44.555  25.729  26.305  1.00  0.00     0.031 C 
ATOM     47  C   UNL A   1      38.909  27.795  29.703  1.00  0.00     0.029 A 
ATOM     48  C   UNL A   1      40.008  28.753  29.675  1.00  0.00     0.049 A 
ATOM     49  H   UNL A   1      41.844  28.546  28.711  1.00  0.00     0.167 HD
ATOM     50  C   UNL A   1      45.722  27.873  26.729  1.00  0.00     0.034 A 
ATOM     51  C   UNL A   1      40.012  29.954  30.286  1.00  0.00     0.034 A 
ATOM     52  C   UNL A   1      45.777  29.217  27.254  1.00  0.00     0.049 A 
ATOM     53  C   UNL A   1      41.225  30.838  30.130  1.00  0.00     0.074 A 
ATOM     54  C   UNL A   1      46.792  30.148  27.132  1.00  0.00     0.029 A 
ATOM     55  N   UNL A   1      44.777  29.816  28.011  1.00  0.00    -0.354 N 
ATOM     56  N   UNL A   1      42.344  30.598  29.486  1.00  0.00    -0.248 NA
ATOM     57  C   UNL A   1      41.166  32.159  30.766  1.00  0.00     0.031 C 
ATOM     58  C   UNL A   1      46.438  31.282  27.870  1.00  0.00     0.029 A 
ATOM     59  C   UNL A   1      45.167  31.092  28.389  1.00  0.00     0.049 A 
ATOM     60  H   UNL A   1      43.918  29.396  28.243  1.00  0.00     0.167 HD
ATOM     61  C   UNL A   1      43.113  31.750  29.621  1.00  0.00     0.074 A 
ATOM     62  C   UNL A   1      42.315  32.692  30.380  1.00  0.00     0.031 C 
ATOM     63  C   UNL A   1      44.364  32.010  29.162  1.00  0.00     0.034 A 
BRANCH  50  64
ATOM     64  C   UNL A   1      46.938  27.316  26.028  1.00  0.00     0.023 A 
ATOM     65  C   UNL A   1      47.939  26.614  26.724  1.00  0.00     0.031 A 
ATOM     66  C   UNL A   1      47.107  27.498  24.645  1.00  0.00     0.131 A 
ATOM     67  C   UNL A   1      49.090  26.179  26.050  1.00  0.00     0.055 A 
ATOM     68  C   UNL A   1      48.216  26.994  23.964  1.00  0.00     0.041 A 
ATOM     69  F   UNL A   1      46.198  28.179  23.930  1.00  0.00    -0.206 F 
ATOM     70  C   UNL A   1      49.224  26.341  24.669  1.00  0.00     0.022 A 
BRANCH  67  71
ATOM     71  S   UNL A   1      50.468  25.514  27.024  1.00  0.00     0.124 S 
ATOM     72  O   UNL A   1      49.858  24.332  27.630  1.00  0.00    -0.237 OA
ATOM     73  O   UNL A   1      51.480  25.259  26.006  1.00  0.00    -0.237 OA
ATOM     74  O   UNL A   1      50.780  26.593  27.958  1.00  0.00    -0.744 OA
ENDBRANCH  67  71
ENDBRANCH  50  64
BRANCH  51  75
ATOM     75  C   UNL A   1      38.843  30.398  31.101  1.00  0.00     0.023 A 
ATOM     76  C   UNL A   1      37.765  31.078  30.514  1.00  0.00     0.031 A 
ATOM     77  C   UNL A   1      38.813  30.194  32.492  1.00  0.00     0.131 A 
ATOM     78  C   UNL A   1      36.729  31.578  31.320  1.00  0.00     0.055 A 
ATOM     79  C   UNL A   1      37.753  30.642  33.282  1.00  0.00     0.041 A 
ATOM     80  F   UNL A   1      39.815  29.543  33.105  1.00  0.00    -0.206 F 
ATOM     81  C   UNL A   1      36.709  31.354  32.697  1.00  0.00     0.022 A 
BRANCH  78  82
ATOM     82  S   UNL A   1      35.454  32.615  30.551  1.00  0.00     0.124 S 
ATOM     83  O   UNL A   1      34.405  32.598  31.564  1.00  0.00    -0.237 OA
ATOM     84  O   UNL A   1      36.158  33.881  30.380  1.00  0.00    -0.237 OA
ATOM     85  O   UNL A   1      35.139  31.905  29.313  1.00  0.00    -0.744 OA
ENDBRANCH  78  82
ENDBRANCH  51  75
BRANCH  63  86
ATOM     86  C   UNL A   1      44.923  33.382  29.451  1.00  0.00     0.023 A 
ATOM     87  C   UNL A   1      44.724  34.459  28.569  1.00  0.00     0.031 A 
ATOM     88  C   UNL A   1      45.688  33.608  30.609  1.00  0.00     0.131 A 
ATOM     89  C   UNL A   1      45.343  35.692  28.821  1.00  0.00     0.055 A 
ATOM     90  C   UNL A   1      46.243  34.857  30.890  1.00  0.00     0.041 A 
ATOM     91  F   UNL A   1      45.911  32.616  31.485  1.00  0.00    -0.206 F 
ATOM     92  C   UNL A   1      46.087  35.903  29.985  1.00  0.00     0.022 A 
BRANCH  89  93
ATOM     93  S   UNL A   1      45.260  36.982  27.549  1.00  0.00     0.124 S 
ATOM     94  O   UNL A   1      45.621  38.177  28.305  1.00  0.00    -0.237 OA
ATOM     95  O   UNL A   1      46.246  36.523  26.575  1.00  0.00    -0.237 OA
ATOM     96  O   UNL A   1      43.871  36.929  27.097  1.00  0.00    -0.744 OA
ENDBRANCH  89  93
ENDBRANCH  63  86
ENDBRANCH  37  38
ENDBRANCH  29  32
ENDBRANCH  27  28
ENDBRANCH  26  27
ENDBRANCH   1  26
TORSDOF 20
ENDMDL
MODEL 3
REMARK VINA RESULT:      -9.9      5.242      8.614
REMARK SMILES COc1cc([C@H]([NH3+])CC(=O)NCCCCNC(=O)c2ccc(-c3c4nc(c(-c5cc(S(=O)(=O)[O-])ccc5F)c5ccc([nH]5)c(-c5cc(S(=O)(=O)[O-])ccc5F)c5nc(c(-c6cc(S(=O)(=O)[O-])ccc6F)c6ccc3[nH]6)C=C5)C=C4)cc2)c([N+](=O)[O-])cc1OC
REMARK SMILES IDX 13 1 12 2 11 3 9 4 10 5 8 7 6 8 5 9 3 10 4 11 87 12 86 13
REMARK SMILES IDX 82 14 2 15 1 16 88 17 89 18 83 19 84 20 85 21 7 22 14 26
REMARK SMILES IDX 15 27 16 28 17 29 18 31 19 32 20 33 81 34 21 35 80 36 22 37
REMARK SMILES IDX 23 38 24 39 74 40 25 41 79 42 73 43 75 44 26 45 78 46 72 47
REMARK SMILES IDX 71 48 27 50 59 51 39 52 58 53 40 54 43 55 57 56 76 57 41 58
REMARK SMILES IDX 42 59 56 61 77 62 44 63 28 64 29 65 37 66 30 67 36 68 38 69
REMARK SMILES IDX 35 70 31 71 32 72 33 73 34 74 60 75 61 76 69 77 62 78 68 79
REMARK SMILES IDX 70 80 67 81 63 82 64 83 65 84 66 85 45 86 46 87 54 88 47 89
REMARK SMILES IDX 53 90 55 91 52 92 48 93 49 94 50 95 51 96
REMARK H PARENT 11 6 7 23 7 24 7 25 16 30 75 49 43 60
REMARK Flexibility Score: inf
ROOT
ATOM      1  C   UNL A   1      35.017  30.817  28.025  1.00  0.00     0.023 C 
ENDROOT
BRANCH   1   2
ATOM      2  C   UNL A   1      34.739  29.426  27.455  1.00  0.00     0.116 C 
BRANCH   2   3
ATOM      3  N   UNL A   1      33.427  28.964  27.855  1.00  0.00    -0.356 N 
ATOM      4  C   UNL A   1      32.659  28.005  27.265  1.00  0.00     0.226 C 
ATOM      5  O   UNL A   1      31.486  27.876  27.618  1.00  0.00    -0.275 OA
ATOM      6  H   UNL A   1      33.042  29.395  28.653  1.00  0.00     0.163 HD
BRANCH   4   7
ATOM      7  C   UNL A   1      33.270  27.073  26.241  1.00  0.00     0.170 C 
BRANCH   7   8
ATOM      8  C   UNL A   1      32.380  25.881  25.856  1.00  0.00     0.228 C 
BRANCH   8   9
ATOM      9  C   UNL A   1      33.266  24.640  25.739  1.00  0.00     0.091 A 
ATOM     10  C   UNL A   1      35.522  23.697  25.411  1.00  0.00     0.161 A 
ATOM     11  C   UNL A   1      34.632  24.781  25.398  1.00  0.00     0.067 A 
ATOM     12  C   UNL A   1      35.085  22.435  25.818  1.00  0.00     0.167 A 
ATOM     13  C   UNL A   1      33.736  22.268  26.146  1.00  0.00     0.136 A 
ATOM     14  C   UNL A   1      32.839  23.349  26.102  1.00  0.00     0.282 A 
BRANCH  10  15
ATOM     15  O   UNL A   1      36.838  23.954  25.139  1.00  0.00    -0.493 OA
ATOM     16  C   UNL A   1      37.654  23.869  26.309  1.00  0.00     0.278 C 
ENDBRANCH  10  15
BRANCH  12  17
ATOM     17  O   UNL A   1      35.809  21.286  25.967  1.00  0.00    -0.493 OA
ATOM     18  C   UNL A   1      35.748  20.303  24.944  1.00  0.00     0.278 C 
ENDBRANCH  12  17
BRANCH  14  19
ATOM     19  N   UNL A   1      31.459  23.061  26.487  1.00  0.00     0.063 N 
ATOM     20  O   UNL A   1      31.209  22.961  27.693  1.00  0.00    -0.258 OA
ATOM     21  O   UNL A   1      30.622  23.000  25.575  1.00  0.00    -0.258 OA
ENDBRANCH  14  19
ENDBRANCH   8   9
BRANCH   8  22
ATOM     22  N   UNL A   1      31.624  26.088  24.617  1.00  0.00    -0.351 N 
ATOM     23  H   UNL A   1      30.863  25.411  24.567  1.00  0.00     0.345 HD
ATOM     24  H   UNL A   1      32.243  25.962  23.817  1.00  0.00     0.345 HD
ATOM     25  H   UNL A   1      31.242  27.032  24.606  1.00  0.00     0.345 HD
ENDBRANCH   8  22
ENDBRANCH   7   8
ENDBRANCH   4   7
ENDBRANCH   2   3
ENDBRANCH   1   2
BRANCH   1  26
ATOM     26  C   UNL A   1      34.330  31.957  27.282  1.00  0.00     0.023 C 
BRANCH  26  27
ATOM     27  C   UNL A   1      33.032  32.437  27.911  1.00  0.00     0.116 C 
BRANCH  27  28
ATOM     28  N   UNL A   1      32.896  33.885  27.929  1.00  0.00    -0.352 N 
ATOM     29  C   UNL A   1      33.611  34.805  28.663  1.00  0.00     0.251 C 
ATOM     30  H   UNL A   1      32.202  34.258  27.338  1.00  0.00     0.163 HD
ATOM     31  O   UNL A   1      33.296  35.983  28.645  1.00  0.00    -0.269 OA
BRANCH  29  32
ATOM     32  C   UNL A   1      34.729  34.326  29.507  1.00  0.00     0.039 A 
ATOM     33  C   UNL A   1      34.432  33.620  30.673  1.00  0.00     0.014 A 
ATOM     34  C   UNL A   1      36.055  34.514  29.110  1.00  0.00     0.014 A 
ATOM     35  C   UNL A   1      35.470  33.041  31.405  1.00  0.00     0.010 A 
ATOM     36  C   UNL A   1      37.077  33.858  29.787  1.00  0.00     0.010 A 
ATOM     37  C   UNL A   1      36.795  33.118  30.943  1.00  0.00    -0.014 A 
BRANCH  37  38
ATOM     38  C   UNL A   1      37.893  32.425  31.664  1.00  0.00     0.031 A 
ATOM     39  C   UNL A   1      38.655  31.315  30.991  1.00  0.00     0.074 A 
ATOM     40  C   UNL A   1      38.167  32.766  32.939  1.00  0.00     0.049 A 
ATOM     41  N   UNL A   1      39.636  30.587  31.456  1.00  0.00    -0.248 NA
ATOM     42  C   UNL A   1      38.236  30.953  29.627  1.00  0.00     0.031 C 
ATOM     43  C   UNL A   1      37.443  33.777  33.717  1.00  0.00     0.029 A 
ATOM     44  N   UNL A   1      39.120  32.304  33.809  1.00  0.00    -0.354 N 
ATOM     45  C   UNL A   1      39.944  29.676  30.452  1.00  0.00     0.074 A 
ATOM     46  C   UNL A   1      39.000  29.900  29.379  1.00  0.00     0.031 C 
ATOM     47  C   UNL A   1      38.005  33.883  34.932  1.00  0.00     0.029 A 
ATOM     48  C   UNL A   1      39.098  32.924  35.038  1.00  0.00     0.049 A 
ATOM     49  H   UNL A   1      39.763  31.595  33.576  1.00  0.00     0.167 HD
ATOM     50  C   UNL A   1      40.939  28.757  30.417  1.00  0.00     0.034 A 
ATOM     51  C   UNL A   1      39.872  32.739  36.126  1.00  0.00     0.034 A 
ATOM     52  C   UNL A   1      41.885  28.564  31.490  1.00  0.00     0.049 A 
ATOM     53  C   UNL A   1      40.983  31.722  36.055  1.00  0.00     0.074 A 
ATOM     54  C   UNL A   1      42.978  27.719  31.532  1.00  0.00     0.029 A 
ATOM     55  N   UNL A   1      41.843  29.221  32.714  1.00  0.00    -0.354 N 
ATOM     56  N   UNL A   1      41.314  30.928  35.062  1.00  0.00    -0.248 NA
ATOM     57  C   UNL A   1      41.835  31.590  37.242  1.00  0.00     0.031 C 
ATOM     58  C   UNL A   1      43.555  27.812  32.803  1.00  0.00     0.029 A 
ATOM     59  C   UNL A   1      42.871  28.773  33.529  1.00  0.00     0.049 A 
ATOM     60  H   UNL A   1      41.180  29.903  32.965  1.00  0.00     0.167 HD
ATOM     61  C   UNL A   1      42.430  30.220  35.500  1.00  0.00     0.074 A 
ATOM     62  C   UNL A   1      42.730  30.704  36.833  1.00  0.00     0.031 C 
ATOM     63  C   UNL A   1      43.143  29.256  34.863  1.00  0.00     0.034 A 
BRANCH  50  64
ATOM     64  C   UNL A   1      41.042  27.882  29.190  1.00  0.00     0.023 A 
ATOM     65  C   UNL A   1      42.042  28.078  28.221  1.00  0.00     0.031 A 
ATOM     66  C   UNL A   1      40.119  26.843  28.978  1.00  0.00     0.131 A 
ATOM     67  C   UNL A   1      42.057  27.294  27.058  1.00  0.00     0.055 A 
ATOM     68  C   UNL A   1      40.185  26.014  27.857  1.00  0.00     0.041 A 
ATOM     69  F   UNL A   1      39.127  26.622  29.856  1.00  0.00    -0.206 F 
ATOM     70  C   UNL A   1      41.151  26.246  26.881  1.00  0.00     0.022 A 
BRANCH  67  71
ATOM     71  S   UNL A   1      43.194  27.746  25.719  1.00  0.00     0.124 S 
ATOM     72  O   UNL A   1      42.265  28.038  24.629  1.00  0.00    -0.237 OA
ATOM     73  O   UNL A   1      43.901  28.892  26.279  1.00  0.00    -0.237 OA
ATOM     74  O   UNL A   1      44.002  26.543  25.534  1.00  0.00    -0.744 OA
ENDBRANCH  67  71
ENDBRANCH  50  64
BRANCH  51  75
ATOM     75  C   UNL A   1      39.630  33.521  37.373  1.00  0.00     0.023 A 
ATOM     76  C   UNL A   1      39.044  32.927  38.502  1.00  0.00     0.031 A 
ATOM     77  C   UNL A   1      39.936  34.892  37.437  1.00  0.00     0.131 A 
ATOM     78  C   UNL A   1      38.730  33.710  39.624  1.00  0.00     0.055 A 
ATOM     79  C   UNL A   1      39.676  35.655  38.576  1.00  0.00     0.041 A 
ATOM     80  F   UNL A   1      40.504  35.511  36.389  1.00  0.00    -0.206 F 
ATOM     81  C   UNL A   1      39.053  35.068  39.674  1.00  0.00     0.022 A 
BRANCH  78  82
ATOM     82  S   UNL A   1      37.800  32.949  40.983  1.00  0.00     0.124 S 
ATOM     83  O   UNL A   1      36.439  33.383  40.693  1.00  0.00    -0.237 OA
ATOM     84  O   UNL A   1      38.077  31.531  40.781  1.00  0.00    -0.237 OA
ATOM     85  O   UNL A   1      38.403  33.537  42.178  1.00  0.00    -0.744 OA
ENDBRANCH  78  82
ENDBRANCH  51  75
BRANCH  63  86
ATOM     86  C   UNL A   1      44.334  28.692  35.600  1.00  0.00     0.023 A 
ATOM     87  C   UNL A   1      44.204  27.613  36.492  1.00  0.00     0.031 A 
ATOM     88  C   UNL A   1      45.609  29.260  35.430  1.00  0.00     0.131 A 
ATOM     89  C   UNL A   1      45.314  27.183  37.234  1.00  0.00     0.055 A 
ATOM     90  C   UNL A   1      46.724  28.782  36.119  1.00  0.00     0.041 A 
ATOM     91  F   UNL A   1      45.791  30.293  34.592  1.00  0.00    -0.206 F 
ATOM     92  C   UNL A   1      46.577  27.749  37.041  1.00  0.00     0.022 A 
BRANCH  89  93
ATOM     93  S   UNL A   1      45.061  25.952  38.541  1.00  0.00     0.124 S 
ATOM     94  O   UNL A   1      44.386  26.737  39.570  1.00  0.00    -0.237 OA
ATOM     95  O   UNL A   1      44.243  24.947  37.869  1.00  0.00    -0.237 OA
ATOM     96  O   UNL A   1      46.417  25.524  38.878  1.00  0.00    -0.744 OA
ENDBRANCH  89  93
ENDBRANCH  63  86
ENDBRANCH  37  38
ENDBRANCH  29  32
ENDBRANCH  27  28
ENDBRANCH  26  27
ENDBRANCH   1  26
TORSDOF 20
ENDMDL
