MODEL 1
REMARK VINA RESULT:     -11.5      0.000      0.000
REMARK SMILES CSCC[C@@H](C(=O)NCCCCNC(=O)c1ccc(-c2c3nc(c(-c4cc(S(=O)(=O)[O-])ccc4F)c4ccc([nH]4)c(-c4cc(S(=O)(=O)[O-])ccc4F)c4nc(c(-c5cc(S(=O)(=O)[O-])ccc5F)c5ccc2[nH]5)C=C4)C=C3)cc1)N1C(=O)/C(=C/c2ccc(-c3ccccc3Cl)o2)SC1=S
REMARK SMILES IDX 10 1 9 2 8 3 6 4 7 5 5 7 4 8 3 9 2 10 1 11 79 12 80 13 97 14
REMARK SMILES IDX 81 15 82 16 96 17 98 18 83 19 84 20 85 21 95 22 86 23 87 24
REMARK SMILES IDX 88 25 89 26 93 27 90 28 92 29 94 30 91 31 11 32 12 33 13 34
REMARK SMILES IDX 14 35 15 37 16 38 17 39 78 40 18 41 77 42 19 43 20 44 21 45
REMARK SMILES IDX 71 46 22 47 76 48 70 49 72 50 23 51 75 52 69 53 68 54 24 56
REMARK SMILES IDX 56 57 36 58 55 59 37 60 40 61 54 62 73 63 38 64 39 65 53 67
REMARK SMILES IDX 74 68 41 69 25 70 26 71 34 72 27 73 33 74 35 75 32 76 28 77
REMARK SMILES IDX 29 78 30 79 31 80 57 81 58 82 66 83 59 84 65 85 67 86 64 87
REMARK SMILES IDX 60 88 61 89 62 90 63 91 42 92 43 93 51 94 44 95 50 96 52 97
REMARK SMILES IDX 49 98 45 99 46 100 47 101 48 102
REMARK H PARENT 8 6 13 36 72 55 40 66
REMARK Flexibility Score: inf
ROOT
ATOM      1  C   UNL A   1      34.521  30.805  27.869  1.00  0.00     0.023 C 
ENDROOT
BRANCH   1   2
ATOM      2  C   UNL A   1      34.159  29.545  27.079  1.00  0.00     0.116 C 
BRANCH   2   3
ATOM      3  N   UNL A   1      33.030  28.883  27.691  1.00  0.00    -0.354 N 
ATOM      4  C   UNL A   1      32.003  28.179  27.143  1.00  0.00     0.243 C 
ATOM      5  O   UNL A   1      31.129  27.793  27.925  1.00  0.00    -0.273 OA
ATOM      6  H   UNL A   1      33.000  28.951  28.673  1.00  0.00     0.163 HD
BRANCH   4   7
ATOM      7  C   UNL A   1      31.942  27.854  25.624  1.00  0.00     0.182 C 
BRANCH   7   8
ATOM      8  C   UNL A   1      30.584  28.129  24.943  1.00  0.00     0.046 C 
BRANCH   8   9
ATOM      9  C   UNL A   1      30.531  28.612  23.493  1.00  0.00     0.072 C 
BRANCH   9  10
ATOM     10  S   UNL A   1      29.435  30.037  23.189  1.00  0.00    -0.165 SA
ATOM     11  C   UNL A   1      27.866  29.204  22.851  1.00  0.00     0.085 C 
ENDBRANCH   9  10
ENDBRANCH   8   9
ENDBRANCH   7   8
BRANCH   7  12
ATOM     12  N   UNL A   1      32.367  26.417  25.543  1.00  0.00    -0.280 N 
ATOM     13  C   UNL A   1      33.732  26.160  25.456  1.00  0.00     0.267 C 
ATOM     14  C   UNL A   1      31.573  25.301  25.763  1.00  0.00     0.149 C 
ATOM     15  O   UNL A   1      34.615  27.004  25.355  1.00  0.00    -0.268 OA
ATOM     16  C   UNL A   1      34.005  24.695  25.483  1.00  0.00     0.084 C 
ATOM     17  S   UNL A   1      32.516  23.841  25.497  1.00  0.00    -0.054 SA
ATOM     18  S   UNL A   1      29.964  25.160  26.193  1.00  0.00    -0.052 S 
ATOM     19  C   UNL A   1      35.239  24.166  25.512  1.00  0.00     0.068 C 
BRANCH  19  20
ATOM     20  C   UNL A   1      35.459  22.764  25.375  1.00  0.00     0.128 A 
ATOM     21  C   UNL A   1      36.636  22.064  25.620  1.00  0.00     0.051 A 
ATOM     22  O   UNL A   1      34.506  21.848  24.972  1.00  0.00    -0.457 OA
ATOM     23  C   UNL A   1      36.411  20.708  25.311  1.00  0.00     0.051 A 
ATOM     24  C   UNL A   1      35.102  20.621  24.897  1.00  0.00     0.136 A 
BRANCH  24  25
ATOM     25  C   UNL A   1      34.302  19.486  24.450  1.00  0.00     0.036 A 
ATOM     26  C   UNL A   1      34.863  18.199  24.572  1.00  0.00     0.013 A 
ATOM     27  C   UNL A   1      33.061  19.610  23.805  1.00  0.00     0.052 A 
ATOM     28  C   UNL A   1      34.217  17.073  24.056  1.00  0.00     0.001 A 
ATOM     29  C   UNL A   1      32.416  18.477  23.288  1.00  0.00     0.021 A 
ATOM     30  Cl  UNL A   1      32.299  21.139  23.536  1.00  0.00    -0.084 Cl
ATOM     31  C   UNL A   1      32.995  17.213  23.408  1.00  0.00     0.002 A 
ENDBRANCH  24  25
ENDBRANCH  19  20
ENDBRANCH   7  12
ENDBRANCH   4   7
ENDBRANCH   2   3
ENDBRANCH   1   2
BRANCH   1  32
ATOM     32  C   UNL A   1      33.494  31.928  27.725  1.00  0.00     0.023 C 
BRANCH  32  33
ATOM     33  C   UNL A   1      34.091  33.327  27.835  1.00  0.00     0.116 C 
BRANCH  33  34
ATOM     34  N   UNL A   1      33.318  34.218  28.692  1.00  0.00    -0.352 N 
ATOM     35  C   UNL A   1      33.514  34.500  30.024  1.00  0.00     0.251 C 
ATOM     36  H   UNL A   1      32.559  34.676  28.263  1.00  0.00     0.163 HD
ATOM     37  O   UNL A   1      32.712  35.201  30.633  1.00  0.00    -0.269 OA
BRANCH  35  38
ATOM     38  C   UNL A   1      34.673  33.899  30.713  1.00  0.00     0.039 A 
ATOM     39  C   UNL A   1      34.486  32.743  31.471  1.00  0.00     0.014 A 
ATOM     40  C   UNL A   1      35.952  34.429  30.522  1.00  0.00     0.014 A 
ATOM     41  C   UNL A   1      35.600  32.063  31.969  1.00  0.00     0.010 A 
ATOM     42  C   UNL A   1      37.060  33.707  30.950  1.00  0.00     0.010 A 
ATOM     43  C   UNL A   1      36.896  32.513  31.670  1.00  0.00    -0.014 A 
BRANCH  43  44
ATOM     44  C   UNL A   1      38.098  31.753  32.098  1.00  0.00     0.031 A 
ATOM     45  C   UNL A   1      38.804  32.129  33.372  1.00  0.00     0.074 A 
ATOM     46  C   UNL A   1      38.600  30.787  31.303  1.00  0.00     0.049 A 
ATOM     47  N   UNL A   1      39.925  31.672  33.865  1.00  0.00    -0.248 NA
ATOM     48  C   UNL A   1      38.182  33.192  34.175  1.00  0.00     0.031 C 
ATOM     49  C   UNL A   1      38.035  30.371  30.016  1.00  0.00     0.029 A 
ATOM     50  N   UNL A   1      39.705  29.987  31.450  1.00  0.00    -0.354 N 
ATOM     51  C   UNL A   1      40.153  32.405  35.025  1.00  0.00     0.074 A 
ATOM     52  C   UNL A   1      39.090  33.381  35.120  1.00  0.00     0.031 C 
ATOM     53  C   UNL A   1      38.786  29.381  29.504  1.00  0.00     0.029 A 
ATOM     54  C   UNL A   1      39.905  29.118  30.402  1.00  0.00     0.049 A 
ATOM     55  H   UNL A   1      40.300  30.031  32.233  1.00  0.00     0.167 HD
ATOM     56  C   UNL A   1      41.143  32.258  35.941  1.00  0.00     0.034 A 
ATOM     57  C   UNL A   1      40.887  28.220  30.185  1.00  0.00     0.034 A 
ATOM     58  C   UNL A   1      42.183  31.263  35.841  1.00  0.00     0.049 A 
ATOM     59  C   UNL A   1      41.973  28.068  31.220  1.00  0.00     0.074 A 
ATOM     60  C   UNL A   1      43.204  30.988  36.733  1.00  0.00     0.029 A 
ATOM     61  N   UNL A   1      42.335  30.378  34.781  1.00  0.00    -0.354 N 
ATOM     62  N   UNL A   1      42.148  28.737  32.336  1.00  0.00    -0.248 NA
ATOM     63  C   UNL A   1      42.985  27.033  30.970  1.00  0.00     0.031 C 
ATOM     64  C   UNL A   1      44.003  29.977  36.189  1.00  0.00     0.029 A 
ATOM     65  C   UNL A   1      43.443  29.571  34.988  1.00  0.00     0.049 A 
ATOM     66  H   UNL A   1      41.742  30.330  33.996  1.00  0.00     0.167 HD
ATOM     67  C   UNL A   1      43.275  28.181  32.936  1.00  0.00     0.074 A 
ATOM     68  C   UNL A   1      43.727  27.115  32.065  1.00  0.00     0.031 C 
ATOM     69  C   UNL A   1      43.881  28.518  34.104  1.00  0.00     0.034 A 
BRANCH  56  70
ATOM     70  C   UNL A   1      41.145  33.210  37.113  1.00  0.00     0.023 A 
ATOM     71  C   UNL A   1      40.542  32.869  38.337  1.00  0.00     0.031 A 
ATOM     72  C   UNL A   1      41.716  34.489  36.995  1.00  0.00     0.131 A 
ATOM     73  C   UNL A   1      40.443  33.823  39.359  1.00  0.00     0.055 A 
ATOM     74  C   UNL A   1      41.691  35.405  38.049  1.00  0.00     0.041 A 
ATOM     75  F   UNL A   1      42.287  34.880  35.846  1.00  0.00    -0.206 F 
ATOM     76  C   UNL A   1      41.036  35.081  39.234  1.00  0.00     0.022 A 
BRANCH  73  77
ATOM     77  S   UNL A   1      39.393  33.450  40.790  1.00  0.00     0.124 S 
ATOM     78  O   UNL A   1      38.819  32.162  40.404  1.00  0.00    -0.237 OA
ATOM     79  O   UNL A   1      40.353  33.419  41.887  1.00  0.00    -0.237 OA
ATOM     80  O   UNL A   1      38.445  34.561  40.820  1.00  0.00    -0.744 OA
ENDBRANCH  73  77
ENDBRANCH  56  70
BRANCH  57  81
ATOM     81  C   UNL A   1      40.899  27.397  28.942  1.00  0.00     0.023 A 
ATOM     82  C   UNL A   1      41.841  27.632  27.928  1.00  0.00     0.031 A 
ATOM     83  C   UNL A   1      39.942  26.387  28.732  1.00  0.00     0.131 A 
ATOM     84  C   UNL A   1      41.777  26.904  26.731  1.00  0.00     0.055 A 
ATOM     85  C   UNL A   1      39.913  25.631  27.559  1.00  0.00     0.041 A 
ATOM     86  F   UNL A   1      39.025  26.114  29.674  1.00  0.00    -0.206 F 
ATOM     87  C   UNL A   1      40.827  25.898  26.543  1.00  0.00     0.022 A 
BRANCH  84  88
ATOM     88  S   UNL A   1      42.908  27.348  25.384  1.00  0.00     0.124 S 
ATOM     89  O   UNL A   1      43.040  26.080  24.675  1.00  0.00    -0.237 OA
ATOM     90  O   UNL A   1      42.160  28.394  24.694  1.00  0.00    -0.237 OA
ATOM     91  O   UNL A   1      44.109  27.801  26.083  1.00  0.00    -0.744 OA
ENDBRANCH  84  88
ENDBRANCH  57  81
BRANCH  69  92
ATOM     92  C   UNL A   1      45.069  27.688  34.520  1.00  0.00     0.023 A 
ATOM     93  C   UNL A   1      44.919  26.483  35.228  1.00  0.00     0.031 A 
ATOM     94  C   UNL A   1      46.372  28.118  34.211  1.00  0.00     0.131 A 
ATOM     95  C   UNL A   1      46.054  25.774  35.648  1.00  0.00     0.055 A 
ATOM     96  C   UNL A   1      47.495  27.381  34.582  1.00  0.00     0.041 A 
ATOM     97  F   UNL A   1      46.571  29.262  33.537  1.00  0.00    -0.206 F 
ATOM     98  C   UNL A   1      47.341  26.207  35.316  1.00  0.00     0.022 A 
BRANCH  95  99
ATOM     99  S   UNL A   1      45.830  24.320  36.707  1.00  0.00     0.124 S 
ATOM    100  O   UNL A   1      44.377  24.183  36.733  1.00  0.00    -0.237 OA
ATOM    101  O   UNL A   1      46.555  23.286  35.975  1.00  0.00    -0.237 OA
ATOM    102  O   UNL A   1      46.438  24.722  37.975  1.00  0.00    -0.744 OA
ENDBRANCH  95  99
ENDBRANCH  69  92
ENDBRANCH  43  44
ENDBRANCH  35  38
ENDBRANCH  33  34
ENDBRANCH  32  33
ENDBRANCH   1  32
TORSDOF 20
ENDMDL
MODEL 2
REMARK VINA RESULT:     -11.3      5.111      8.973
REMARK SMILES CSCC[C@@H](C(=O)NCCCCNC(=O)c1ccc(-c2c3nc(c(-c4cc(S(=O)(=O)[O-])ccc4F)c4ccc([nH]4)c(-c4cc(S(=O)(=O)[O-])ccc4F)c4nc(c(-c5cc(S(=O)(=O)[O-])ccc5F)c5ccc2[nH]5)C=C4)C=C3)cc1)N1C(=O)/C(=C/c2ccc(-c3ccccc3Cl)o2)SC1=S
REMARK SMILES IDX 10 1 9 2 8 3 6 4 7 5 5 7 4 8 3 9 2 10 1 11 79 12 80 13 97 14
REMARK SMILES IDX 81 15 82 16 96 17 98 18 83 19 84 20 85 21 95 22 86 23 87 24
REMARK SMILES IDX 88 25 89 26 93 27 90 28 92 29 94 30 91 31 11 32 12 33 13 34
REMARK SMILES IDX 14 35 15 37 16 38 17 39 78 40 18 41 77 42 19 43 20 44 21 45
REMARK SMILES IDX 71 46 22 47 76 48 70 49 72 50 23 51 75 52 69 53 68 54 24 56
REMARK SMILES IDX 56 57 36 58 55 59 37 60 40 61 54 62 73 63 38 64 39 65 53 67
REMARK SMILES IDX 74 68 41 69 25 70 26 71 34 72 27 73 33 74 35 75 32 76 28 77
REMARK SMILES IDX 29 78 30 79 31 80 57 81 58 82 66 83 59 84 65 85 67 86 64 87
REMARK SMILES IDX 60 88 61 89 62 90 63 91 42 92 43 93 51 94 44 95 50 96 52 97
REMARK SMILES IDX 49 98 45 99 46 100 47 101 48 102
REMARK H PARENT 8 6 13 36 72 55 40 66
REMARK Flexibility Score: inf
ROOT
ATOM      1  C   UNL A   1      34.189  23.096  26.513  1.00  0.00     0.023 C 
ENDROOT
BRANCH   1   2
ATOM      2  C   UNL A   1      32.875  23.595  25.907  1.00  0.00     0.116 C 
BRANCH   2   3
ATOM      3  N   UNL A   1      33.054  23.885  24.503  1.00  0.00    -0.354 N 
ATOM      4  C   UNL A   1      32.404  24.752  23.681  1.00  0.00     0.243 C 
ATOM      5  O   UNL A   1      32.730  24.722  22.490  1.00  0.00    -0.273 OA
ATOM      6  H   UNL A   1      33.769  23.368  24.067  1.00  0.00     0.163 HD
BRANCH   4   7
ATOM      7  C   UNL A   1      31.331  25.746  24.209  1.00  0.00     0.182 C 
BRANCH   7   8
ATOM      8  C   UNL A   1      30.200  26.087  23.214  1.00  0.00     0.046 C 
BRANCH   8   9
ATOM      9  C   UNL A   1      29.099  27.072  23.607  1.00  0.00     0.072 C 
BRANCH   9  10
ATOM     10  S   UNL A   1      29.266  28.746  22.905  1.00  0.00    -0.165 SA
ATOM     11  C   UNL A   1      27.541  29.284  22.869  1.00  0.00     0.085 C 
ENDBRANCH   9  10
ENDBRANCH   8   9
ENDBRANCH   7   8
BRANCH   7  12
ATOM     12  N   UNL A   1      32.126  26.944  24.639  1.00  0.00    -0.280 N 
ATOM     13  C   UNL A   1      32.337  27.111  26.005  1.00  0.00     0.267 C 
ATOM     14  C   UNL A   1      32.863  27.789  23.824  1.00  0.00     0.149 C 
ATOM     15  O   UNL A   1      31.862  26.416  26.894  1.00  0.00    -0.268 OA
ATOM     16  C   UNL A   1      33.221  28.281  26.271  1.00  0.00     0.084 C 
ATOM     17  S   UNL A   1      33.572  29.076  24.790  1.00  0.00    -0.054 SA
ATOM     18  S   UNL A   1      33.134  27.771  22.175  1.00  0.00    -0.052 S 
ATOM     19  C   UNL A   1      33.668  28.616  27.492  1.00  0.00     0.068 C 
BRANCH  19  20
ATOM     20  C   UNL A   1      34.377  29.831  27.726  1.00  0.00     0.128 A 
ATOM     21  C   UNL A   1      35.743  30.055  27.587  1.00  0.00     0.051 A 
ATOM     22  O   UNL A   1      33.800  31.019  28.132  1.00  0.00    -0.457 OA
ATOM     23  C   UNL A   1      36.009  31.385  27.965  1.00  0.00     0.051 A 
ATOM     24  C   UNL A   1      34.797  31.935  28.313  1.00  0.00     0.136 A 
BRANCH  24  25
ATOM     25  C   UNL A   1      34.440  33.268  28.785  1.00  0.00     0.036 A 
ATOM     26  C   UNL A   1      34.373  34.305  27.834  1.00  0.00     0.013 A 
ATOM     27  C   UNL A   1      34.273  33.599  30.140  1.00  0.00     0.052 A 
ATOM     28  C   UNL A   1      34.160  35.632  28.219  1.00  0.00     0.001 A 
ATOM     29  C   UNL A   1      34.059  34.931  30.522  1.00  0.00     0.021 A 
ATOM     30  Cl  UNL A   1      34.397  32.429  31.407  1.00  0.00    -0.084 Cl
ATOM     31  C   UNL A   1      34.009  35.946  29.565  1.00  0.00     0.002 A 
ENDBRANCH  24  25
ENDBRANCH  19  20
ENDBRANCH   7  12
ENDBRANCH   4   7
ENDBRANCH   2   3
ENDBRANCH   1   2
BRANCH   1  32
ATOM     32  C   UNL A   1      35.341  23.048  25.508  1.00  0.00     0.023 C 
BRANCH  32  33
ATOM     33  C   UNL A   1      36.709  23.317  26.126  1.00  0.00     0.116 C 
BRANCH  33  34
ATOM     34  N   UNL A   1      37.621  22.185  26.021  1.00  0.00    -0.352 N 
ATOM     35  C   UNL A   1      38.970  22.150  26.287  1.00  0.00     0.251 C 
ATOM     36  H   UNL A   1      37.220  21.336  25.722  1.00  0.00     0.163 HD
ATOM     37  O   UNL A   1      39.622  21.137  26.055  1.00  0.00    -0.269 OA
BRANCH  35  38
ATOM     38  C   UNL A   1      39.622  23.370  26.803  1.00  0.00     0.039 A 
ATOM     39  C   UNL A   1      40.514  23.261  27.872  1.00  0.00     0.014 A 
ATOM     40  C   UNL A   1      39.422  24.596  26.164  1.00  0.00     0.014 A 
ATOM     41  C   UNL A   1      41.275  24.371  28.244  1.00  0.00     0.010 A 
ATOM     42  C   UNL A   1      40.237  25.674  26.483  1.00  0.00     0.010 A 
ATOM     43  C   UNL A   1      41.178  25.571  27.521  1.00  0.00    -0.014 A 
BRANCH  43  44
ATOM     44  C   UNL A   1      42.050  26.734  27.828  1.00  0.00     0.031 A 
ATOM     45  C   UNL A   1      41.518  27.863  28.667  1.00  0.00     0.074 A 
ATOM     46  C   UNL A   1      43.282  26.811  27.286  1.00  0.00     0.049 A 
ATOM     47  N   UNL A   1      42.070  29.012  28.957  1.00  0.00    -0.248 NA
ATOM     48  C   UNL A   1      40.166  27.689  29.218  1.00  0.00     0.031 C 
ATOM     49  C   UNL A   1      43.886  25.803  26.410  1.00  0.00     0.029 A 
ATOM     50  N   UNL A   1      44.244  27.785  27.379  1.00  0.00    -0.354 N 
ATOM     51  C   UNL A   1      41.127  29.706  29.706  1.00  0.00     0.074 A 
ATOM     52  C   UNL A   1      39.943  28.874  29.764  1.00  0.00     0.031 C 
ATOM     53  C   UNL A   1      45.121  26.203  26.065  1.00  0.00     0.029 A 
ATOM     54  C   UNL A   1      45.383  27.511  26.658  1.00  0.00     0.049 A 
ATOM     55  H   UNL A   1      44.129  28.605  27.911  1.00  0.00     0.167 HD
ATOM     56  C   UNL A   1      41.245  30.913  30.314  1.00  0.00     0.034 A 
ATOM     57  C   UNL A   1      46.507  28.236  26.486  1.00  0.00     0.034 A 
ATOM     58  C   UNL A   1      42.440  31.718  30.264  1.00  0.00     0.049 A 
ATOM     59  C   UNL A   1      46.620  29.571  27.177  1.00  0.00     0.074 A 
ATOM     60  C   UNL A   1      42.692  32.929  30.883  1.00  0.00     0.029 A 
ATOM     61  N   UNL A   1      43.587  31.393  29.551  1.00  0.00    -0.354 N 
ATOM     62  N   UNL A   1      45.736  30.193  27.922  1.00  0.00    -0.248 NA
ATOM     63  C   UNL A   1      47.887  30.296  27.012  1.00  0.00     0.031 C 
ATOM     64  C   UNL A   1      43.967  33.361  30.502  1.00  0.00     0.029 A 
ATOM     65  C   UNL A   1      44.540  32.388  29.699  1.00  0.00     0.049 A 
ATOM     66  H   UNL A   1      43.706  30.573  29.018  1.00  0.00     0.167 HD
ATOM     67  C   UNL A   1      46.352  31.369  28.340  1.00  0.00     0.074 A 
ATOM     68  C   UNL A   1      47.687  31.361  27.774  1.00  0.00     0.031 C 
ATOM     69  C   UNL A   1      45.863  32.365  29.122  1.00  0.00     0.034 A 
BRANCH  56  70
ATOM     70  C   UNL A   1      40.040  31.428  31.065  1.00  0.00     0.023 A 
ATOM     71  C   UNL A   1      39.951  31.332  32.465  1.00  0.00     0.031 A 
ATOM     72  C   UNL A   1      38.949  31.982  30.373  1.00  0.00     0.131 A 
ATOM     73  C   UNL A   1      38.766  31.696  33.119  1.00  0.00     0.055 A 
ATOM     74  C   UNL A   1      37.805  32.425  31.040  1.00  0.00     0.041 A 
ATOM     75  F   UNL A   1      38.966  32.081  29.035  1.00  0.00    -0.206 F 
ATOM     76  C   UNL A   1      37.701  32.267  32.419  1.00  0.00     0.022 A 
BRANCH  73  77
ATOM     77  S   UNL A   1      38.580  31.268  34.872  1.00  0.00     0.124 S 
ATOM     78  O   UNL A   1      39.797  31.839  35.444  1.00  0.00    -0.237 OA
ATOM     79  O   UNL A   1      37.333  31.934  35.228  1.00  0.00    -0.237 OA
ATOM     80  O   UNL A   1      38.529  29.808  34.864  1.00  0.00    -0.744 OA
ENDBRANCH  73  77
ENDBRANCH  56  70
BRANCH  57  81
ATOM     81  C   UNL A   1      47.613  27.727  25.626  1.00  0.00     0.023 A 
ATOM     82  C   UNL A   1      47.630  27.982  24.245  1.00  0.00     0.031 A 
ATOM     83  C   UNL A   1      48.649  26.944  26.165  1.00  0.00     0.131 A 
ATOM     84  C   UNL A   1      48.633  27.419  23.442  1.00  0.00     0.055 A 
ATOM     85  C   UNL A   1      49.672  26.427  25.369  1.00  0.00     0.041 A 
ATOM     86  F   UNL A   1      48.685  26.678  27.481  1.00  0.00    -0.206 F 
ATOM     87  C   UNL A   1      49.660  26.652  23.995  1.00  0.00     0.022 A 
BRANCH  84  88
ATOM     88  S   UNL A   1      48.529  27.638  21.644  1.00  0.00     0.124 S 
ATOM     89  O   UNL A   1      47.152  28.092  21.478  1.00  0.00    -0.237 OA
ATOM     90  O   UNL A   1      49.567  28.633  21.401  1.00  0.00    -0.237 OA
ATOM     91  O   UNL A   1      48.813  26.303  21.122  1.00  0.00    -0.744 OA
ENDBRANCH  84  88
ENDBRANCH  57  81
BRANCH  69  92
ATOM     92  C   UNL A   1      46.800  33.501  29.446  1.00  0.00     0.023 A 
ATOM     93  C   UNL A   1      47.635  33.473  30.575  1.00  0.00     0.031 A 
ATOM     94  C   UNL A   1      46.849  34.633  28.613  1.00  0.00     0.131 A 
ATOM     95  C   UNL A   1      48.447  34.578  30.871  1.00  0.00     0.055 A 
ATOM     96  C   UNL A   1      47.698  35.706  28.881  1.00  0.00     0.041 A 
ATOM     97  F   UNL A   1      46.071  34.711  27.521  1.00  0.00    -0.206 F 
ATOM     98  C   UNL A   1      48.495  35.688  30.023  1.00  0.00     0.022 A 
BRANCH  95  99
ATOM     99  S   UNL A   1      49.379  34.583  32.426  1.00  0.00     0.124 S 
ATOM    100  O   UNL A   1      48.322  34.777  33.414  1.00  0.00    -0.237 OA
ATOM    101  O   UNL A   1      50.008  33.266  32.417  1.00  0.00    -0.237 OA
ATOM    102  O   UNL A   1      50.298  35.709  32.272  1.00  0.00    -0.744 OA
ENDBRANCH  95  99
ENDBRANCH  69  92
ENDBRANCH  43  44
ENDBRANCH  35  38
ENDBRANCH  33  34
ENDBRANCH  32  33
ENDBRANCH   1  32
TORSDOF 20
ENDMDL
MODEL 3
REMARK VINA RESULT:     -11.2      5.076     10.966
REMARK SMILES CSCC[C@@H](C(=O)NCCCCNC(=O)c1ccc(-c2c3nc(c(-c4cc(S(=O)(=O)[O-])ccc4F)c4ccc([nH]4)c(-c4cc(S(=O)(=O)[O-])ccc4F)c4nc(c(-c5cc(S(=O)(=O)[O-])ccc5F)c5ccc2[nH]5)C=C4)C=C3)cc1)N1C(=O)/C(=C/c2ccc(-c3ccccc3Cl)o2)SC1=S
REMARK SMILES IDX 10 1 9 2 8 3 6 4 7 5 5 7 4 8 3 9 2 10 1 11 79 12 80 13 97 14
REMARK SMILES IDX 81 15 82 16 96 17 98 18 83 19 84 20 85 21 95 22 86 23 87 24
REMARK SMILES IDX 88 25 89 26 93 27 90 28 92 29 94 30 91 31 11 32 12 33 13 34
REMARK SMILES IDX 14 35 15 37 16 38 17 39 78 40 18 41 77 42 19 43 20 44 21 45
REMARK SMILES IDX 71 46 22 47 76 48 70 49 72 50 23 51 75 52 69 53 68 54 24 56
REMARK SMILES IDX 56 57 36 58 55 59 37 60 40 61 54 62 73 63 38 64 39 65 53 67
REMARK SMILES IDX 74 68 41 69 25 70 26 71 34 72 27 73 33 74 35 75 32 76 28 77
REMARK SMILES IDX 29 78 30 79 31 80 57 81 58 82 66 83 59 84 65 85 67 86 64 87
REMARK SMILES IDX 60 88 61 89 62 90 63 91 42 92 43 93 51 94 44 95 50 96 52 97
REMARK SMILES IDX 49 98 45 99 46 100 47 101 48 102
REMARK H PARENT 8 6 13 36 72 55 40 66
REMARK Flexibility Score: inf
ROOT
ATOM      1  C   UNL A   1      34.172  22.819  25.887  1.00  0.00     0.023 C 
ENDROOT
BRANCH   1   2
ATOM      2  C   UNL A   1      32.990  23.106  24.958  1.00  0.00     0.116 C 
BRANCH   2   3
ATOM      3  N   UNL A   1      33.434  23.860  23.808  1.00  0.00    -0.354 N 
ATOM      4  C   UNL A   1      32.954  25.004  23.251  1.00  0.00     0.243 C 
ATOM      5  O   UNL A   1      33.502  25.374  22.208  1.00  0.00    -0.273 OA
ATOM      6  H   UNL A   1      34.220  23.482  23.350  1.00  0.00     0.163 HD
BRANCH   4   7
ATOM      7  C   UNL A   1      31.800  25.819  23.901  1.00  0.00     0.182 C 
BRANCH   7   8
ATOM      8  C   UNL A   1      30.605  26.127  22.973  1.00  0.00     0.046 C 
BRANCH   8   9
ATOM      9  C   UNL A   1      29.425  26.954  23.484  1.00  0.00     0.072 C 
BRANCH   9  10
ATOM     10  S   UNL A   1      29.334  28.658  22.843  1.00  0.00    -0.165 SA
ATOM     11  C   UNL A   1      27.556  28.971  22.932  1.00  0.00     0.085 C 
ENDBRANCH   9  10
ENDBRANCH   8   9
ENDBRANCH   7   8
BRANCH   7  12
ATOM     12  N   UNL A   1      32.477  27.051  24.427  1.00  0.00    -0.280 N 
ATOM     13  C   UNL A   1      32.846  27.050  25.770  1.00  0.00     0.267 C 
ATOM     14  C   UNL A   1      32.976  28.109  23.682  1.00  0.00     0.149 C 
ATOM     15  O   UNL A   1      32.593  26.169  26.582  1.00  0.00    -0.268 OA
ATOM     16  C   UNL A   1      33.592  28.292  26.121  1.00  0.00     0.084 C 
ATOM     17  S   UNL A   1      33.629  29.336  24.759  1.00  0.00    -0.054 SA
ATOM     18  S   UNL A   1      33.021  28.370  22.032  1.00  0.00    -0.052 S 
ATOM     19  C   UNL A   1      34.151  28.512  27.321  1.00  0.00     0.068 C 
BRANCH  19  20
ATOM     20  C   UNL A   1      34.714  29.776  27.668  1.00  0.00     0.128 A 
ATOM     21  C   UNL A   1      36.059  30.130  27.676  1.00  0.00     0.051 A 
ATOM     22  O   UNL A   1      33.989  30.887  28.055  1.00  0.00    -0.457 OA
ATOM     23  C   UNL A   1      36.159  31.461  28.125  1.00  0.00     0.051 A 
ATOM     24  C   UNL A   1      34.872  31.881  28.368  1.00  0.00     0.136 A 
BRANCH  24  25
ATOM     25  C   UNL A   1      34.344  33.154  28.847  1.00  0.00     0.036 A 
ATOM     26  C   UNL A   1      34.950  33.731  29.980  1.00  0.00     0.013 A 
ATOM     27  C   UNL A   1      33.203  33.776  28.317  1.00  0.00     0.052 A 
ATOM     28  C   UNL A   1      34.429  34.883  30.576  1.00  0.00     0.001 A 
ATOM     29  C   UNL A   1      32.683  34.932  28.918  1.00  0.00     0.021 A 
ATOM     30  Cl  UNL A   1      32.332  33.132  26.968  1.00  0.00    -0.084 Cl
ATOM     31  C   UNL A   1      33.291  35.480  30.048  1.00  0.00     0.002 A 
ENDBRANCH  24  25
ENDBRANCH  19  20
ENDBRANCH   7  12
ENDBRANCH   4   7
ENDBRANCH   2   3
ENDBRANCH   1   2
BRANCH   1  32
ATOM     32  C   UNL A   1      35.521  22.812  25.169  1.00  0.00     0.023 C 
BRANCH  32  33
ATOM     33  C   UNL A   1      36.712  23.052  26.092  1.00  0.00     0.116 C 
BRANCH  33  34
ATOM     34  N   UNL A   1      37.704  21.985  26.040  1.00  0.00    -0.352 N 
ATOM     35  C   UNL A   1      39.047  22.057  26.329  1.00  0.00     0.251 C 
ATOM     36  H   UNL A   1      37.371  21.100  25.764  1.00  0.00     0.163 HD
ATOM     37  O   UNL A   1      39.774  21.086  26.143  1.00  0.00    -0.269 OA
BRANCH  35  38
ATOM     38  C   UNL A   1      39.600  23.337  26.815  1.00  0.00     0.039 A 
ATOM     39  C   UNL A   1      40.489  23.326  27.891  1.00  0.00     0.014 A 
ATOM     40  C   UNL A   1      39.313  24.526  26.139  1.00  0.00     0.014 A 
ATOM     41  C   UNL A   1      41.160  24.501  28.236  1.00  0.00     0.010 A 
ATOM     42  C   UNL A   1      40.041  25.671  26.433  1.00  0.00     0.010 A 
ATOM     43  C   UNL A   1      40.978  25.669  27.479  1.00  0.00    -0.014 A 
BRANCH  43  44
ATOM     44  C   UNL A   1      41.757  26.903  27.758  1.00  0.00     0.031 A 
ATOM     45  C   UNL A   1      43.181  27.008  27.287  1.00  0.00     0.074 A 
ATOM     46  C   UNL A   1      41.213  27.885  28.503  1.00  0.00     0.049 A 
ATOM     47  N   UNL A   1      44.066  27.942  27.522  1.00  0.00    -0.248 NA
ATOM     48  C   UNL A   1      43.688  25.888  26.479  1.00  0.00     0.031 C 
ATOM     49  C   UNL A   1      39.859  27.872  29.064  1.00  0.00     0.029 A 
ATOM     50  N   UNL A   1      41.734  29.081  28.931  1.00  0.00    -0.354 N 
ATOM     51  C   UNL A   1      45.238  27.515  26.908  1.00  0.00     0.074 A 
ATOM     52  C   UNL A   1      44.967  26.206  26.352  1.00  0.00     0.031 C 
ATOM     53  C   UNL A   1      39.652  29.014  29.742  1.00  0.00     0.029 A 
ATOM     54  C   UNL A   1      40.866  29.821  29.701  1.00  0.00     0.049 A 
ATOM     55  H   UNL A   1      42.645  29.381  28.708  1.00  0.00     0.167 HD
ATOM     56  C   UNL A   1      46.422  28.165  26.793  1.00  0.00     0.034 A 
ATOM     57  C   UNL A   1      41.036  31.011  30.313  1.00  0.00     0.034 A 
ATOM     58  C   UNL A   1      46.667  29.480  27.333  1.00  0.00     0.049 A 
ATOM     59  C   UNL A   1      42.358  31.720  30.166  1.00  0.00     0.074 A 
ATOM     60  C   UNL A   1      47.807  30.257  27.233  1.00  0.00     0.029 A 
ATOM     61  N   UNL A   1      45.754  30.214  28.080  1.00  0.00    -0.354 N 
ATOM     62  N   UNL A   1      43.442  31.324  29.540  1.00  0.00    -0.248 NA
ATOM     63  C   UNL A   1      42.474  33.041  30.796  1.00  0.00     0.031 C 
ATOM     64  C   UNL A   1      47.604  31.433  27.962  1.00  0.00     0.029 A 
ATOM     65  C   UNL A   1      46.311  31.424  28.461  1.00  0.00     0.049 A 
ATOM     66  H   UNL A   1      44.841  29.918  28.304  1.00  0.00     0.167 HD
ATOM     67  C   UNL A   1      44.359  32.362  29.678  1.00  0.00     0.074 A 
ATOM     68  C   UNL A   1      43.695  33.405  30.433  1.00  0.00     0.031 C 
ATOM     69  C   UNL A   1      45.634  32.449  29.220  1.00  0.00     0.034 A 
BRANCH  56  70
ATOM     70  C   UNL A   1      47.536  27.448  26.068  1.00  0.00     0.023 A 
ATOM     71  C   UNL A   1      48.461  26.642  26.756  1.00  0.00     0.031 A 
ATOM     72  C   UNL A   1      47.705  27.605  24.681  1.00  0.00     0.131 A 
ATOM     73  C   UNL A   1      49.560  26.099  26.075  1.00  0.00     0.055 A 
ATOM     74  C   UNL A   1      48.753  26.989  23.994  1.00  0.00     0.041 A 
ATOM     75  F   UNL A   1      46.867  28.379  23.974  1.00  0.00    -0.206 F 
ATOM     76  C   UNL A   1      49.699  26.246  24.694  1.00  0.00     0.022 A 
BRANCH  73  77
ATOM     77  S   UNL A   1      50.885  25.333  27.049  1.00  0.00     0.124 S 
ATOM     78  O   UNL A   1      51.361  26.467  27.839  1.00  0.00    -0.237 OA
ATOM     79  O   UNL A   1      50.176  24.294  27.785  1.00  0.00    -0.237 OA
ATOM     80  O   UNL A   1      51.822  24.854  26.035  1.00  0.00    -0.744 OA
ENDBRANCH  73  77
ENDBRANCH  56  70
BRANCH  57  81
ATOM     81  C   UNL A   1      39.937  31.609  31.123  1.00  0.00     0.023 A 
ATOM     82  C   UNL A   1      39.817  31.331  32.494  1.00  0.00     0.031 A 
ATOM     83  C   UNL A   1      38.965  32.435  30.529  1.00  0.00     0.131 A 
ATOM     84  C   UNL A   1      38.724  31.834  33.217  1.00  0.00     0.055 A 
ATOM     85  C   UNL A   1      37.907  32.973  31.264  1.00  0.00     0.041 A 
ATOM     86  F   UNL A   1      39.039  32.739  29.224  1.00  0.00    -0.206 F 
ATOM     87  C   UNL A   1      37.775  32.662  32.614  1.00  0.00     0.022 A 
BRANCH  84  88
ATOM     88  S   UNL A   1      38.517  31.322  34.945  1.00  0.00     0.124 S 
ATOM     89  O   UNL A   1      39.744  31.826  35.553  1.00  0.00    -0.237 OA
ATOM     90  O   UNL A   1      37.286  32.010  35.318  1.00  0.00    -0.237 OA
ATOM     91  O   UNL A   1      38.416  29.867  34.859  1.00  0.00    -0.744 OA
ENDBRANCH  84  88
ENDBRANCH  57  81
BRANCH  69  92
ATOM     92  C   UNL A   1      46.369  33.737  29.487  1.00  0.00     0.023 A 
ATOM     93  C   UNL A   1      46.408  34.777  28.542  1.00  0.00     0.031 A 
ATOM     94  C   UNL A   1      47.048  33.922  30.705  1.00  0.00     0.131 A 
ATOM     95  C   UNL A   1      47.155  35.935  28.809  1.00  0.00     0.055 A 
ATOM     96  C   UNL A   1      47.743  35.098  30.987  1.00  0.00     0.041 A 
ATOM     97  F   UNL A   1      47.043  32.960  31.641  1.00  0.00    -0.206 F 
ATOM     98  C   UNL A   1      47.810  36.108  30.031  1.00  0.00     0.022 A 
BRANCH  95  99
ATOM     99  S   UNL A   1      47.329  37.179  27.501  1.00  0.00     0.124 S 
ATOM    100  O   UNL A   1      47.566  38.397  28.269  1.00  0.00    -0.237 OA
ATOM    101  O   UNL A   1      48.467  36.674  26.739  1.00  0.00    -0.237 OA
ATOM    102  O   UNL A   1      46.045  37.125  26.803  1.00  0.00    -0.744 OA
ENDBRANCH  95  99
ENDBRANCH  69  92
ENDBRANCH  43  44
ENDBRANCH  35  38
ENDBRANCH  33  34
ENDBRANCH  32  33
ENDBRANCH   1  32
TORSDOF 20
ENDMDL
