MODEL 1
REMARK VINA RESULT:     -11.9      0.000      0.000
REMARK SMILES Cc1ccc(C)c(NC(=O)/C=C/C(=O)NCCCCNC(=O)c2ccc(-c3c4nc(c(-c5cc(S(=O)(=O)[O-])ccc5F)c5ccc([nH]5)c(-c5cc(S(=O)(=O)[O-])ccc5F)c5nc(c(-c6cc(S(=O)(=O)[O-])ccc6F)c6ccc3[nH]6)C=C5)C=C4)cc2)c1
REMARK SMILES IDX 18 1 17 2 16 3 15 4 13 5 14 6 12 8 11 9 9 10 8 11 10 13 7 14
REMARK SMILES IDX 1 15 2 16 3 17 86 18 4 19 5 20 6 21 19 22 20 23 21 24 22 26
REMARK SMILES IDX 23 27 24 28 85 29 25 30 84 31 26 32 27 33 28 34 78 35 29 36
REMARK SMILES IDX 83 37 77 38 79 39 30 40 82 41 76 42 75 43 31 45 63 46 43 47
REMARK SMILES IDX 62 48 44 49 47 50 61 51 80 52 45 53 46 54 60 56 81 57 48 58
REMARK SMILES IDX 32 59 33 60 41 61 34 62 40 63 42 64 39 65 35 66 36 67 37 68
REMARK SMILES IDX 38 69 64 70 65 71 73 72 66 73 72 74 74 75 71 76 67 77 68 78
REMARK SMILES IDX 69 79 70 80 49 81 50 82 58 83 51 84 57 85 59 86 56 87 52 88
REMARK SMILES IDX 53 89 54 90 55 91
REMARK H PARENT 15 7 8 12 20 25 79 44 47 55
REMARK Flexibility Score: inf
ROOT
ATOM      1  C   UNL A   1      32.181  31.284  27.210  1.00  0.00     0.023 C 
ENDROOT
BRANCH   1   2
ATOM      2  C   UNL A   1      32.867  30.250  26.307  1.00  0.00     0.023 C 
BRANCH   2   3
ATOM      3  C   UNL A   1      32.020  29.056  25.862  1.00  0.00     0.116 C 
BRANCH   3   4
ATOM      4  N   UNL A   1      32.199  27.953  26.777  1.00  0.00    -0.353 N 
ATOM      5  C   UNL A   1      32.238  26.677  26.320  1.00  0.00     0.244 C 
ATOM      6  O   UNL A   1      31.502  25.819  26.815  1.00  0.00    -0.270 OA
ATOM      7  H   UNL A   1      32.295  28.130  27.742  1.00  0.00     0.163 HD
BRANCH   5   8
ATOM      8  C   UNL A   1      33.214  26.394  25.245  1.00  0.00     0.077 C 
ATOM      9  C   UNL A   1      32.761  26.044  24.033  1.00  0.00     0.077 C 
BRANCH   9  10
ATOM     10  C   UNL A   1      33.701  25.514  23.038  1.00  0.00     0.248 C 
ATOM     11  N   UNL A   1      34.199  24.247  23.133  1.00  0.00    -0.322 N 
ATOM     12  H   UNL A   1      34.669  23.980  22.310  1.00  0.00     0.170 HD
ATOM     13  O   UNL A   1      33.931  26.179  22.027  1.00  0.00    -0.270 OA
BRANCH  11  14
ATOM     14  C   UNL A   1      34.222  23.210  24.102  1.00  0.00     0.044 A 
ATOM     15  C   UNL A   1      32.555  19.748  24.259  1.00  0.00     0.044 C 
ATOM     16  C   UNL A   1      33.295  20.990  24.652  1.00  0.00    -0.049 A 
ATOM     17  C   UNL A   1      33.945  21.014  25.880  1.00  0.00     0.004 A 
ATOM     18  C   UNL A   1      33.409  22.098  23.793  1.00  0.00     0.029 A 
ATOM     19  C   UNL A   1      34.786  22.069  26.180  1.00  0.00     0.006 A 
ATOM     20  C   UNL A   1      35.002  23.118  25.263  1.00  0.00    -0.027 A 
ATOM     21  C   UNL A   1      36.177  23.972  25.601  1.00  0.00     0.046 C 
ENDBRANCH  11  14
ENDBRANCH   9  10
ENDBRANCH   5   8
ENDBRANCH   3   4
ENDBRANCH   2   3
ENDBRANCH   1   2
BRANCH   1  22
ATOM     22  C   UNL A   1      31.651  32.568  26.569  1.00  0.00     0.116 C 
BRANCH  22  23
ATOM     23  N   UNL A   1      31.996  33.800  27.263  1.00  0.00    -0.352 N 
ATOM     24  C   UNL A   1      32.903  34.194  28.224  1.00  0.00     0.251 C 
ATOM     25  H   UNL A   1      31.431  34.552  26.969  1.00  0.00     0.163 HD
ATOM     26  O   UNL A   1      32.735  35.316  28.707  1.00  0.00    -0.269 OA
BRANCH  24  27
ATOM     27  C   UNL A   1      34.097  33.407  28.642  1.00  0.00     0.039 A 
ATOM     28  C   UNL A   1      34.282  33.074  30.001  1.00  0.00     0.014 A 
ATOM     29  C   UNL A   1      35.104  33.069  27.761  1.00  0.00     0.014 A 
ATOM     30  C   UNL A   1      35.520  32.589  30.464  1.00  0.00     0.010 A 
ATOM     31  C   UNL A   1      36.301  32.568  28.203  1.00  0.00     0.010 A 
ATOM     32  C   UNL A   1      36.561  32.417  29.556  1.00  0.00    -0.014 A 
BRANCH  32  33
ATOM     33  C   UNL A   1      37.920  31.976  29.874  1.00  0.00     0.031 A 
ATOM     34  C   UNL A   1      38.191  30.583  29.423  1.00  0.00     0.074 A 
ATOM     35  C   UNL A   1      38.965  32.809  30.062  1.00  0.00     0.049 A 
ATOM     36  N   UNL A   1      37.893  29.489  30.050  1.00  0.00    -0.248 NA
ATOM     37  C   UNL A   1      38.499  30.383  27.986  1.00  0.00     0.031 C 
ATOM     38  C   UNL A   1      39.002  34.272  30.037  1.00  0.00     0.029 A 
ATOM     39  N   UNL A   1      40.280  32.477  30.205  1.00  0.00    -0.354 N 
ATOM     40  C   UNL A   1      38.232  28.485  29.150  1.00  0.00     0.074 A 
ATOM     41  C   UNL A   1      38.110  29.114  27.872  1.00  0.00     0.031 C 
ATOM     42  C   UNL A   1      40.295  34.685  29.986  1.00  0.00     0.029 A 
ATOM     43  C   UNL A   1      41.181  33.531  30.070  1.00  0.00     0.049 A 
ATOM     44  H   UNL A   1      40.572  31.556  30.392  1.00  0.00     0.167 HD
ATOM     45  C   UNL A   1      39.026  27.424  29.487  1.00  0.00     0.034 A 
ATOM     46  C   UNL A   1      42.540  33.430  29.978  1.00  0.00     0.034 A 
ATOM     47  C   UNL A   1      39.333  27.471  30.913  1.00  0.00     0.049 A 
ATOM     48  C   UNL A   1      42.905  32.068  30.465  1.00  0.00     0.074 A 
ATOM     49  C   UNL A   1      38.575  27.547  32.067  1.00  0.00     0.029 A 
ATOM     50  N   UNL A   1      40.603  27.879  31.287  1.00  0.00    -0.354 N 
ATOM     51  N   UNL A   1      42.749  31.675  31.698  1.00  0.00    -0.248 NA
ATOM     52  C   UNL A   1      42.987  30.991  29.486  1.00  0.00     0.031 C 
ATOM     53  C   UNL A   1      39.283  28.445  32.923  1.00  0.00     0.029 A 
ATOM     54  C   UNL A   1      40.485  28.792  32.305  1.00  0.00     0.049 A 
ATOM     55  H   UNL A   1      41.448  27.568  30.887  1.00  0.00     0.167 HD
ATOM     56  C   UNL A   1      42.277  30.372  31.608  1.00  0.00     0.074 A 
ATOM     57  C   UNL A   1      42.546  29.970  30.229  1.00  0.00     0.031 C 
ATOM     58  C   UNL A   1      41.440  29.859  32.560  1.00  0.00     0.034 A 
BRANCH  45  59
ATOM     59  C   UNL A   1      39.904  26.640  28.509  1.00  0.00     0.023 A 
ATOM     60  C   UNL A   1      40.981  27.345  27.950  1.00  0.00     0.031 A 
ATOM     61  C   UNL A   1      39.671  25.370  27.934  1.00  0.00     0.131 A 
ATOM     62  C   UNL A   1      41.597  26.918  26.764  1.00  0.00     0.055 A 
ATOM     63  C   UNL A   1      40.303  24.931  26.764  1.00  0.00     0.041 A 
ATOM     64  F   UNL A   1      38.836  24.464  28.447  1.00  0.00    -0.206 F 
ATOM     65  C   UNL A   1      41.241  25.728  26.143  1.00  0.00     0.022 A 
BRANCH  62  66
ATOM     66  S   UNL A   1      42.745  28.061  25.971  1.00  0.00     0.124 S 
ATOM     67  O   UNL A   1      42.285  29.332  26.498  1.00  0.00    -0.237 OA
ATOM     68  O   UNL A   1      44.032  27.577  26.464  1.00  0.00    -0.237 OA
ATOM     69  O   UNL A   1      42.504  27.839  24.542  1.00  0.00    -0.744 OA
ENDBRANCH  62  66
ENDBRANCH  45  59
BRANCH  46  70
ATOM     70  C   UNL A   1      43.519  34.313  29.271  1.00  0.00     0.023 A 
ATOM     71  C   UNL A   1      44.147  33.945  28.055  1.00  0.00     0.031 A 
ATOM     72  C   UNL A   1      43.668  35.660  29.666  1.00  0.00     0.131 A 
ATOM     73  C   UNL A   1      44.871  34.902  27.298  1.00  0.00     0.055 A 
ATOM     74  C   UNL A   1      44.386  36.598  28.918  1.00  0.00     0.041 A 
ATOM     75  F   UNL A   1      43.042  36.138  30.753  1.00  0.00    -0.206 F 
ATOM     76  C   UNL A   1      44.981  36.226  27.725  1.00  0.00     0.022 A 
BRANCH  73  77
ATOM     77  S   UNL A   1      45.596  34.468  25.679  1.00  0.00     0.124 S 
ATOM     78  O   UNL A   1      46.565  35.540  25.475  1.00  0.00    -0.237 OA
ATOM     79  O   UNL A   1      46.139  33.137  25.920  1.00  0.00    -0.237 OA
ATOM     80  O   UNL A   1      44.448  34.502  24.771  1.00  0.00    -0.744 OA
ENDBRANCH  73  77
ENDBRANCH  46  70
BRANCH  58  81
ATOM     81  C   UNL A   1      41.340  30.566  33.899  1.00  0.00     0.023 A 
ATOM     82  C   UNL A   1      40.373  31.538  34.242  1.00  0.00     0.031 A 
ATOM     83  C   UNL A   1      42.222  30.142  34.910  1.00  0.00     0.131 A 
ATOM     84  C   UNL A   1      40.326  32.052  35.552  1.00  0.00     0.055 A 
ATOM     85  C   UNL A   1      42.157  30.637  36.211  1.00  0.00     0.041 A 
ATOM     86  F   UNL A   1      43.152  29.206  34.656  1.00  0.00    -0.206 F 
ATOM     87  C   UNL A   1      41.211  31.600  36.537  1.00  0.00     0.022 A 
BRANCH  84  88
ATOM     88  S   UNL A   1      39.123  33.344  36.005  1.00  0.00     0.124 S 
ATOM     89  O   UNL A   1      39.670  34.552  35.399  1.00  0.00    -0.237 OA
ATOM     90  O   UNL A   1      37.886  32.838  35.414  1.00  0.00    -0.237 OA
ATOM     91  O   UNL A   1      39.147  33.332  37.469  1.00  0.00    -0.744 OA
ENDBRANCH  84  88
ENDBRANCH  58  81
ENDBRANCH  32  33
ENDBRANCH  24  27
ENDBRANCH  22  23
ENDBRANCH   1  22
TORSDOF 16
ENDMDL
MODEL 2
REMARK VINA RESULT:     -11.8      3.128      7.848
REMARK SMILES Cc1ccc(C)c(NC(=O)/C=C/C(=O)NCCCCNC(=O)c2ccc(-c3c4nc(c(-c5cc(S(=O)(=O)[O-])ccc5F)c5ccc([nH]5)c(-c5cc(S(=O)(=O)[O-])ccc5F)c5nc(c(-c6cc(S(=O)(=O)[O-])ccc6F)c6ccc3[nH]6)C=C5)C=C4)cc2)c1
REMARK SMILES IDX 18 1 17 2 16 3 15 4 13 5 14 6 12 8 11 9 9 10 8 11 10 13 7 14
REMARK SMILES IDX 1 15 2 16 3 17 86 18 4 19 5 20 6 21 19 22 20 23 21 24 22 26
REMARK SMILES IDX 23 27 24 28 85 29 25 30 84 31 26 32 27 33 28 34 78 35 29 36
REMARK SMILES IDX 83 37 77 38 79 39 30 40 82 41 76 42 75 43 31 45 63 46 43 47
REMARK SMILES IDX 62 48 44 49 47 50 61 51 80 52 45 53 46 54 60 56 81 57 48 58
REMARK SMILES IDX 32 59 33 60 41 61 34 62 40 63 42 64 39 65 35 66 36 67 37 68
REMARK SMILES IDX 38 69 64 70 65 71 73 72 66 73 72 74 74 75 71 76 67 77 68 78
REMARK SMILES IDX 69 79 70 80 49 81 50 82 58 83 51 84 57 85 59 86 56 87 52 88
REMARK SMILES IDX 53 89 54 90 55 91
REMARK H PARENT 15 7 8 12 20 25 79 44 47 55
REMARK Flexibility Score: inf
ROOT
ATOM      1  C   UNL A   1      37.419  22.502  24.715  1.00  0.00     0.023 C 
ENDROOT
BRANCH   1   2
ATOM      2  C   UNL A   1      36.585  21.214  24.733  1.00  0.00     0.023 C 
BRANCH   2   3
ATOM      3  C   UNL A   1      35.332  21.218  25.612  1.00  0.00     0.116 C 
BRANCH   3   4
ATOM      4  N   UNL A   1      34.218  20.654  24.886  1.00  0.00    -0.353 N 
ATOM      5  C   UNL A   1      33.190  21.441  24.478  1.00  0.00     0.244 C 
ATOM      6  O   UNL A   1      32.027  21.135  24.755  1.00  0.00    -0.270 OA
ATOM      7  H   UNL A   1      34.203  19.689  24.686  1.00  0.00     0.163 HD
BRANCH   5   8
ATOM      8  C   UNL A   1      33.553  22.631  23.679  1.00  0.00     0.077 C 
ATOM      9  C   UNL A   1      33.215  23.846  24.133  1.00  0.00     0.077 C 
BRANCH   9  10
ATOM     10  C   UNL A   1      33.334  25.007  23.243  1.00  0.00     0.248 C 
ATOM     11  N   UNL A   1      33.244  26.283  23.720  1.00  0.00    -0.322 N 
ATOM     12  H   UNL A   1      33.517  26.942  23.042  1.00  0.00     0.170 HD
ATOM     13  O   UNL A   1      33.662  24.823  22.069  1.00  0.00    -0.270 OA
BRANCH  11  14
ATOM     14  C   UNL A   1      32.860  26.913  24.933  1.00  0.00     0.044 A 
ATOM     15  C   UNL A   1      34.662  29.363  27.284  1.00  0.00     0.044 C 
ATOM     16  C   UNL A   1      33.660  28.395  26.736  1.00  0.00    -0.049 A 
ATOM     17  C   UNL A   1      32.463  28.220  27.422  1.00  0.00     0.004 A 
ATOM     18  C   UNL A   1      33.861  27.715  25.521  1.00  0.00     0.029 A 
ATOM     19  C   UNL A   1      31.451  27.482  26.838  1.00  0.00     0.006 A 
ATOM     20  C   UNL A   1      31.606  26.907  25.560  1.00  0.00    -0.027 A 
ATOM     21  C   UNL A   1      30.324  26.450  24.953  1.00  0.00     0.046 C 
ENDBRANCH  11  14
ENDBRANCH   9  10
ENDBRANCH   5   8
ENDBRANCH   3   4
ENDBRANCH   2   3
ENDBRANCH   1   2
BRANCH   1  22
ATOM     22  C   UNL A   1      38.125  22.927  26.003  1.00  0.00     0.116 C 
BRANCH  22  23
ATOM     23  N   UNL A   1      39.420  22.305  26.239  1.00  0.00    -0.352 N 
ATOM     24  C   UNL A   1      40.691  22.722  26.573  1.00  0.00     0.251 C 
ATOM     25  H   UNL A   1      39.376  21.327  26.132  1.00  0.00     0.163 HD
ATOM     26  O   UNL A   1      41.585  21.879  26.475  1.00  0.00    -0.269 OA
BRANCH  24  27
ATOM     27  C   UNL A   1      41.032  24.067  27.116  1.00  0.00     0.039 A 
ATOM     28  C   UNL A   1      41.984  24.190  28.150  1.00  0.00     0.014 A 
ATOM     29  C   UNL A   1      40.374  25.213  26.717  1.00  0.00     0.014 A 
ATOM     30  C   UNL A   1      42.117  25.392  28.870  1.00  0.00     0.010 A 
ATOM     31  C   UNL A   1      40.523  26.394  27.396  1.00  0.00     0.010 A 
ATOM     32  C   UNL A   1      41.312  26.476  28.532  1.00  0.00    -0.014 A 
BRANCH  32  33
ATOM     33  C   UNL A   1      41.283  27.773  29.208  1.00  0.00     0.031 A 
ATOM     34  C   UNL A   1      42.235  28.751  28.612  1.00  0.00     0.074 A 
ATOM     35  C   UNL A   1      40.229  28.243  29.908  1.00  0.00     0.049 A 
ATOM     36  N   UNL A   1      43.501  28.860  28.866  1.00  0.00    -0.248 NA
ATOM     37  C   UNL A   1      41.817  29.431  27.362  1.00  0.00     0.031 C 
ATOM     38  C   UNL A   1      38.943  27.605  30.188  1.00  0.00     0.029 A 
ATOM     39  N   UNL A   1      40.065  29.493  30.430  1.00  0.00    -0.354 N 
ATOM     40  C   UNL A   1      43.943  29.816  27.959  1.00  0.00     0.074 A 
ATOM     41  C   UNL A   1      43.023  29.709  26.870  1.00  0.00     0.031 C 
ATOM     42  C   UNL A   1      38.079  28.534  30.672  1.00  0.00     0.029 A 
ATOM     43  C   UNL A   1      38.768  29.809  30.828  1.00  0.00     0.049 A 
ATOM     44  H   UNL A   1      40.812  30.127  30.520  1.00  0.00     0.167 HD
ATOM     45  C   UNL A   1      44.671  30.912  28.333  1.00  0.00     0.034 A 
ATOM     46  C   UNL A   1      38.310  31.042  31.194  1.00  0.00     0.034 A 
ATOM     47  C   UNL A   1      44.985  30.834  29.756  1.00  0.00     0.049 A 
ATOM     48  C   UNL A   1      39.510  31.876  31.497  1.00  0.00     0.074 A 
ATOM     49  C   UNL A   1      45.589  29.889  30.566  1.00  0.00     0.029 A 
ATOM     50  N   UNL A   1      44.274  31.651  30.620  1.00  0.00    -0.354 N 
ATOM     51  N   UNL A   1      40.317  31.646  32.495  1.00  0.00    -0.248 NA
ATOM     52  C   UNL A   1      40.087  32.664  30.414  1.00  0.00     0.031 C 
ATOM     53  C   UNL A   1      44.827  29.890  31.774  1.00  0.00     0.029 A 
ATOM     54  C   UNL A   1      43.868  30.899  31.694  1.00  0.00     0.049 A 
ATOM     55  H   UNL A   1      44.091  32.609  30.485  1.00  0.00     0.167 HD
ATOM     56  C   UNL A   1      41.592  31.864  31.990  1.00  0.00     0.074 A 
ATOM     57  C   UNL A   1      41.382  32.590  30.740  1.00  0.00     0.031 C 
ATOM     58  C   UNL A   1      42.668  31.168  32.470  1.00  0.00     0.034 A 
BRANCH  45  59
ATOM     59  C   UNL A   1      44.693  32.247  27.585  1.00  0.00     0.023 A 
ATOM     60  C   UNL A   1      44.114  33.336  28.256  1.00  0.00     0.031 A 
ATOM     61  C   UNL A   1      45.031  32.501  26.236  1.00  0.00     0.131 A 
ATOM     62  C   UNL A   1      43.689  34.480  27.563  1.00  0.00     0.055 A 
ATOM     63  C   UNL A   1      44.630  33.653  25.549  1.00  0.00     0.041 A 
ATOM     64  F   UNL A   1      45.768  31.678  25.489  1.00  0.00    -0.206 F 
ATOM     65  C   UNL A   1      43.911  34.633  26.201  1.00  0.00     0.022 A 
BRANCH  62  66
ATOM     66  S   UNL A   1      42.679  35.668  28.468  1.00  0.00     0.124 S 
ATOM     67  O   UNL A   1      43.003  36.900  27.773  1.00  0.00    -0.237 OA
ATOM     68  O   UNL A   1      41.335  35.134  28.258  1.00  0.00    -0.237 OA
ATOM     69  O   UNL A   1      43.184  35.559  29.840  1.00  0.00    -0.744 OA
ENDBRANCH  62  66
ENDBRANCH  45  59
BRANCH  46  70
ATOM     70  C   UNL A   1      36.943  31.634  31.061  1.00  0.00     0.023 A 
ATOM     71  C   UNL A   1      36.226  32.168  32.161  1.00  0.00     0.031 A 
ATOM     72  C   UNL A   1      36.414  31.906  29.781  1.00  0.00     0.131 A 
ATOM     73  C   UNL A   1      35.051  32.935  31.952  1.00  0.00     0.055 A 
ATOM     74  C   UNL A   1      35.252  32.659  29.581  1.00  0.00     0.041 A 
ATOM     75  F   UNL A   1      37.058  31.525  28.667  1.00  0.00    -0.206 F 
ATOM     76  C   UNL A   1      34.572  33.186  30.666  1.00  0.00     0.022 A 
BRANCH  73  77
ATOM     77  S   UNL A   1      34.176  33.717  33.352  1.00  0.00     0.124 S 
ATOM     78  O   UNL A   1      35.037  33.386  34.481  1.00  0.00    -0.237 OA
ATOM     79  O   UNL A   1      34.132  35.119  32.956  1.00  0.00    -0.237 OA
ATOM     80  O   UNL A   1      32.875  33.045  33.358  1.00  0.00    -0.744 OA
ENDBRANCH  73  77
ENDBRANCH  46  70
BRANCH  58  81
ATOM     81  C   UNL A   1      42.537  30.455  33.803  1.00  0.00     0.023 A 
ATOM     82  C   UNL A   1      42.209  29.091  33.974  1.00  0.00     0.031 A 
ATOM     83  C   UNL A   1      42.868  31.193  34.956  1.00  0.00     0.131 A 
ATOM     84  C   UNL A   1      42.213  28.522  35.263  1.00  0.00     0.055 A 
ATOM     85  C   UNL A   1      42.893  30.620  36.225  1.00  0.00     0.041 A 
ATOM     86  F   UNL A   1      43.208  32.490  34.861  1.00  0.00    -0.206 F 
ATOM     87  C   UNL A   1      42.558  29.282  36.386  1.00  0.00     0.022 A 
BRANCH  84  88
ATOM     88  S   UNL A   1      41.744  26.779  35.514  1.00  0.00     0.124 S 
ATOM     89  O   UNL A   1      40.763  26.532  34.464  1.00  0.00    -0.237 OA
ATOM     90  O   UNL A   1      43.023  26.089  35.369  1.00  0.00    -0.237 OA
ATOM     91  O   UNL A   1      41.198  26.768  36.873  1.00  0.00    -0.744 OA
ENDBRANCH  84  88
ENDBRANCH  58  81
ENDBRANCH  32  33
ENDBRANCH  24  27
ENDBRANCH  22  23
ENDBRANCH   1  22
TORSDOF 16
ENDMDL
MODEL 3
REMARK VINA RESULT:     -11.8      3.612      7.570
REMARK SMILES Cc1ccc(C)c(NC(=O)/C=C/C(=O)NCCCCNC(=O)c2ccc(-c3c4nc(c(-c5cc(S(=O)(=O)[O-])ccc5F)c5ccc([nH]5)c(-c5cc(S(=O)(=O)[O-])ccc5F)c5nc(c(-c6cc(S(=O)(=O)[O-])ccc6F)c6ccc3[nH]6)C=C5)C=C4)cc2)c1
REMARK SMILES IDX 18 1 17 2 16 3 15 4 13 5 14 6 12 8 11 9 9 10 8 11 10 13 7 14
REMARK SMILES IDX 1 15 2 16 3 17 86 18 4 19 5 20 6 21 19 22 20 23 21 24 22 26
REMARK SMILES IDX 23 27 24 28 85 29 25 30 84 31 26 32 27 33 28 34 78 35 29 36
REMARK SMILES IDX 83 37 77 38 79 39 30 40 82 41 76 42 75 43 31 45 63 46 43 47
REMARK SMILES IDX 62 48 44 49 47 50 61 51 80 52 45 53 46 54 60 56 81 57 48 58
REMARK SMILES IDX 32 59 33 60 41 61 34 62 40 63 42 64 39 65 35 66 36 67 37 68
REMARK SMILES IDX 38 69 64 70 65 71 73 72 66 73 72 74 74 75 71 76 67 77 68 78
REMARK SMILES IDX 69 79 70 80 49 81 50 82 58 83 51 84 57 85 59 86 56 87 52 88
REMARK SMILES IDX 53 89 54 90 55 91
REMARK H PARENT 15 7 8 12 20 25 79 44 47 55
REMARK Flexibility Score: inf
ROOT
ATOM      1  C   UNL A   1      36.942  23.195  24.285  1.00  0.00     0.023 C 
ENDROOT
BRANCH   1   2
ATOM      2  C   UNL A   1      35.512  22.868  23.833  1.00  0.00     0.023 C 
BRANCH   2   3
ATOM      3  C   UNL A   1      34.665  22.027  24.789  1.00  0.00     0.116 C 
BRANCH   3   4
ATOM      4  N   UNL A   1      33.490  21.535  24.106  1.00  0.00    -0.353 N 
ATOM      5  C   UNL A   1      32.470  20.975  24.804  1.00  0.00     0.244 C 
ATOM      6  O   UNL A   1      32.041  19.862  24.487  1.00  0.00    -0.270 OA
ATOM      7  H   UNL A   1      33.429  21.607  23.125  1.00  0.00     0.163 HD
BRANCH   5   8
ATOM      8  C   UNL A   1      31.912  21.781  25.911  1.00  0.00     0.077 C 
ATOM      9  C   UNL A   1      30.732  22.393  25.737  1.00  0.00     0.077 C 
BRANCH   9  10
ATOM     10  C   UNL A   1      30.289  23.395  26.714  1.00  0.00     0.248 C 
ATOM     11  N   UNL A   1      30.337  24.731  26.436  1.00  0.00    -0.322 N 
ATOM     12  H   UNL A   1      29.848  25.258  27.108  1.00  0.00     0.170 HD
ATOM     13  O   UNL A   1      29.736  23.013  27.746  1.00  0.00    -0.270 OA
BRANCH  11  14
ATOM     14  C   UNL A   1      30.903  25.564  25.435  1.00  0.00     0.044 A 
ATOM     15  C   UNL A   1      29.391  28.171  23.048  1.00  0.00     0.044 C 
ATOM     16  C   UNL A   1      30.354  27.222  23.692  1.00  0.00    -0.049 A 
ATOM     17  C   UNL A   1      31.684  27.253  23.291  1.00  0.00     0.004 A 
ATOM     18  C   UNL A   1      29.970  26.356  24.732  1.00  0.00     0.029 A 
ATOM     19  C   UNL A   1      32.622  26.526  24.000  1.00  0.00     0.006 A 
ATOM     20  C   UNL A   1      32.256  25.757  25.125  1.00  0.00    -0.027 A 
ATOM     21  C   UNL A   1      33.417  25.327  25.955  1.00  0.00     0.046 C 
ENDBRANCH  11  14
ENDBRANCH   9  10
ENDBRANCH   5   8
ENDBRANCH   3   4
ENDBRANCH   2   3
ENDBRANCH   1   2
BRANCH   1  22
ATOM     22  C   UNL A   1      37.223  23.296  25.785  1.00  0.00     0.116 C 
BRANCH  22  23
ATOM     23  N   UNL A   1      38.321  22.473  26.271  1.00  0.00    -0.352 N 
ATOM     24  C   UNL A   1      39.585  22.680  26.780  1.00  0.00     0.251 C 
ATOM     25  H   UNL A   1      38.102  21.514  26.223  1.00  0.00     0.163 HD
ATOM     26  O   UNL A   1      40.301  21.683  26.886  1.00  0.00    -0.269 OA
BRANCH  24  27
ATOM     27  C   UNL A   1      40.099  23.985  27.281  1.00  0.00     0.039 A 
ATOM     28  C   UNL A   1      41.355  24.051  27.923  1.00  0.00     0.014 A 
ATOM     29  C   UNL A   1      39.346  25.141  27.239  1.00  0.00     0.014 A 
ATOM     30  C   UNL A   1      41.736  25.194  28.650  1.00  0.00     0.010 A 
ATOM     31  C   UNL A   1      39.728  26.268  27.920  1.00  0.00     0.010 A 
ATOM     32  C   UNL A   1      40.866  26.279  28.710  1.00  0.00    -0.014 A 
BRANCH  32  33
ATOM     33  C   UNL A   1      41.080  27.517  29.461  1.00  0.00     0.031 A 
ATOM     34  C   UNL A   1      42.110  28.393  28.838  1.00  0.00     0.074 A 
ATOM     35  C   UNL A   1      40.166  28.076  30.281  1.00  0.00     0.049 A 
ATOM     36  N   UNL A   1      43.396  28.308  28.981  1.00  0.00    -0.248 NA
ATOM     37  C   UNL A   1      41.693  29.212  27.674  1.00  0.00     0.031 C 
ATOM     38  C   UNL A   1      38.829  27.604  30.641  1.00  0.00     0.029 A 
ATOM     39  N   UNL A   1      40.228  29.296  30.889  1.00  0.00    -0.354 N 
ATOM     40  C   UNL A   1      43.894  29.256  28.096  1.00  0.00     0.074 A 
ATOM     41  C   UNL A   1      42.881  29.355  27.091  1.00  0.00     0.031 C 
ATOM     42  C   UNL A   1      38.151  28.606  31.256  1.00  0.00     0.029 A 
ATOM     43  C   UNL A   1      39.027  29.759  31.422  1.00  0.00     0.049 A 
ATOM     44  H   UNL A   1      41.064  29.813  30.947  1.00  0.00     0.167 HD
ATOM     45  C   UNL A   1      44.801  30.212  28.465  1.00  0.00     0.034 A 
ATOM     46  C   UNL A   1      38.784  31.014  31.902  1.00  0.00     0.034 A 
ATOM     47  C   UNL A   1      45.217  29.989  29.845  1.00  0.00     0.049 A 
ATOM     48  C   UNL A   1      40.112  31.650  32.141  1.00  0.00     0.074 A 
ATOM     49  C   UNL A   1      45.743  28.915  30.540  1.00  0.00     0.029 A 
ATOM     50  N   UNL A   1      44.705  30.833  30.818  1.00  0.00    -0.354 N 
ATOM     51  N   UNL A   1      40.957  31.241  33.046  1.00  0.00    -0.248 NA
ATOM     52  C   UNL A   1      40.704  32.426  31.059  1.00  0.00     0.031 C 
ATOM     53  C   UNL A   1      45.092  28.934  31.810  1.00  0.00     0.029 A 
ATOM     54  C   UNL A   1      44.285  30.070  31.879  1.00  0.00     0.049 A 
ATOM     55  H   UNL A   1      44.651  31.814  30.758  1.00  0.00     0.167 HD
ATOM     56  C   UNL A   1      42.204  31.315  32.440  1.00  0.00     0.074 A 
ATOM     57  C   UNL A   1      41.997  32.151  31.259  1.00  0.00     0.031 C 
ATOM     58  C   UNL A   1      43.204  30.445  32.777  1.00  0.00     0.034 A 
BRANCH  45  59
ATOM     59  C   UNL A   1      44.953  31.581  27.799  1.00  0.00     0.023 A 
ATOM     60  C   UNL A   1      44.527  32.683  28.556  1.00  0.00     0.031 A 
ATOM     61  C   UNL A   1      45.273  31.881  26.455  1.00  0.00     0.131 A 
ATOM     62  C   UNL A   1      44.214  33.910  27.951  1.00  0.00     0.055 A 
ATOM     63  C   UNL A   1      44.985  33.113  25.854  1.00  0.00     0.041 A 
ATOM     64  F   UNL A   1      45.884  31.029  25.630  1.00  0.00    -0.206 F 
ATOM     65  C   UNL A   1      44.408  34.124  26.593  1.00  0.00     0.022 A 
BRANCH  62  66
ATOM     66  S   UNL A   1      43.380  35.145  28.967  1.00  0.00     0.124 S 
ATOM     67  O   UNL A   1      43.890  36.375  28.389  1.00  0.00    -0.237 OA
ATOM     68  O   UNL A   1      41.975  34.837  28.712  1.00  0.00    -0.237 OA
ATOM     69  O   UNL A   1      43.849  34.835  30.321  1.00  0.00    -0.744 OA
ENDBRANCH  62  66
ENDBRANCH  45  59
BRANCH  46  70
ATOM     70  C   UNL A   1      37.509  31.797  31.930  1.00  0.00     0.023 A 
ATOM     71  C   UNL A   1      36.849  32.233  30.755  1.00  0.00     0.031 A 
ATOM     72  C   UNL A   1      36.782  31.917  33.135  1.00  0.00     0.131 A 
ATOM     73  C   UNL A   1      35.530  32.751  30.819  1.00  0.00     0.055 A 
ATOM     74  C   UNL A   1      35.483  32.432  33.192  1.00  0.00     0.041 A 
ATOM     75  F   UNL A   1      37.276  31.453  34.294  1.00  0.00    -0.206 F 
ATOM     76  C   UNL A   1      34.847  32.841  32.033  1.00  0.00     0.022 A 
BRANCH  73  77
ATOM     77  S   UNL A   1      34.628  33.221  29.301  1.00  0.00     0.124 S 
ATOM     78  O   UNL A   1      34.230  31.925  28.762  1.00  0.00    -0.237 OA
ATOM     79  O   UNL A   1      33.559  34.068  29.815  1.00  0.00    -0.237 OA
ATOM     80  O   UNL A   1      35.637  33.927  28.510  1.00  0.00    -0.744 OA
ENDBRANCH  73  77
ENDBRANCH  46  70
BRANCH  58  81
ATOM     81  C   UNL A   1      43.083  29.664  34.072  1.00  0.00     0.023 A 
ATOM     82  C   UNL A   1      42.666  28.318  34.180  1.00  0.00     0.031 A 
ATOM     83  C   UNL A   1      43.518  30.306  35.246  1.00  0.00     0.131 A 
ATOM     84  C   UNL A   1      42.688  27.673  35.433  1.00  0.00     0.055 A 
ATOM     85  C   UNL A   1      43.559  29.657  36.479  1.00  0.00     0.041 A 
ATOM     86  F   UNL A   1      43.946  31.579  35.209  1.00  0.00    -0.206 F 
ATOM     87  C   UNL A   1      43.137  28.338  36.579  1.00  0.00     0.022 A 
BRANCH  84  88
ATOM     88  S   UNL A   1      42.106  25.954  35.607  1.00  0.00     0.124 S 
ATOM     89  O   UNL A   1      40.707  26.021  35.201  1.00  0.00    -0.237 OA
ATOM     90  O   UNL A   1      42.999  25.231  34.705  1.00  0.00    -0.237 OA
ATOM     91  O   UNL A   1      42.316  25.668  37.027  1.00  0.00    -0.744 OA
ENDBRANCH  84  88
ENDBRANCH  58  81
ENDBRANCH  32  33
ENDBRANCH  24  27
ENDBRANCH  22  23
ENDBRANCH   1  22
TORSDOF 16
ENDMDL
