MODEL 1
REMARK VINA RESULT:     -10.6      0.000      0.000
REMARK SMILES COCCN(CC(=O)NCCCCNC(=O)c1ccc(-c2c3nc(c(-c4cc(S(=O)(=O)[O-])ccc4F)c4ccc([nH]4)c(-c4cc(S(=O)(=O)[O-])ccc4F)c4nc(c(-c5cc(S(=O)(=O)[O-])ccc5F)c5ccc2[nH]5)C=C4)C=C3)cc1)C(=O)N1CCC[C@@H]1C
REMARK SMILES IDX 11 1 10 2 9 3 7 4 8 5 6 7 5 8 4 9 3 10 2 11 1 12 80 13 81 14
REMARK SMILES IDX 82 15 83 16 86 17 84 18 85 19 87 20 12 21 13 22 14 23 15 24
REMARK SMILES IDX 16 26 17 27 18 28 79 29 19 30 78 31 20 32 21 33 22 34 72 35
REMARK SMILES IDX 23 36 77 37 71 38 73 39 24 40 76 41 70 42 69 43 25 45 57 46
REMARK SMILES IDX 37 47 56 48 38 49 41 50 55 51 74 52 39 53 40 54 54 56 75 57
REMARK SMILES IDX 42 58 26 59 27 60 35 61 28 62 34 63 36 64 33 65 29 66 30 67
REMARK SMILES IDX 31 68 32 69 58 70 59 71 67 72 60 73 66 74 68 75 65 76 61 77
REMARK SMILES IDX 62 78 63 79 64 80 43 81 44 82 52 83 45 84 51 85 53 86 50 87
REMARK SMILES IDX 46 88 47 89 48 90 49 91
REMARK H PARENT 9 6 14 25 73 44 41 55
REMARK Flexibility Score: inf
ROOT
ATOM      1  C   UNL A   1      32.118  28.923  24.668  1.00  0.00     0.023 C 
ENDROOT
BRANCH   1   2
ATOM      2  C   UNL A   1      31.729  28.647  23.218  1.00  0.00     0.116 C 
BRANCH   2   3
ATOM      3  N   UNL A   1      32.754  27.993  22.438  1.00  0.00    -0.355 N 
ATOM      4  C   UNL A   1      33.074  26.671  22.366  1.00  0.00     0.239 C 
ATOM      5  O   UNL A   1      33.639  26.298  21.330  1.00  0.00    -0.273 OA
ATOM      6  H   UNL A   1      33.301  28.591  21.878  1.00  0.00     0.163 HD
BRANCH   4   7
ATOM      7  C   UNL A   1      32.629  25.633  23.416  1.00  0.00     0.221 C 
BRANCH   7   8
ATOM      8  N   UNL A   1      33.626  24.680  23.914  1.00  0.00    -0.313 N 
BRANCH   8   9
ATOM      9  C   UNL A   1      34.114  24.884  25.293  1.00  0.00     0.150 C 
BRANCH   9  10
ATOM     10  C   UNL A   1      33.014  24.993  26.368  1.00  0.00     0.181 C 
BRANCH  10  11
ATOM     11  O   UNL A   1      32.117  23.888  26.349  1.00  0.00    -0.383 OA
ATOM     12  C   UNL A   1      32.350  22.948  27.385  1.00  0.00     0.194 C 
ENDBRANCH  10  11
ENDBRANCH   9  10
ENDBRANCH   8   9
BRANCH   8  13
ATOM     13  C   UNL A   1      33.958  23.476  23.309  1.00  0.00     0.320 C 
ATOM     14  O   UNL A   1      34.698  23.438  22.323  1.00  0.00    -0.248 OA
BRANCH  13  15
ATOM     15  N   UNL A   1      33.600  22.301  23.923  1.00  0.00    -0.322 N 
ATOM     16  C   UNL A   1      34.651  21.407  24.362  1.00  0.00     0.122 C 
ATOM     17  C   UNL A   1      32.358  21.539  23.749  1.00  0.00     0.083 C 
ATOM     18  C   UNL A   1      33.916  20.392  25.211  1.00  0.00     0.024 C 
ATOM     19  C   UNL A   1      32.628  20.180  24.426  1.00  0.00     0.027 C 
ATOM     20  C   UNL A   1      31.998  21.335  22.281  1.00  0.00     0.031 C 
ENDBRANCH  13  15
ENDBRANCH   8  13
ENDBRANCH   7   8
ENDBRANCH   4   7
ENDBRANCH   2   3
ENDBRANCH   1   2
BRANCH   1  21
ATOM     21  C   UNL A   1      31.492  30.170  25.292  1.00  0.00     0.023 C 
BRANCH  21  22
ATOM     22  C   UNL A   1      32.042  30.579  26.651  1.00  0.00     0.116 C 
BRANCH  22  23
ATOM     23  N   UNL A   1      32.001  32.013  26.888  1.00  0.00    -0.352 N 
ATOM     24  C   UNL A   1      32.942  32.812  27.489  1.00  0.00     0.251 C 
ATOM     25  H   UNL A   1      31.188  32.472  26.574  1.00  0.00     0.163 HD
ATOM     26  O   UNL A   1      32.700  34.000  27.684  1.00  0.00    -0.269 OA
BRANCH  24  27
ATOM     27  C   UNL A   1      34.219  32.221  27.944  1.00  0.00     0.039 A 
ATOM     28  C   UNL A   1      35.323  33.059  28.117  1.00  0.00     0.014 A 
ATOM     29  C   UNL A   1      34.313  30.860  28.249  1.00  0.00     0.014 A 
ATOM     30  C   UNL A   1      36.496  32.548  28.673  1.00  0.00     0.010 A 
ATOM     31  C   UNL A   1      35.458  30.369  28.870  1.00  0.00     0.010 A 
ATOM     32  C   UNL A   1      36.558  31.211  29.098  1.00  0.00    -0.014 A 
BRANCH  32  33
ATOM     33  C   UNL A   1      37.754  30.683  29.805  1.00  0.00     0.031 A 
ATOM     34  C   UNL A   1      38.062  31.130  31.208  1.00  0.00     0.074 A 
ATOM     35  C   UNL A   1      38.596  29.854  29.156  1.00  0.00     0.049 A 
ATOM     36  N   UNL A   1      39.093  30.841  31.959  1.00  0.00    -0.248 NA
ATOM     37  C   UNL A   1      37.098  32.045  31.835  1.00  0.00     0.031 C 
ATOM     38  C   UNL A   1      38.425  29.386  27.778  1.00  0.00     0.029 A 
ATOM     39  N   UNL A   1      39.769  29.266  29.561  1.00  0.00    -0.354 N 
ATOM     40  C   UNL A   1      38.907  31.544  33.145  1.00  0.00     0.074 A 
ATOM     41  C   UNL A   1      37.696  32.321  32.984  1.00  0.00     0.031 C 
ATOM     42  C   UNL A   1      39.440  28.565  27.463  1.00  0.00     0.029 A 
ATOM     43  C   UNL A   1      40.359  28.484  28.594  1.00  0.00     0.049 A 
ATOM     44  H   UNL A   1      40.151  29.390  30.459  1.00  0.00     0.167 HD
ATOM     45  C   UNL A   1      39.665  31.525  34.270  1.00  0.00     0.034 A 
ATOM     46  C   UNL A   1      41.516  27.793  28.609  1.00  0.00     0.034 A 
ATOM     47  C   UNL A   1      40.865  30.738  34.416  1.00  0.00     0.049 A 
ATOM     48  C   UNL A   1      42.355  27.811  29.862  1.00  0.00     0.074 A 
ATOM     49  C   UNL A   1      41.677  30.601  35.529  1.00  0.00     0.029 A 
ATOM     50  N   UNL A   1      41.436  29.962  33.414  1.00  0.00    -0.354 N 
ATOM     51  N   UNL A   1      42.136  28.439  30.995  1.00  0.00    -0.248 NA
ATOM     52  C   UNL A   1      43.592  27.020  29.842  1.00  0.00     0.031 C 
ATOM     53  C   UNL A   1      42.770  29.802  35.181  1.00  0.00     0.029 A 
ATOM     54  C   UNL A   1      42.604  29.374  33.874  1.00  0.00     0.049 A 
ATOM     55  H   UNL A   1      41.064  29.847  32.509  1.00  0.00     0.167 HD
ATOM     56  C   UNL A   1      43.195  28.094  31.830  1.00  0.00     0.074 A 
ATOM     57  C   UNL A   1      44.040  27.189  31.076  1.00  0.00     0.031 C 
ATOM     58  C   UNL A   1      43.446  28.486  33.106  1.00  0.00     0.034 A 
BRANCH  45  59
ATOM     59  C   UNL A   1      39.224  32.401  35.418  1.00  0.00     0.023 A 
ATOM     60  C   UNL A   1      39.661  33.731  35.545  1.00  0.00     0.031 A 
ATOM     61  C   UNL A   1      38.368  31.895  36.413  1.00  0.00     0.131 A 
ATOM     62  C   UNL A   1      39.305  34.483  36.674  1.00  0.00     0.055 A 
ATOM     63  C   UNL A   1      37.951  32.675  37.493  1.00  0.00     0.041 A 
ATOM     64  F   UNL A   1      37.933  30.626  36.360  1.00  0.00    -0.206 F 
ATOM     65  C   UNL A   1      38.432  33.973  37.637  1.00  0.00     0.022 A 
BRANCH  62  66
ATOM     66  S   UNL A   1      40.114  36.085  36.939  1.00  0.00     0.124 S 
ATOM     67  O   UNL A   1      39.834  36.768  35.678  1.00  0.00    -0.237 OA
ATOM     68  O   UNL A   1      39.418  36.600  38.112  1.00  0.00    -0.237 OA
ATOM     69  O   UNL A   1      41.516  35.731  37.149  1.00  0.00    -0.744 OA
ENDBRANCH  62  66
ENDBRANCH  45  59
BRANCH  46  70
ATOM     70  C   UNL A   1      41.963  27.037  27.405  1.00  0.00     0.023 A 
ATOM     71  C   UNL A   1      41.810  25.643  27.328  1.00  0.00     0.031 A 
ATOM     72  C   UNL A   1      42.594  27.691  26.332  1.00  0.00     0.131 A 
ATOM     73  C   UNL A   1      42.325  24.942  26.226  1.00  0.00     0.055 A 
ATOM     74  C   UNL A   1      43.055  26.995  25.212  1.00  0.00     0.041 A 
ATOM     75  F   UNL A   1      42.763  29.023  26.352  1.00  0.00    -0.206 F 
ATOM     76  C   UNL A   1      42.933  25.611  25.161  1.00  0.00     0.022 A 
BRANCH  73  77
ATOM     77  S   UNL A   1      42.266  23.129  26.247  1.00  0.00     0.124 S 
ATOM     78  O   UNL A   1      42.812  22.800  24.935  1.00  0.00    -0.237 OA
ATOM     79  O   UNL A   1      43.112  22.812  27.392  1.00  0.00    -0.237 OA
ATOM     80  O   UNL A   1      40.846  22.837  26.423  1.00  0.00    -0.744 OA
ENDBRANCH  73  77
ENDBRANCH  46  70
BRANCH  58  81
ATOM     81  C   UNL A   1      44.666  27.900  33.773  1.00  0.00     0.023 A 
ATOM     82  C   UNL A   1      44.633  26.645  34.406  1.00  0.00     0.031 A 
ATOM     83  C   UNL A   1      45.876  28.616  33.791  1.00  0.00     0.131 A 
ATOM     84  C   UNL A   1      45.769  26.170  35.078  1.00  0.00     0.055 A 
ATOM     85  C   UNL A   1      47.022  28.111  34.407  1.00  0.00     0.041 A 
ATOM     86  F   UNL A   1      45.965  29.821  33.205  1.00  0.00    -0.206 F 
ATOM     87  C   UNL A   1      46.968  26.887  35.067  1.00  0.00     0.022 A 
BRANCH  84  88
ATOM     88  S   UNL A   1      45.634  24.642  36.048  1.00  0.00     0.124 S 
ATOM     89  O   UNL A   1      44.356  24.827  36.727  1.00  0.00    -0.237 OA
ATOM     90  O   UNL A   1      45.662  23.613  35.014  1.00  0.00    -0.237 OA
ATOM     91  O   UNL A   1      46.810  24.681  36.915  1.00  0.00    -0.744 OA
ENDBRANCH  84  88
ENDBRANCH  58  81
ENDBRANCH  32  33
ENDBRANCH  24  27
ENDBRANCH  22  23
ENDBRANCH  21  22
ENDBRANCH   1  21
TORSDOF 20
ENDMDL
MODEL 2
REMARK VINA RESULT:     -10.5      1.805      7.914
REMARK SMILES COCCN(CC(=O)NCCCCNC(=O)c1ccc(-c2c3nc(c(-c4cc(S(=O)(=O)[O-])ccc4F)c4ccc([nH]4)c(-c4cc(S(=O)(=O)[O-])ccc4F)c4nc(c(-c5cc(S(=O)(=O)[O-])ccc5F)c5ccc2[nH]5)C=C4)C=C3)cc1)C(=O)N1CCC[C@@H]1C
REMARK SMILES IDX 11 1 10 2 9 3 7 4 8 5 6 7 5 8 4 9 3 10 2 11 1 12 80 13 81 14
REMARK SMILES IDX 82 15 83 16 86 17 84 18 85 19 87 20 12 21 13 22 14 23 15 24
REMARK SMILES IDX 16 26 17 27 18 28 79 29 19 30 78 31 20 32 21 33 22 34 72 35
REMARK SMILES IDX 23 36 77 37 71 38 73 39 24 40 76 41 70 42 69 43 25 45 57 46
REMARK SMILES IDX 37 47 56 48 38 49 41 50 55 51 74 52 39 53 40 54 54 56 75 57
REMARK SMILES IDX 42 58 26 59 27 60 35 61 28 62 34 63 36 64 33 65 29 66 30 67
REMARK SMILES IDX 31 68 32 69 58 70 59 71 67 72 60 73 66 74 68 75 65 76 61 77
REMARK SMILES IDX 62 78 63 79 64 80 43 81 44 82 52 83 45 84 51 85 53 86 50 87
REMARK SMILES IDX 46 88 47 89 48 90 49 91
REMARK H PARENT 9 6 14 25 73 44 41 55
REMARK Flexibility Score: inf
ROOT
ATOM      1  C   UNL A   1      33.716  28.481  24.180  1.00  0.00     0.023 C 
ENDROOT
BRANCH   1   2
ATOM      2  C   UNL A   1      33.825  28.302  22.669  1.00  0.00     0.116 C 
BRANCH   2   3
ATOM      3  N   UNL A   1      32.863  27.384  22.105  1.00  0.00    -0.355 N 
ATOM      4  C   UNL A   1      32.818  26.025  22.179  1.00  0.00     0.239 C 
ATOM      5  O   UNL A   1      31.705  25.502  22.035  1.00  0.00    -0.273 OA
ATOM      6  H   UNL A   1      32.134  27.802  21.591  1.00  0.00     0.163 HD
BRANCH   4   7
ATOM      7  C   UNL A   1      34.028  25.158  22.582  1.00  0.00     0.221 C 
BRANCH   7   8
ATOM      8  N   UNL A   1      33.934  24.364  23.811  1.00  0.00    -0.313 N 
BRANCH   8   9
ATOM      9  C   UNL A   1      34.561  23.026  23.791  1.00  0.00     0.150 C 
BRANCH   9  10
ATOM     10  C   UNL A   1      36.068  23.013  23.467  1.00  0.00     0.181 C 
BRANCH  10  11
ATOM     11  O   UNL A   1      36.854  23.617  24.489  1.00  0.00    -0.383 OA
ATOM     12  C   UNL A   1      36.764  22.957  25.741  1.00  0.00     0.194 C 
ENDBRANCH  10  11
ENDBRANCH   9  10
ENDBRANCH   8   9
BRANCH   8  13
ATOM     13  C   UNL A   1      33.539  24.846  25.051  1.00  0.00     0.320 C 
ATOM     14  O   UNL A   1      34.305  25.511  25.751  1.00  0.00    -0.248 OA
BRANCH  13  15
ATOM     15  N   UNL A   1      32.222  24.729  25.422  1.00  0.00    -0.322 N 
ATOM     16  C   UNL A   1      31.508  25.928  25.809  1.00  0.00     0.122 C 
ATOM     17  C   UNL A   1      31.554  23.559  26.004  1.00  0.00     0.083 C 
ATOM     18  C   UNL A   1      30.067  25.470  25.879  1.00  0.00     0.024 C 
ATOM     19  C   UNL A   1      30.192  24.086  26.501  1.00  0.00     0.027 C 
ATOM     20  C   UNL A   1      32.340  22.952  27.162  1.00  0.00     0.031 C 
ENDBRANCH  13  15
ENDBRANCH   8  13
ENDBRANCH   7   8
ENDBRANCH   4   7
ENDBRANCH   2   3
ENDBRANCH   1   2
BRANCH   1  21
ATOM     21  C   UNL A   1      32.538  29.329  24.660  1.00  0.00     0.023 C 
BRANCH  21  22
ATOM     22  C   UNL A   1      32.469  29.579  26.160  1.00  0.00     0.116 C 
BRANCH  22  23
ATOM     23  N   UNL A   1      32.174  30.960  26.507  1.00  0.00    -0.352 N 
ATOM     24  C   UNL A   1      32.924  31.839  27.248  1.00  0.00     0.251 C 
ATOM     25  H   UNL A   1      31.320  31.311  26.163  1.00  0.00     0.163 HD
ATOM     26  O   UNL A   1      32.475  32.951  27.516  1.00  0.00    -0.269 OA
BRANCH  24  27
ATOM     27  C   UNL A   1      34.246  31.419  27.761  1.00  0.00     0.039 A 
ATOM     28  C   UNL A   1      35.215  32.396  27.998  1.00  0.00     0.014 A 
ATOM     29  C   UNL A   1      34.510  30.078  28.055  1.00  0.00     0.014 A 
ATOM     30  C   UNL A   1      36.419  32.040  28.608  1.00  0.00     0.010 A 
ATOM     31  C   UNL A   1      35.680  29.737  28.728  1.00  0.00     0.010 A 
ATOM     32  C   UNL A   1      36.642  30.717  29.020  1.00  0.00    -0.014 A 
BRANCH  32  33
ATOM     33  C   UNL A   1      37.864  30.344  29.781  1.00  0.00     0.031 A 
ATOM     34  C   UNL A   1      38.856  29.379  29.193  1.00  0.00     0.074 A 
ATOM     35  C   UNL A   1      38.041  30.825  31.028  1.00  0.00     0.049 A 
ATOM     36  N   UNL A   1      39.938  28.876  29.730  1.00  0.00    -0.248 NA
ATOM     37  C   UNL A   1      38.577  28.894  27.834  1.00  0.00     0.031 C 
ATOM     38  C   UNL A   1      37.124  31.733  31.721  1.00  0.00     0.029 A 
ATOM     39  N   UNL A   1      39.044  30.611  31.940  1.00  0.00    -0.354 N 
ATOM     40  C   UNL A   1      40.466  28.009  28.779  1.00  0.00     0.074 A 
ATOM     41  C   UNL A   1      39.549  28.010  27.659  1.00  0.00     0.031 C 
ATOM     42  C   UNL A   1      37.619  32.017  32.937  1.00  0.00     0.029 A 
ATOM     43  C   UNL A   1      38.862  31.277  33.131  1.00  0.00     0.049 A 
ATOM     44  H   UNL A   1      39.822  30.036  31.759  1.00  0.00     0.167 HD
ATOM     45  C   UNL A   1      41.620  27.297  28.828  1.00  0.00     0.034 A 
ATOM     46  C   UNL A   1      39.602  31.279  34.258  1.00  0.00     0.034 A 
ATOM     47  C   UNL A   1      42.526  27.316  29.950  1.00  0.00     0.049 A 
ATOM     48  C   UNL A   1      40.865  30.457  34.298  1.00  0.00     0.074 A 
ATOM     49  C   UNL A   1      43.748  26.678  30.082  1.00  0.00     0.029 A 
ATOM     50  N   UNL A   1      42.307  27.997  31.141  1.00  0.00    -0.354 N 
ATOM     51  N   UNL A   1      41.379  29.684  33.367  1.00  0.00    -0.248 NA
ATOM     52  C   UNL A   1      41.653  30.514  35.535  1.00  0.00     0.031 C 
ATOM     53  C   UNL A   1      44.232  26.917  31.372  1.00  0.00     0.029 A 
ATOM     54  C   UNL A   1      43.353  27.768  32.022  1.00  0.00     0.049 A 
ATOM     55  H   UNL A   1      41.523  28.562  31.331  1.00  0.00     0.167 HD
ATOM     56  C   UNL A   1      42.565  29.187  33.900  1.00  0.00     0.074 A 
ATOM     57  C   UNL A   1      42.698  29.762  35.224  1.00  0.00     0.031 C 
ATOM     58  C   UNL A   1      43.465  28.336  33.346  1.00  0.00     0.034 A 
BRANCH  45  59
ATOM     59  C   UNL A   1      41.947  26.425  27.640  1.00  0.00     0.023 A 
ATOM     60  C   UNL A   1      41.559  25.075  27.585  1.00  0.00     0.031 A 
ATOM     61  C   UNL A   1      42.676  26.942  26.554  1.00  0.00     0.131 A 
ATOM     62  C   UNL A   1      41.962  24.272  26.508  1.00  0.00     0.055 A 
ATOM     63  C   UNL A   1      43.005  26.159  25.447  1.00  0.00     0.041 A 
ATOM     64  F   UNL A   1      43.094  28.218  26.558  1.00  0.00    -0.206 F 
ATOM     65  C   UNL A   1      42.661  24.811  25.425  1.00  0.00     0.022 A 
BRANCH  62  66
ATOM     66  S   UNL A   1      41.685  22.482  26.610  1.00  0.00     0.124 S 
ATOM     67  O   UNL A   1      42.412  22.140  27.830  1.00  0.00    -0.237 OA
ATOM     68  O   UNL A   1      40.231  22.392  26.686  1.00  0.00    -0.237 OA
ATOM     69  O   UNL A   1      42.278  21.972  25.376  1.00  0.00    -0.744 OA
ENDBRANCH  62  66
ENDBRANCH  45  59
BRANCH  46  70
ATOM     70  C   UNL A   1      39.170  32.069  35.445  1.00  0.00     0.023 A 
ATOM     71  C   UNL A   1      38.511  31.456  36.522  1.00  0.00     0.031 A 
ATOM     72  C   UNL A   1      39.368  33.461  35.500  1.00  0.00     0.131 A 
ATOM     73  C   UNL A   1      38.029  32.236  37.585  1.00  0.00     0.055 A 
ATOM     74  C   UNL A   1      38.936  34.225  36.586  1.00  0.00     0.041 A 
ATOM     75  F   UNL A   1      39.997  34.098  34.500  1.00  0.00    -0.206 F 
ATOM     76  C   UNL A   1      38.250  33.615  37.630  1.00  0.00     0.022 A 
BRANCH  73  77
ATOM     77  S   UNL A   1      37.028  31.433  38.867  1.00  0.00     0.124 S 
ATOM     78  O   UNL A   1      36.893  30.082  38.336  1.00  0.00    -0.237 OA
ATOM     79  O   UNL A   1      37.874  31.578  40.047  1.00  0.00    -0.237 OA
ATOM     80  O   UNL A   1      35.799  32.223  38.883  1.00  0.00    -0.744 OA
ENDBRANCH  73  77
ENDBRANCH  46  70
BRANCH  58  81
ATOM     81  C   UNL A   1      44.693  28.012  34.162  1.00  0.00     0.023 A 
ATOM     82  C   UNL A   1      44.715  26.941  35.073  1.00  0.00     0.031 A 
ATOM     83  C   UNL A   1      45.853  28.798  34.039  1.00  0.00     0.131 A 
ATOM     84  C   UNL A   1      45.851  26.720  35.865  1.00  0.00     0.055 A 
ATOM     85  C   UNL A   1      47.002  28.535  34.784  1.00  0.00     0.041 A 
ATOM     86  F   UNL A   1      45.887  29.835  33.186  1.00  0.00    -0.206 F 
ATOM     87  C   UNL A   1      47.001  27.500  35.714  1.00  0.00     0.022 A 
BRANCH  84  88
ATOM     88  S   UNL A   1      45.776  25.457  37.165  1.00  0.00     0.124 S 
ATOM     89  O   UNL A   1      45.274  26.221  38.302  1.00  0.00    -0.237 OA
ATOM     90  O   UNL A   1      44.852  24.480  36.597  1.00  0.00    -0.237 OA
ATOM     91  O   UNL A   1      47.160  25.003  37.284  1.00  0.00    -0.744 OA
ENDBRANCH  84  88
ENDBRANCH  58  81
ENDBRANCH  32  33
ENDBRANCH  24  27
ENDBRANCH  22  23
ENDBRANCH  21  22
ENDBRANCH   1  21
TORSDOF 20
ENDMDL
MODEL 3
REMARK VINA RESULT:     -10.1      4.808     10.297
REMARK SMILES COCCN(CC(=O)NCCCCNC(=O)c1ccc(-c2c3nc(c(-c4cc(S(=O)(=O)[O-])ccc4F)c4ccc([nH]4)c(-c4cc(S(=O)(=O)[O-])ccc4F)c4nc(c(-c5cc(S(=O)(=O)[O-])ccc5F)c5ccc2[nH]5)C=C4)C=C3)cc1)C(=O)N1CCC[C@@H]1C
REMARK SMILES IDX 11 1 10 2 9 3 7 4 8 5 6 7 5 8 4 9 3 10 2 11 1 12 80 13 81 14
REMARK SMILES IDX 82 15 83 16 86 17 84 18 85 19 87 20 12 21 13 22 14 23 15 24
REMARK SMILES IDX 16 26 17 27 18 28 79 29 19 30 78 31 20 32 21 33 22 34 72 35
REMARK SMILES IDX 23 36 77 37 71 38 73 39 24 40 76 41 70 42 69 43 25 45 57 46
REMARK SMILES IDX 37 47 56 48 38 49 41 50 55 51 74 52 39 53 40 54 54 56 75 57
REMARK SMILES IDX 42 58 26 59 27 60 35 61 28 62 34 63 36 64 33 65 29 66 30 67
REMARK SMILES IDX 31 68 32 69 58 70 59 71 67 72 60 73 66 74 68 75 65 76 61 77
REMARK SMILES IDX 62 78 63 79 64 80 43 81 44 82 52 83 45 84 51 85 53 86 50 87
REMARK SMILES IDX 46 88 47 89 48 90 49 91
REMARK H PARENT 9 6 14 25 73 44 41 55
REMARK Flexibility Score: inf
ROOT
ATOM      1  C   UNL A   1      35.075  20.848  24.871  1.00  0.00     0.023 C 
ENDROOT
BRANCH   1   2
ATOM      2  C   UNL A   1      33.655  21.397  24.959  1.00  0.00     0.116 C 
BRANCH   2   3
ATOM      3  N   UNL A   1      33.234  21.753  26.294  1.00  0.00    -0.355 N 
ATOM      4  C   UNL A   1      32.868  22.968  26.790  1.00  0.00     0.239 C 
ATOM      5  O   UNL A   1      32.127  22.957  27.782  1.00  0.00    -0.273 OA
ATOM      6  H   UNL A   1      33.208  21.009  26.940  1.00  0.00     0.163 HD
BRANCH   4   7
ATOM      7  C   UNL A   1      33.199  24.303  26.093  1.00  0.00     0.221 C 
BRANCH   7   8
ATOM      8  N   UNL A   1      32.134  24.976  25.344  1.00  0.00    -0.313 N 
BRANCH   8   9
ATOM      9  C   UNL A   1      31.803  24.427  24.013  1.00  0.00     0.150 C 
BRANCH   9  10
ATOM     10  C   UNL A   1      31.970  25.409  22.837  1.00  0.00     0.181 C 
BRANCH  10  11
ATOM     11  O   UNL A   1      32.885  24.937  21.854  1.00  0.00    -0.383 OA
ATOM     12  C   UNL A   1      32.670  25.490  20.565  1.00  0.00     0.194 C 
ENDBRANCH  10  11
ENDBRANCH   9  10
ENDBRANCH   8   9
BRANCH   8  13
ATOM     13  C   UNL A   1      31.249  25.908  25.868  1.00  0.00     0.320 C 
ATOM     14  O   UNL A   1      30.149  25.568  26.309  1.00  0.00    -0.248 OA
BRANCH  13  15
ATOM     15  N   UNL A   1      31.677  27.200  26.056  1.00  0.00    -0.322 N 
ATOM     16  C   UNL A   1      31.504  27.797  27.365  1.00  0.00     0.122 C 
ATOM     17  C   UNL A   1      31.795  28.262  25.052  1.00  0.00     0.083 C 
ATOM     18  C   UNL A   1      32.314  29.072  27.277  1.00  0.00     0.024 C 
ATOM     19  C   UNL A   1      32.015  29.555  25.864  1.00  0.00     0.027 C 
ATOM     20  C   UNL A   1      30.546  28.389  24.185  1.00  0.00     0.031 C 
ENDBRANCH  13  15
ENDBRANCH   8  13
ENDBRANCH   7   8
ENDBRANCH   4   7
ENDBRANCH   2   3
ENDBRANCH   1   2
BRANCH   1  21
ATOM     21  C   UNL A   1      36.138  21.842  24.401  1.00  0.00     0.023 C 
BRANCH  21  22
ATOM     22  C   UNL A   1      37.177  22.241  25.439  1.00  0.00     0.116 C 
BRANCH  22  23
ATOM     23  N   UNL A   1      38.147  21.195  25.723  1.00  0.00    -0.352 N 
ATOM     24  C   UNL A   1      39.399  21.311  26.276  1.00  0.00     0.251 C 
ATOM     25  H   UNL A   1      37.867  20.281  25.486  1.00  0.00     0.163 HD
ATOM     26  O   UNL A   1      40.121  20.322  26.364  1.00  0.00    -0.269 OA
BRANCH  24  27
ATOM     27  C   UNL A   1      39.884  22.638  26.713  1.00  0.00     0.039 A 
ATOM     28  C   UNL A   1      40.890  22.699  27.679  1.00  0.00     0.014 A 
ATOM     29  C   UNL A   1      39.387  23.811  26.137  1.00  0.00     0.014 A 
ATOM     30  C   UNL A   1      41.457  23.932  28.008  1.00  0.00     0.010 A 
ATOM     31  C   UNL A   1      40.002  25.029  26.412  1.00  0.00     0.010 A 
ATOM     32  C   UNL A   1      41.051  25.100  27.343  1.00  0.00    -0.014 A 
BRANCH  32  33
ATOM     33  C   UNL A   1      41.728  26.400  27.590  1.00  0.00     0.031 A 
ATOM     34  C   UNL A   1      43.155  26.604  27.159  1.00  0.00     0.074 A 
ATOM     35  C   UNL A   1      41.077  27.371  28.262  1.00  0.00     0.049 A 
ATOM     36  N   UNL A   1      43.937  27.634  27.351  1.00  0.00    -0.248 NA
ATOM     37  C   UNL A   1      43.793  25.489  26.444  1.00  0.00     0.031 C 
ATOM     38  C   UNL A   1      39.706  27.272  28.769  1.00  0.00     0.029 A 
ATOM     39  N   UNL A   1      41.481  28.625  28.645  1.00  0.00    -0.354 N 
ATOM     40  C   UNL A   1      45.162  27.291  26.789  1.00  0.00     0.074 A 
ATOM     41  C   UNL A   1      45.033  25.932  26.305  1.00  0.00     0.031 C 
ATOM     42  C   UNL A   1      39.376  28.425  29.373  1.00  0.00     0.029 A 
ATOM     43  C   UNL A   1      40.522  29.327  29.340  1.00  0.00     0.049 A 
ATOM     44  H   UNL A   1      42.372  28.989  28.441  1.00  0.00     0.167 HD
ATOM     45  C   UNL A   1      46.282  28.047  26.667  1.00  0.00     0.034 A 
ATOM     46  C   UNL A   1      40.567  30.552  29.902  1.00  0.00     0.034 A 
ATOM     47  C   UNL A   1      46.389  29.403  27.148  1.00  0.00     0.049 A 
ATOM     48  C   UNL A   1      41.832  31.362  29.779  1.00  0.00     0.074 A 
ATOM     49  C   UNL A   1      47.455  30.278  27.028  1.00  0.00     0.029 A 
ATOM     50  N   UNL A   1      45.401  30.081  27.851  1.00  0.00    -0.354 N 
ATOM     51  N   UNL A   1      42.965  31.042  29.196  1.00  0.00    -0.248 NA
ATOM     52  C   UNL A   1      41.823  32.701  30.381  1.00  0.00     0.031 C 
ATOM     53  C   UNL A   1      47.139  31.454  27.716  1.00  0.00     0.029 A 
ATOM     54  C   UNL A   1      45.845  31.347  28.200  1.00  0.00     0.049 A 
ATOM     55  H   UNL A   1      44.513  29.714  28.070  1.00  0.00     0.167 HD
ATOM     56  C   UNL A   1      43.791  32.153  29.338  1.00  0.00     0.074 A 
ATOM     57  C   UNL A   1      43.020  33.156  30.044  1.00  0.00     0.031 C 
ATOM     58  C   UNL A   1      45.071  32.332  28.919  1.00  0.00     0.034 A 
BRANCH  45  59
ATOM     59  C   UNL A   1      47.482  27.410  26.009  1.00  0.00     0.023 A 
ATOM     60  C   UNL A   1      48.390  26.619  26.734  1.00  0.00     0.031 A 
ATOM     61  C   UNL A   1      47.734  27.610  24.640  1.00  0.00     0.131 A 
ATOM     62  C   UNL A   1      49.543  26.122  26.108  1.00  0.00     0.055 A 
ATOM     63  C   UNL A   1      48.841  27.044  24.004  1.00  0.00     0.041 A 
ATOM     64  F   UNL A   1      46.915  28.372  23.899  1.00  0.00    -0.206 F 
ATOM     65  C   UNL A   1      49.762  26.307  24.742  1.00  0.00     0.022 A 
BRANCH  62  66
ATOM     66  S   UNL A   1      50.824  25.351  27.137  1.00  0.00     0.124 S 
ATOM     67  O   UNL A   1      50.055  24.334  27.851  1.00  0.00    -0.237 OA
ATOM     68  O   UNL A   1      51.771  24.857  26.145  1.00  0.00    -0.237 OA
ATOM     69  O   UNL A   1      51.306  26.454  27.966  1.00  0.00    -0.744 OA
ENDBRANCH  62  66
ENDBRANCH  45  59
BRANCH  46  70
ATOM     70  C   UNL A   1      39.389  31.088  30.643  1.00  0.00     0.023 A 
ATOM     71  C   UNL A   1      38.301  31.654  29.959  1.00  0.00     0.031 A 
ATOM     72  C   UNL A   1      39.355  31.087  32.049  1.00  0.00     0.131 A 
ATOM     73  C   UNL A   1      37.248  32.238  30.680  1.00  0.00     0.055 A 
ATOM     74  C   UNL A   1      38.279  31.620  32.761  1.00  0.00     0.041 A 
ATOM     75  F   UNL A   1      40.368  30.556  32.752  1.00  0.00    -0.206 F 
ATOM     76  C   UNL A   1      37.223  32.212  32.077  1.00  0.00     0.022 A 
BRANCH  73  77
ATOM     77  S   UNL A   1      35.950  33.114  29.764  1.00  0.00     0.124 S 
ATOM     78  O   UNL A   1      36.694  34.229  29.189  1.00  0.00    -0.237 OA
ATOM     79  O   UNL A   1      35.498  32.092  28.827  1.00  0.00    -0.237 OA
ATOM     80  O   UNL A   1      34.987  33.476  30.802  1.00  0.00    -0.744 OA
ENDBRANCH  73  77
ENDBRANCH  46  70
BRANCH  58  81
ATOM     81  C   UNL A   1      45.695  33.680  29.184  1.00  0.00     0.023 A 
ATOM     82  C   UNL A   1      45.587  34.739  28.266  1.00  0.00     0.031 A 
ATOM     83  C   UNL A   1      46.423  33.903  30.366  1.00  0.00     0.131 A 
ATOM     84  C   UNL A   1      46.244  35.953  28.517  1.00  0.00     0.055 A 
ATOM     85  C   UNL A   1      47.022  35.132  30.641  1.00  0.00     0.041 A 
ATOM     86  F   UNL A   1      46.561  32.926  31.278  1.00  0.00    -0.206 F 
ATOM     87  C   UNL A   1      46.946  36.162  29.707  1.00  0.00     0.022 A 
BRANCH  84  88
ATOM     88  S   UNL A   1      46.247  37.227  27.225  1.00  0.00     0.124 S 
ATOM     89  O   UNL A   1      46.822  36.508  26.093  1.00  0.00    -0.237 OA
ATOM     90  O   UNL A   1      44.832  37.562  27.114  1.00  0.00    -0.237 OA
ATOM     91  O   UNL A   1      47.091  38.281  27.785  1.00  0.00    -0.744 OA
ENDBRANCH  84  88
ENDBRANCH  58  81
ENDBRANCH  32  33
ENDBRANCH  24  27
ENDBRANCH  22  23
ENDBRANCH  21  22
ENDBRANCH   1  21
TORSDOF 20
ENDMDL
