MODEL 1
REMARK VINA RESULT:     -14.4      0.000      0.000
REMARK SMILES O=C1C[C@H](c2cn[nH]c2C(=O)NCCCCNC(=O)c2ccc(-c3c4nc(c(-c5cc(S(=O)(=O)[O-])ccc5F)c5ccc([nH]5)c(-c5cc(S(=O)(=O)[O-])ccc5F)c5nc(c(-c6cc(S(=O)(=O)[O-])ccc6F)c6ccc3[nH]6)C=C5)C=C4)cc2)c2c(-c3cccs3)n[nH]c2N1
REMARK SMILES IDX 15 1 14 2 13 3 12 4 10 5 11 6 9 8 5 9 6 10 7 11 8 12 4 14
REMARK SMILES IDX 1 15 2 16 3 17 93 18 92 19 83 21 91 22 84 23 90 24 85 26
REMARK SMILES IDX 86 27 89 28 87 29 88 30 16 31 17 32 18 33 19 35 20 36 21 37
REMARK SMILES IDX 82 38 22 39 81 40 23 41 24 42 25 43 75 44 26 45 80 46 74 47
REMARK SMILES IDX 76 48 27 49 79 50 73 51 72 52 28 54 60 55 40 56 59 57 41 58
REMARK SMILES IDX 44 59 58 60 77 61 42 62 43 63 57 65 78 66 45 67 29 68 30 69
REMARK SMILES IDX 38 70 31 71 37 72 39 73 36 74 32 75 33 76 34 77 35 78 61 79
REMARK SMILES IDX 62 80 70 81 63 82 69 83 71 84 68 85 64 86 65 87 66 88 67 89
REMARK SMILES IDX 46 90 47 91 55 92 48 93 54 94 56 95 53 96 49 97 50 98 51 99
REMARK SMILES IDX 52 100
REMARK H PARENT 12 7 8 13 93 20 91 25 17 34 76 53 44 64
REMARK Flexibility Score: inf
ROOT
ATOM      1  C   UNL A   1      34.188  29.635  27.218  1.00  0.00     0.023 C 
ENDROOT
BRANCH   1   2
ATOM      2  C   UNL A   1      33.460  28.288  27.226  1.00  0.00     0.023 C 
BRANCH   2   3
ATOM      3  C   UNL A   1      31.743  28.277  26.776  1.00  0.00     0.116 C 
BRANCH   3   4
ATOM      4  N   UNL A   1      30.768  26.986  25.310  1.00  0.00    -0.351 N 
ATOM      5  C   UNL A   1      30.365  25.779  24.698  1.00  0.00     0.269 C 
ATOM      6  O   UNL A   1      29.721  25.900  23.650  1.00  0.00    -0.268 OA
ATOM      7  H   UNL A   1      30.361  27.652  24.710  1.00  0.00     0.163 HD
BRANCH   5   8
ATOM      8  C   UNL A   1      30.613  24.467  25.246  1.00  0.00     0.126 A 
ATOM      9  C   UNL A   1      31.573  23.509  24.965  1.00  0.00     0.011 A 
ATOM     10  C   UNL A   1      31.348  22.485  25.904  1.00  0.00     0.140 A 
ATOM     11  N   UNL A   1      30.304  22.740  26.693  1.00  0.00    -0.183 NA
ATOM     12  N   UNL A   1      29.893  23.957  26.291  1.00  0.00    -0.273 N 
ATOM     13  H   UNL A   1      29.142  24.437  26.710  1.00  0.00     0.190 HD
BRANCH   9  14
ATOM     14  C   UNL A   1      32.610  23.634  23.906  1.00  0.00     0.069 C 
ATOM     15  O   UNL A   1      34.028  27.175  24.129  1.00  0.00    -0.275 OA
ATOM     16  C   UNL A   1      33.850  25.989  24.433  1.00  0.00     0.226 C 
ATOM     17  C   UNL A   1      32.914  25.111  23.552  1.00  0.00     0.114 C 
ATOM     18  N   UNL A   1      34.565  25.487  25.492  1.00  0.00    -0.311 N 
ATOM     19  C   UNL A   1      34.722  24.137  25.557  1.00  0.00     0.132 A 
ATOM     20  H   UNL A   1      34.950  26.080  26.178  1.00  0.00     0.171 HD
ATOM     21  C   UNL A   1      33.818  23.058  24.495  1.00  0.00     0.031 A 
ATOM     22  N   UNL A   1      35.907  23.105  26.546  1.00  0.00    -0.262 N 
ATOM     23  C   UNL A   1      34.434  21.238  24.829  1.00  0.00     0.108 A 
ATOM     24  N   UNL A   1      35.699  21.290  26.065  1.00  0.00    -0.173 NA
ATOM     25  H   UNL A   1      36.543  23.449  27.214  1.00  0.00     0.192 HD
BRANCH  23  26
ATOM     26  C   UNL A   1      33.603  20.061  24.445  1.00  0.00     0.055 A 
ATOM     27  C   UNL A   1      33.501  18.914  25.199  1.00  0.00     0.022 A 
ATOM     28  S   UNL A   1      32.532  20.071  23.122  1.00  0.00    -0.142 S 
ATOM     29  C   UNL A   1      32.482  18.046  24.698  1.00  0.00     0.012 A 
ATOM     30  C   UNL A   1      31.922  18.524  23.532  1.00  0.00     0.065 A 
ENDBRANCH  23  26
ENDBRANCH   9  14
ENDBRANCH   5   8
ENDBRANCH   3   4
ENDBRANCH   2   3
ENDBRANCH   1   2
BRANCH   1  31
ATOM     31  C   UNL A   1      35.635  29.567  27.633  1.00  0.00     0.116 C 
BRANCH  31  32
ATOM     32  N   UNL A   1      35.794  29.932  29.036  1.00  0.00    -0.352 N 
ATOM     33  C   UNL A   1      36.701  29.358  29.900  1.00  0.00     0.251 C 
ATOM     34  H   UNL A   1      35.210  30.640  29.391  1.00  0.00     0.163 HD
ATOM     35  O   UNL A   1      36.469  29.265  31.096  1.00  0.00    -0.269 OA
BRANCH  33  36
ATOM     36  C   UNL A   1      37.996  28.969  29.313  1.00  0.00     0.039 A 
ATOM     37  C   UNL A   1      38.549  29.582  28.193  1.00  0.00     0.014 A 
ATOM     38  C   UNL A   1      38.698  27.982  30.010  1.00  0.00     0.014 A 
ATOM     39  C   UNL A   1      39.798  29.130  27.746  1.00  0.00     0.010 A 
ATOM     40  C   UNL A   1      40.002  27.718  29.695  1.00  0.00     0.010 A 
ATOM     41  C   UNL A   1      40.508  28.151  28.483  1.00  0.00    -0.014 A 
BRANCH  41  42
ATOM     42  C   UNL A   1      41.927  27.827  28.270  1.00  0.00     0.031 A 
ATOM     43  C   UNL A   1      41.980  26.562  27.478  1.00  0.00     0.074 A 
ATOM     44  C   UNL A   1      42.986  28.636  28.589  1.00  0.00     0.049 A 
ATOM     45  N   UNL A   1      42.075  25.384  28.002  1.00  0.00    -0.248 NA
ATOM     46  C   UNL A   1      41.506  26.503  26.075  1.00  0.00     0.031 C 
ATOM     47  C   UNL A   1      42.990  29.942  29.266  1.00  0.00     0.029 A 
ATOM     48  N   UNL A   1      44.341  28.459  28.361  1.00  0.00    -0.354 N 
ATOM     49  C   UNL A   1      42.137  24.509  26.930  1.00  0.00     0.074 A 
ATOM     50  C   UNL A   1      41.471  25.182  25.855  1.00  0.00     0.031 C 
ATOM     51  C   UNL A   1      44.220  30.525  29.192  1.00  0.00     0.029 A 
ATOM     52  C   UNL A   1      45.165  29.610  28.568  1.00  0.00     0.049 A 
ATOM     53  H   UNL A   1      44.713  27.594  28.075  1.00  0.00     0.167 HD
ATOM     54  C   UNL A   1      43.077  23.524  26.945  1.00  0.00     0.034 A 
ATOM     55  C   UNL A   1      46.524  29.750  28.316  1.00  0.00     0.034 A 
ATOM     56  C   UNL A   1      43.642  23.421  28.279  1.00  0.00     0.049 A 
ATOM     57  C   UNL A   1      47.076  28.367  28.334  1.00  0.00     0.074 A 
ATOM     58  C   UNL A   1      43.112  23.197  29.535  1.00  0.00     0.029 A 
ATOM     59  N   UNL A   1      44.853  24.048  28.474  1.00  0.00    -0.354 N 
ATOM     60  N   UNL A   1      47.120  27.662  29.433  1.00  0.00    -0.248 NA
ATOM     61  C   UNL A   1      46.940  27.603  27.101  1.00  0.00     0.031 C 
ATOM     62  C   UNL A   1      43.791  24.117  30.387  1.00  0.00     0.029 A 
ATOM     63  C   UNL A   1      44.835  24.711  29.674  1.00  0.00     0.049 A 
ATOM     64  H   UNL A   1      45.614  24.024  27.849  1.00  0.00     0.167 HD
ATOM     65  C   UNL A   1      46.510  26.465  29.095  1.00  0.00     0.074 A 
ATOM     66  C   UNL A   1      46.454  26.470  27.625  1.00  0.00     0.031 C 
ATOM     67  C   UNL A   1      45.776  25.763  30.013  1.00  0.00     0.034 A 
BRANCH  54  68
ATOM     68  C   UNL A   1      43.844  23.017  25.744  1.00  0.00     0.023 A 
ATOM     69  C   UNL A   1      43.880  21.618  25.585  1.00  0.00     0.031 A 
ATOM     70  C   UNL A   1      44.762  23.748  24.960  1.00  0.00     0.131 A 
ATOM     71  C   UNL A   1      44.862  21.003  24.797  1.00  0.00     0.055 A 
ATOM     72  C   UNL A   1      45.696  23.131  24.120  1.00  0.00     0.041 A 
ATOM     73  F   UNL A   1      44.872  25.080  25.020  1.00  0.00    -0.206 F 
ATOM     74  C   UNL A   1      45.772  21.750  24.057  1.00  0.00     0.022 A 
BRANCH  71  75
ATOM     75  S   UNL A   1      45.029  19.205  24.910  1.00  0.00     0.124 S 
ATOM     76  O   UNL A   1      43.768  18.837  25.543  1.00  0.00    -0.237 OA
ATOM     77  O   UNL A   1      45.181  18.829  23.509  1.00  0.00    -0.237 OA
ATOM     78  O   UNL A   1      46.222  19.030  25.735  1.00  0.00    -0.744 OA
ENDBRANCH  71  75
ENDBRANCH  54  68
BRANCH  55  79
ATOM     79  C   UNL A   1      47.338  30.914  27.739  1.00  0.00     0.023 A 
ATOM     80  C   UNL A   1      46.853  32.011  26.935  1.00  0.00     0.031 A 
ATOM     81  C   UNL A   1      48.635  31.091  28.258  1.00  0.00     0.131 A 
ATOM     82  C   UNL A   1      47.659  33.181  26.710  1.00  0.00     0.055 A 
ATOM     83  C   UNL A   1      49.399  32.249  28.061  1.00  0.00     0.041 A 
ATOM     84  F   UNL A   1      49.185  30.170  29.061  1.00  0.00    -0.206 F 
ATOM     85  C   UNL A   1      48.915  33.299  27.302  1.00  0.00     0.022 A 
BRANCH  82  86
ATOM     86  S   UNL A   1      47.126  34.634  25.689  1.00  0.00     0.124 S 
ATOM     87  O   UNL A   1      46.868  35.658  26.695  1.00  0.00    -0.237 OA
ATOM     88  O   UNL A   1      48.266  34.856  24.808  1.00  0.00    -0.237 OA
ATOM     89  O   UNL A   1      45.923  34.153  25.003  1.00  0.00    -0.744 OA
ENDBRANCH  82  86
ENDBRANCH  55  79
BRANCH  67  90
ATOM     90  C   UNL A   1      45.857  26.159  31.477  1.00  0.00     0.023 A 
ATOM     91  C   UNL A   1      44.844  26.798  32.233  1.00  0.00     0.031 A 
ATOM     92  C   UNL A   1      47.017  25.755  32.160  1.00  0.00     0.131 A 
ATOM     93  C   UNL A   1      45.044  27.039  33.611  1.00  0.00     0.055 A 
ATOM     94  C   UNL A   1      47.189  25.954  33.525  1.00  0.00     0.041 A 
ATOM     95  F   UNL A   1      48.005  25.121  31.505  1.00  0.00    -0.206 F 
ATOM     96  C   UNL A   1      46.209  26.611  34.255  1.00  0.00     0.022 A 
BRANCH  93  97
ATOM     97  S   UNL A   1      43.828  27.987  34.591  1.00  0.00     0.124 S 
ATOM     98  O   UNL A   1      44.374  27.941  35.941  1.00  0.00    -0.237 OA
ATOM     99  O   UNL A   1      43.846  29.295  33.941  1.00  0.00    -0.237 OA
ATOM    100  O   UNL A   1      42.585  27.234  34.408  1.00  0.00    -0.744 OA
ENDBRANCH  93  97
ENDBRANCH  67  90
ENDBRANCH  41  42
ENDBRANCH  33  36
ENDBRANCH  31  32
ENDBRANCH   1  31
TORSDOF 16
ENDMDL
MODEL 2
REMARK VINA RESULT:     -14.4      4.326      5.937
REMARK SMILES O=C1C[C@H](c2cn[nH]c2C(=O)NCCCCNC(=O)c2ccc(-c3c4nc(c(-c5cc(S(=O)(=O)[O-])ccc5F)c5ccc([nH]5)c(-c5cc(S(=O)(=O)[O-])ccc5F)c5nc(c(-c6cc(S(=O)(=O)[O-])ccc6F)c6ccc3[nH]6)C=C5)C=C4)cc2)c2c(-c3cccs3)n[nH]c2N1
REMARK SMILES IDX 15 1 14 2 13 3 12 4 10 5 11 6 9 8 5 9 6 10 7 11 8 12 4 14
REMARK SMILES IDX 1 15 2 16 3 17 93 18 92 19 83 21 91 22 84 23 90 24 85 26
REMARK SMILES IDX 86 27 89 28 87 29 88 30 16 31 17 32 18 33 19 35 20 36 21 37
REMARK SMILES IDX 82 38 22 39 81 40 23 41 24 42 25 43 75 44 26 45 80 46 74 47
REMARK SMILES IDX 76 48 27 49 79 50 73 51 72 52 28 54 60 55 40 56 59 57 41 58
REMARK SMILES IDX 44 59 58 60 77 61 42 62 43 63 57 65 78 66 45 67 29 68 30 69
REMARK SMILES IDX 38 70 31 71 37 72 39 73 36 74 32 75 33 76 34 77 35 78 61 79
REMARK SMILES IDX 62 80 70 81 63 82 69 83 71 84 68 85 64 86 65 87 66 88 67 89
REMARK SMILES IDX 46 90 47 91 55 92 48 93 54 94 56 95 53 96 49 97 50 98 51 99
REMARK SMILES IDX 52 100
REMARK H PARENT 12 7 8 13 93 20 91 25 17 34 76 53 44 64
REMARK Flexibility Score: inf
ROOT
ATOM      1  C   UNL A   1      33.486  30.830  26.440  1.00  0.00     0.023 C 
ENDROOT
BRANCH   1   2
ATOM      2  C   UNL A   1      34.502  29.834  27.006  1.00  0.00     0.023 C 
BRANCH   2   3
ATOM      3  C   UNL A   1      34.205  28.106  26.724  1.00  0.00     0.116 C 
BRANCH   3   4
ATOM      4  N   UNL A   1      32.279  27.078  26.722  1.00  0.00    -0.351 N 
ATOM      5  C   UNL A   1      31.376  26.000  26.596  1.00  0.00     0.269 C 
ATOM      6  O   UNL A   1      30.182  26.284  26.737  1.00  0.00    -0.268 OA
ATOM      7  H   UNL A   1      31.668  27.816  26.945  1.00  0.00     0.163 HD
BRANCH   5   8
ATOM      8  C   UNL A   1      31.772  24.629  26.376  1.00  0.00     0.126 A 
ATOM      9  C   UNL A   1      32.947  24.065  25.907  1.00  0.00     0.011 A 
ATOM     10  C   UNL A   1      32.750  22.676  26.013  1.00  0.00     0.140 A 
ATOM     11  N   UNL A   1      31.534  22.369  26.468  1.00  0.00    -0.183 NA
ATOM     12  N   UNL A   1      30.972  23.570  26.704  1.00  0.00    -0.273 N 
ATOM     13  H   UNL A   1      30.067  23.675  27.077  1.00  0.00     0.190 HD
BRANCH   9  14
ATOM     14  C   UNL A   1      34.133  24.837  25.448  1.00  0.00     0.069 C 
ATOM     15  O   UNL A   1      37.080  22.409  25.322  1.00  0.00    -0.275 OA
ATOM     16  C   UNL A   1      36.031  22.959  24.965  1.00  0.00     0.226 C 
ATOM     17  C   UNL A   1      35.466  24.139  25.811  1.00  0.00     0.114 C 
ATOM     18  N   UNL A   1      35.464  22.551  23.783  1.00  0.00    -0.311 N 
ATOM     19  C   UNL A   1      34.605  23.411  23.172  1.00  0.00     0.132 A 
ATOM     20  H   UNL A   1      35.672  21.672  23.392  1.00  0.00     0.171 HD
ATOM     21  C   UNL A   1      34.023  24.860  23.990  1.00  0.00     0.031 A 
ATOM     22  N   UNL A   1      33.958  23.437  21.432  1.00  0.00    -0.262 N 
ATOM     23  C   UNL A   1      32.929  25.861  22.723  1.00  0.00     0.108 A 
ATOM     24  N   UNL A   1      32.908  24.988  21.185  1.00  0.00    -0.173 NA
ATOM     25  H   UNL A   1      34.134  22.752  20.747  1.00  0.00     0.192 HD
BRANCH  23  26
ATOM     26  C   UNL A   1      31.942  26.876  23.193  1.00  0.00     0.055 A 
ATOM     27  C   UNL A   1      32.266  28.178  23.499  1.00  0.00     0.022 A 
ATOM     28  S   UNL A   1      30.264  26.596  23.226  1.00  0.00    -0.142 S 
ATOM     29  C   UNL A   1      31.098  28.971  23.720  1.00  0.00     0.012 A 
ATOM     30  C   UNL A   1      29.944  28.219  23.667  1.00  0.00     0.065 A 
ENDBRANCH  23  26
ENDBRANCH   9  14
ENDBRANCH   5   8
ENDBRANCH   3   4
ENDBRANCH   2   3
ENDBRANCH   1   2
BRANCH   1  31
ATOM     31  C   UNL A   1      32.515  31.378  27.455  1.00  0.00     0.116 C 
BRANCH  31  32
ATOM     32  N   UNL A   1      32.441  32.832  27.376  1.00  0.00    -0.352 N 
ATOM     33  C   UNL A   1      33.065  33.699  28.247  1.00  0.00     0.251 C 
ATOM     34  H   UNL A   1      31.908  33.222  26.647  1.00  0.00     0.163 HD
ATOM     35  O   UNL A   1      32.588  34.795  28.503  1.00  0.00    -0.269 OA
BRANCH  33  36
ATOM     36  C   UNL A   1      34.381  33.271  28.755  1.00  0.00     0.039 A 
ATOM     37  C   UNL A   1      34.545  32.366  29.799  1.00  0.00     0.014 A 
ATOM     38  C   UNL A   1      35.484  33.770  28.058  1.00  0.00     0.014 A 
ATOM     39  C   UNL A   1      35.852  32.027  30.174  1.00  0.00     0.010 A 
ATOM     40  C   UNL A   1      36.730  33.254  28.288  1.00  0.00     0.010 A 
ATOM     41  C   UNL A   1      36.957  32.518  29.436  1.00  0.00    -0.014 A 
BRANCH  41  42
ATOM     42  C   UNL A   1      38.328  31.998  29.559  1.00  0.00     0.031 A 
ATOM     43  C   UNL A   1      38.308  30.578  29.099  1.00  0.00     0.074 A 
ATOM     44  C   UNL A   1      39.437  32.742  29.868  1.00  0.00     0.049 A 
ATOM     45  N   UNL A   1      38.149  29.565  29.887  1.00  0.00    -0.248 NA
ATOM     46  C   UNL A   1      38.042  30.222  27.685  1.00  0.00     0.031 C 
ATOM     47  C   UNL A   1      39.535  34.168  30.219  1.00  0.00     0.029 A 
ATOM     48  N   UNL A   1      40.768  32.367  29.933  1.00  0.00    -0.354 N 
ATOM     49  C   UNL A   1      38.237  28.449  29.071  1.00  0.00     0.074 A 
ATOM     50  C   UNL A   1      37.844  28.900  27.770  1.00  0.00     0.031 C 
ATOM     51  C   UNL A   1      40.836  34.575  30.235  1.00  0.00     0.029 A 
ATOM     52  C   UNL A   1      41.715  33.437  30.016  1.00  0.00     0.049 A 
ATOM     53  H   UNL A   1      41.046  31.423  29.923  1.00  0.00     0.167 HD
ATOM     54  C   UNL A   1      39.008  27.403  29.479  1.00  0.00     0.034 A 
ATOM     55  C   UNL A   1      43.103  33.361  29.985  1.00  0.00     0.034 A 
ATOM     56  C   UNL A   1      39.348  27.575  30.880  1.00  0.00     0.049 A 
ATOM     57  C   UNL A   1      43.434  31.975  30.417  1.00  0.00     0.074 A 
ATOM     58  C   UNL A   1      38.612  27.731  32.039  1.00  0.00     0.029 A 
ATOM     59  N   UNL A   1      40.598  28.096  31.140  1.00  0.00    -0.354 N 
ATOM     60  N   UNL A   1      43.211  31.567  31.638  1.00  0.00    -0.248 NA
ATOM     61  C   UNL A   1      43.368  30.946  29.387  1.00  0.00     0.031 C 
ATOM     62  C   UNL A   1      39.288  28.755  32.765  1.00  0.00     0.029 A 
ATOM     63  C   UNL A   1      40.501  29.036  32.134  1.00  0.00     0.049 A 
ATOM     64  H   UNL A   1      41.430  27.834  30.683  1.00  0.00     0.167 HD
ATOM     65  C   UNL A   1      42.486  30.396  31.479  1.00  0.00     0.074 A 
ATOM     66  C   UNL A   1      42.648  30.040  30.061  1.00  0.00     0.031 C 
ATOM     67  C   UNL A   1      41.528  30.030  32.386  1.00  0.00     0.034 A 
BRANCH  54  68
ATOM     68  C   UNL A   1      39.859  26.532  28.582  1.00  0.00     0.023 A 
ATOM     69  C   UNL A   1      40.964  27.165  27.980  1.00  0.00     0.031 A 
ATOM     70  C   UNL A   1      39.507  25.273  28.049  1.00  0.00     0.131 A 
ATOM     71  C   UNL A   1      41.575  26.627  26.840  1.00  0.00     0.055 A 
ATOM     72  C   UNL A   1      40.166  24.707  26.952  1.00  0.00     0.041 A 
ATOM     73  F   UNL A   1      38.464  24.561  28.491  1.00  0.00    -0.206 F 
ATOM     74  C   UNL A   1      41.187  25.397  26.320  1.00  0.00     0.022 A 
BRANCH  71  75
ATOM     75  S   UNL A   1      42.764  27.663  25.953  1.00  0.00     0.124 S 
ATOM     76  O   UNL A   1      43.612  28.128  27.044  1.00  0.00    -0.237 OA
ATOM     77  O   UNL A   1      43.367  26.706  25.031  1.00  0.00    -0.237 OA
ATOM     78  O   UNL A   1      41.923  28.681  25.330  1.00  0.00    -0.744 OA
ENDBRANCH  71  75
ENDBRANCH  54  68
BRANCH  55  79
ATOM     79  C   UNL A   1      44.156  34.248  29.313  1.00  0.00     0.023 A 
ATOM     80  C   UNL A   1      44.846  34.002  28.068  1.00  0.00     0.031 A 
ATOM     81  C   UNL A   1      44.279  35.562  29.806  1.00  0.00     0.131 A 
ATOM     82  C   UNL A   1      45.584  35.046  27.408  1.00  0.00     0.055 A 
ATOM     83  C   UNL A   1      44.972  36.580  29.139  1.00  0.00     0.041 A 
ATOM     84  F   UNL A   1      43.646  35.935  30.927  1.00  0.00    -0.206 F 
ATOM     85  C   UNL A   1      45.614  36.335  27.939  1.00  0.00     0.022 A 
BRANCH  82  86
ATOM     86  S   UNL A   1      46.505  34.826  25.814  1.00  0.00     0.124 S 
ATOM     87  O   UNL A   1      45.437  34.548  24.860  1.00  0.00    -0.237 OA
ATOM     88  O   UNL A   1      47.206  36.094  25.658  1.00  0.00    -0.237 OA
ATOM     89  O   UNL A   1      47.385  33.683  26.078  1.00  0.00    -0.744 OA
ENDBRANCH  82  86
ENDBRANCH  55  79
BRANCH  67  90
ATOM     90  C   UNL A   1      41.451  30.769  33.711  1.00  0.00     0.023 A 
ATOM     91  C   UNL A   1      40.685  31.928  33.985  1.00  0.00     0.031 A 
ATOM     92  C   UNL A   1      42.131  30.173  34.788  1.00  0.00     0.131 A 
ATOM     93  C   UNL A   1      40.662  32.460  35.294  1.00  0.00     0.055 A 
ATOM     94  C   UNL A   1      42.068  30.675  36.083  1.00  0.00     0.041 A 
ATOM     95  F   UNL A   1      42.854  29.055  34.599  1.00  0.00    -0.206 F 
ATOM     96  C   UNL A   1      41.344  31.830  36.339  1.00  0.00     0.022 A 
BRANCH  93  97
ATOM     97  S   UNL A   1      39.806  34.032  35.659  1.00  0.00     0.124 S 
ATOM     98  O   UNL A   1      38.398  33.659  35.649  1.00  0.00    -0.237 OA
ATOM     99  O   UNL A   1      40.359  34.399  36.961  1.00  0.00    -0.237 OA
ATOM    100  O   UNL A   1      40.216  34.905  34.557  1.00  0.00    -0.744 OA
ENDBRANCH  93  97
ENDBRANCH  67  90
ENDBRANCH  41  42
ENDBRANCH  33  36
ENDBRANCH  31  32
ENDBRANCH   1  31
TORSDOF 16
ENDMDL
MODEL 3
REMARK VINA RESULT:     -14.4      2.672      7.783
REMARK SMILES O=C1C[C@H](c2cn[nH]c2C(=O)NCCCCNC(=O)c2ccc(-c3c4nc(c(-c5cc(S(=O)(=O)[O-])ccc5F)c5ccc([nH]5)c(-c5cc(S(=O)(=O)[O-])ccc5F)c5nc(c(-c6cc(S(=O)(=O)[O-])ccc6F)c6ccc3[nH]6)C=C5)C=C4)cc2)c2c(-c3cccs3)n[nH]c2N1
REMARK SMILES IDX 15 1 14 2 13 3 12 4 10 5 11 6 9 8 5 9 6 10 7 11 8 12 4 14
REMARK SMILES IDX 1 15 2 16 3 17 93 18 92 19 83 21 91 22 84 23 90 24 85 26
REMARK SMILES IDX 86 27 89 28 87 29 88 30 16 31 17 32 18 33 19 35 20 36 21 37
REMARK SMILES IDX 82 38 22 39 81 40 23 41 24 42 25 43 75 44 26 45 80 46 74 47
REMARK SMILES IDX 76 48 27 49 79 50 73 51 72 52 28 54 60 55 40 56 59 57 41 58
REMARK SMILES IDX 44 59 58 60 77 61 42 62 43 63 57 65 78 66 45 67 29 68 30 69
REMARK SMILES IDX 38 70 31 71 37 72 39 73 36 74 32 75 33 76 34 77 35 78 61 79
REMARK SMILES IDX 62 80 70 81 63 82 69 83 71 84 68 85 64 86 65 87 66 88 67 89
REMARK SMILES IDX 46 90 47 91 55 92 48 93 54 94 56 95 53 96 49 97 50 98 51 99
REMARK SMILES IDX 52 100
REMARK H PARENT 12 7 8 13 93 20 91 25 17 34 76 53 44 64
REMARK Flexibility Score: inf
ROOT
ATOM      1  C   UNL A   1      34.877  31.404  27.785  1.00  0.00     0.023 C 
ENDROOT
BRANCH   1   2
ATOM      2  C   UNL A   1      35.531  30.096  27.331  1.00  0.00     0.023 C 
BRANCH   2   3
ATOM      3  C   UNL A   1      34.467  28.709  27.015  1.00  0.00     0.116 C 
BRANCH   3   4
ATOM      4  N   UNL A   1      33.232  28.366  25.248  1.00  0.00    -0.351 N 
ATOM      5  C   UNL A   1      32.766  27.704  24.092  1.00  0.00     0.269 C 
ATOM      6  O   UNL A   1      31.864  28.279  23.474  1.00  0.00    -0.268 OA
ATOM      7  H   UNL A   1      32.638  29.150  25.274  1.00  0.00     0.163 HD
BRANCH   5   8
ATOM      8  C   UNL A   1      33.236  26.413  23.648  1.00  0.00     0.126 A 
ATOM      9  C   UNL A   1      33.439  25.218  24.317  1.00  0.00     0.011 A 
ATOM     10  C   UNL A   1      33.814  24.301  23.317  1.00  0.00     0.140 A 
ATOM     11  N   UNL A   1      33.891  24.868  22.112  1.00  0.00    -0.183 NA
ATOM     12  N   UNL A   1      33.511  26.141  22.336  1.00  0.00    -0.273 N 
ATOM     13  H   UNL A   1      33.439  26.814  21.621  1.00  0.00     0.190 HD
BRANCH   9  14
ATOM     14  C   UNL A   1      33.240  25.021  25.778  1.00  0.00     0.069 C 
ATOM     15  O   UNL A   1      29.502  25.406  26.469  1.00  0.00    -0.275 OA
ATOM     16  C   UNL A   1      30.549  24.867  26.091  1.00  0.00     0.226 C 
ATOM     17  C   UNL A   1      31.901  25.618  26.275  1.00  0.00     0.114 C 
ATOM     18  N   UNL A   1      30.469  23.586  25.604  1.00  0.00    -0.311 N 
ATOM     19  C   UNL A   1      31.608  22.843  25.608  1.00  0.00     0.132 A 
ATOM     20  H   UNL A   1      29.620  23.219  25.265  1.00  0.00     0.171 HD
ATOM     21  C   UNL A   1      33.176  23.571  25.955  1.00  0.00     0.031 A 
ATOM     22  N   UNL A   1      31.855  21.011  25.430  1.00  0.00    -0.262 N 
ATOM     23  C   UNL A   1      34.504  22.143  25.983  1.00  0.00     0.108 A 
ATOM     24  N   UNL A   1      33.685  20.607  25.670  1.00  0.00    -0.173 NA
ATOM     25  H   UNL A   1      31.146  20.355  25.241  1.00  0.00     0.192 HD
BRANCH  23  26
ATOM     26  C   UNL A   1      35.955  22.439  25.808  1.00  0.00     0.055 A 
ATOM     27  C   UNL A   1      36.542  23.635  26.154  1.00  0.00     0.022 A 
ATOM     28  S   UNL A   1      37.093  21.265  25.335  1.00  0.00    -0.142 S 
ATOM     29  C   UNL A   1      37.967  23.563  26.070  1.00  0.00     0.012 A 
ATOM     30  C   UNL A   1      38.395  22.351  25.572  1.00  0.00     0.065 A 
ENDBRANCH  23  26
ENDBRANCH   9  14
ENDBRANCH   5   8
ENDBRANCH   3   4
ENDBRANCH   2   3
ENDBRANCH   1   2
BRANCH   1  31
ATOM     31  C   UNL A   1      35.843  32.441  28.297  1.00  0.00     0.116 C 
BRANCH  31  32
ATOM     32  N   UNL A   1      35.587  32.747  29.699  1.00  0.00    -0.352 N 
ATOM     33  C   UNL A   1      35.964  31.950  30.759  1.00  0.00     0.251 C 
ATOM     34  H   UNL A   1      35.111  33.583  29.904  1.00  0.00     0.163 HD
ATOM     35  O   UNL A   1      35.314  31.918  31.793  1.00  0.00    -0.269 OA
BRANCH  33  36
ATOM     36  C   UNL A   1      37.243  31.233  30.606  1.00  0.00     0.039 A 
ATOM     37  C   UNL A   1      38.487  31.848  30.707  1.00  0.00     0.014 A 
ATOM     38  C   UNL A   1      37.139  29.850  30.434  1.00  0.00     0.014 A 
ATOM     39  C   UNL A   1      39.629  31.049  30.560  1.00  0.00     0.010 A 
ATOM     40  C   UNL A   1      38.254  29.064  30.523  1.00  0.00     0.010 A 
ATOM     41  C   UNL A   1      39.504  29.645  30.419  1.00  0.00    -0.014 A 
BRANCH  41  42
ATOM     42  C   UNL A   1      40.623  28.700  30.552  1.00  0.00     0.031 A 
ATOM     43  C   UNL A   1      40.860  28.493  32.012  1.00  0.00     0.074 A 
ATOM     44  C   UNL A   1      41.210  28.010  29.523  1.00  0.00     0.049 A 
ATOM     45  N   UNL A   1      41.711  29.172  32.710  1.00  0.00    -0.248 NA
ATOM     46  C   UNL A   1      39.864  27.810  32.872  1.00  0.00     0.031 C 
ATOM     47  C   UNL A   1      40.944  28.086  28.078  1.00  0.00     0.029 A 
ATOM     48  N   UNL A   1      42.208  27.050  29.552  1.00  0.00    -0.354 N 
ATOM     49  C   UNL A   1      41.645  28.639  33.986  1.00  0.00     0.074 A 
ATOM     50  C   UNL A   1      40.329  28.085  34.097  1.00  0.00     0.031 C 
ATOM     51  C   UNL A   1      41.577  27.078  27.414  1.00  0.00     0.029 A 
ATOM     52  C   UNL A   1      42.410  26.322  28.337  1.00  0.00     0.049 A 
ATOM     53  H   UNL A   1      42.744  26.879  30.360  1.00  0.00     0.167 HD
ATOM     54  C   UNL A   1      42.809  28.363  34.638  1.00  0.00     0.034 A 
ATOM     55  C   UNL A   1      43.256  25.243  28.112  1.00  0.00     0.034 A 
ATOM     56  C   UNL A   1      43.913  28.990  33.934  1.00  0.00     0.049 A 
ATOM     57  C   UNL A   1      44.307  25.337  29.164  1.00  0.00     0.074 A 
ATOM     58  C   UNL A   1      44.207  30.288  33.563  1.00  0.00     0.029 A 
ATOM     59  N   UNL A   1      44.639  28.172  33.096  1.00  0.00    -0.354 N 
ATOM     60  N   UNL A   1      45.178  26.310  29.176  1.00  0.00    -0.248 NA
ATOM     61  C   UNL A   1      43.965  24.780  30.467  1.00  0.00     0.031 C 
ATOM     62  C   UNL A   1      44.709  30.182  32.233  1.00  0.00     0.029 A 
ATOM     63  C   UNL A   1      44.893  28.834  31.922  1.00  0.00     0.049 A 
ATOM     64  H   UNL A   1      44.930  27.255  33.307  1.00  0.00     0.167 HD
ATOM     65  C   UNL A   1      45.097  26.824  30.461  1.00  0.00     0.074 A 
ATOM     66  C   UNL A   1      44.357  25.810  31.228  1.00  0.00     0.031 C 
ATOM     67  C   UNL A   1      45.291  28.157  30.701  1.00  0.00     0.034 A 
BRANCH  54  68
ATOM     68  C   UNL A   1      43.050  27.181  35.551  1.00  0.00     0.023 A 
ATOM     69  C   UNL A   1      43.541  27.488  36.835  1.00  0.00     0.031 A 
ATOM     70  C   UNL A   1      43.132  25.825  35.170  1.00  0.00     0.131 A 
ATOM     71  C   UNL A   1      44.189  26.520  37.614  1.00  0.00     0.055 A 
ATOM     72  C   UNL A   1      43.718  24.847  35.982  1.00  0.00     0.041 A 
ATOM     73  F   UNL A   1      42.737  25.380  33.972  1.00  0.00    -0.206 F 
ATOM     74  C   UNL A   1      44.279  25.196  37.199  1.00  0.00     0.022 A 
BRANCH  71  75
ATOM     75  S   UNL A   1      45.065  27.078  39.096  1.00  0.00     0.124 S 
ATOM     76  O   UNL A   1      44.985  28.526  38.949  1.00  0.00    -0.237 OA
ATOM     77  O   UNL A   1      44.258  26.492  40.160  1.00  0.00    -0.237 OA
ATOM     78  O   UNL A   1      46.397  26.502  38.935  1.00  0.00    -0.744 OA
ENDBRANCH  71  75
ENDBRANCH  54  68
BRANCH  55  79
ATOM     79  C   UNL A   1      43.074  23.959  27.295  1.00  0.00     0.023 A 
ATOM     80  C   UNL A   1      44.045  23.319  26.438  1.00  0.00     0.031 A 
ATOM     81  C   UNL A   1      41.950  23.170  27.607  1.00  0.00     0.131 A 
ATOM     82  C   UNL A   1      43.848  21.973  25.968  1.00  0.00     0.055 A 
ATOM     83  C   UNL A   1      41.784  21.849  27.171  1.00  0.00     0.041 A 
ATOM     84  F   UNL A   1      40.999  23.627  28.433  1.00  0.00    -0.206 F 
ATOM     85  C   UNL A   1      42.730  21.242  26.365  1.00  0.00     0.022 A 
BRANCH  82  86
ATOM     86  S   UNL A   1      45.031  21.071  24.862  1.00  0.00     0.124 S 
ATOM     87  O   UNL A   1      44.743  19.671  25.154  1.00  0.00    -0.237 OA
ATOM     88  O   UNL A   1      44.673  21.548  23.532  1.00  0.00    -0.237 OA
ATOM     89  O   UNL A   1      46.349  21.520  25.326  1.00  0.00    -0.744 OA
ENDBRANCH  82  86
ENDBRANCH  55  79
BRANCH  67  90
ATOM     90  C   UNL A   1      45.866  29.027  29.596  1.00  0.00     0.023 A 
ATOM     91  C   UNL A   1      45.136  29.867  28.720  1.00  0.00     0.031 A 
ATOM     92  C   UNL A   1      47.269  29.070  29.514  1.00  0.00     0.131 A 
ATOM     93  C   UNL A   1      45.823  30.672  27.786  1.00  0.00     0.055 A 
ATOM     94  C   UNL A   1      47.941  29.899  28.623  1.00  0.00     0.041 A 
ATOM     95  F   UNL A   1      48.021  28.317  30.335  1.00  0.00    -0.206 F 
ATOM     96  C   UNL A   1      47.220  30.694  27.744  1.00  0.00     0.022 A 
BRANCH  93  97
ATOM     97  S   UNL A   1      44.918  31.659  26.543  1.00  0.00     0.124 S 
ATOM     98  O   UNL A   1      44.835  32.978  27.156  1.00  0.00    -0.237 OA
ATOM     99  O   UNL A   1      45.780  31.556  25.367  1.00  0.00    -0.237 OA
ATOM    100  O   UNL A   1      43.638  30.959  26.421  1.00  0.00    -0.744 OA
ENDBRANCH  93  97
ENDBRANCH  67  90
ENDBRANCH  41  42
ENDBRANCH  33  36
ENDBRANCH  31  32
ENDBRANCH   1  31
TORSDOF 16
ENDMDL
