MODEL 1
REMARK VINA RESULT:     -12.4      0.000      0.000
REMARK SMILES Cc1cc(C)c(S(=O)(=O)Nc2ccc(N3CCN(c4ccccn4)CC3)c(C(=O)NCCCCNC(=O)c3ccc(-c4c5nc(c(-c6cc(S(=O)(=O)[O-])ccc6F)c6ccc([nH]6)c(-c6cc(S(=O)(=O)[O-])ccc6F)c6nc(c(-c7cc(S(=O)(=O)[O-])ccc7F)c7ccc4[nH]7)C=C6)C=C5)cc3)c2)c(C)c1
REMARK SMILES IDX 32 1 31 2 30 3 28 4 29 5 27 7 11 8 12 9 101 10 13 11 14 12
REMARK SMILES IDX 10 13 7 15 8 16 9 17 6 18 1 19 2 20 3 21 104 22 4 23 102 24
REMARK SMILES IDX 5 25 103 26 15 27 16 28 26 29 17 30 25 31 18 32 19 33 20 34
REMARK SMILES IDX 24 35 21 36 23 37 22 38 33 39 34 40 35 41 36 42 37 44 38 45
REMARK SMILES IDX 39 46 100 47 40 48 99 49 41 50 42 51 43 52 93 53 44 54 98 55
REMARK SMILES IDX 92 56 94 57 45 58 97 59 91 60 90 61 46 63 78 64 58 65 77 66
REMARK SMILES IDX 59 67 62 68 76 69 95 70 60 71 61 72 75 74 96 75 63 76 47 77
REMARK SMILES IDX 48 78 56 79 49 80 55 81 57 82 54 83 50 84 51 85 52 86 53 87
REMARK SMILES IDX 79 88 80 89 88 90 81 91 87 92 89 93 86 94 82 95 83 96 84 97
REMARK SMILES IDX 85 98 64 99 65 100 73 101 66 102 72 103 74 104 71 105 67 106
REMARK SMILES IDX 68 107 69 108 70 109
REMARK H PARENT 30 6 10 14 35 43 94 62 62 73
REMARK Flexibility Score: inf
ROOT
ATOM      1  C   UNL A   1      37.227  21.852  24.636  1.00  0.00     0.023 C 
ENDROOT
BRANCH   1   2
ATOM      2  C   UNL A   1      36.695  23.287  24.664  1.00  0.00     0.116 C 
BRANCH   2   3
ATOM      3  N   UNL A   1      35.954  23.550  23.451  1.00  0.00    -0.352 N 
ATOM      4  C   UNL A   1      34.653  23.927  23.226  1.00  0.00     0.253 C 
ATOM      5  O   UNL A   1      34.246  23.712  22.085  1.00  0.00    -0.269 OA
ATOM      6  H   UNL A   1      36.483  23.439  22.630  1.00  0.00     0.163 HD
BRANCH   4   7
ATOM      7  C   UNL A   1      33.779  24.575  24.270  1.00  0.00     0.065 A 
ATOM      8  C   UNL A   1      32.489  26.501  24.978  1.00  0.00     0.050 A 
ATOM      9  C   UNL A   1      31.989  25.792  26.063  1.00  0.00     0.029 A 
ATOM     10  C   UNL A   1      33.522  25.956  24.230  1.00  0.00     0.042 A 
ATOM     11  C   UNL A   1      32.303  24.445  26.196  1.00  0.00     0.029 A 
ATOM     12  C   UNL A   1      33.094  23.785  25.236  1.00  0.00     0.050 A 
BRANCH   8  13
ATOM     13  N   UNL A   1      31.788  27.682  24.619  1.00  0.00    -0.280 N 
ATOM     14  H   UNL A   1      32.168  28.532  24.937  1.00  0.00     0.180 HD
BRANCH  13  15
ATOM     15  S   UNL A   1      30.385  27.784  23.709  1.00  0.00     0.262 S 
ATOM     16  O   UNL A   1      29.451  26.845  24.300  1.00  0.00    -0.201 OA
ATOM     17  O   UNL A   1      30.839  27.622  22.342  1.00  0.00    -0.201 OA
BRANCH  15  18
ATOM     18  C   UNL A   1      29.584  29.405  23.778  1.00  0.00     0.093 A 
ATOM     19  C   UNL A   1      28.587  33.576  23.099  1.00  0.00     0.044 C 
ATOM     20  C   UNL A   1      28.906  32.135  23.375  1.00  0.00    -0.051 A 
ATOM     21  C   UNL A   1      29.963  31.790  24.208  1.00  0.00     0.008 A 
ATOM     22  C   UNL A   1      28.100  31.111  22.880  1.00  0.00     0.008 A 
ATOM     23  C   UNL A   1      30.320  30.442  24.420  1.00  0.00    -0.030 A 
ATOM     24  C   UNL A   1      28.387  29.746  23.120  1.00  0.00    -0.030 A 
ATOM     25  C   UNL A   1      31.414  30.213  25.436  1.00  0.00     0.046 C 
ATOM     26  C   UNL A   1      27.316  28.797  22.683  1.00  0.00     0.046 C 
ENDBRANCH  15  18
ENDBRANCH  13  15
ENDBRANCH   8  13
BRANCH  12  27
ATOM     27  N   UNL A   1      33.039  22.402  25.193  1.00  0.00    -0.367 N 
ATOM     28  C   UNL A   1      31.989  21.722  24.403  1.00  0.00     0.138 C 
ATOM     29  C   UNL A   1      33.590  21.609  26.305  1.00  0.00     0.138 C 
ATOM     30  C   UNL A   1      32.452  20.318  23.931  1.00  0.00     0.139 C 
ATOM     31  C   UNL A   1      34.113  20.265  25.755  1.00  0.00     0.139 C 
ATOM     32  N   UNL A   1      33.003  19.572  25.069  1.00  0.00    -0.353 N 
BRANCH  32  33
ATOM     33  C   UNL A   1      33.032  18.193  25.014  1.00  0.00     0.128 A 
ATOM     34  C   UNL A   1      33.822  17.568  24.047  1.00  0.00     0.047 A 
ATOM     35  N   UNL A   1      32.350  17.467  25.925  1.00  0.00    -0.239 NA
ATOM     36  C   UNL A   1      33.891  16.180  23.986  1.00  0.00     0.005 A 
ATOM     37  C   UNL A   1      32.406  16.118  25.832  1.00  0.00     0.113 A 
ATOM     38  C   UNL A   1      33.157  15.435  24.892  1.00  0.00     0.020 A 
ENDBRANCH  32  33
ENDBRANCH  12  27
ENDBRANCH   4   7
ENDBRANCH   2   3
ENDBRANCH   1   2
BRANCH   1  39
ATOM     39  C   UNL A   1      38.069  21.500  25.862  1.00  0.00     0.023 C 
BRANCH  39  40
ATOM     40  C   UNL A   1      39.238  22.443  26.102  1.00  0.00     0.116 C 
BRANCH  40  41
ATOM     41  N   UNL A   1      40.524  21.824  25.824  1.00  0.00    -0.352 N 
ATOM     42  C   UNL A   1      41.772  22.388  25.916  1.00  0.00     0.251 C 
ATOM     43  H   UNL A   1      40.497  20.883  25.534  1.00  0.00     0.163 HD
ATOM     44  O   UNL A   1      42.757  21.783  25.507  1.00  0.00    -0.269 OA
BRANCH  42  45
ATOM     45  C   UNL A   1      41.897  23.744  26.485  1.00  0.00     0.039 A 
ATOM     46  C   UNL A   1      42.074  23.886  27.863  1.00  0.00     0.014 A 
ATOM     47  C   UNL A   1      41.870  24.866  25.652  1.00  0.00     0.014 A 
ATOM     48  C   UNL A   1      42.261  25.159  28.401  1.00  0.00     0.010 A 
ATOM     49  C   UNL A   1      42.136  26.123  26.180  1.00  0.00     0.010 A 
ATOM     50  C   UNL A   1      42.312  26.284  27.563  1.00  0.00    -0.014 A 
BRANCH  50  51
ATOM     51  C   UNL A   1      42.488  27.648  28.121  1.00  0.00     0.031 A 
ATOM     52  C   UNL A   1      43.872  28.234  28.222  1.00  0.00     0.074 A 
ATOM     53  C   UNL A   1      41.421  28.332  28.574  1.00  0.00     0.049 A 
ATOM     54  N   UNL A   1      44.253  29.379  28.725  1.00  0.00    -0.248 NA
ATOM     55  C   UNL A   1      44.976  27.400  27.723  1.00  0.00     0.031 C 
ATOM     56  C   UNL A   1      40.038  27.846  28.569  1.00  0.00     0.029 A 
ATOM     57  N   UNL A   1      41.329  29.583  29.129  1.00  0.00    -0.354 N 
ATOM     58  C   UNL A   1      45.640  29.394  28.621  1.00  0.00     0.074 A 
ATOM     59  C   UNL A   1      46.034  28.115  28.072  1.00  0.00     0.031 C 
ATOM     60  C   UNL A   1      39.235  28.802  29.065  1.00  0.00     0.029 A 
ATOM     61  C   UNL A   1      40.045  29.950  29.457  1.00  0.00     0.049 A 
ATOM     62  H   UNL A   1      42.110  30.164  29.278  1.00  0.00     0.167 HD
ATOM     63  C   UNL A   1      46.504  30.393  28.929  1.00  0.00     0.034 A 
ATOM     64  C   UNL A   1      39.578  31.087  30.010  1.00  0.00     0.034 A 
ATOM     65  C   UNL A   1      46.088  31.671  29.452  1.00  0.00     0.049 A 
ATOM     66  C   UNL A   1      40.555  32.190  30.331  1.00  0.00     0.074 A 
ATOM     67  C   UNL A   1      46.865  32.775  29.757  1.00  0.00     0.029 A 
ATOM     68  N   UNL A   1      44.775  32.019  29.745  1.00  0.00    -0.354 N 
ATOM     69  N   UNL A   1      41.861  32.210  30.184  1.00  0.00    -0.248 NA
ATOM     70  C   UNL A   1      39.992  33.433  30.873  1.00  0.00     0.031 C 
ATOM     71  C   UNL A   1      46.032  33.766  30.288  1.00  0.00     0.029 A 
ATOM     72  C   UNL A   1      44.723  33.312  30.243  1.00  0.00     0.049 A 
ATOM     73  H   UNL A   1      43.994  31.433  29.618  1.00  0.00     0.167 HD
ATOM     74  C   UNL A   1      42.266  33.483  30.573  1.00  0.00     0.074 A 
ATOM     75  C   UNL A   1      41.066  34.203  30.949  1.00  0.00     0.031 C 
ATOM     76  C   UNL A   1      43.516  34.015  30.610  1.00  0.00     0.034 A 
BRANCH  63  77
ATOM     77  C   UNL A   1      47.977  30.122  28.729  1.00  0.00     0.023 A 
ATOM     78  C   UNL A   1      48.741  29.436  29.691  1.00  0.00     0.031 A 
ATOM     79  C   UNL A   1      48.639  30.592  27.581  1.00  0.00     0.131 A 
ATOM     80  C   UNL A   1      50.129  29.318  29.530  1.00  0.00     0.055 A 
ATOM     81  C   UNL A   1      50.007  30.391  27.384  1.00  0.00     0.041 A 
ATOM     82  F   UNL A   1      47.970  31.272  26.636  1.00  0.00    -0.206 F 
ATOM     83  C   UNL A   1      50.764  29.767  28.370  1.00  0.00     0.022 A 
BRANCH  80  84
ATOM     84  S   UNL A   1      51.115  28.710  30.927  1.00  0.00     0.124 S 
ATOM     85  O   UNL A   1      52.088  27.855  30.251  1.00  0.00    -0.237 OA
ATOM     86  O   UNL A   1      51.639  29.942  31.504  1.00  0.00    -0.237 OA
ATOM     87  O   UNL A   1      50.139  27.999  31.751  1.00  0.00    -0.744 OA
ENDBRANCH  80  84
ENDBRANCH  63  77
BRANCH  64  88
ATOM     88  C   UNL A   1      38.122  31.258  30.281  1.00  0.00     0.023 A 
ATOM     89  C   UNL A   1      37.250  31.705  29.276  1.00  0.00     0.031 A 
ATOM     90  C   UNL A   1      37.588  31.028  31.562  1.00  0.00     0.131 A 
ATOM     91  C   UNL A   1      35.903  31.963  29.580  1.00  0.00     0.055 A 
ATOM     92  C   UNL A   1      36.237  31.233  31.845  1.00  0.00     0.041 A 
ATOM     93  F   UNL A   1      38.378  30.592  32.558  1.00  0.00    -0.206 F 
ATOM     94  C   UNL A   1      35.389  31.719  30.855  1.00  0.00     0.022 A 
BRANCH  91  95
ATOM     95  S   UNL A   1      34.855  32.712  28.303  1.00  0.00     0.124 S 
ATOM     96  O   UNL A   1      33.919  33.491  29.106  1.00  0.00    -0.237 OA
ATOM     97  O   UNL A   1      35.825  33.476  27.526  1.00  0.00    -0.237 OA
ATOM     98  O   UNL A   1      34.279  31.558  27.617  1.00  0.00    -0.744 OA
ENDBRANCH  91  95
ENDBRANCH  64  88
BRANCH  76  99
ATOM     99  C   UNL A   1      43.629  35.468  31.007  1.00  0.00     0.023 A 
ATOM    100  C   UNL A   1      43.611  36.503  30.056  1.00  0.00     0.031 A 
ATOM    101  C   UNL A   1      43.786  35.814  32.360  1.00  0.00     0.131 A 
ATOM    102  C   UNL A   1      43.820  37.829  30.464  1.00  0.00     0.055 A 
ATOM    103  C   UNL A   1      43.926  37.142  32.768  1.00  0.00     0.041 A 
ATOM    104  F   UNL A   1      43.810  34.867  33.312  1.00  0.00    -0.206 F 
ATOM    105  C   UNL A   1      43.962  38.156  31.815  1.00  0.00     0.022 A 
BRANCH 102 106
ATOM    106  S   UNL A   1      44.019  39.109  29.194  1.00  0.00     0.124 S 
ATOM    107  O   UNL A   1      42.637  39.352  28.789  1.00  0.00    -0.237 OA
ATOM    108  O   UNL A   1      44.662  40.186  29.937  1.00  0.00    -0.237 OA
ATOM    109  O   UNL A   1      44.856  38.464  28.186  1.00  0.00    -0.744 OA
ENDBRANCH 102 106
ENDBRANCH  76  99
ENDBRANCH  50  51
ENDBRANCH  42  45
ENDBRANCH  40  41
ENDBRANCH  39  40
ENDBRANCH   1  39
TORSDOF 19
ENDMDL
MODEL 2
REMARK VINA RESULT:     -11.5      6.787     12.033
REMARK SMILES Cc1cc(C)c(S(=O)(=O)Nc2ccc(N3CCN(c4ccccn4)CC3)c(C(=O)NCCCCNC(=O)c3ccc(-c4c5nc(c(-c6cc(S(=O)(=O)[O-])ccc6F)c6ccc([nH]6)c(-c6cc(S(=O)(=O)[O-])ccc6F)c6nc(c(-c7cc(S(=O)(=O)[O-])ccc7F)c7ccc4[nH]7)C=C6)C=C5)cc3)c2)c(C)c1
REMARK SMILES IDX 32 1 31 2 30 3 28 4 29 5 27 7 11 8 12 9 101 10 13 11 14 12
REMARK SMILES IDX 10 13 7 15 8 16 9 17 6 18 1 19 2 20 3 21 104 22 4 23 102 24
REMARK SMILES IDX 5 25 103 26 15 27 16 28 26 29 17 30 25 31 18 32 19 33 20 34
REMARK SMILES IDX 24 35 21 36 23 37 22 38 33 39 34 40 35 41 36 42 37 44 38 45
REMARK SMILES IDX 39 46 100 47 40 48 99 49 41 50 42 51 43 52 93 53 44 54 98 55
REMARK SMILES IDX 92 56 94 57 45 58 97 59 91 60 90 61 46 63 78 64 58 65 77 66
REMARK SMILES IDX 59 67 62 68 76 69 95 70 60 71 61 72 75 74 96 75 63 76 47 77
REMARK SMILES IDX 48 78 56 79 49 80 55 81 57 82 54 83 50 84 51 85 52 86 53 87
REMARK SMILES IDX 79 88 80 89 88 90 81 91 87 92 89 93 86 94 82 95 83 96 84 97
REMARK SMILES IDX 85 98 64 99 65 100 73 101 66 102 72 103 74 104 71 105 67 106
REMARK SMILES IDX 68 107 69 108 70 109
REMARK H PARENT 30 6 10 14 35 43 94 62 62 73
REMARK Flexibility Score: inf
ROOT
ATOM      1  C   UNL A   1      37.852  32.505  35.828  1.00  0.00     0.023 C 
ENDROOT
BRANCH   1   2
ATOM      2  C   UNL A   1      38.702  31.245  35.645  1.00  0.00     0.116 C 
BRANCH   2   3
ATOM      3  N   UNL A   1      37.977  30.288  34.839  1.00  0.00    -0.352 N 
ATOM      4  C   UNL A   1      38.022  29.981  33.501  1.00  0.00     0.253 C 
ATOM      5  O   UNL A   1      37.033  29.387  33.076  1.00  0.00    -0.269 OA
ATOM      6  H   UNL A   1      37.326  29.752  35.347  1.00  0.00     0.163 HD
BRANCH   4   7
ATOM      7  C   UNL A   1      39.191  30.316  32.609  1.00  0.00     0.065 A 
ATOM      8  C   UNL A   1      41.188  29.571  31.454  1.00  0.00     0.050 A 
ATOM      9  C   UNL A   1      41.288  30.792  30.799  1.00  0.00     0.029 A 
ATOM     10  C   UNL A   1      40.276  29.430  32.490  1.00  0.00     0.042 A 
ATOM     11  C   UNL A   1      40.285  31.737  30.971  1.00  0.00     0.029 A 
ATOM     12  C   UNL A   1      39.160  31.467  31.772  1.00  0.00     0.050 A 
BRANCH   8  13
ATOM     13  N   UNL A   1      41.932  28.495  30.902  1.00  0.00    -0.280 N 
ATOM     14  H   UNL A   1      42.619  28.093  31.482  1.00  0.00     0.180 HD
BRANCH  13  15
ATOM     15  S   UNL A   1      41.766  27.835  29.372  1.00  0.00     0.262 S 
ATOM     16  O   UNL A   1      41.786  26.396  29.549  1.00  0.00    -0.201 OA
ATOM     17  O   UNL A   1      42.785  28.504  28.587  1.00  0.00    -0.201 OA
BRANCH  15  18
ATOM     18  C   UNL A   1      40.189  28.224  28.574  1.00  0.00     0.093 A 
ATOM     19  C   UNL A   1      36.415  30.100  27.531  1.00  0.00     0.044 C 
ATOM     20  C   UNL A   1      37.706  29.412  27.868  1.00  0.00    -0.051 A 
ATOM     21  C   UNL A   1      37.795  28.574  28.974  1.00  0.00     0.008 A 
ATOM     22  C   UNL A   1      38.819  29.518  27.035  1.00  0.00     0.008 A 
ATOM     23  C   UNL A   1      39.017  27.977  29.345  1.00  0.00    -0.030 A 
ATOM     24  C   UNL A   1      40.048  28.886  27.339  1.00  0.00    -0.030 A 
ATOM     25  C   UNL A   1      38.940  27.005  30.498  1.00  0.00     0.046 C 
ATOM     26  C   UNL A   1      41.068  28.945  26.245  1.00  0.00     0.046 C 
ENDBRANCH  15  18
ENDBRANCH  13  15
ENDBRANCH   8  13
BRANCH  12  27
ATOM     27  N   UNL A   1      38.032  32.249  31.589  1.00  0.00    -0.367 N 
ATOM     28  C   UNL A   1      37.306  32.220  30.300  1.00  0.00     0.138 C 
ATOM     29  C   UNL A   1      37.858  33.484  32.370  1.00  0.00     0.138 C 
ATOM     30  C   UNL A   1      35.808  32.576  30.482  1.00  0.00     0.139 C 
ATOM     31  C   UNL A   1      36.351  33.732  32.593  1.00  0.00     0.139 C 
ATOM     32  N   UNL A   1      35.686  33.805  31.275  1.00  0.00    -0.353 N 
BRANCH  32  33
ATOM     33  C   UNL A   1      34.534  34.560  31.169  1.00  0.00     0.128 A 
ATOM     34  C   UNL A   1      33.973  35.108  32.324  1.00  0.00     0.047 A 
ATOM     35  N   UNL A   1      33.999  34.806  29.955  1.00  0.00    -0.239 NA
ATOM     36  C   UNL A   1      32.828  35.894  32.243  1.00  0.00     0.005 A 
ATOM     37  C   UNL A   1      32.869  35.548  29.899  1.00  0.00     0.113 A 
ATOM     38  C   UNL A   1      32.253  36.111  31.003  1.00  0.00     0.020 A 
ENDBRANCH  32  33
ENDBRANCH  12  27
ENDBRANCH   4   7
ENDBRANCH   2   3
ENDBRANCH   1   2
BRANCH   1  39
ATOM     39  C   UNL A   1      37.797  32.985  37.278  1.00  0.00     0.023 C 
BRANCH  39  40
ATOM     40  C   UNL A   1      39.125  33.499  37.811  1.00  0.00     0.116 C 
BRANCH  40  41
ATOM     41  N   UNL A   1      39.288  34.932  37.624  1.00  0.00    -0.352 N 
ATOM     42  C   UNL A   1      40.171  35.583  36.800  1.00  0.00     0.251 C 
ATOM     43  H   UNL A   1      38.689  35.508  38.153  1.00  0.00     0.163 HD
ATOM     44  O   UNL A   1      40.290  36.802  36.858  1.00  0.00    -0.269 OA
BRANCH  42  45
ATOM     45  C   UNL A   1      40.993  34.784  35.870  1.00  0.00     0.039 A 
ATOM     46  C   UNL A   1      42.298  34.451  36.237  1.00  0.00     0.014 A 
ATOM     47  C   UNL A   1      40.461  34.343  34.655  1.00  0.00     0.014 A 
ATOM     48  C   UNL A   1      43.059  33.639  35.396  1.00  0.00     0.010 A 
ATOM     49  C   UNL A   1      41.192  33.471  33.859  1.00  0.00     0.010 A 
ATOM     50  C   UNL A   1      42.506  33.128  34.211  1.00  0.00    -0.014 A 
BRANCH  50  51
ATOM     51  C   UNL A   1      43.308  32.281  33.294  1.00  0.00     0.031 A 
ATOM     52  C   UNL A   1      43.588  30.848  33.663  1.00  0.00     0.074 A 
ATOM     53  C   UNL A   1      43.819  32.808  32.165  1.00  0.00     0.049 A 
ATOM     54  N   UNL A   1      44.308  29.955  33.036  1.00  0.00    -0.248 NA
ATOM     55  C   UNL A   1      43.007  30.370  34.928  1.00  0.00     0.031 C 
ATOM     56  C   UNL A   1      43.652  34.197  31.728  1.00  0.00     0.029 A 
ATOM     57  N   UNL A   1      44.583  32.241  31.178  1.00  0.00    -0.354 N 
ATOM     58  C   UNL A   1      44.283  28.818  33.838  1.00  0.00     0.074 A 
ATOM     59  C   UNL A   1      43.536  29.161  35.028  1.00  0.00     0.031 C 
ATOM     60  C   UNL A   1      44.267  34.362  30.546  1.00  0.00     0.029 A 
ATOM     61  C   UNL A   1      44.902  33.107  30.158  1.00  0.00     0.049 A 
ATOM     62  H   UNL A   1      44.877  31.301  31.198  1.00  0.00     0.167 HD
ATOM     63  C   UNL A   1      44.812  27.594  33.593  1.00  0.00     0.034 A 
ATOM     64  C   UNL A   1      45.624  32.906  29.038  1.00  0.00     0.034 A 
ATOM     65  C   UNL A   1      45.533  27.266  32.387  1.00  0.00     0.049 A 
ATOM     66  C   UNL A   1      46.191  31.532  28.779  1.00  0.00     0.074 A 
ATOM     67  C   UNL A   1      46.072  26.050  32.006  1.00  0.00     0.029 A 
ATOM     68  N   UNL A   1      45.812  28.161  31.361  1.00  0.00    -0.354 N 
ATOM     69  N   UNL A   1      46.120  30.453  29.524  1.00  0.00    -0.248 NA
ATOM     70  C   UNL A   1      46.915  31.346  27.516  1.00  0.00     0.031 C 
ATOM     71  C   UNL A   1      46.727  26.223  30.781  1.00  0.00     0.029 A 
ATOM     72  C   UNL A   1      46.531  27.529  30.358  1.00  0.00     0.049 A 
ATOM     73  H   UNL A   1      45.540  29.107  31.348  1.00  0.00     0.167 HD
ATOM     74  C   UNL A   1      46.752  29.449  28.796  1.00  0.00     0.074 A 
ATOM     75  C   UNL A   1      47.186  30.050  27.552  1.00  0.00     0.031 C 
ATOM     76  C   UNL A   1      46.952  28.144  29.121  1.00  0.00     0.034 A 
BRANCH  63  77
ATOM     77  C   UNL A   1      44.646  26.540  34.662  1.00  0.00     0.023 A 
ATOM     78  C   UNL A   1      45.622  26.333  35.655  1.00  0.00     0.031 A 
ATOM     79  C   UNL A   1      43.519  25.701  34.668  1.00  0.00     0.131 A 
ATOM     80  C   UNL A   1      45.494  25.262  36.551  1.00  0.00     0.055 A 
ATOM     81  C   UNL A   1      43.355  24.692  35.620  1.00  0.00     0.041 A 
ATOM     82  F   UNL A   1      42.563  25.834  33.735  1.00  0.00    -0.206 F 
ATOM     83  C   UNL A   1      44.354  24.456  36.558  1.00  0.00     0.022 A 
BRANCH  80  84
ATOM     84  S   UNL A   1      46.911  24.839  37.603  1.00  0.00     0.124 S 
ATOM     85  O   UNL A   1      46.548  23.499  38.061  1.00  0.00    -0.237 OA
ATOM     86  O   UNL A   1      48.030  24.915  36.672  1.00  0.00    -0.237 OA
ATOM     87  O   UNL A   1      46.889  25.870  38.639  1.00  0.00    -0.744 OA
ENDBRANCH  80  84
ENDBRANCH  63  77
BRANCH  64  88
ATOM     88  C   UNL A   1      45.843  34.015  28.065  1.00  0.00     0.023 A 
ATOM     89  C   UNL A   1      46.945  34.876  28.190  1.00  0.00     0.031 A 
ATOM     90  C   UNL A   1      44.928  34.262  27.027  1.00  0.00     0.131 A 
ATOM     91  C   UNL A   1      47.074  35.977  27.329  1.00  0.00     0.055 A 
ATOM     92  C   UNL A   1      45.090  35.327  26.139  1.00  0.00     0.041 A 
ATOM     93  F   UNL A   1      43.860  33.464  26.858  1.00  0.00    -0.206 F 
ATOM     94  C   UNL A   1      46.160  36.202  26.298  1.00  0.00     0.022 A 
BRANCH  91  95
ATOM     95  S   UNL A   1      48.408  37.167  27.639  1.00  0.00     0.124 S 
ATOM     96  O   UNL A   1      48.275  38.066  26.499  1.00  0.00    -0.237 OA
ATOM     97  O   UNL A   1      48.028  37.716  28.936  1.00  0.00    -0.237 OA
ATOM     98  O   UNL A   1      49.610  36.336  27.643  1.00  0.00    -0.744 OA
ENDBRANCH  91  95
ENDBRANCH  64  88
BRANCH  76  99
ATOM     99  C   UNL A   1      47.608  27.272  28.078  1.00  0.00     0.023 A 
ATOM    100  C   UNL A   1      46.859  26.537  27.144  1.00  0.00     0.031 A 
ATOM    101  C   UNL A   1      49.009  27.157  28.041  1.00  0.00     0.131 A 
ATOM    102  C   UNL A   1      47.510  25.664  26.259  1.00  0.00     0.055 A 
ATOM    103  C   UNL A   1      49.656  26.338  27.115  1.00  0.00     0.041 A 
ATOM    104  F   UNL A   1      49.775  27.837  28.909  1.00  0.00    -0.206 F 
ATOM    105  C   UNL A   1      48.904  25.572  26.228  1.00  0.00     0.022 A 
BRANCH 102 106
ATOM    106  S   UNL A   1      46.505  24.563  25.225  1.00  0.00     0.124 S 
ATOM    107  O   UNL A   1      46.630  23.289  25.927  1.00  0.00    -0.237 OA
ATOM    108  O   UNL A   1      45.192  25.195  25.284  1.00  0.00    -0.237 OA
ATOM    109  O   UNL A   1      47.163  24.620  23.922  1.00  0.00    -0.744 OA
ENDBRANCH 102 106
ENDBRANCH  76  99
ENDBRANCH  50  51
ENDBRANCH  42  45
ENDBRANCH  40  41
ENDBRANCH  39  40
ENDBRANCH   1  39
TORSDOF 19
ENDMDL
MODEL 3
REMARK VINA RESULT:     -11.4      9.365     16.648
REMARK SMILES Cc1cc(C)c(S(=O)(=O)Nc2ccc(N3CCN(c4ccccn4)CC3)c(C(=O)NCCCCNC(=O)c3ccc(-c4c5nc(c(-c6cc(S(=O)(=O)[O-])ccc6F)c6ccc([nH]6)c(-c6cc(S(=O)(=O)[O-])ccc6F)c6nc(c(-c7cc(S(=O)(=O)[O-])ccc7F)c7ccc4[nH]7)C=C6)C=C5)cc3)c2)c(C)c1
REMARK SMILES IDX 32 1 31 2 30 3 28 4 29 5 27 7 11 8 12 9 101 10 13 11 14 12
REMARK SMILES IDX 10 13 7 15 8 16 9 17 6 18 1 19 2 20 3 21 104 22 4 23 102 24
REMARK SMILES IDX 5 25 103 26 15 27 16 28 26 29 17 30 25 31 18 32 19 33 20 34
REMARK SMILES IDX 24 35 21 36 23 37 22 38 33 39 34 40 35 41 36 42 37 44 38 45
REMARK SMILES IDX 39 46 100 47 40 48 99 49 41 50 42 51 43 52 93 53 44 54 98 55
REMARK SMILES IDX 92 56 94 57 45 58 97 59 91 60 90 61 46 63 78 64 58 65 77 66
REMARK SMILES IDX 59 67 62 68 76 69 95 70 60 71 61 72 75 74 96 75 63 76 47 77
REMARK SMILES IDX 48 78 56 79 49 80 55 81 57 82 54 83 50 84 51 85 52 86 53 87
REMARK SMILES IDX 79 88 80 89 88 90 81 91 87 92 89 93 86 94 82 95 83 96 84 97
REMARK SMILES IDX 85 98 64 99 65 100 73 101 66 102 72 103 74 104 71 105 67 106
REMARK SMILES IDX 68 107 69 108 70 109
REMARK H PARENT 30 6 10 14 35 43 94 62 62 73
REMARK Flexibility Score: inf
ROOT
ATOM      1  C   UNL A   1      47.388  38.408  25.041  1.00  0.00     0.023 C 
ENDROOT
BRANCH   1   2
ATOM      2  C   UNL A   1      46.782  39.810  25.140  1.00  0.00     0.116 C 
BRANCH   2   3
ATOM      3  N   UNL A   1      47.325  40.489  26.295  1.00  0.00    -0.352 N 
ATOM      4  C   UNL A   1      47.563  41.815  26.562  1.00  0.00     0.253 C 
ATOM      5  O   UNL A   1      48.358  42.021  27.477  1.00  0.00    -0.269 OA
ATOM      6  H   UNL A   1      47.571  39.886  27.032  1.00  0.00     0.163 HD
BRANCH   4   7
ATOM      7  C   UNL A   1      46.895  42.947  25.822  1.00  0.00     0.065 A 
ATOM      8  C   UNL A   1      46.407  44.029  23.708  1.00  0.00     0.050 A 
ATOM      9  C   UNL A   1      45.529  44.903  24.336  1.00  0.00     0.029 A 
ATOM     10  C   UNL A   1      47.222  43.214  24.481  1.00  0.00     0.042 A 
ATOM     11  C   UNL A   1      45.257  44.735  25.688  1.00  0.00     0.029 A 
ATOM     12  C   UNL A   1      45.833  43.680  26.420  1.00  0.00     0.050 A 
BRANCH   8  13
ATOM     13  N   UNL A   1      46.291  43.923  22.297  1.00  0.00    -0.280 N 
ATOM     14  H   UNL A   1      46.886  44.498  21.763  1.00  0.00     0.180 HD
BRANCH  13  15
ATOM     15  S   UNL A   1      45.253  42.925  21.442  1.00  0.00     0.262 S 
ATOM     16  O   UNL A   1      44.558  42.123  22.431  1.00  0.00    -0.201 OA
ATOM     17  O   UNL A   1      46.103  42.305  20.444  1.00  0.00    -0.201 OA
BRANCH  15  18
ATOM     18  C   UNL A   1      43.973  43.814  20.522  1.00  0.00     0.093 A 
ATOM     19  C   UNL A   1      41.372  45.240  17.352  1.00  0.00     0.044 C 
ATOM     20  C   UNL A   1      42.260  44.786  18.474  1.00  0.00    -0.051 A 
ATOM     21  C   UNL A   1      43.564  45.256  18.581  1.00  0.00     0.008 A 
ATOM     22  C   UNL A   1      41.777  43.958  19.487  1.00  0.00     0.008 A 
ATOM     23  C   UNL A   1      44.433  44.784  19.587  1.00  0.00    -0.030 A 
ATOM     24  C   UNL A   1      42.598  43.511  20.548  1.00  0.00    -0.030 A 
ATOM     25  C   UNL A   1      45.780  45.465  19.650  1.00  0.00     0.046 C 
ATOM     26  C   UNL A   1      41.870  42.795  21.642  1.00  0.00     0.046 C 
ENDBRANCH  15  18
ENDBRANCH  13  15
ENDBRANCH   8  13
BRANCH  12  27
ATOM     27  N   UNL A   1      45.234  43.320  27.615  1.00  0.00    -0.367 N 
ATOM     28  C   UNL A   1      44.347  42.137  27.679  1.00  0.00     0.138 C 
ATOM     29  C   UNL A   1      44.983  44.338  28.649  1.00  0.00     0.138 C 
ATOM     30  C   UNL A   1      44.325  41.517  29.100  1.00  0.00     0.139 C 
ATOM     31  C   UNL A   1      45.064  43.675  30.041  1.00  0.00     0.139 C 
ATOM     32  N   UNL A   1      44.085  42.569  30.094  1.00  0.00    -0.353 N 
BRANCH  32  33
ATOM     33  C   UNL A   1      43.562  42.222  31.325  1.00  0.00     0.128 A 
ATOM     34  C   UNL A   1      43.667  40.899  31.758  1.00  0.00     0.047 A 
ATOM     35  N   UNL A   1      43.013  43.169  32.114  1.00  0.00    -0.239 NA
ATOM     36  C   UNL A   1      43.174  40.528  33.004  1.00  0.00     0.005 A 
ATOM     37  C   UNL A   1      42.512  42.783  33.311  1.00  0.00     0.113 A 
ATOM     38  C   UNL A   1      42.570  41.489  33.796  1.00  0.00     0.020 A 
ENDBRANCH  32  33
ENDBRANCH  12  27
ENDBRANCH   4   7
ENDBRANCH   2   3
ENDBRANCH   1   2
BRANCH   1  39
ATOM     39  C   UNL A   1      46.708  37.394  25.962  1.00  0.00     0.023 C 
BRANCH  39  40
ATOM     40  C   UNL A   1      47.157  35.958  25.740  1.00  0.00     0.116 C 
BRANCH  40  41
ATOM     41  N   UNL A   1      46.214  35.193  24.940  1.00  0.00    -0.352 N 
ATOM     42  C   UNL A   1      45.073  34.555  25.358  1.00  0.00     0.251 C 
ATOM     43  H   UNL A   1      46.418  35.123  23.980  1.00  0.00     0.163 HD
ATOM     44  O   UNL A   1      44.454  33.825  24.592  1.00  0.00    -0.269 OA
BRANCH  42  45
ATOM     45  C   UNL A   1      44.628  34.741  26.753  1.00  0.00     0.039 A 
ATOM     46  C   UNL A   1      45.152  33.912  27.747  1.00  0.00     0.014 A 
ATOM     47  C   UNL A   1      43.719  35.753  27.077  1.00  0.00     0.014 A 
ATOM     48  C   UNL A   1      44.789  34.124  29.077  1.00  0.00     0.010 A 
ATOM     49  C   UNL A   1      43.423  36.013  28.409  1.00  0.00     0.010 A 
ATOM     50  C   UNL A   1      43.937  35.187  29.420  1.00  0.00    -0.014 A 
BRANCH  50  51
ATOM     51  C   UNL A   1      43.524  35.414  30.827  1.00  0.00     0.031 A 
ATOM     52  C   UNL A   1      42.249  34.795  31.334  1.00  0.00     0.074 A 
ATOM     53  C   UNL A   1      44.264  36.207  31.625  1.00  0.00     0.049 A 
ATOM     54  N   UNL A   1      41.679  34.910  32.505  1.00  0.00    -0.248 NA
ATOM     55  C   UNL A   1      41.497  33.965  30.379  1.00  0.00     0.031 C 
ATOM     56  C   UNL A   1      45.494  36.897  31.229  1.00  0.00     0.029 A 
ATOM     57  N   UNL A   1      44.090  36.568  32.937  1.00  0.00    -0.354 N 
ATOM     58  C   UNL A   1      40.494  34.184  32.422  1.00  0.00     0.074 A 
ATOM     59  C   UNL A   1      40.397  33.695  31.064  1.00  0.00     0.031 C 
ATOM     60  C   UNL A   1      45.979  37.570  32.285  1.00  0.00     0.029 A 
ATOM     61  C   UNL A   1      45.080  37.393  33.420  1.00  0.00     0.049 A 
ATOM     62  H   UNL A   1      43.328  36.266  33.482  1.00  0.00     0.167 HD
ATOM     63  C   UNL A   1      39.585  33.927  33.395  1.00  0.00     0.034 A 
ATOM     64  C   UNL A   1      45.241  37.939  34.641  1.00  0.00     0.034 A 
ATOM     65  C   UNL A   1      39.715  34.405  34.750  1.00  0.00     0.049 A 
ATOM     66  C   UNL A   1      44.225  37.627  35.712  1.00  0.00     0.074 A 
ATOM     67  C   UNL A   1      38.885  34.171  35.832  1.00  0.00     0.029 A 
ATOM     68  N   UNL A   1      40.747  35.213  35.211  1.00  0.00    -0.354 N 
ATOM     69  N   UNL A   1      43.134  36.901  35.633  1.00  0.00    -0.248 NA
ATOM     70  C   UNL A   1      44.477  38.193  37.043  1.00  0.00     0.031 C 
ATOM     71  C   UNL A   1      39.380  34.884  36.930  1.00  0.00     0.029 A 
ATOM     72  C   UNL A   1      40.563  35.501  36.555  1.00  0.00     0.049 A 
ATOM     73  H   UNL A   1      41.499  35.536  34.664  1.00  0.00     0.167 HD
ATOM     74  C   UNL A   1      42.595  36.886  36.917  1.00  0.00     0.074 A 
ATOM     75  C   UNL A   1      43.487  37.667  37.749  1.00  0.00     0.031 C 
ATOM     76  C   UNL A   1      41.467  36.279  37.371  1.00  0.00     0.034 A 
BRANCH  63  77
ATOM     77  C   UNL A   1      38.369  33.117  33.011  1.00  0.00     0.023 A 
ATOM     78  C   UNL A   1      38.427  31.719  32.867  1.00  0.00     0.031 A 
ATOM     79  C   UNL A   1      37.144  33.753  32.745  1.00  0.00     0.131 A 
ATOM     80  C   UNL A   1      37.312  31.017  32.384  1.00  0.00     0.055 A 
ATOM     81  C   UNL A   1      36.012  33.037  32.351  1.00  0.00     0.041 A 
ATOM     82  F   UNL A   1      37.030  35.087  32.844  1.00  0.00    -0.206 F 
ATOM     83  C   UNL A   1      36.097  31.663  32.151  1.00  0.00     0.022 A 
BRANCH  80  84
ATOM     84  S   UNL A   1      37.521  29.277  31.916  1.00  0.00     0.124 S 
ATOM     85  O   UNL A   1      36.441  29.101  30.946  1.00  0.00    -0.237 OA
ATOM     86  O   UNL A   1      38.874  29.255  31.376  1.00  0.00    -0.237 OA
ATOM     87  O   UNL A   1      37.338  28.558  33.176  1.00  0.00    -0.744 OA
ENDBRANCH  80  84
ENDBRANCH  63  77
BRANCH  64  88
ATOM     88  C   UNL A   1      46.409  38.817  34.934  1.00  0.00     0.023 A 
ATOM     89  C   UNL A   1      46.347  40.200  34.702  1.00  0.00     0.031 A 
ATOM     90  C   UNL A   1      47.623  38.282  35.401  1.00  0.00     0.131 A 
ATOM     91  C   UNL A   1      47.491  40.993  34.882  1.00  0.00     0.055 A 
ATOM     92  C   UNL A   1      48.742  39.083  35.631  1.00  0.00     0.041 A 
ATOM     93  F   UNL A   1      47.734  36.966  35.647  1.00  0.00    -0.206 F 
ATOM     94  C   UNL A   1      48.685  40.445  35.356  1.00  0.00     0.022 A 
BRANCH  91  95
ATOM     95  S   UNL A   1      47.420  42.740  34.397  1.00  0.00     0.124 S 
ATOM     96  O   UNL A   1      46.119  42.814  33.742  1.00  0.00    -0.237 OA
ATOM     97  O   UNL A   1      47.529  43.416  35.686  1.00  0.00    -0.237 OA
ATOM     98  O   UNL A   1      48.574  42.894  33.514  1.00  0.00    -0.744 OA
ENDBRANCH  91  95
ENDBRANCH  64  88
BRANCH  76  99
ATOM     99  C   UNL A   1      41.185  36.380  38.850  1.00  0.00     0.023 A 
ATOM    100  C   UNL A   1      40.757  37.579  39.446  1.00  0.00     0.031 A 
ATOM    101  C   UNL A   1      41.377  35.261  39.679  1.00  0.00     0.131 A 
ATOM    102  C   UNL A   1      40.604  37.650  40.839  1.00  0.00     0.055 A 
ATOM    103  C   UNL A   1      41.158  35.319  41.056  1.00  0.00     0.041 A 
ATOM    104  F   UNL A   1      41.784  34.089  39.164  1.00  0.00    -0.206 F 
ATOM    105  C   UNL A   1      40.786  36.525  41.645  1.00  0.00     0.022 A 
BRANCH 102 106
ATOM    106  S   UNL A   1      40.274  39.266  41.596  1.00  0.00     0.124 S 
ATOM    107  O   UNL A   1      41.616  39.831  41.704  1.00  0.00    -0.237 OA
ATOM    108  O   UNL A   1      39.395  39.895  40.616  1.00  0.00    -0.237 OA
ATOM    109  O   UNL A   1      39.641  38.925  42.868  1.00  0.00    -0.744 OA
ENDBRANCH 102 106
ENDBRANCH  76  99
ENDBRANCH  50  51
ENDBRANCH  42  45
ENDBRANCH  40  41
ENDBRANCH  39  40
ENDBRANCH   1  39
TORSDOF 19
ENDMDL
