MODEL 1
REMARK VINA RESULT:     -12.5      0.000      0.000
REMARK SMILES O=C(Cc1ccc(F)cc1F)Nc1sccc1C(=O)NCCCCNC(=O)c1ccc(-c2c3nc(c(-c4cc(S(=O)(=O)[O-])ccc4F)c4ccc([nH]4)c(-c4cc(S(=O)(=O)[O-])ccc4F)c4nc(c(-c5cc(S(=O)(=O)[O-])ccc5F)c5ccc2[nH]5)C=C4)C=C3)cc1
REMARK SMILES IDX 22 1 21 2 20 3 18 4 19 5 17 7 13 8 14 9 15 10 16 11 12 12
REMARK SMILES IDX 1 13 2 14 3 16 4 17 5 18 10 19 6 20 9 21 11 22 7 23 8 24
REMARK SMILES IDX 23 25 24 26 25 27 26 28 27 30 28 31 29 32 90 33 30 34 89 35
REMARK SMILES IDX 31 36 32 37 33 38 83 39 34 40 88 41 82 42 84 43 35 44 87 45
REMARK SMILES IDX 81 46 80 47 36 49 68 50 48 51 67 52 49 53 52 54 66 55 85 56
REMARK SMILES IDX 50 57 51 58 65 60 86 61 53 62 37 63 38 64 46 65 39 66 45 67
REMARK SMILES IDX 47 68 44 69 40 70 41 71 42 72 43 73 69 74 70 75 78 76 71 77
REMARK SMILES IDX 77 78 79 79 76 80 72 81 73 82 74 83 75 84 54 85 55 86 63 87
REMARK SMILES IDX 56 88 62 89 64 90 61 91 57 92 58 93 59 94 60 95
REMARK H PARENT 20 6 12 15 25 29 84 48 52 59
REMARK Flexibility Score: inf
ROOT
ATOM      1  C   UNL A   1      32.470  28.958  25.301  1.00  0.00     0.023 C 
ENDROOT
BRANCH   1   2
ATOM      2  C   UNL A   1      33.856  28.631  24.761  1.00  0.00     0.116 C 
BRANCH   2   3
ATOM      3  N   UNL A   1      33.916  28.011  23.462  1.00  0.00    -0.352 N 
ATOM      4  C   UNL A   1      33.653  26.704  23.106  1.00  0.00     0.254 C 
ATOM      5  O   UNL A   1      33.735  26.420  21.911  1.00  0.00    -0.269 OA
ATOM      6  H   UNL A   1      34.182  28.605  22.723  1.00  0.00     0.163 HD
BRANCH   4   7
ATOM      7  C   UNL A   1      33.484  25.648  24.114  1.00  0.00     0.074 A 
ATOM      8  C   UNL A   1      32.389  25.283  24.878  1.00  0.00     0.108 A 
ATOM      9  S   UNL A   1      32.775  24.172  26.120  1.00  0.00    -0.126 S 
ATOM     10  C   UNL A   1      34.345  23.936  25.505  1.00  0.00     0.068 A 
ATOM     11  C   UNL A   1      34.599  24.780  24.450  1.00  0.00     0.028 A 
BRANCH   8  12
ATOM     12  N   UNL A   1      31.054  25.623  24.932  1.00  0.00    -0.317 N 
ATOM     13  O   UNL A   1      30.330  24.435  23.103  1.00  0.00    -0.274 OA
ATOM     14  C   UNL A   1      30.143  25.308  23.948  1.00  0.00     0.229 C 
ATOM     15  H   UNL A   1      30.733  26.119  25.719  1.00  0.00     0.170 HD
BRANCH  14  16
ATOM     16  C   UNL A   1      28.962  26.260  23.854  1.00  0.00     0.139 C 
BRANCH  16  17
ATOM     17  C   UNL A   1      29.106  27.670  23.339  1.00  0.00    -0.003 A 
ATOM     18  C   UNL A   1      30.279  28.155  22.743  1.00  0.00     0.010 A 
ATOM     19  C   UNL A   1      27.939  28.446  23.216  1.00  0.00     0.129 A 
ATOM     20  C   UNL A   1      30.273  29.375  22.058  1.00  0.00     0.040 A 
ATOM     21  C   UNL A   1      27.922  29.650  22.524  1.00  0.00     0.078 A 
ATOM     22  F   UNL A   1      26.784  27.994  23.724  1.00  0.00    -0.207 F 
ATOM     23  C   UNL A   1      29.096  30.104  21.946  1.00  0.00     0.126 A 
ATOM     24  F   UNL A   1      29.095  31.244  21.244  1.00  0.00    -0.207 F 
ENDBRANCH  16  17
ENDBRANCH  14  16
ENDBRANCH   8  12
ENDBRANCH   4   7
ENDBRANCH   2   3
ENDBRANCH   1   2
BRANCH   1  25
ATOM     25  C   UNL A   1      32.210  30.420  25.671  1.00  0.00     0.023 C 
BRANCH  25  26
ATOM     26  C   UNL A   1      32.200  30.783  27.157  1.00  0.00     0.116 C 
BRANCH  26  27
ATOM     27  N   UNL A   1      32.321  32.209  27.437  1.00  0.00    -0.352 N 
ATOM     28  C   UNL A   1      33.433  32.966  27.746  1.00  0.00     0.251 C 
ATOM     29  H   UNL A   1      31.476  32.711  27.399  1.00  0.00     0.163 HD
ATOM     30  O   UNL A   1      33.304  34.173  27.935  1.00  0.00    -0.269 OA
BRANCH  28  31
ATOM     31  C   UNL A   1      34.745  32.313  27.945  1.00  0.00     0.039 A 
ATOM     32  C   UNL A   1      35.887  33.120  27.980  1.00  0.00     0.014 A 
ATOM     33  C   UNL A   1      34.847  30.945  28.201  1.00  0.00     0.014 A 
ATOM     34  C   UNL A   1      37.097  32.588  28.430  1.00  0.00     0.010 A 
ATOM     35  C   UNL A   1      36.034  30.434  28.722  1.00  0.00     0.010 A 
ATOM     36  C   UNL A   1      37.155  31.263  28.889  1.00  0.00    -0.014 A 
BRANCH  36  37
ATOM     37  C   UNL A   1      38.334  30.758  29.644  1.00  0.00     0.031 A 
ATOM     38  C   UNL A   1      39.238  29.718  29.051  1.00  0.00     0.074 A 
ATOM     39  C   UNL A   1      38.523  31.165  30.916  1.00  0.00     0.049 A 
ATOM     40  N   UNL A   1      40.231  29.072  29.604  1.00  0.00    -0.248 NA
ATOM     41  C   UNL A   1      38.967  29.338  27.658  1.00  0.00     0.031 C 
ATOM     42  C   UNL A   1      37.693  32.145  31.624  1.00  0.00     0.029 A 
ATOM     43  N   UNL A   1      39.462  30.798  31.848  1.00  0.00    -0.354 N 
ATOM     44  C   UNL A   1      40.704  28.199  28.630  1.00  0.00     0.074 A 
ATOM     45  C   UNL A   1      39.843  28.361  27.475  1.00  0.00     0.031 C 
ATOM     46  C   UNL A   1      38.174  32.318  32.864  1.00  0.00     0.029 A 
ATOM     47  C   UNL A   1      39.310  31.425  33.063  1.00  0.00     0.049 A 
ATOM     48  H   UNL A   1      40.176  30.147  31.664  1.00  0.00     0.167 HD
ATOM     49  C   UNL A   1      41.769  27.359  28.687  1.00  0.00     0.034 A 
ATOM     50  C   UNL A   1      39.992  31.283  34.217  1.00  0.00     0.034 A 
ATOM     51  C   UNL A   1      42.614  27.204  29.848  1.00  0.00     0.049 A 
ATOM     52  C   UNL A   1      41.116  30.285  34.284  1.00  0.00     0.074 A 
ATOM     53  C   UNL A   1      43.754  26.433  29.990  1.00  0.00     0.029 A 
ATOM     54  N   UNL A   1      42.398  27.819  31.075  1.00  0.00    -0.354 N 
ATOM     55  N   UNL A   1      41.576  29.496  33.341  1.00  0.00    -0.248 NA
ATOM     56  C   UNL A   1      41.803  30.151  35.575  1.00  0.00     0.031 C 
ATOM     57  C   UNL A   1      44.191  26.531  31.318  1.00  0.00     0.029 A 
ATOM     58  C   UNL A   1      43.359  27.413  31.990  1.00  0.00     0.049 A 
ATOM     59  H   UNL A   1      41.670  28.452  31.268  1.00  0.00     0.167 HD
ATOM     60  C   UNL A   1      42.624  28.788  33.921  1.00  0.00     0.074 A 
ATOM     61  C   UNL A   1      42.729  29.245  35.292  1.00  0.00     0.031 C 
ATOM     62  C   UNL A   1      43.433  27.852  33.364  1.00  0.00     0.034 A 
BRANCH  49  63
ATOM     63  C   UNL A   1      42.046  26.526  27.458  1.00  0.00     0.023 A 
ATOM     64  C   UNL A   1      41.661  25.175  27.388  1.00  0.00     0.031 A 
ATOM     65  C   UNL A   1      42.759  27.065  26.373  1.00  0.00     0.131 A 
ATOM     66  C   UNL A   1      42.078  24.383  26.308  1.00  0.00     0.055 A 
ATOM     67  C   UNL A   1      43.095  26.291  25.259  1.00  0.00     0.041 A 
ATOM     68  F   UNL A   1      43.166  28.343  26.387  1.00  0.00    -0.206 F 
ATOM     69  C   UNL A   1      42.774  24.937  25.231  1.00  0.00     0.022 A 
BRANCH  66  70
ATOM     70  S   UNL A   1      41.854  22.587  26.422  1.00  0.00     0.124 S 
ATOM     71  O   UNL A   1      42.584  22.122  25.245  1.00  0.00    -0.237 OA
ATOM     72  O   UNL A   1      42.457  22.276  27.712  1.00  0.00    -0.237 OA
ATOM     73  O   UNL A   1      40.404  22.416  26.351  1.00  0.00    -0.744 OA
ENDBRANCH  66  70
ENDBRANCH  49  63
BRANCH  50  74
ATOM     74  C   UNL A   1      39.620  32.089  35.412  1.00  0.00     0.023 A 
ATOM     75  C   UNL A   1      38.745  31.571  36.379  1.00  0.00     0.031 A 
ATOM     76  C   UNL A   1      40.119  33.390  35.595  1.00  0.00     0.131 A 
ATOM     77  C   UNL A   1      38.373  32.361  37.477  1.00  0.00     0.055 A 
ATOM     78  C   UNL A   1      39.775  34.159  36.708  1.00  0.00     0.041 A 
ATOM     79  F   UNL A   1      40.966  33.924  34.702  1.00  0.00    -0.206 F 
ATOM     80  C   UNL A   1      38.890  33.648  37.653  1.00  0.00     0.022 A 
BRANCH  77  81
ATOM     81  S   UNL A   1      37.165  31.698  38.656  1.00  0.00     0.124 S 
ATOM     82  O   UNL A   1      37.878  31.833  39.921  1.00  0.00    -0.237 OA
ATOM     83  O   UNL A   1      36.028  32.591  38.460  1.00  0.00    -0.237 OA
ATOM     84  O   UNL A   1      36.961  30.326  38.197  1.00  0.00    -0.744 OA
ENDBRANCH  77  81
ENDBRANCH  50  74
BRANCH  62  85
ATOM     85  C   UNL A   1      44.519  27.286  34.242  1.00  0.00     0.023 A 
ATOM     86  C   UNL A   1      44.367  26.052  34.899  1.00  0.00     0.031 A 
ATOM     87  C   UNL A   1      45.714  28.000  34.435  1.00  0.00     0.131 A 
ATOM     88  C   UNL A   1      45.379  25.588  35.754  1.00  0.00     0.055 A 
ATOM     89  C   UNL A   1      46.737  27.510  35.249  1.00  0.00     0.041 A 
ATOM     90  F   UNL A   1      45.907  29.184  33.835  1.00  0.00    -0.206 F 
ATOM     91  C   UNL A   1      46.568  26.303  35.921  1.00  0.00     0.022 A 
BRANCH  88  92
ATOM     92  S   UNL A   1      45.097  24.064  36.697  1.00  0.00     0.124 S 
ATOM     93  O   UNL A   1      44.571  24.581  37.956  1.00  0.00    -0.237 OA
ATOM     94  O   UNL A   1      44.145  23.345  35.857  1.00  0.00    -0.237 OA
ATOM     95  O   UNL A   1      46.426  23.461  36.780  1.00  0.00    -0.744 OA
ENDBRANCH  88  92
ENDBRANCH  62  85
ENDBRANCH  36  37
ENDBRANCH  28  31
ENDBRANCH  26  27
ENDBRANCH  25  26
ENDBRANCH   1  25
TORSDOF 17
ENDMDL
MODEL 2
REMARK VINA RESULT:     -12.4      1.085      1.864
REMARK SMILES O=C(Cc1ccc(F)cc1F)Nc1sccc1C(=O)NCCCCNC(=O)c1ccc(-c2c3nc(c(-c4cc(S(=O)(=O)[O-])ccc4F)c4ccc([nH]4)c(-c4cc(S(=O)(=O)[O-])ccc4F)c4nc(c(-c5cc(S(=O)(=O)[O-])ccc5F)c5ccc2[nH]5)C=C4)C=C3)cc1
REMARK SMILES IDX 22 1 21 2 20 3 18 4 19 5 17 7 13 8 14 9 15 10 16 11 12 12
REMARK SMILES IDX 1 13 2 14 3 16 4 17 5 18 10 19 6 20 9 21 11 22 7 23 8 24
REMARK SMILES IDX 23 25 24 26 25 27 26 28 27 30 28 31 29 32 90 33 30 34 89 35
REMARK SMILES IDX 31 36 32 37 33 38 83 39 34 40 88 41 82 42 84 43 35 44 87 45
REMARK SMILES IDX 81 46 80 47 36 49 68 50 48 51 67 52 49 53 52 54 66 55 85 56
REMARK SMILES IDX 50 57 51 58 65 60 86 61 53 62 37 63 38 64 46 65 39 66 45 67
REMARK SMILES IDX 47 68 44 69 40 70 41 71 42 72 43 73 69 74 70 75 78 76 71 77
REMARK SMILES IDX 77 78 79 79 76 80 72 81 73 82 74 83 75 84 54 85 55 86 63 87
REMARK SMILES IDX 56 88 62 89 64 90 61 91 57 92 58 93 59 94 60 95
REMARK H PARENT 20 6 12 15 25 29 84 48 52 59
REMARK Flexibility Score: inf
ROOT
ATOM      1  C   UNL A   1      31.378  28.020  26.393  1.00  0.00     0.023 C 
ENDROOT
BRANCH   1   2
ATOM      2  C   UNL A   1      32.161  26.723  26.542  1.00  0.00     0.116 C 
BRANCH   2   3
ATOM      3  N   UNL A   1      31.401  25.540  26.859  1.00  0.00    -0.352 N 
ATOM      4  C   UNL A   1      31.792  24.217  26.821  1.00  0.00     0.254 C 
ATOM      5  O   UNL A   1      30.966  23.377  27.180  1.00  0.00    -0.269 OA
ATOM      6  H   UNL A   1      30.472  25.698  27.142  1.00  0.00     0.163 HD
BRANCH   4   7
ATOM      7  C   UNL A   1      33.053  23.802  26.192  1.00  0.00     0.074 A 
ATOM      8  C   UNL A   1      33.458  23.810  24.868  1.00  0.00     0.108 A 
ATOM      9  S   UNL A   1      34.917  22.955  24.607  1.00  0.00    -0.126 S 
ATOM     10  C   UNL A   1      35.191  22.788  26.278  1.00  0.00     0.068 A 
ATOM     11  C   UNL A   1      34.130  23.269  27.008  1.00  0.00     0.028 A 
BRANCH   8  12
ATOM     12  N   UNL A   1      32.961  24.293  23.677  1.00  0.00    -0.317 N 
ATOM     13  O   UNL A   1      33.931  26.375  23.727  1.00  0.00    -0.274 OA
ATOM     14  C   UNL A   1      33.098  25.600  23.264  1.00  0.00     0.229 C 
ATOM     15  H   UNL A   1      32.481  23.668  23.087  1.00  0.00     0.170 HD
BRANCH  14  16
ATOM     16  C   UNL A   1      32.003  26.082  22.325  1.00  0.00     0.139 C 
BRANCH  16  17
ATOM     17  C   UNL A   1      30.888  26.984  22.790  1.00  0.00    -0.003 A 
ATOM     18  C   UNL A   1      30.753  28.317  22.378  1.00  0.00     0.010 A 
ATOM     19  C   UNL A   1      29.798  26.389  23.454  1.00  0.00     0.129 A 
ATOM     20  C   UNL A   1      29.571  29.021  22.631  1.00  0.00     0.040 A 
ATOM     21  C   UNL A   1      28.616  27.077  23.695  1.00  0.00     0.078 A 
ATOM     22  F   UNL A   1      29.864  25.101  23.817  1.00  0.00    -0.207 F 
ATOM     23  C   UNL A   1      28.513  28.393  23.276  1.00  0.00     0.126 A 
ATOM     24  F   UNL A   1      27.370  29.064  23.466  1.00  0.00    -0.207 F 
ENDBRANCH  16  17
ENDBRANCH  14  16
ENDBRANCH   8  12
ENDBRANCH   4   7
ENDBRANCH   2   3
ENDBRANCH   1   2
BRANCH   1  25
ATOM     25  C   UNL A   1      31.901  29.226  27.179  1.00  0.00     0.023 C 
BRANCH  25  26
ATOM     26  C   UNL A   1      32.507  30.382  26.381  1.00  0.00     0.116 C 
BRANCH  26  27
ATOM     27  N   UNL A   1      32.423  31.682  27.035  1.00  0.00    -0.352 N 
ATOM     28  C   UNL A   1      33.394  32.418  27.684  1.00  0.00     0.251 C 
ATOM     29  H   UNL A   1      31.534  32.101  27.011  1.00  0.00     0.163 HD
ATOM     30  O   UNL A   1      33.101  33.512  28.160  1.00  0.00    -0.269 OA
BRANCH  28  31
ATOM     31  C   UNL A   1      34.745  31.850  27.890  1.00  0.00     0.039 A 
ATOM     32  C   UNL A   1      35.830  32.731  27.953  1.00  0.00     0.014 A 
ATOM     33  C   UNL A   1      34.934  30.487  28.124  1.00  0.00     0.014 A 
ATOM     34  C   UNL A   1      37.067  32.272  28.410  1.00  0.00     0.010 A 
ATOM     35  C   UNL A   1      36.146  30.047  28.652  1.00  0.00     0.010 A 
ATOM     36  C   UNL A   1      37.208  30.945  28.848  1.00  0.00    -0.014 A 
BRANCH  36  37
ATOM     37  C   UNL A   1      38.408  30.507  29.610  1.00  0.00     0.031 A 
ATOM     38  C   UNL A   1      39.337  29.470  29.049  1.00  0.00     0.074 A 
ATOM     39  C   UNL A   1      38.597  30.971  30.862  1.00  0.00     0.049 A 
ATOM     40  N   UNL A   1      40.354  28.876  29.618  1.00  0.00    -0.248 NA
ATOM     41  C   UNL A   1      39.063  29.026  27.677  1.00  0.00     0.031 C 
ATOM     42  C   UNL A   1      37.745  31.954  31.538  1.00  0.00     0.029 A 
ATOM     43  N   UNL A   1      39.555  30.670  31.798  1.00  0.00    -0.354 N 
ATOM     44  C   UNL A   1      40.843  27.979  28.675  1.00  0.00     0.074 A 
ATOM     45  C   UNL A   1      39.966  28.068  27.524  1.00  0.00     0.031 C 
ATOM     46  C   UNL A   1      38.233  32.192  32.765  1.00  0.00     0.029 A 
ATOM     47  C   UNL A   1      39.397  31.341  32.988  1.00  0.00     0.049 A 
ATOM     48  H   UNL A   1      40.287  30.033  31.632  1.00  0.00     0.167 HD
ATOM     49  C   UNL A   1      41.933  27.173  28.754  1.00  0.00     0.034 A 
ATOM     50  C   UNL A   1      40.093  31.267  34.139  1.00  0.00     0.034 A 
ATOM     51  C   UNL A   1      42.793  27.091  29.911  1.00  0.00     0.049 A 
ATOM     52  C   UNL A   1      41.247  30.306  34.235  1.00  0.00     0.074 A 
ATOM     53  C   UNL A   1      43.957  26.360  30.073  1.00  0.00     0.029 A 
ATOM     54  N   UNL A   1      42.571  27.749  31.115  1.00  0.00    -0.354 N 
ATOM     55  N   UNL A   1      41.721  29.493  33.320  1.00  0.00    -0.248 NA
ATOM     56  C   UNL A   1      41.951  30.245  35.523  1.00  0.00     0.031 C 
ATOM     57  C   UNL A   1      44.403  26.525  31.391  1.00  0.00     0.029 A 
ATOM     58  C   UNL A   1      43.553  27.409  32.035  1.00  0.00     0.049 A 
ATOM     59  H   UNL A   1      41.826  28.368  31.290  1.00  0.00     0.167 HD
ATOM     60  C   UNL A   1      42.795  28.840  33.916  1.00  0.00     0.074 A 
ATOM     61  C   UNL A   1      42.900  29.356  35.267  1.00  0.00     0.031 C 
ATOM     62  C   UNL A   1      43.627  27.905  33.389  1.00  0.00     0.034 A 
BRANCH  49  63
ATOM     63  C   UNL A   1      42.223  26.299  27.557  1.00  0.00     0.023 A 
ATOM     64  C   UNL A   1      41.733  24.983  27.477  1.00  0.00     0.031 A 
ATOM     65  C   UNL A   1      43.049  26.759  26.517  1.00  0.00     0.131 A 
ATOM     66  C   UNL A   1      42.155  24.141  26.438  1.00  0.00     0.055 A 
ATOM     67  C   UNL A   1      43.394  25.941  25.438  1.00  0.00     0.041 A 
ATOM     68  F   UNL A   1      43.559  28.000  26.545  1.00  0.00    -0.206 F 
ATOM     69  C   UNL A   1      42.966  24.617  25.405  1.00  0.00     0.022 A 
BRANCH  66  70
ATOM     70  S   UNL A   1      41.777  22.371  26.557  1.00  0.00     0.124 S 
ATOM     71  O   UNL A   1      40.316  22.377  26.530  1.00  0.00    -0.237 OA
ATOM     72  O   UNL A   1      42.436  21.828  25.376  1.00  0.00    -0.237 OA
ATOM     73  O   UNL A   1      42.365  21.980  27.838  1.00  0.00    -0.744 OA
ENDBRANCH  66  70
ENDBRANCH  49  63
BRANCH  50  74
ATOM     74  C   UNL A   1      39.709  32.110  35.305  1.00  0.00     0.023 A 
ATOM     75  C   UNL A   1      38.851  31.610  36.296  1.00  0.00     0.031 A 
ATOM     76  C   UNL A   1      40.180  33.428  35.435  1.00  0.00     0.131 A 
ATOM     77  C   UNL A   1      38.467  32.434  37.365  1.00  0.00     0.055 A 
ATOM     78  C   UNL A   1      39.824  34.232  36.519  1.00  0.00     0.041 A 
ATOM     79  F   UNL A   1      41.010  33.946  34.516  1.00  0.00    -0.206 F 
ATOM     80  C   UNL A   1      38.956  33.738  37.489  1.00  0.00     0.022 A 
BRANCH  77  81
ATOM     81  S   UNL A   1      37.280  31.790  38.576  1.00  0.00     0.124 S 
ATOM     82  O   UNL A   1      37.052  30.437  38.080  1.00  0.00    -0.237 OA
ATOM     83  O   UNL A   1      38.030  31.899  39.823  1.00  0.00    -0.237 OA
ATOM     84  O   UNL A   1      36.144  32.700  38.454  1.00  0.00    -0.744 OA
ENDBRANCH  77  81
ENDBRANCH  50  74
BRANCH  62  85
ATOM     85  C   UNL A   1      44.737  27.408  34.278  1.00  0.00     0.023 A 
ATOM     86  C   UNL A   1      44.566  26.293  35.117  1.00  0.00     0.031 A 
ATOM     87  C   UNL A   1      45.977  28.069  34.295  1.00  0.00     0.131 A 
ATOM     88  C   UNL A   1      45.606  25.898  35.973  1.00  0.00     0.055 A 
ATOM     89  C   UNL A   1      47.025  27.641  35.112  1.00  0.00     0.041 A 
ATOM     90  F   UNL A   1      46.190  29.140  33.516  1.00  0.00    -0.206 F 
ATOM     91  C   UNL A   1      46.839  26.556  35.963  1.00  0.00     0.022 A 
BRANCH  88  92
ATOM     92  S   UNL A   1      45.309  24.545  37.144  1.00  0.00     0.124 S 
ATOM     93  O   UNL A   1      45.655  23.373  36.347  1.00  0.00    -0.237 OA
ATOM     94  O   UNL A   1      46.222  24.867  38.235  1.00  0.00    -0.237 OA
ATOM     95  O   UNL A   1      43.889  24.678  37.468  1.00  0.00    -0.744 OA
ENDBRANCH  88  92
ENDBRANCH  62  85
ENDBRANCH  36  37
ENDBRANCH  28  31
ENDBRANCH  26  27
ENDBRANCH  25  26
ENDBRANCH   1  25
TORSDOF 17
ENDMDL
MODEL 3
REMARK VINA RESULT:     -12.3      5.624      8.782
REMARK SMILES O=C(Cc1ccc(F)cc1F)Nc1sccc1C(=O)NCCCCNC(=O)c1ccc(-c2c3nc(c(-c4cc(S(=O)(=O)[O-])ccc4F)c4ccc([nH]4)c(-c4cc(S(=O)(=O)[O-])ccc4F)c4nc(c(-c5cc(S(=O)(=O)[O-])ccc5F)c5ccc2[nH]5)C=C4)C=C3)cc1
REMARK SMILES IDX 22 1 21 2 20 3 18 4 19 5 17 7 13 8 14 9 15 10 16 11 12 12
REMARK SMILES IDX 1 13 2 14 3 16 4 17 5 18 10 19 6 20 9 21 11 22 7 23 8 24
REMARK SMILES IDX 23 25 24 26 25 27 26 28 27 30 28 31 29 32 90 33 30 34 89 35
REMARK SMILES IDX 31 36 32 37 33 38 83 39 34 40 88 41 82 42 84 43 35 44 87 45
REMARK SMILES IDX 81 46 80 47 36 49 68 50 48 51 67 52 49 53 52 54 66 55 85 56
REMARK SMILES IDX 50 57 51 58 65 60 86 61 53 62 37 63 38 64 46 65 39 66 45 67
REMARK SMILES IDX 47 68 44 69 40 70 41 71 42 72 43 73 69 74 70 75 78 76 71 77
REMARK SMILES IDX 77 78 79 79 76 80 72 81 73 82 74 83 75 84 54 85 55 86 63 87
REMARK SMILES IDX 56 88 62 89 64 90 61 91 57 92 58 93 59 94 60 95
REMARK H PARENT 20 6 12 15 25 29 84 48 52 59
REMARK Flexibility Score: inf
ROOT
ATOM      1  C   UNL A   1      36.288  20.125  24.825  1.00  0.00     0.023 C 
ENDROOT
BRANCH   1   2
ATOM      2  C   UNL A   1      36.127  21.599  25.169  1.00  0.00     0.116 C 
BRANCH   2   3
ATOM      3  N   UNL A   1      35.339  21.911  26.334  1.00  0.00    -0.352 N 
ATOM      4  C   UNL A   1      34.323  22.834  26.477  1.00  0.00     0.254 C 
ATOM      5  O   UNL A   1      33.766  22.889  27.574  1.00  0.00    -0.269 OA
ATOM      6  H   UNL A   1      35.556  21.392  27.142  1.00  0.00     0.163 HD
BRANCH   4   7
ATOM      7  C   UNL A   1      34.047  23.846  25.449  1.00  0.00     0.074 A 
ATOM      8  C   UNL A   1      33.726  23.719  24.108  1.00  0.00     0.108 A 
ATOM      9  S   UNL A   1      33.781  25.204  23.261  1.00  0.00    -0.126 S 
ATOM     10  C   UNL A   1      33.963  26.091  24.702  1.00  0.00     0.068 A 
ATOM     11  C   UNL A   1      34.098  25.257  25.787  1.00  0.00     0.028 A 
BRANCH   8  12
ATOM     12  N   UNL A   1      33.414  22.686  23.251  1.00  0.00    -0.317 N 
ATOM     13  O   UNL A   1      31.124  22.802  23.402  1.00  0.00    -0.274 OA
ATOM     14  C   UNL A   1      32.141  22.190  23.081  1.00  0.00     0.229 C 
ATOM     15  H   UNL A   1      34.144  22.278  22.731  1.00  0.00     0.170 HD
BRANCH  14  16
ATOM     16  C   UNL A   1      32.083  20.734  22.646  1.00  0.00     0.139 C 
BRANCH  16  17
ATOM     17  C   UNL A   1      32.534  19.610  23.544  1.00  0.00    -0.003 A 
ATOM     18  C   UNL A   1      32.615  19.725  24.939  1.00  0.00     0.010 A 
ATOM     19  C   UNL A   1      32.625  18.321  22.986  1.00  0.00     0.129 A 
ATOM     20  C   UNL A   1      32.788  18.588  25.735  1.00  0.00     0.040 A 
ATOM     21  C   UNL A   1      32.780  17.186  23.771  1.00  0.00     0.078 A 
ATOM     22  F   UNL A   1      32.497  18.160  21.662  1.00  0.00    -0.207 F 
ATOM     23  C   UNL A   1      32.858  17.331  25.146  1.00  0.00     0.126 A 
ATOM     24  F   UNL A   1      32.971  16.248  25.924  1.00  0.00    -0.207 F 
ENDBRANCH  16  17
ENDBRANCH  14  16
ENDBRANCH   8  12
ENDBRANCH   4   7
ENDBRANCH   2   3
ENDBRANCH   1   2
BRANCH   1  25
ATOM     25  C   UNL A   1      37.689  19.533  25.000  1.00  0.00     0.023 C 
BRANCH  25  26
ATOM     26  C   UNL A   1      38.815  20.487  25.399  1.00  0.00     0.116 C 
BRANCH  26  27
ATOM     27  N   UNL A   1      40.000  19.836  25.946  1.00  0.00    -0.352 N 
ATOM     28  C   UNL A   1      40.945  20.304  26.836  1.00  0.00     0.251 C 
ATOM     29  H   UNL A   1      40.149  18.916  25.631  1.00  0.00     0.163 HD
ATOM     30  O   UNL A   1      41.869  19.569  27.174  1.00  0.00    -0.269 OA
BRANCH  28  31
ATOM     31  C   UNL A   1      40.899  21.710  27.297  1.00  0.00     0.039 A 
ATOM     32  C   UNL A   1      41.689  22.071  28.394  1.00  0.00     0.014 A 
ATOM     33  C   UNL A   1      40.179  22.682  26.602  1.00  0.00     0.014 A 
ATOM     34  C   UNL A   1      41.883  23.422  28.691  1.00  0.00     0.010 A 
ATOM     35  C   UNL A   1      40.434  24.029  26.850  1.00  0.00     0.010 A 
ATOM     36  C   UNL A   1      41.329  24.411  27.864  1.00  0.00    -0.014 A 
BRANCH  36  37
ATOM     37  C   UNL A   1      41.754  25.833  27.969  1.00  0.00     0.031 A 
ATOM     38  C   UNL A   1      43.111  26.266  27.496  1.00  0.00     0.074 A 
ATOM     39  C   UNL A   1      40.948  26.715  28.594  1.00  0.00     0.049 A 
ATOM     40  N   UNL A   1      43.700  27.427  27.621  1.00  0.00    -0.248 NA
ATOM     41  C   UNL A   1      43.920  25.244  26.819  1.00  0.00     0.031 C 
ATOM     42  C   UNL A   1      39.619  26.413  29.133  1.00  0.00     0.029 A 
ATOM     43  N   UNL A   1      41.130  28.042  28.898  1.00  0.00    -0.354 N 
ATOM     44  C   UNL A   1      44.955  27.278  27.044  1.00  0.00     0.074 A 
ATOM     45  C   UNL A   1      45.059  25.894  26.627  1.00  0.00     0.031 C 
ATOM     46  C   UNL A   1      39.099  27.525  29.675  1.00  0.00     0.029 A 
ATOM     47  C   UNL A   1      40.074  28.604  29.576  1.00  0.00     0.049 A 
ATOM     48  H   UNL A   1      41.942  28.542  28.654  1.00  0.00     0.167 HD
ATOM     49  C   UNL A   1      45.922  28.214  26.859  1.00  0.00     0.034 A 
ATOM     50  C   UNL A   1      39.915  29.843  30.083  1.00  0.00     0.034 A 
ATOM     51  C   UNL A   1      45.806  29.588  27.286  1.00  0.00     0.049 A 
ATOM     52  C   UNL A   1      41.032  30.841  29.942  1.00  0.00     0.074 A 
ATOM     53  C   UNL A   1      46.695  30.632  27.091  1.00  0.00     0.029 A 
ATOM     54  N   UNL A   1      44.742  30.107  28.013  1.00  0.00    -0.354 N 
ATOM     55  N   UNL A   1      42.198  30.696  29.357  1.00  0.00    -0.248 NA
ATOM     56  C   UNL A   1      40.814  32.165  30.540  1.00  0.00     0.031 C 
ATOM     57  C   UNL A   1      46.199  31.763  27.754  1.00  0.00     0.029 A 
ATOM     58  C   UNL A   1      44.971  31.444  28.311  1.00  0.00     0.049 A 
ATOM     59  H   UNL A   1      43.941  29.601  28.280  1.00  0.00     0.167 HD
ATOM     60  C   UNL A   1      42.844  31.920  29.497  1.00  0.00     0.074 A 
ATOM     61  C   UNL A   1      41.937  32.790  30.218  1.00  0.00     0.031 C 
ATOM     62  C   UNL A   1      44.073  32.292  29.059  1.00  0.00     0.034 A 
BRANCH  49  63
ATOM     63  C   UNL A   1      47.196  27.755  26.191  1.00  0.00     0.023 A 
ATOM     64  C   UNL A   1      47.442  28.012  24.830  1.00  0.00     0.031 A 
ATOM     65  C   UNL A   1      48.144  26.997  26.899  1.00  0.00     0.131 A 
ATOM     66  C   UNL A   1      48.550  27.431  24.196  1.00  0.00     0.055 A 
ATOM     67  C   UNL A   1      49.293  26.495  26.282  1.00  0.00     0.041 A 
ATOM     68  F   UNL A   1      47.958  26.706  28.196  1.00  0.00    -0.206 F 
ATOM     69  C   UNL A   1      49.491  26.692  24.918  1.00  0.00     0.022 A 
BRANCH  66  70
ATOM     70  S   UNL A   1      48.644  27.506  22.387  1.00  0.00     0.124 S 
ATOM     71  O   UNL A   1      47.420  28.232  22.056  1.00  0.00    -0.237 OA
ATOM     72  O   UNL A   1      49.893  28.223  22.165  1.00  0.00    -0.237 OA
ATOM     73  O   UNL A   1      48.651  26.099  21.985  1.00  0.00    -0.744 OA
ENDBRANCH  66  70
ENDBRANCH  49  63
BRANCH  50  74
ATOM     74  C   UNL A   1      38.657  30.207  30.792  1.00  0.00     0.023 A 
ATOM     75  C   UNL A   1      37.661  30.952  30.143  1.00  0.00     0.031 A 
ATOM     76  C   UNL A   1      38.441  29.831  32.129  1.00  0.00     0.131 A 
ATOM     77  C   UNL A   1      36.502  31.323  30.841  1.00  0.00     0.055 A 
ATOM     78  C   UNL A   1      37.270  30.171  32.808  1.00  0.00     0.041 A 
ATOM     79  F   UNL A   1      39.361  29.110  32.789  1.00  0.00    -0.206 F 
ATOM     80  C   UNL A   1      36.295  30.928  32.165  1.00  0.00     0.022 A 
BRANCH  77  81
ATOM     81  S   UNL A   1      35.280  32.368  30.003  1.00  0.00     0.124 S 
ATOM     82  O   UNL A   1      36.099  33.492  29.563  1.00  0.00    -0.237 OA
ATOM     83  O   UNL A   1      34.790  31.481  28.953  1.00  0.00    -0.237 OA
ATOM     84  O   UNL A   1      34.314  32.673  31.056  1.00  0.00    -0.744 OA
ENDBRANCH  77  81
ENDBRANCH  50  74
BRANCH  62  85
ATOM     85  C   UNL A   1      44.487  33.715  29.329  1.00  0.00     0.023 A 
ATOM     86  C   UNL A   1      44.221  34.747  28.411  1.00  0.00     0.031 A 
ATOM     87  C   UNL A   1      45.170  34.039  30.514  1.00  0.00     0.131 A 
ATOM     88  C   UNL A   1      44.675  36.049  28.674  1.00  0.00     0.055 A 
ATOM     89  C   UNL A   1      45.576  35.345  30.792  1.00  0.00     0.041 A 
ATOM     90  F   UNL A   1      45.452  33.091  31.420  1.00  0.00    -0.206 F 
ATOM     91  C   UNL A   1      45.337  36.356  29.867  1.00  0.00     0.022 A 
BRANCH  88  92
ATOM     92  S   UNL A   1      44.441  37.329  27.411  1.00  0.00     0.124 S 
ATOM     93  O   UNL A   1      43.202  36.898  26.771  1.00  0.00    -0.237 OA
ATOM     94  O   UNL A   1      44.357  38.547  28.208  1.00  0.00    -0.237 OA
ATOM     95  O   UNL A   1      45.640  37.214  26.581  1.00  0.00    -0.744 OA
ENDBRANCH  88  92
ENDBRANCH  62  85
ENDBRANCH  36  37
ENDBRANCH  28  31
ENDBRANCH  26  27
ENDBRANCH  25  26
ENDBRANCH   1  25
TORSDOF 17
ENDMDL
