MODEL 1
REMARK VINA RESULT:     -11.0      0.000      0.000
REMARK SMILES O=C(NCCCCNC(=O)[C@@H]1CC(=O)N(CCO)C1)c1ccc(-c2c3nc(c(-c4cc(S(=O)(=O)[O-])ccc4F)c4ccc([nH]4)c(-c4cc(S(=O)(=O)[O-])ccc4F)c4nc(c(-c5cc(S(=O)(=O)[O-])ccc5F)c5ccc2[nH]5)C=C4)C=C3)cc1
REMARK SMILES IDX 5 1 4 2 3 3 1 4 2 5 20 7 21 8 82 9 22 10 81 11 23 12 24 13
REMARK SMILES IDX 25 14 75 15 26 16 80 17 74 18 76 19 27 20 79 21 73 22 72 23
REMARK SMILES IDX 28 25 60 26 40 27 59 28 41 29 44 30 58 31 77 32 42 33 43 34
REMARK SMILES IDX 57 36 78 37 45 38 29 39 30 40 38 41 31 42 37 43 39 44 36 45
REMARK SMILES IDX 32 46 33 47 34 48 35 49 61 50 62 51 70 52 63 53 69 54 71 55
REMARK SMILES IDX 68 56 64 57 65 58 66 59 67 60 46 61 47 62 55 63 48 64 54 65
REMARK SMILES IDX 56 66 53 67 49 68 50 69 51 70 52 71 6 72 7 73 8 74 9 75
REMARK SMILES IDX 10 77 11 78 12 79 19 80 13 81 15 82 14 83 16 84 17 85 18 86
REMARK H PARENT 3 6 76 24 44 35 8 76 18 87
REMARK Flexibility Score: inf
ROOT
ATOM      1  C   UNL A   1      31.517  29.610  25.327  1.00  0.00     0.023 C 
ENDROOT
BRANCH   1   2
ATOM      2  C   UNL A   1      32.324  30.139  26.496  1.00  0.00     0.116 C 
BRANCH   2   3
ATOM      3  N   UNL A   1      32.132  31.567  26.728  1.00  0.00    -0.352 N 
ATOM      4  O   UNL A   1      32.603  33.597  27.608  1.00  0.00    -0.269 OA
ATOM      5  C   UNL A   1      32.961  32.446  27.388  1.00  0.00     0.251 C 
ATOM      6  H   UNL A   1      31.302  31.952  26.364  1.00  0.00     0.163 HD
BRANCH   5   7
ATOM      7  C   UNL A   1      34.275  31.958  27.856  1.00  0.00     0.039 A 
ATOM      8  C   UNL A   1      34.442  30.603  28.143  1.00  0.00     0.014 A 
ATOM      9  C   UNL A   1      35.303  32.868  28.105  1.00  0.00     0.014 A 
ATOM     10  C   UNL A   1      35.547  30.196  28.873  1.00  0.00     0.010 A 
ATOM     11  C   UNL A   1      36.475  32.426  28.726  1.00  0.00     0.010 A 
ATOM     12  C   UNL A   1      36.587  31.096  29.162  1.00  0.00    -0.014 A 
BRANCH  12  13
ATOM     13  C   UNL A   1      37.783  30.597  29.891  1.00  0.00     0.031 A 
ATOM     14  C   UNL A   1      38.004  30.914  31.346  1.00  0.00     0.074 A 
ATOM     15  C   UNL A   1      38.647  29.798  29.233  1.00  0.00     0.049 A 
ATOM     16  N   UNL A   1      38.977  30.531  32.134  1.00  0.00    -0.248 NA
ATOM     17  C   UNL A   1      37.013  31.782  32.001  1.00  0.00     0.031 C 
ATOM     18  C   UNL A   1      38.530  29.419  27.820  1.00  0.00     0.029 A 
ATOM     19  N   UNL A   1      39.768  29.136  29.658  1.00  0.00    -0.354 N 
ATOM     20  C   UNL A   1      38.735  31.131  33.367  1.00  0.00     0.074 A 
ATOM     21  C   UNL A   1      37.539  31.931  33.209  1.00  0.00     0.031 C 
ATOM     22  C   UNL A   1      39.492  28.538  27.519  1.00  0.00     0.029 A 
ATOM     23  C   UNL A   1      40.352  28.362  28.682  1.00  0.00     0.049 A 
ATOM     24  H   UNL A   1      40.121  29.206  30.574  1.00  0.00     0.167 HD
ATOM     25  C   UNL A   1      39.445  31.017  34.519  1.00  0.00     0.034 A 
ATOM     26  C   UNL A   1      41.470  27.613  28.706  1.00  0.00     0.034 A 
ATOM     27  C   UNL A   1      40.634  30.206  34.653  1.00  0.00     0.049 A 
ATOM     28  C   UNL A   1      42.261  27.544  29.983  1.00  0.00     0.074 A 
ATOM     29  C   UNL A   1      41.408  29.992  35.780  1.00  0.00     0.029 A 
ATOM     30  N   UNL A   1      41.230  29.483  33.626  1.00  0.00    -0.354 N 
ATOM     31  N   UNL A   1      42.009  28.106  31.143  1.00  0.00    -0.248 NA
ATOM     32  C   UNL A   1      43.483  26.735  29.954  1.00  0.00     0.031 C 
ATOM     33  C   UNL A   1      42.513  29.216  35.417  1.00  0.00     0.029 A 
ATOM     34  C   UNL A   1      42.381  28.857  34.085  1.00  0.00     0.049 A 
ATOM     35  H   UNL A   1      40.886  29.423  32.705  1.00  0.00     0.167 HD
ATOM     36  C   UNL A   1      43.027  27.687  31.993  1.00  0.00     0.074 A 
ATOM     37  C   UNL A   1      43.881  26.813  31.214  1.00  0.00     0.031 C 
ATOM     38  C   UNL A   1      43.234  27.995  33.299  1.00  0.00     0.034 A 
BRANCH  25  39
ATOM     39  C   UNL A   1      38.989  31.834  35.708  1.00  0.00     0.023 A 
ATOM     40  C   UNL A   1      38.321  31.255  36.801  1.00  0.00     0.031 A 
ATOM     41  C   UNL A   1      39.213  33.223  35.741  1.00  0.00     0.131 A 
ATOM     42  C   UNL A   1      37.837  32.069  37.840  1.00  0.00     0.055 A 
ATOM     43  C   UNL A   1      38.806  34.014  36.817  1.00  0.00     0.041 A 
ATOM     44  F   UNL A   1      39.825  33.840  34.718  1.00  0.00    -0.206 F 
ATOM     45  C   UNL A   1      38.099  33.440  37.868  1.00  0.00     0.022 A 
BRANCH  42  46
ATOM     46  S   UNL A   1      36.726  31.334  39.071  1.00  0.00     0.124 S 
ATOM     47  O   UNL A   1      37.584  31.286  40.253  1.00  0.00    -0.237 OA
ATOM     48  O   UNL A   1      35.628  32.293  39.117  1.00  0.00    -0.237 OA
ATOM     49  O   UNL A   1      36.393  30.031  38.499  1.00  0.00    -0.744 OA
ENDBRANCH  42  46
ENDBRANCH  25  39
BRANCH  26  50
ATOM     50  C   UNL A   1      41.921  26.894  27.479  1.00  0.00     0.023 A 
ATOM     51  C   UNL A   1      41.752  25.508  27.351  1.00  0.00     0.031 A 
ATOM     52  C   UNL A   1      42.563  27.581  26.432  1.00  0.00     0.131 A 
ATOM     53  C   UNL A   1      42.265  24.845  26.226  1.00  0.00     0.055 A 
ATOM     54  C   UNL A   1      43.010  26.927  25.285  1.00  0.00     0.041 A 
ATOM     55  F   UNL A   1      42.748  28.910  26.502  1.00  0.00    -0.206 F 
ATOM     56  C   UNL A   1      42.878  25.546  25.185  1.00  0.00     0.022 A 
BRANCH  53  57
ATOM     57  S   UNL A   1      42.211  23.033  26.192  1.00  0.00     0.124 S 
ATOM     58  O   UNL A   1      43.065  22.690  27.324  1.00  0.00    -0.237 OA
ATOM     59  O   UNL A   1      40.786  22.770  26.359  1.00  0.00    -0.237 OA
ATOM     60  O   UNL A   1      42.754  22.702  24.876  1.00  0.00    -0.744 OA
ENDBRANCH  53  57
ENDBRANCH  26  50
BRANCH  38  61
ATOM     61  C   UNL A   1      44.403  27.323  33.980  1.00  0.00     0.023 A 
ATOM     62  C   UNL A   1      44.307  26.030  34.524  1.00  0.00     0.031 A 
ATOM     63  C   UNL A   1      45.625  28.007  34.119  1.00  0.00     0.131 A 
ATOM     64  C   UNL A   1      45.383  25.494  35.249  1.00  0.00     0.055 A 
ATOM     65  C   UNL A   1      46.717  27.437  34.775  1.00  0.00     0.041 A 
ATOM     66  F   UNL A   1      45.774  29.247  33.626  1.00  0.00    -0.206 F 
ATOM     67  C   UNL A   1      46.595  26.181  35.360  1.00  0.00     0.022 A 
BRANCH  64  68
ATOM     68  S   UNL A   1      45.133  23.944  36.160  1.00  0.00     0.124 S 
ATOM     69  O   UNL A   1      43.826  23.516  35.673  1.00  0.00    -0.237 OA
ATOM     70  O   UNL A   1      46.269  23.141  35.724  1.00  0.00    -0.237 OA
ATOM     71  O   UNL A   1      45.168  24.360  37.561  1.00  0.00    -0.744 OA
ENDBRANCH  64  68
ENDBRANCH  38  61
ENDBRANCH  12  13
ENDBRANCH   5   7
ENDBRANCH   2   3
ENDBRANCH   1   2
BRANCH   1  72
ATOM     72  C   UNL A   1      31.423  28.091  25.261  1.00  0.00     0.023 C 
BRANCH  72  73
ATOM     73  C   UNL A   1      31.699  27.381  26.588  1.00  0.00     0.116 C 
BRANCH  73  74
ATOM     74  N   UNL A   1      31.238  26.007  26.559  1.00  0.00    -0.356 N 
ATOM     75  C   UNL A   1      31.923  24.864  26.279  1.00  0.00     0.225 C 
ATOM     76  H   UNL A   1      30.286  25.882  26.776  1.00  0.00     0.163 HD
ATOM     77  O   UNL A   1      31.300  23.803  26.308  1.00  0.00    -0.275 OA
BRANCH  75  78
ATOM     78  C   UNL A   1      33.429  24.918  26.062  1.00  0.00     0.107 C 
ATOM     79  C   UNL A   1      33.861  25.280  24.640  1.00  0.00     0.115 C 
ATOM     80  C   UNL A   1      34.086  23.565  26.304  1.00  0.00     0.133 C 
ATOM     81  C   UNL A   1      34.183  23.968  23.994  1.00  0.00     0.223 C 
ATOM     82  N   UNL A   1      34.267  23.014  24.982  1.00  0.00    -0.340 N 
ATOM     83  O   UNL A   1      34.395  23.807  22.800  1.00  0.00    -0.275 OA
BRANCH  82  84
ATOM     84  C   UNL A   1      34.597  21.621  24.721  1.00  0.00     0.147 C 
BRANCH  84  85
ATOM     85  C   UNL A   1      36.104  21.374  24.695  1.00  0.00     0.177 C 
BRANCH  85  86
ATOM     86  O   UNL A   1      36.432  20.104  25.255  1.00  0.00    -0.395 OA
ATOM     87  H   UNL A   1      37.323  20.139  25.637  1.00  0.00     0.210 HD
ENDBRANCH  85  86
ENDBRANCH  84  85
ENDBRANCH  82  84
ENDBRANCH  75  78
ENDBRANCH  73  74
ENDBRANCH  72  73
ENDBRANCH   1  72
TORSDOF 17
ENDMDL
MODEL 2
REMARK VINA RESULT:     -10.9      1.781      2.182
REMARK SMILES O=C(NCCCCNC(=O)[C@@H]1CC(=O)N(CCO)C1)c1ccc(-c2c3nc(c(-c4cc(S(=O)(=O)[O-])ccc4F)c4ccc([nH]4)c(-c4cc(S(=O)(=O)[O-])ccc4F)c4nc(c(-c5cc(S(=O)(=O)[O-])ccc5F)c5ccc2[nH]5)C=C4)C=C3)cc1
REMARK SMILES IDX 5 1 4 2 3 3 1 4 2 5 20 7 21 8 82 9 22 10 81 11 23 12 24 13
REMARK SMILES IDX 25 14 75 15 26 16 80 17 74 18 76 19 27 20 79 21 73 22 72 23
REMARK SMILES IDX 28 25 60 26 40 27 59 28 41 29 44 30 58 31 77 32 42 33 43 34
REMARK SMILES IDX 57 36 78 37 45 38 29 39 30 40 38 41 31 42 37 43 39 44 36 45
REMARK SMILES IDX 32 46 33 47 34 48 35 49 61 50 62 51 70 52 63 53 69 54 71 55
REMARK SMILES IDX 68 56 64 57 65 58 66 59 67 60 46 61 47 62 55 63 48 64 54 65
REMARK SMILES IDX 56 66 53 67 49 68 50 69 51 70 52 71 6 72 7 73 8 74 9 75
REMARK SMILES IDX 10 77 11 78 12 79 19 80 13 81 15 82 14 83 16 84 17 85 18 86
REMARK H PARENT 3 6 76 24 44 35 8 76 18 87
REMARK Flexibility Score: inf
ROOT
ATOM      1  C   UNL A   1      32.536  29.693  25.280  1.00  0.00     0.023 C 
ENDROOT
BRANCH   1   2
ATOM      2  C   UNL A   1      32.160  30.129  26.683  1.00  0.00     0.116 C 
BRANCH   2   3
ATOM      3  N   UNL A   1      32.013  31.575  26.814  1.00  0.00    -0.352 N 
ATOM      4  O   UNL A   1      32.567  33.649  27.527  1.00  0.00    -0.269 OA
ATOM      5  C   UNL A   1      32.887  32.476  27.381  1.00  0.00     0.251 C 
ATOM      6  H   UNL A   1      31.181  31.956  26.451  1.00  0.00     0.163 HD
BRANCH   5   7
ATOM      7  C   UNL A   1      34.203  31.985  27.839  1.00  0.00     0.039 A 
ATOM      8  C   UNL A   1      34.331  30.666  28.276  1.00  0.00     0.014 A 
ATOM      9  C   UNL A   1      35.278  32.871  27.931  1.00  0.00     0.014 A 
ATOM     10  C   UNL A   1      35.456  30.297  28.995  1.00  0.00     0.010 A 
ATOM     11  C   UNL A   1      36.463  32.451  28.542  1.00  0.00     0.010 A 
ATOM     12  C   UNL A   1      36.545  31.176  29.126  1.00  0.00    -0.014 A 
BRANCH  12  13
ATOM     13  C   UNL A   1      37.757  30.711  29.851  1.00  0.00     0.031 A 
ATOM     14  C   UNL A   1      38.025  31.121  31.275  1.00  0.00     0.074 A 
ATOM     15  C   UNL A   1      38.591  29.859  29.223  1.00  0.00     0.049 A 
ATOM     16  N   UNL A   1      39.018  30.778  32.057  1.00  0.00    -0.248 NA
ATOM     17  C   UNL A   1      37.065  32.043  31.900  1.00  0.00     0.031 C 
ATOM     18  C   UNL A   1      38.428  29.389  27.842  1.00  0.00     0.029 A 
ATOM     19  N   UNL A   1      39.717  29.212  29.657  1.00  0.00    -0.354 N 
ATOM     20  C   UNL A   1      38.820  31.461  33.254  1.00  0.00     0.074 A 
ATOM     21  C   UNL A   1      37.628  32.264  33.079  1.00  0.00     0.031 C 
ATOM     22  C   UNL A   1      39.370  28.478  27.572  1.00  0.00     0.029 A 
ATOM     23  C   UNL A   1      40.263  28.368  28.718  1.00  0.00     0.049 A 
ATOM     24  H   UNL A   1      40.100  29.338  30.556  1.00  0.00     0.167 HD
ATOM     25  C   UNL A   1      39.563  31.415  34.390  1.00  0.00     0.034 A 
ATOM     26  C   UNL A   1      41.373  27.607  28.759  1.00  0.00     0.034 A 
ATOM     27  C   UNL A   1      40.746  30.598  34.542  1.00  0.00     0.049 A 
ATOM     28  C   UNL A   1      42.201  27.613  30.013  1.00  0.00     0.074 A 
ATOM     29  C   UNL A   1      41.552  30.449  35.658  1.00  0.00     0.029 A 
ATOM     30  N   UNL A   1      41.303  29.801  33.548  1.00  0.00    -0.354 N 
ATOM     31  N   UNL A   1      41.991  28.253  31.140  1.00  0.00    -0.248 NA
ATOM     32  C   UNL A   1      43.413  26.788  30.003  1.00  0.00     0.031 C 
ATOM     33  C   UNL A   1      42.637  29.636  35.315  1.00  0.00     0.029 A 
ATOM     34  C   UNL A   1      42.460  29.192  34.013  1.00  0.00     0.049 A 
ATOM     35  H   UNL A   1      40.930  29.686  32.644  1.00  0.00     0.167 HD
ATOM     36  C   UNL A   1      43.030  27.878  31.986  1.00  0.00     0.074 A 
ATOM     37  C   UNL A   1      43.850  26.943  31.242  1.00  0.00     0.031 C 
ATOM     38  C   UNL A   1      43.280  28.269  33.262  1.00  0.00     0.034 A 
BRANCH  25  39
ATOM     39  C   UNL A   1      39.152  32.314  35.535  1.00  0.00     0.023 A 
ATOM     40  C   UNL A   1      39.585  33.648  35.632  1.00  0.00     0.031 A 
ATOM     41  C   UNL A   1      38.322  31.820  36.559  1.00  0.00     0.131 A 
ATOM     42  C   UNL A   1      39.250  34.414  36.761  1.00  0.00     0.055 A 
ATOM     43  C   UNL A   1      37.921  32.615  37.635  1.00  0.00     0.041 A 
ATOM     44  F   UNL A   1      37.893  30.549  36.537  1.00  0.00    -0.206 F 
ATOM     45  C   UNL A   1      38.398  33.916  37.749  1.00  0.00     0.022 A 
BRANCH  42  46
ATOM     46  S   UNL A   1      40.070  36.016  36.995  1.00  0.00     0.124 S 
ATOM     47  O   UNL A   1      41.449  35.606  37.255  1.00  0.00    -0.237 OA
ATOM     48  O   UNL A   1      39.831  36.682  35.720  1.00  0.00    -0.237 OA
ATOM     49  O   UNL A   1      39.374  36.594  38.143  1.00  0.00    -0.744 OA
ENDBRANCH  42  46
ENDBRANCH  25  39
BRANCH  26  50
ATOM     50  C   UNL A   1      41.779  26.804  27.570  1.00  0.00     0.023 A 
ATOM     51  C   UNL A   1      41.495  25.433  27.494  1.00  0.00     0.031 A 
ATOM     52  C   UNL A   1      42.491  27.390  26.507  1.00  0.00     0.131 A 
ATOM     53  C   UNL A   1      41.965  24.683  26.405  1.00  0.00     0.055 A 
ATOM     54  C   UNL A   1      42.897  26.654  25.395  1.00  0.00     0.041 A 
ATOM     55  F   UNL A   1      42.787  28.700  26.527  1.00  0.00    -0.206 F 
ATOM     56  C   UNL A   1      42.649  25.287  25.348  1.00  0.00     0.022 A 
BRANCH  53  57
ATOM     57  S   UNL A   1      41.758  22.882  26.442  1.00  0.00     0.124 S 
ATOM     58  O   UNL A   1      42.445  22.530  27.680  1.00  0.00    -0.237 OA
ATOM     59  O   UNL A   1      40.305  22.745  26.453  1.00  0.00    -0.237 OA
ATOM     60  O   UNL A   1      42.415  22.439  25.214  1.00  0.00    -0.744 OA
ENDBRANCH  53  57
ENDBRANCH  26  50
BRANCH  38  61
ATOM     61  C   UNL A   1      44.462  27.628  33.951  1.00  0.00     0.023 A 
ATOM     62  C   UNL A   1      44.337  26.445  34.700  1.00  0.00     0.031 A 
ATOM     63  C   UNL A   1      45.728  28.237  33.887  1.00  0.00     0.131 A 
ATOM     64  C   UNL A   1      45.438  25.952  35.418  1.00  0.00     0.055 A 
ATOM     65  C   UNL A   1      46.838  27.699  34.540  1.00  0.00     0.041 A 
ATOM     66  F   UNL A   1      45.908  29.372  33.193  1.00  0.00    -0.206 F 
ATOM     67  C   UNL A   1      46.693  26.560  35.326  1.00  0.00     0.022 A 
BRANCH  64  68
ATOM     68  S   UNL A   1      45.176  24.583  36.580  1.00  0.00     0.124 S 
ATOM     69  O   UNL A   1      46.532  24.325  37.052  1.00  0.00    -0.237 OA
ATOM     70  O   UNL A   1      44.263  25.170  37.554  1.00  0.00    -0.237 OA
ATOM     71  O   UNL A   1      44.599  23.531  35.745  1.00  0.00    -0.744 OA
ENDBRANCH  64  68
ENDBRANCH  38  61
ENDBRANCH  12  13
ENDBRANCH   5   7
ENDBRANCH   2   3
ENDBRANCH   1   2
BRANCH   1  72
ATOM     72  C   UNL A   1      31.745  28.501  24.756  1.00  0.00     0.023 C 
BRANCH  72  73
ATOM     73  C   UNL A   1      32.506  27.623  23.761  1.00  0.00     0.116 C 
BRANCH  73  74
ATOM     74  N   UNL A   1      33.628  26.958  24.394  1.00  0.00    -0.356 N 
ATOM     75  C   UNL A   1      33.737  25.680  24.854  1.00  0.00     0.225 C 
ATOM     76  H   UNL A   1      34.432  27.513  24.508  1.00  0.00     0.163 HD
ATOM     77  O   UNL A   1      34.803  25.347  25.370  1.00  0.00    -0.275 OA
BRANCH  75  78
ATOM     78  C   UNL A   1      32.606  24.690  24.610  1.00  0.00     0.107 C 
ATOM     79  C   UNL A   1      31.515  24.685  25.681  1.00  0.00     0.115 C 
ATOM     80  C   UNL A   1      33.106  23.250  24.599  1.00  0.00     0.133 C 
ATOM     81  C   UNL A   1      31.852  23.523  26.564  1.00  0.00     0.223 C 
ATOM     82  N   UNL A   1      32.790  22.752  25.917  1.00  0.00    -0.340 N 
ATOM     83  O   UNL A   1      31.325  23.285  27.642  1.00  0.00    -0.275 OA
BRANCH  82  84
ATOM     84  C   UNL A   1      33.330  21.519  26.470  1.00  0.00     0.147 C 
BRANCH  84  85
ATOM     85  C   UNL A   1      33.029  20.306  25.591  1.00  0.00     0.177 C 
BRANCH  85  86
ATOM     86  O   UNL A   1      32.972  19.107  26.362  1.00  0.00    -0.395 OA
ATOM     87  H   UNL A   1      33.853  18.701  26.394  1.00  0.00     0.210 HD
ENDBRANCH  85  86
ENDBRANCH  84  85
ENDBRANCH  82  84
ENDBRANCH  75  78
ENDBRANCH  73  74
ENDBRANCH  72  73
ENDBRANCH   1  72
TORSDOF 17
ENDMDL
MODEL 3
REMARK VINA RESULT:     -10.9      5.155     10.770
REMARK SMILES O=C(NCCCCNC(=O)[C@@H]1CC(=O)N(CCO)C1)c1ccc(-c2c3nc(c(-c4cc(S(=O)(=O)[O-])ccc4F)c4ccc([nH]4)c(-c4cc(S(=O)(=O)[O-])ccc4F)c4nc(c(-c5cc(S(=O)(=O)[O-])ccc5F)c5ccc2[nH]5)C=C4)C=C3)cc1
REMARK SMILES IDX 5 1 4 2 3 3 1 4 2 5 20 7 21 8 82 9 22 10 81 11 23 12 24 13
REMARK SMILES IDX 25 14 75 15 26 16 80 17 74 18 76 19 27 20 79 21 73 22 72 23
REMARK SMILES IDX 28 25 60 26 40 27 59 28 41 29 44 30 58 31 77 32 42 33 43 34
REMARK SMILES IDX 57 36 78 37 45 38 29 39 30 40 38 41 31 42 37 43 39 44 36 45
REMARK SMILES IDX 32 46 33 47 34 48 35 49 61 50 62 51 70 52 63 53 69 54 71 55
REMARK SMILES IDX 68 56 64 57 65 58 66 59 67 60 46 61 47 62 55 63 48 64 54 65
REMARK SMILES IDX 56 66 53 67 49 68 50 69 51 70 52 71 6 72 7 73 8 74 9 75
REMARK SMILES IDX 10 77 11 78 12 79 19 80 13 81 15 82 14 83 16 84 17 85 18 86
REMARK H PARENT 3 6 76 24 44 35 8 76 18 87
REMARK Flexibility Score: inf
ROOT
ATOM      1  C   UNL A   1      36.008  21.351  25.336  1.00  0.00     0.023 C 
ENDROOT
BRANCH   1   2
ATOM      2  C   UNL A   1      37.465  21.747  25.197  1.00  0.00     0.116 C 
BRANCH   2   3
ATOM      3  N   UNL A   1      38.388  20.675  25.557  1.00  0.00    -0.352 N 
ATOM      4  O   UNL A   1      40.309  19.788  26.356  1.00  0.00    -0.269 OA
ATOM      5  C   UNL A   1      39.583  20.767  26.235  1.00  0.00     0.251 C 
ATOM      6  H   UNL A   1      38.121  19.770  25.279  1.00  0.00     0.163 HD
BRANCH   5   7
ATOM      7  C   UNL A   1      39.983  22.081  26.781  1.00  0.00     0.039 A 
ATOM      8  C   UNL A   1      39.434  23.245  26.242  1.00  0.00     0.014 A 
ATOM      9  C   UNL A   1      40.979  22.150  27.755  1.00  0.00     0.014 A 
ATOM     10  C   UNL A   1      40.029  24.465  26.519  1.00  0.00     0.010 A 
ATOM     11  C   UNL A   1      41.487  23.398  28.129  1.00  0.00     0.010 A 
ATOM     12  C   UNL A   1      41.052  24.563  27.477  1.00  0.00    -0.014 A 
BRANCH  12  13
ATOM     13  C   UNL A   1      41.615  25.905  27.787  1.00  0.00     0.031 A 
ATOM     14  C   UNL A   1      42.959  26.333  27.261  1.00  0.00     0.074 A 
ATOM     15  C   UNL A   1      40.865  26.762  28.510  1.00  0.00     0.049 A 
ATOM     16  N   UNL A   1      43.577  27.478  27.414  1.00  0.00    -0.248 NA
ATOM     17  C   UNL A   1      43.714  25.349  26.470  1.00  0.00     0.031 C 
ATOM     18  C   UNL A   1      39.544  26.455  29.068  1.00  0.00     0.029 A 
ATOM     19  N   UNL A   1      41.081  28.064  28.874  1.00  0.00    -0.354 N 
ATOM     20  C   UNL A   1      44.801  27.345  26.767  1.00  0.00     0.074 A 
ATOM     21  C   UNL A   1      44.851  25.994  26.248  1.00  0.00     0.031 C 
ATOM     22  C   UNL A   1      39.039  27.557  29.636  1.00  0.00     0.029 A 
ATOM     23  C   UNL A   1      40.033  28.619  29.572  1.00  0.00     0.049 A 
ATOM     24  H   UNL A   1      41.905  28.556  28.656  1.00  0.00     0.167 HD
ATOM     25  C   UNL A   1      45.786  28.268  26.618  1.00  0.00     0.034 A 
ATOM     26  C   UNL A   1      39.894  29.839  30.125  1.00  0.00     0.034 A 
ATOM     27  C   UNL A   1      45.711  29.614  27.140  1.00  0.00     0.049 A 
ATOM     28  C   UNL A   1      41.021  30.824  29.984  1.00  0.00     0.074 A 
ATOM     29  C   UNL A   1      46.633  30.639  27.017  1.00  0.00     0.029 A 
ATOM     30  N   UNL A   1      44.659  30.123  27.894  1.00  0.00    -0.354 N 
ATOM     31  N   UNL A   1      42.166  30.686  29.356  1.00  0.00    -0.248 NA
ATOM     32  C   UNL A   1      40.834  32.131  30.622  1.00  0.00     0.031 C 
ATOM     33  C   UNL A   1      46.183  31.731  27.765  1.00  0.00     0.029 A 
ATOM     34  C   UNL A   1      44.930  31.430  28.275  1.00  0.00     0.049 A 
ATOM     35  H   UNL A   1      43.840  29.627  28.125  1.00  0.00     0.167 HD
ATOM     36  C   UNL A   1      42.821  31.906  29.495  1.00  0.00     0.074 A 
ATOM     37  C   UNL A   1      41.933  32.767  30.249  1.00  0.00     0.031 C 
ATOM     38  C   UNL A   1      44.044  32.280  29.037  1.00  0.00     0.034 A 
BRANCH  25  39
ATOM     39  C   UNL A   1      47.053  27.836  25.913  1.00  0.00     0.023 A 
ATOM     40  C   UNL A   1      47.265  28.073  24.543  1.00  0.00     0.031 A 
ATOM     41  C   UNL A   1      48.063  27.160  26.623  1.00  0.00     0.131 A 
ATOM     42  C   UNL A   1      48.418  27.572  23.915  1.00  0.00     0.055 A 
ATOM     43  C   UNL A   1      49.246  26.742  26.010  1.00  0.00     0.041 A 
ATOM     44  F   UNL A   1      47.912  26.883  27.927  1.00  0.00    -0.206 F 
ATOM     45  C   UNL A   1      49.422  26.933  24.644  1.00  0.00     0.022 A 
BRANCH  42  46
ATOM     46  S   UNL A   1      48.512  27.632  22.103  1.00  0.00     0.124 S 
ATOM     47  O   UNL A   1      48.798  26.236  21.776  1.00  0.00    -0.237 OA
ATOM     48  O   UNL A   1      47.187  28.116  21.735  1.00  0.00    -0.237 OA
ATOM     49  O   UNL A   1      49.610  28.561  21.847  1.00  0.00    -0.744 OA
ENDBRANCH  42  46
ENDBRANCH  25  39
BRANCH  26  50
ATOM     50  C   UNL A   1      38.657  30.185  30.882  1.00  0.00     0.023 A 
ATOM     51  C   UNL A   1      37.625  30.922  30.283  1.00  0.00     0.031 A 
ATOM     52  C   UNL A   1      38.507  29.815  32.232  1.00  0.00     0.131 A 
ATOM     53  C   UNL A   1      36.513  31.309  31.044  1.00  0.00     0.055 A 
ATOM     54  C   UNL A   1      37.367  30.144  32.965  1.00  0.00     0.041 A 
ATOM     55  F   UNL A   1      39.463  29.106  32.854  1.00  0.00    -0.206 F 
ATOM     56  C   UNL A   1      36.368  30.911  32.376  1.00  0.00     0.022 A 
BRANCH  53  57
ATOM     57  S   UNL A   1      35.301  32.431  30.295  1.00  0.00     0.124 S 
ATOM     58  O   UNL A   1      34.386  32.663  31.407  1.00  0.00    -0.237 OA
ATOM     59  O   UNL A   1      36.138  33.562  29.905  1.00  0.00    -0.237 OA
ATOM     60  O   UNL A   1      34.755  31.650  29.187  1.00  0.00    -0.744 OA
ENDBRANCH  53  57
ENDBRANCH  26  50
BRANCH  38  61
ATOM     61  C   UNL A   1      44.458  33.710  29.292  1.00  0.00     0.023 A 
ATOM     62  C   UNL A   1      44.108  34.755  28.418  1.00  0.00     0.031 A 
ATOM     63  C   UNL A   1      45.251  34.024  30.411  1.00  0.00     0.131 A 
ATOM     64  C   UNL A   1      44.615  36.046  28.633  1.00  0.00     0.055 A 
ATOM     65  C   UNL A   1      45.686  35.326  30.662  1.00  0.00     0.041 A 
ATOM     66  F   UNL A   1      45.622  33.068  31.277  1.00  0.00    -0.206 F 
ATOM     67  C   UNL A   1      45.384  36.343  29.762  1.00  0.00     0.022 A 
BRANCH  64  68
ATOM     68  S   UNL A   1      44.365  37.304  27.350  1.00  0.00     0.124 S 
ATOM     69  O   UNL A   1      44.256  38.525  28.141  1.00  0.00    -0.237 OA
ATOM     70  O   UNL A   1      45.574  37.172  26.545  1.00  0.00    -0.237 OA
ATOM     71  O   UNL A   1      43.132  36.880  26.689  1.00  0.00    -0.744 OA
ENDBRANCH  64  68
ENDBRANCH  38  61
ENDBRANCH  12  13
ENDBRANCH   5   7
ENDBRANCH   2   3
ENDBRANCH   1   2
BRANCH   1  72
ATOM     72  C   UNL A   1      35.137  22.388  26.035  1.00  0.00     0.023 C 
BRANCH  72  73
ATOM     73  C   UNL A   1      35.529  23.840  25.752  1.00  0.00     0.116 C 
BRANCH  73  74
ATOM     74  N   UNL A   1      34.975  24.302  24.495  1.00  0.00    -0.356 N 
ATOM     75  C   UNL A   1      34.016  25.239  24.258  1.00  0.00     0.225 C 
ATOM     76  H   UNL A   1      35.350  23.874  23.692  1.00  0.00     0.163 HD
ATOM     77  O   UNL A   1      33.702  25.452  23.087  1.00  0.00    -0.275 OA
BRANCH  75  78
ATOM     78  C   UNL A   1      33.461  26.062  25.412  1.00  0.00     0.107 C 
ATOM     79  C   UNL A   1      32.046  25.681  25.851  1.00  0.00     0.115 C 
ATOM     80  C   UNL A   1      33.341  27.538  25.050  1.00  0.00     0.133 C 
ATOM     81  C   UNL A   1      31.158  26.687  25.187  1.00  0.00     0.223 C 
ATOM     82  N   UNL A   1      31.947  27.711  24.715  1.00  0.00    -0.340 N 
ATOM     83  O   UNL A   1      29.936  26.622  25.140  1.00  0.00    -0.275 OA
BRANCH  82  84
ATOM     84  C   UNL A   1      31.415  28.883  24.037  1.00  0.00     0.147 C 
BRANCH  84  85
ATOM     85  C   UNL A   1      31.118  28.618  22.562  1.00  0.00     0.177 C 
BRANCH  85  86
ATOM     86  O   UNL A   1      31.295  29.795  21.776  1.00  0.00    -0.395 OA
ATOM     87  H   UNL A   1      30.496  29.955  21.249  1.00  0.00     0.210 HD
ENDBRANCH  85  86
ENDBRANCH  84  85
ENDBRANCH  82  84
ENDBRANCH  75  78
ENDBRANCH  73  74
ENDBRANCH  72  73
ENDBRANCH   1  72
TORSDOF 17
ENDMDL
