MODEL 1
REMARK VINA RESULT:     -13.1      0.000      0.000
REMARK SMILES O=C(NCCCCNC(=O)c1oc2cccc3c2c1CCC3)c1ccc(-c2c3nc(c(-c4cc(S(=O)(=O)[O-])ccc4F)c4ccc([nH]4)c(-c4cc(S(=O)(=O)[O-])ccc4F)c4nc(c(-c5cc(S(=O)(=O)[O-])ccc5F)c5ccc2[nH]5)C=C4)C=C3)cc1
REMARK SMILES IDX 4 1 3 2 1 3 2 4 23 6 24 7 85 8 25 9 84 10 26 11 27 12 28 13
REMARK SMILES IDX 78 14 29 15 83 16 77 17 79 18 30 19 82 20 76 21 75 22 31 24
REMARK SMILES IDX 63 25 43 26 62 27 44 28 47 29 61 30 80 31 45 32 46 33 60 35
REMARK SMILES IDX 81 36 48 37 32 38 33 39 41 40 34 41 40 42 42 43 39 44 35 45
REMARK SMILES IDX 36 46 37 47 38 48 64 49 65 50 73 51 66 52 72 53 74 54 71 55
REMARK SMILES IDX 67 56 68 57 69 58 70 59 49 60 50 61 58 62 51 63 57 64 59 65
REMARK SMILES IDX 56 66 52 67 53 68 54 69 55 70 5 71 6 72 7 73 8 74 9 75 10 77
REMARK SMILES IDX 11 78 12 79 19 80 13 81 18 82 20 83 14 84 17 85 21 86 15 87
REMARK SMILES IDX 16 88 22 89
REMARK H PARENT 3 5 79 23 47 34 8 76
REMARK Flexibility Score: inf
ROOT
ATOM      1  C   UNL A   1      35.279  21.263  25.655  1.00  0.00     0.116 C 
ENDROOT
BRANCH   1   2
ATOM      2  N   UNL A   1      36.333  20.484  25.033  1.00  0.00    -0.352 N 
ATOM      3  O   UNL A   1      38.274  19.531  24.564  1.00  0.00    -0.269 OA
ATOM      4  C   UNL A   1      37.700  20.452  25.151  1.00  0.00     0.251 C 
ATOM      5  H   UNL A   1      35.991  19.830  24.380  1.00  0.00     0.163 HD
BRANCH   4   6
ATOM      6  C   UNL A   1      38.515  21.469  25.872  1.00  0.00     0.039 A 
ATOM      7  C   UNL A   1      38.217  22.828  25.929  1.00  0.00     0.014 A 
ATOM      8  C   UNL A   1      39.667  21.008  26.543  1.00  0.00     0.014 A 
ATOM      9  C   UNL A   1      39.093  23.715  26.545  1.00  0.00     0.010 A 
ATOM     10  C   UNL A   1      40.530  21.891  27.197  1.00  0.00     0.010 A 
ATOM     11  C   UNL A   1      40.253  23.252  27.177  1.00  0.00    -0.014 A 
BRANCH  11  12
ATOM     12  C   UNL A   1      41.017  24.246  27.927  1.00  0.00     0.031 A 
ATOM     13  C   UNL A   1      40.342  25.564  28.093  1.00  0.00     0.074 A 
ATOM     14  C   UNL A   1      42.211  24.064  28.520  1.00  0.00     0.049 A 
ATOM     15  N   UNL A   1      40.637  26.692  27.532  1.00  0.00    -0.248 NA
ATOM     16  C   UNL A   1      39.126  25.595  28.913  1.00  0.00     0.031 C 
ATOM     17  C   UNL A   1      42.901  22.811  28.817  1.00  0.00     0.029 A 
ATOM     18  N   UNL A   1      43.027  25.015  29.059  1.00  0.00    -0.354 N 
ATOM     19  C   UNL A   1      39.748  27.627  28.059  1.00  0.00     0.074 A 
ATOM     20  C   UNL A   1      38.764  26.873  28.797  1.00  0.00     0.031 C 
ATOM     21  C   UNL A   1      43.929  23.067  29.661  1.00  0.00     0.029 A 
ATOM     22  C   UNL A   1      44.056  24.507  29.833  1.00  0.00     0.049 A 
ATOM     23  H   UNL A   1      42.896  25.979  28.911  1.00  0.00     0.167 HD
ATOM     24  C   UNL A   1      39.974  28.971  27.996  1.00  0.00     0.034 A 
ATOM     25  C   UNL A   1      44.906  25.221  30.608  1.00  0.00     0.034 A 
ATOM     26  C   UNL A   1      41.025  29.296  27.074  1.00  0.00     0.049 A 
ATOM     27  C   UNL A   1      44.899  26.633  30.156  1.00  0.00     0.074 A 
ATOM     28  C   UNL A   1      41.221  29.158  25.716  1.00  0.00     0.029 A 
ATOM     29  N   UNL A   1      42.251  29.608  27.605  1.00  0.00    -0.354 N 
ATOM     30  N   UNL A   1      45.427  27.064  29.045  1.00  0.00    -0.248 NA
ATOM     31  C   UNL A   1      44.007  27.568  30.823  1.00  0.00     0.031 C 
ATOM     32  C   UNL A   1      42.623  28.964  25.558  1.00  0.00     0.029 A 
ATOM     33  C   UNL A   1      43.204  29.009  26.827  1.00  0.00     0.049 A 
ATOM     34  H   UNL A   1      42.415  30.163  28.403  1.00  0.00     0.167 HD
ATOM     35  C   UNL A   1      44.620  28.121  28.660  1.00  0.00     0.074 A 
ATOM     36  C   UNL A   1      43.868  28.476  29.857  1.00  0.00     0.031 C 
ATOM     37  C   UNL A   1      44.427  28.425  27.343  1.00  0.00     0.034 A 
BRANCH  24  38
ATOM     38  C   UNL A   1      39.454  29.975  28.997  1.00  0.00     0.023 A 
ATOM     39  C   UNL A   1      38.388  30.848  28.709  1.00  0.00     0.031 A 
ATOM     40  C   UNL A   1      39.858  29.924  30.348  1.00  0.00     0.131 A 
ATOM     41  C   UNL A   1      37.794  31.634  29.704  1.00  0.00     0.055 A 
ATOM     42  C   UNL A   1      39.216  30.656  31.356  1.00  0.00     0.041 A 
ATOM     43  F   UNL A   1      40.852  29.113  30.743  1.00  0.00    -0.206 F 
ATOM     44  C   UNL A   1      38.178  31.521  31.035  1.00  0.00     0.022 A 
BRANCH  41  45
ATOM     45  S   UNL A   1      36.487  32.815  29.272  1.00  0.00     0.124 S 
ATOM     46  O   UNL A   1      36.022  32.292  27.992  1.00  0.00    -0.237 OA
ATOM     47  O   UNL A   1      35.565  32.658  30.395  1.00  0.00    -0.237 OA
ATOM     48  O   UNL A   1      37.187  34.095  29.222  1.00  0.00    -0.744 OA
ENDBRANCH  41  45
ENDBRANCH  24  38
BRANCH  25  49
ATOM     49  C   UNL A   1      45.476  24.838  31.918  1.00  0.00     0.023 A 
ATOM     50  C   UNL A   1      44.652  24.258  32.900  1.00  0.00     0.031 A 
ATOM     51  C   UNL A   1      46.736  25.308  32.327  1.00  0.00     0.131 A 
ATOM     52  C   UNL A   1      45.065  24.212  34.238  1.00  0.00     0.055 A 
ATOM     53  C   UNL A   1      47.150  25.253  33.662  1.00  0.00     0.041 A 
ATOM     54  F   UNL A   1      47.564  25.894  31.448  1.00  0.00    -0.206 F 
ATOM     55  C   UNL A   1      46.307  24.714  34.629  1.00  0.00     0.022 A 
BRANCH  52  56
ATOM     56  S   UNL A   1      43.957  23.530  35.502  1.00  0.00     0.124 S 
ATOM     57  O   UNL A   1      42.699  23.376  34.774  1.00  0.00    -0.237 OA
ATOM     58  O   UNL A   1      44.635  22.288  35.855  1.00  0.00    -0.237 OA
ATOM     59  O   UNL A   1      43.947  24.566  36.530  1.00  0.00    -0.744 OA
ENDBRANCH  52  56
ENDBRANCH  25  49
BRANCH  37  60
ATOM     60  C   UNL A   1      45.382  27.876  26.312  1.00  0.00     0.023 A 
ATOM     61  C   UNL A   1      45.241  26.518  25.970  1.00  0.00     0.031 A 
ATOM     62  C   UNL A   1      46.517  28.556  25.834  1.00  0.00     0.131 A 
ATOM     63  C   UNL A   1      46.222  25.873  25.210  1.00  0.00     0.055 A 
ATOM     64  C   UNL A   1      47.457  27.927  25.013  1.00  0.00     0.041 A 
ATOM     65  F   UNL A   1      46.795  29.811  26.217  1.00  0.00    -0.206 F 
ATOM     66  C   UNL A   1      47.322  26.576  24.709  1.00  0.00     0.022 A 
BRANCH  63  67
ATOM     67  S   UNL A   1      46.171  24.078  24.976  1.00  0.00     0.124 S 
ATOM     68  O   UNL A   1      47.048  23.889  23.823  1.00  0.00    -0.237 OA
ATOM     69  O   UNL A   1      46.697  23.587  26.249  1.00  0.00    -0.237 OA
ATOM     70  O   UNL A   1      44.760  23.789  24.739  1.00  0.00    -0.744 OA
ENDBRANCH  63  67
ENDBRANCH  37  60
ENDBRANCH  11  12
ENDBRANCH   4   6
ENDBRANCH   1   2
BRANCH   1  71
ATOM     71  C   UNL A   1      34.140  21.694  24.730  1.00  0.00     0.023 C 
BRANCH  71  72
ATOM     72  C   UNL A   1      33.845  23.193  24.695  1.00  0.00     0.023 C 
BRANCH  72  73
ATOM     73  C   UNL A   1      33.573  23.846  26.045  1.00  0.00     0.116 C 
BRANCH  73  74
ATOM     74  N   UNL A   1      32.281  23.501  26.607  1.00  0.00    -0.349 N 
ATOM     75  C   UNL A   1      31.110  24.233  26.589  1.00  0.00     0.287 C 
ATOM     76  H   UNL A   1      32.232  22.629  27.062  1.00  0.00     0.163 HD
ATOM     77  O   UNL A   1      30.148  23.791  27.205  1.00  0.00    -0.266 OA
BRANCH  75  78
ATOM     78  C   UNL A   1      31.087  25.483  25.858  1.00  0.00     0.195 A 
ATOM     79  O   UNL A   1      30.536  25.468  24.587  1.00  0.00    -0.451 OA
ATOM     80  C   UNL A   1      31.505  26.768  26.159  1.00  0.00     0.012 A 
ATOM     81  C   UNL A   1      30.529  26.752  24.127  1.00  0.00     0.135 A 
ATOM     82  C   UNL A   1      31.110  27.563  25.069  1.00  0.00     0.028 A 
ATOM     83  C   UNL A   1      32.185  27.422  27.313  1.00  0.00     0.041 C 
ATOM     84  C   UNL A   1      30.024  27.244  22.932  1.00  0.00     0.048 A 
ATOM     85  C   UNL A   1      31.245  28.940  24.903  1.00  0.00    -0.037 A 
ATOM     86  C   UNL A   1      32.808  28.786  26.881  1.00  0.00     0.010 C 
ATOM     87  C   UNL A   1      30.127  28.638  22.757  1.00  0.00     0.004 A 
ATOM     88  C   UNL A   1      30.717  29.477  23.725  1.00  0.00     0.004 A 
ATOM     89  C   UNL A   1      31.860  29.701  26.045  1.00  0.00     0.036 C 
ENDBRANCH  75  78
ENDBRANCH  73  74
ENDBRANCH  72  73
ENDBRANCH  71  72
ENDBRANCH   1  71
TORSDOF 14
ENDMDL
MODEL 2
REMARK VINA RESULT:     -12.9      4.873      9.791
REMARK SMILES O=C(NCCCCNC(=O)c1oc2cccc3c2c1CCC3)c1ccc(-c2c3nc(c(-c4cc(S(=O)(=O)[O-])ccc4F)c4ccc([nH]4)c(-c4cc(S(=O)(=O)[O-])ccc4F)c4nc(c(-c5cc(S(=O)(=O)[O-])ccc5F)c5ccc2[nH]5)C=C4)C=C3)cc1
REMARK SMILES IDX 4 1 3 2 1 3 2 4 23 6 24 7 85 8 25 9 84 10 26 11 27 12 28 13
REMARK SMILES IDX 78 14 29 15 83 16 77 17 79 18 30 19 82 20 76 21 75 22 31 24
REMARK SMILES IDX 63 25 43 26 62 27 44 28 47 29 61 30 80 31 45 32 46 33 60 35
REMARK SMILES IDX 81 36 48 37 32 38 33 39 41 40 34 41 40 42 42 43 39 44 35 45
REMARK SMILES IDX 36 46 37 47 38 48 64 49 65 50 73 51 66 52 72 53 74 54 71 55
REMARK SMILES IDX 67 56 68 57 69 58 70 59 49 60 50 61 58 62 51 63 57 64 59 65
REMARK SMILES IDX 56 66 52 67 53 68 54 69 55 70 5 71 6 72 7 73 8 74 9 75 10 77
REMARK SMILES IDX 11 78 12 79 19 80 13 81 18 82 20 83 14 84 17 85 21 86 15 87
REMARK SMILES IDX 16 88 22 89
REMARK H PARENT 3 5 79 23 47 34 8 76
REMARK Flexibility Score: inf
ROOT
ATOM      1  C   UNL A   1      35.422  34.009  31.216  1.00  0.00     0.116 C 
ENDROOT
BRANCH   1   2
ATOM      2  N   UNL A   1      35.389  34.135  29.771  1.00  0.00    -0.352 N 
ATOM      3  O   UNL A   1      35.571  33.741  27.601  1.00  0.00    -0.269 OA
ATOM      4  C   UNL A   1      35.950  33.433  28.734  1.00  0.00     0.251 C 
ATOM      5  H   UNL A   1      34.840  34.894  29.465  1.00  0.00     0.163 HD
BRANCH   4   6
ATOM      6  C   UNL A   1      37.007  32.393  28.884  1.00  0.00     0.039 A 
ATOM      7  C   UNL A   1      36.857  31.055  28.528  1.00  0.00     0.014 A 
ATOM      8  C   UNL A   1      38.241  32.808  29.424  1.00  0.00     0.014 A 
ATOM      9  C   UNL A   1      37.868  30.139  28.798  1.00  0.00     0.010 A 
ATOM     10  C   UNL A   1      39.274  31.898  29.661  1.00  0.00     0.010 A 
ATOM     11  C   UNL A   1      39.076  30.554  29.368  1.00  0.00    -0.014 A 
BRANCH  11  12
ATOM     12  C   UNL A   1      40.125  29.541  29.461  1.00  0.00     0.031 A 
ATOM     13  C   UNL A   1      40.438  29.086  30.845  1.00  0.00     0.074 A 
ATOM     14  C   UNL A   1      40.768  28.953  28.437  1.00  0.00     0.049 A 
ATOM     15  N   UNL A   1      41.496  29.331  31.549  1.00  0.00    -0.248 NA
ATOM     16  C   UNL A   1      39.392  28.347  31.559  1.00  0.00     0.031 C 
ATOM     17  C   UNL A   1      40.413  28.944  27.019  1.00  0.00     0.029 A 
ATOM     18  N   UNL A   1      41.872  28.152  28.495  1.00  0.00    -0.354 N 
ATOM     19  C   UNL A   1      41.331  28.632  32.744  1.00  0.00     0.074 A 
ATOM     20  C   UNL A   1      39.969  28.157  32.746  1.00  0.00     0.031 C 
ATOM     21  C   UNL A   1      41.164  28.012  26.386  1.00  0.00     0.029 A 
ATOM     22  C   UNL A   1      42.147  27.478  27.318  1.00  0.00     0.049 A 
ATOM     23  H   UNL A   1      42.424  28.060  29.305  1.00  0.00     0.167 HD
ATOM     24  C   UNL A   1      42.374  28.345  33.576  1.00  0.00     0.034 A 
ATOM     25  C   UNL A   1      43.075  26.507  27.146  1.00  0.00     0.034 A 
ATOM     26  C   UNL A   1      43.548  29.102  33.245  1.00  0.00     0.049 A 
ATOM     27  C   UNL A   1      44.069  26.592  28.242  1.00  0.00     0.074 A 
ATOM     28  C   UNL A   1      43.883  30.439  33.220  1.00  0.00     0.029 A 
ATOM     29  N   UNL A   1      44.545  28.448  32.567  1.00  0.00    -0.354 N 
ATOM     30  N   UNL A   1      44.964  27.531  28.369  1.00  0.00    -0.248 NA
ATOM     31  C   UNL A   1      43.873  25.757  29.418  1.00  0.00     0.031 C 
ATOM     32  C   UNL A   1      44.827  30.569  32.161  1.00  0.00     0.029 A 
ATOM     33  C   UNL A   1      45.025  29.301  31.610  1.00  0.00     0.049 A 
ATOM     34  H   UNL A   1      44.859  27.530  32.737  1.00  0.00     0.167 HD
ATOM     35  C   UNL A   1      45.125  27.680  29.736  1.00  0.00     0.074 A 
ATOM     36  C   UNL A   1      44.551  26.471  30.317  1.00  0.00     0.031 C 
ATOM     37  C   UNL A   1      45.447  28.887  30.286  1.00  0.00     0.034 A 
BRANCH  24  38
ATOM     38  C   UNL A   1      42.429  27.152  34.501  1.00  0.00     0.023 A 
ATOM     39  C   UNL A   1      43.199  26.010  34.216  1.00  0.00     0.031 A 
ATOM     40  C   UNL A   1      41.896  27.225  35.805  1.00  0.00     0.131 A 
ATOM     41  C   UNL A   1      43.393  24.999  35.166  1.00  0.00     0.055 A 
ATOM     42  C   UNL A   1      42.150  26.249  36.778  1.00  0.00     0.041 A 
ATOM     43  F   UNL A   1      41.160  28.277  36.195  1.00  0.00    -0.206 F 
ATOM     44  C   UNL A   1      42.901  25.125  36.459  1.00  0.00     0.022 A 
BRANCH  41  45
ATOM     45  S   UNL A   1      44.313  23.501  34.726  1.00  0.00     0.124 S 
ATOM     46  O   UNL A   1      43.271  22.672  34.129  1.00  0.00    -0.237 OA
ATOM     47  O   UNL A   1      45.312  24.029  33.799  1.00  0.00    -0.237 OA
ATOM     48  O   UNL A   1      44.843  23.037  36.004  1.00  0.00    -0.744 OA
ENDBRANCH  41  45
ENDBRANCH  24  38
BRANCH  25  49
ATOM     49  C   UNL A   1      42.981  25.307  26.286  1.00  0.00     0.023 A 
ATOM     50  C   UNL A   1      42.100  24.265  26.628  1.00  0.00     0.031 A 
ATOM     51  C   UNL A   1      43.956  25.036  25.310  1.00  0.00     0.131 A 
ATOM     52  C   UNL A   1      42.241  22.997  26.049  1.00  0.00     0.055 A 
ATOM     53  C   UNL A   1      44.089  23.771  24.727  1.00  0.00     0.041 A 
ATOM     54  F   UNL A   1      44.844  25.977  24.953  1.00  0.00    -0.206 F 
ATOM     55  C   UNL A   1      43.237  22.739  25.105  1.00  0.00     0.022 A 
BRANCH  52  56
ATOM     56  S   UNL A   1      41.144  21.645  26.559  1.00  0.00     0.124 S 
ATOM     57  O   UNL A   1      41.681  20.503  25.822  1.00  0.00    -0.237 OA
ATOM     58  O   UNL A   1      41.356  21.617  28.001  1.00  0.00    -0.237 OA
ATOM     59  O   UNL A   1      39.829  22.098  26.116  1.00  0.00    -0.744 OA
ENDBRANCH  52  56
ENDBRANCH  25  49
BRANCH  37  60
ATOM     60  C   UNL A   1      46.011  29.972  29.404  1.00  0.00     0.023 A 
ATOM     61  C   UNL A   1      45.098  30.682  28.601  1.00  0.00     0.031 A 
ATOM     62  C   UNL A   1      47.383  30.179  29.172  1.00  0.00     0.131 A 
ATOM     63  C   UNL A   1      45.556  31.533  27.589  1.00  0.00     0.055 A 
ATOM     64  C   UNL A   1      47.836  31.086  28.210  1.00  0.00     0.041 A 
ATOM     65  F   UNL A   1      48.318  29.451  29.800  1.00  0.00    -0.206 F 
ATOM     66  C   UNL A   1      46.923  31.757  27.402  1.00  0.00     0.022 A 
BRANCH  63  67
ATOM     67  S   UNL A   1      44.396  32.253  26.399  1.00  0.00     0.124 S 
ATOM     68  O   UNL A   1      45.265  32.566  25.268  1.00  0.00    -0.237 OA
ATOM     69  O   UNL A   1      43.457  31.154  26.182  1.00  0.00    -0.237 OA
ATOM     70  O   UNL A   1      43.843  33.410  27.097  1.00  0.00    -0.744 OA
ENDBRANCH  63  67
ENDBRANCH  37  60
ENDBRANCH  11  12
ENDBRANCH   4   6
ENDBRANCH   1   2
BRANCH   1  71
ATOM     71  C   UNL A   1      34.697  32.790  31.790  1.00  0.00     0.023 C 
BRANCH  71  72
ATOM     72  C   UNL A   1      35.571  31.566  32.062  1.00  0.00     0.023 C 
BRANCH  72  73
ATOM     73  C   UNL A   1      36.946  31.853  32.653  1.00  0.00     0.116 C 
BRANCH  73  74
ATOM     74  N   UNL A   1      37.305  30.967  33.745  1.00  0.00    -0.349 N 
ATOM     75  C   UNL A   1      38.279  31.138  34.708  1.00  0.00     0.287 C 
ATOM     76  H   UNL A   1      36.785  30.133  33.807  1.00  0.00     0.163 HD
ATOM     77  O   UNL A   1      38.478  30.218  35.492  1.00  0.00    -0.266 OA
BRANCH  75  78
ATOM     78  C   UNL A   1      39.020  32.382  34.731  1.00  0.00     0.195 A 
ATOM     79  O   UNL A   1      38.661  33.320  35.686  1.00  0.00    -0.451 OA
ATOM     80  C   UNL A   1      40.073  32.876  33.980  1.00  0.00     0.012 A 
ATOM     81  C   UNL A   1      39.539  34.360  35.591  1.00  0.00     0.135 A 
ATOM     82  C   UNL A   1      40.411  34.110  34.562  1.00  0.00     0.028 A 
ATOM     83  C   UNL A   1      40.870  32.390  32.817  1.00  0.00     0.041 C 
ATOM     84  C   UNL A   1      39.619  35.503  36.372  1.00  0.00     0.048 A 
ATOM     85  C   UNL A   1      41.442  34.981  34.215  1.00  0.00    -0.037 A 
ATOM     86  C   UNL A   1      41.605  33.577  32.121  1.00  0.00     0.010 C 
ATOM     87  C   UNL A   1      40.671  36.384  36.054  1.00  0.00     0.004 A 
ATOM     88  C   UNL A   1      41.575  36.129  35.002  1.00  0.00     0.004 A 
ATOM     89  C   UNL A   1      42.347  34.546  33.094  1.00  0.00     0.036 C 
ENDBRANCH  75  78
ENDBRANCH  73  74
ENDBRANCH  72  73
ENDBRANCH  71  72
ENDBRANCH   1  71
TORSDOF 14
ENDMDL
MODEL 3
REMARK VINA RESULT:     -12.9      3.271      7.292
REMARK SMILES O=C(NCCCCNC(=O)c1oc2cccc3c2c1CCC3)c1ccc(-c2c3nc(c(-c4cc(S(=O)(=O)[O-])ccc4F)c4ccc([nH]4)c(-c4cc(S(=O)(=O)[O-])ccc4F)c4nc(c(-c5cc(S(=O)(=O)[O-])ccc5F)c5ccc2[nH]5)C=C4)C=C3)cc1
REMARK SMILES IDX 4 1 3 2 1 3 2 4 23 6 24 7 85 8 25 9 84 10 26 11 27 12 28 13
REMARK SMILES IDX 78 14 29 15 83 16 77 17 79 18 30 19 82 20 76 21 75 22 31 24
REMARK SMILES IDX 63 25 43 26 62 27 44 28 47 29 61 30 80 31 45 32 46 33 60 35
REMARK SMILES IDX 81 36 48 37 32 38 33 39 41 40 34 41 40 42 42 43 39 44 35 45
REMARK SMILES IDX 36 46 37 47 38 48 64 49 65 50 73 51 66 52 72 53 74 54 71 55
REMARK SMILES IDX 67 56 68 57 69 58 70 59 49 60 50 61 58 62 51 63 57 64 59 65
REMARK SMILES IDX 56 66 52 67 53 68 54 69 55 70 5 71 6 72 7 73 8 74 9 75 10 77
REMARK SMILES IDX 11 78 12 79 19 80 13 81 18 82 20 83 14 84 17 85 21 86 15 87
REMARK SMILES IDX 16 88 22 89
REMARK H PARENT 3 5 79 23 47 34 8 76
REMARK Flexibility Score: inf
ROOT
ATOM      1  C   UNL A   1      33.223  29.154  27.295  1.00  0.00     0.116 C 
ENDROOT
BRANCH   1   2
ATOM      2  N   UNL A   1      33.648  30.505  27.613  1.00  0.00    -0.352 N 
ATOM      3  O   UNL A   1      34.864  32.316  27.981  1.00  0.00    -0.269 OA
ATOM      4  C   UNL A   1      34.854  31.084  27.919  1.00  0.00     0.251 C 
ATOM      5  H   UNL A   1      32.904  31.151  27.606  1.00  0.00     0.163 HD
BRANCH   4   6
ATOM      6  C   UNL A   1      36.102  30.334  28.234  1.00  0.00     0.039 A 
ATOM      7  C   UNL A   1      37.162  30.155  27.350  1.00  0.00     0.014 A 
ATOM      8  C   UNL A   1      36.203  29.773  29.523  1.00  0.00     0.014 A 
ATOM      9  C   UNL A   1      38.244  29.355  27.702  1.00  0.00     0.010 A 
ATOM     10  C   UNL A   1      37.307  29.001  29.896  1.00  0.00     0.010 A 
ATOM     11  C   UNL A   1      38.319  28.772  28.972  1.00  0.00    -0.014 A 
BRANCH  11  12
ATOM     12  C   UNL A   1      39.569  28.086  29.291  1.00  0.00     0.031 A 
ATOM     13  C   UNL A   1      40.024  28.233  30.702  1.00  0.00     0.074 A 
ATOM     14  C   UNL A   1      40.289  27.303  28.469  1.00  0.00     0.049 A 
ATOM     15  N   UNL A   1      41.025  28.917  31.154  1.00  0.00    -0.248 NA
ATOM     16  C   UNL A   1      39.193  27.616  31.741  1.00  0.00     0.031 C 
ATOM     17  C   UNL A   1      39.894  26.712  27.192  1.00  0.00     0.029 A 
ATOM     18  N   UNL A   1      41.544  26.807  28.676  1.00  0.00    -0.354 N 
ATOM     19  C   UNL A   1      41.062  28.682  32.527  1.00  0.00     0.074 A 
ATOM     20  C   UNL A   1      39.839  27.986  32.848  1.00  0.00     0.031 C 
ATOM     21  C   UNL A   1      40.810  25.777  26.841  1.00  0.00     0.029 A 
ATOM     22  C   UNL A   1      41.920  25.820  27.782  1.00  0.00     0.049 A 
ATOM     23  H   UNL A   1      42.132  27.125  29.400  1.00  0.00     0.167 HD
ATOM     24  C   UNL A   1      42.171  28.925  33.284  1.00  0.00     0.034 A 
ATOM     25  C   UNL A   1      43.032  25.052  27.855  1.00  0.00     0.034 A 
ATOM     26  C   UNL A   1      43.136  29.722  32.581  1.00  0.00     0.049 A 
ATOM     27  C   UNL A   1      44.021  25.720  28.734  1.00  0.00     0.074 A 
ATOM     28  C   UNL A   1      43.166  30.996  32.056  1.00  0.00     0.029 A 
ATOM     29  N   UNL A   1      44.229  29.073  32.064  1.00  0.00    -0.354 N 
ATOM     30  N   UNL A   1      44.690  26.795  28.426  1.00  0.00    -0.248 NA
ATOM     31  C   UNL A   1      44.057  25.348  30.141  1.00  0.00     0.031 C 
ATOM     32  C   UNL A   1      44.019  30.914  30.919  1.00  0.00     0.029 A 
ATOM     33  C   UNL A   1      44.473  29.596  30.823  1.00  0.00     0.049 A 
ATOM     34  H   UNL A   1      44.744  28.358  32.505  1.00  0.00     0.167 HD
ATOM     35  C   UNL A   1      44.862  27.458  29.629  1.00  0.00     0.074 A 
ATOM     36  C   UNL A   1      44.592  26.456  30.653  1.00  0.00     0.031 C 
ATOM     37  C   UNL A   1      44.929  28.820  29.687  1.00  0.00     0.034 A 
BRANCH  24  38
ATOM     38  C   UNL A   1      42.522  28.183  34.552  1.00  0.00     0.023 A 
ATOM     39  C   UNL A   1      42.894  26.827  34.557  1.00  0.00     0.031 A 
ATOM     40  C   UNL A   1      42.720  28.879  35.764  1.00  0.00     0.131 A 
ATOM     41  C   UNL A   1      43.400  26.208  35.707  1.00  0.00     0.055 A 
ATOM     42  C   UNL A   1      43.293  28.279  36.893  1.00  0.00     0.041 A 
ATOM     43  F   UNL A   1      42.417  30.182  35.871  1.00  0.00    -0.206 F 
ATOM     44  C   UNL A   1      43.634  26.933  36.869  1.00  0.00     0.022 A 
BRANCH  41  45
ATOM     45  S   UNL A   1      43.778  24.435  35.696  1.00  0.00     0.124 S 
ATOM     46  O   UNL A   1      44.567  24.304  34.475  1.00  0.00    -0.237 OA
ATOM     47  O   UNL A   1      44.516  24.282  36.948  1.00  0.00    -0.237 OA
ATOM     48  O   UNL A   1      42.462  23.805  35.675  1.00  0.00    -0.744 OA
ENDBRANCH  41  45
ENDBRANCH  24  38
BRANCH  25  49
ATOM     49  C   UNL A   1      43.176  23.628  27.481  1.00  0.00     0.023 A 
ATOM     50  C   UNL A   1      44.010  23.264  26.408  1.00  0.00     0.031 A 
ATOM     51  C   UNL A   1      42.277  22.658  27.959  1.00  0.00     0.131 A 
ATOM     52  C   UNL A   1      43.896  22.000  25.816  1.00  0.00     0.055 A 
ATOM     53  C   UNL A   1      42.170  21.393  27.371  1.00  0.00     0.041 A 
ATOM     54  F   UNL A   1      41.435  22.945  28.964  1.00  0.00    -0.206 F 
ATOM     55  C   UNL A   1      42.974  21.062  26.285  1.00  0.00     0.022 A 
BRANCH  52  56
ATOM     56  S   UNL A   1      44.927  21.577  24.385  1.00  0.00     0.124 S 
ATOM     57  O   UNL A   1      44.489  22.542  23.379  1.00  0.00    -0.237 OA
ATOM     58  O   UNL A   1      46.270  21.787  24.913  1.00  0.00    -0.237 OA
ATOM     59  O   UNL A   1      44.560  20.192  24.107  1.00  0.00    -0.744 OA
ENDBRANCH  52  56
ENDBRANCH  25  49
BRANCH  37  60
ATOM     60  C   UNL A   1      45.208  29.599  28.425  1.00  0.00     0.023 A 
ATOM     61  C   UNL A   1      46.528  30.046  28.229  1.00  0.00     0.031 A 
ATOM     62  C   UNL A   1      44.217  30.084  27.552  1.00  0.00     0.131 A 
ATOM     63  C   UNL A   1      46.822  30.967  27.218  1.00  0.00     0.055 A 
ATOM     64  C   UNL A   1      44.528  30.947  26.497  1.00  0.00     0.041 A 
ATOM     65  F   UNL A   1      42.918  29.813  27.745  1.00  0.00    -0.206 F 
ATOM     66  C   UNL A   1      45.832  31.405  26.334  1.00  0.00     0.022 A 
BRANCH  63  67
ATOM     67  S   UNL A   1      48.462  31.729  27.118  1.00  0.00     0.124 S 
ATOM     68  O   UNL A   1      49.291  30.625  26.644  1.00  0.00    -0.237 OA
ATOM     69  O   UNL A   1      48.242  32.806  26.154  1.00  0.00    -0.237 OA
ATOM     70  O   UNL A   1      48.733  32.170  28.484  1.00  0.00    -0.744 OA
ENDBRANCH  63  67
ENDBRANCH  37  60
ENDBRANCH  11  12
ENDBRANCH   4   6
ENDBRANCH   1   2
BRANCH   1  71
ATOM     71  C   UNL A   1      33.978  28.475  26.151  1.00  0.00     0.023 C 
BRANCH  71  72
ATOM     72  C   UNL A   1      33.461  28.775  24.744  1.00  0.00     0.023 C 
BRANCH  72  73
ATOM     73  C   UNL A   1      33.853  27.771  23.667  1.00  0.00     0.116 C 
BRANCH  73  74
ATOM     74  N   UNL A   1      32.719  27.110  23.049  1.00  0.00    -0.349 N 
ATOM     75  C   UNL A   1      32.474  25.757  22.921  1.00  0.00     0.287 C 
ATOM     76  H   UNL A   1      32.032  27.706  22.670  1.00  0.00     0.163 HD
ATOM     77  O   UNL A   1      31.489  25.410  22.281  1.00  0.00    -0.266 OA
BRANCH  75  78
ATOM     78  C   UNL A   1      33.398  24.827  23.536  1.00  0.00     0.195 A 
ATOM     79  O   UNL A   1      34.435  24.346  22.751  1.00  0.00    -0.451 OA
ATOM     80  C   UNL A   1      33.497  24.283  24.805  1.00  0.00     0.012 A 
ATOM     81  C   UNL A   1      35.228  23.572  23.548  1.00  0.00     0.135 A 
ATOM     82  C   UNL A   1      34.679  23.522  24.804  1.00  0.00     0.028 A 
ATOM     83  C   UNL A   1      32.701  24.367  26.062  1.00  0.00     0.041 C 
ATOM     84  C   UNL A   1      36.413  22.925  23.227  1.00  0.00     0.048 A 
ATOM     85  C   UNL A   1      35.261  22.819  25.857  1.00  0.00    -0.037 A 
ATOM     86  C   UNL A   1      33.041  23.173  27.008  1.00  0.00     0.010 C 
ATOM     87  C   UNL A   1      37.030  22.229  24.285  1.00  0.00     0.004 A 
ATOM     88  C   UNL A   1      36.474  22.181  25.580  1.00  0.00     0.004 A 
ATOM     89  C   UNL A   1      34.567  22.898  27.188  1.00  0.00     0.036 C 
ENDBRANCH  75  78
ENDBRANCH  73  74
ENDBRANCH  72  73
ENDBRANCH  71  72
ENDBRANCH   1  71
TORSDOF 14
ENDMDL
