MODEL 1
REMARK VINA RESULT:     -11.9      0.000      0.000
REMARK SMILES CCCN1CCC[C@@]2(CCN(c3ccc(C(=O)NCCCCNC(=O)c4ccc(-c5c6nc(c(-c7cc(S(=O)(=O)[O-])ccc7F)c7ccc([nH]7)c(-c7cc(S(=O)(=O)[O-])ccc7F)c7nc(c(-c8cc(S(=O)(=O)[O-])ccc8F)c8ccc5[nH]8)C=C7)C=C6)cc4)cn3)C2)C1=O
REMARK SMILES IDX 20 1 19 2 18 3 16 4 17 5 15 7 12 8 13 9 90 10 14 11 89 12
REMARK SMILES IDX 11 13 4 14 5 15 92 16 6 17 8 18 93 19 7 20 9 21 91 22 10 23
REMARK SMILES IDX 3 24 2 25 1 26 21 27 22 28 23 29 24 30 25 32 26 33 27 34
REMARK SMILES IDX 88 35 28 36 87 37 29 38 30 39 31 40 81 41 32 42 86 43 80 44
REMARK SMILES IDX 82 45 33 46 85 47 79 48 78 49 34 51 66 52 46 53 65 54 47 55
REMARK SMILES IDX 50 56 64 57 83 58 48 59 49 60 63 62 84 63 51 64 35 65 36 66
REMARK SMILES IDX 44 67 37 68 43 69 45 70 42 71 38 72 39 73 40 74 41 75 67 76
REMARK SMILES IDX 68 77 76 78 69 79 75 80 77 81 74 82 70 83 71 84 72 85 73 86
REMARK SMILES IDX 52 87 53 88 61 89 54 90 60 91 62 92 59 93 55 94 56 95 57 96
REMARK SMILES IDX 58 97
REMARK H PARENT 18 6 23 31 82 50 50 61
REMARK Flexibility Score: inf
ROOT
ATOM      1  C   UNL A   1      31.975  30.378  25.593  1.00  0.00     0.023 C 
ENDROOT
BRANCH   1   2
ATOM      2  C   UNL A   1      30.557  30.671  25.100  1.00  0.00     0.116 C 
BRANCH   2   3
ATOM      3  N   UNL A   1      30.434  30.434  23.674  1.00  0.00    -0.352 N 
ATOM      4  C   UNL A   1      30.293  29.283  22.936  1.00  0.00     0.252 C 
ATOM      5  O   UNL A   1      30.130  29.404  21.721  1.00  0.00    -0.269 OA
ATOM      6  H   UNL A   1      30.456  31.254  23.130  1.00  0.00     0.163 HD
BRANCH   4   7
ATOM      7  C   UNL A   1      30.298  27.916  23.521  1.00  0.00     0.058 A 
ATOM      8  C   UNL A   1      30.596  25.354  24.580  1.00  0.00     0.128 A 
ATOM      9  C   UNL A   1      29.329  25.890  24.390  1.00  0.00     0.048 A 
ATOM     10  N   UNL A   1      31.700  26.069  24.297  1.00  0.00    -0.239 NA
ATOM     11  C   UNL A   1      29.180  27.185  23.895  1.00  0.00     0.019 A 
ATOM     12  C   UNL A   1      31.530  27.314  23.764  1.00  0.00     0.127 A 
BRANCH   8  13
ATOM     13  N   UNL A   1      30.696  24.066  25.049  1.00  0.00    -0.356 N 
ATOM     14  N   UNL A   1      34.452  22.313  25.738  1.00  0.00    -0.342 N 
ATOM     15  C   UNL A   1      34.673  21.136  24.910  1.00  0.00     0.119 C 
ATOM     16  C   UNL A   1      33.243  22.496  26.396  1.00  0.00     0.230 C 
ATOM     17  C   UNL A   1      33.460  20.733  24.085  1.00  0.00     0.023 C 
ATOM     18  C   UNL A   1      31.999  22.135  25.576  1.00  0.00     0.069 C 
ATOM     19  O   UNL A   1      33.177  22.995  27.519  1.00  0.00    -0.274 OA
ATOM     20  C   UNL A   1      32.193  20.753  24.939  1.00  0.00     0.021 C 
ATOM     21  C   UNL A   1      30.733  22.232  26.447  1.00  0.00     0.040 C 
ATOM     22  C   UNL A   1      31.759  23.227  24.503  1.00  0.00     0.135 C 
ATOM     23  C   UNL A   1      30.419  23.734  26.432  1.00  0.00     0.119 C 
BRANCH  14  24
ATOM     24  C   UNL A   1      35.612  23.090  26.168  1.00  0.00     0.119 C 
BRANCH  24  25
ATOM     25  C   UNL A   1      36.915  22.443  25.681  1.00  0.00     0.018 C 
ATOM     26  C   UNL A   1      38.158  23.270  25.985  1.00  0.00     0.006 C 
ENDBRANCH  24  25
ENDBRANCH  14  24
ENDBRANCH   8  13
ENDBRANCH   4   7
ENDBRANCH   2   3
ENDBRANCH   1   2
BRANCH   1  27
ATOM     27  C   UNL A   1      32.221  30.724  27.063  1.00  0.00     0.023 C 
BRANCH  27  28
ATOM     28  C   UNL A   1      33.324  31.749  27.312  1.00  0.00     0.116 C 
BRANCH  28  29
ATOM     29  N   UNL A   1      32.819  33.093  27.552  1.00  0.00    -0.352 N 
ATOM     30  C   UNL A   1      33.266  34.024  28.462  1.00  0.00     0.251 C 
ATOM     31  H   UNL A   1      32.059  33.372  26.990  1.00  0.00     0.163 HD
ATOM     32  O   UNL A   1      32.667  35.082  28.605  1.00  0.00    -0.269 OA
BRANCH  30  33
ATOM     33  C   UNL A   1      34.445  33.703  29.293  1.00  0.00     0.039 A 
ATOM     34  C   UNL A   1      34.275  32.896  30.421  1.00  0.00     0.014 A 
ATOM     35  C   UNL A   1      35.717  34.146  28.924  1.00  0.00     0.014 A 
ATOM     36  C   UNL A   1      35.395  32.460  31.132  1.00  0.00     0.010 A 
ATOM     37  C   UNL A   1      36.836  33.665  29.599  1.00  0.00     0.010 A 
ATOM     38  C   UNL A   1      36.686  32.804  30.698  1.00  0.00    -0.014 A 
BRANCH  38  39
ATOM     39  C   UNL A   1      37.898  32.244  31.352  1.00  0.00     0.031 A 
ATOM     40  C   UNL A   1      38.686  31.160  30.671  1.00  0.00     0.074 A 
ATOM     41  C   UNL A   1      38.221  32.644  32.599  1.00  0.00     0.049 A 
ATOM     42  N   UNL A   1      39.689  30.457  31.130  1.00  0.00    -0.248 NA
ATOM     43  C   UNL A   1      38.271  30.799  29.307  1.00  0.00     0.031 C 
ATOM     44  C   UNL A   1      37.500  33.656  33.376  1.00  0.00     0.029 A 
ATOM     45  N   UNL A   1      39.221  32.231  33.444  1.00  0.00    -0.354 N 
ATOM     46  C   UNL A   1      40.010  29.553  30.123  1.00  0.00     0.074 A 
ATOM     47  C   UNL A   1      39.072  29.776  29.044  1.00  0.00     0.031 C 
ATOM     48  C   UNL A   1      38.079  33.782  34.581  1.00  0.00     0.029 A 
ATOM     49  C   UNL A   1      39.184  32.834  34.681  1.00  0.00     0.049 A 
ATOM     50  H   UNL A   1      39.901  31.567  33.189  1.00  0.00     0.167 HD
ATOM     51  C   UNL A   1      41.002  28.630  30.102  1.00  0.00     0.034 A 
ATOM     52  C   UNL A   1      39.936  32.625  35.781  1.00  0.00     0.034 A 
ATOM     53  C   UNL A   1      41.947  28.442  31.175  1.00  0.00     0.049 A 
ATOM     54  C   UNL A   1      41.037  31.596  35.725  1.00  0.00     0.074 A 
ATOM     55  C   UNL A   1      43.048  27.604  31.213  1.00  0.00     0.029 A 
ATOM     56  N   UNL A   1      41.901  29.093  32.400  1.00  0.00    -0.354 N 
ATOM     57  N   UNL A   1      41.376  30.803  34.734  1.00  0.00    -0.248 NA
ATOM     58  C   UNL A   1      41.864  31.440  36.929  1.00  0.00     0.031 C 
ATOM     59  C   UNL A   1      43.629  27.699  32.483  1.00  0.00     0.029 A 
ATOM     60  C   UNL A   1      42.933  28.648  33.214  1.00  0.00     0.049 A 
ATOM     61  H   UNL A   1      41.235  29.771  32.655  1.00  0.00     0.167 HD
ATOM     62  C   UNL A   1      42.474  30.078  35.188  1.00  0.00     0.074 A 
ATOM     63  C   UNL A   1      42.750  30.539  36.532  1.00  0.00     0.031 C 
ATOM     64  C   UNL A   1      43.190  29.116  34.554  1.00  0.00     0.034 A 
BRANCH  51  65
ATOM     65  C   UNL A   1      41.101  27.733  28.895  1.00  0.00     0.023 A 
ATOM     66  C   UNL A   1      42.102  27.901  27.924  1.00  0.00     0.031 A 
ATOM     67  C   UNL A   1      40.182  26.682  28.722  1.00  0.00     0.131 A 
ATOM     68  C   UNL A   1      42.131  27.065  26.799  1.00  0.00     0.055 A 
ATOM     69  C   UNL A   1      40.257  25.811  27.634  1.00  0.00     0.041 A 
ATOM     70  F   UNL A   1      39.193  26.487  29.609  1.00  0.00    -0.206 F 
ATOM     71  C   UNL A   1      41.230  26.006  26.658  1.00  0.00     0.022 A 
BRANCH  68  72
ATOM     72  S   UNL A   1      43.303  27.441  25.467  1.00  0.00     0.124 S 
ATOM     73  O   UNL A   1      44.029  28.578  26.025  1.00  0.00    -0.237 OA
ATOM     74  O   UNL A   1      44.057  26.198  25.348  1.00  0.00    -0.237 OA
ATOM     75  O   UNL A   1      42.441  27.759  24.330  1.00  0.00    -0.744 OA
ENDBRANCH  68  72
ENDBRANCH  51  65
BRANCH  52  76
ATOM     76  C   UNL A   1      39.664  33.372  37.044  1.00  0.00     0.023 A 
ATOM     77  C   UNL A   1      38.876  32.811  38.061  1.00  0.00     0.031 A 
ATOM     78  C   UNL A   1      40.128  34.687  37.221  1.00  0.00     0.131 A 
ATOM     79  C   UNL A   1      38.522  33.581  39.180  1.00  0.00     0.055 A 
ATOM     80  C   UNL A   1      39.822  35.431  38.363  1.00  0.00     0.041 A 
ATOM     81  F   UNL A   1      40.890  35.271  36.283  1.00  0.00    -0.206 F 
ATOM     82  C   UNL A   1      38.999  34.884  39.342  1.00  0.00     0.022 A 
BRANCH  79  83
ATOM     83  S   UNL A   1      37.333  32.895  40.365  1.00  0.00     0.124 S 
ATOM     84  O   UNL A   1      37.222  33.977  41.337  1.00  0.00    -0.237 OA
ATOM     85  O   UNL A   1      36.165  32.668  39.521  1.00  0.00    -0.237 OA
ATOM     86  O   UNL A   1      37.996  31.686  40.849  1.00  0.00    -0.744 OA
ENDBRANCH  79  83
ENDBRANCH  52  76
BRANCH  64  87
ATOM     87  C   UNL A   1      44.368  28.539  35.298  1.00  0.00     0.023 A 
ATOM     88  C   UNL A   1      44.240  27.407  36.120  1.00  0.00     0.031 A 
ATOM     89  C   UNL A   1      45.634  29.143  35.192  1.00  0.00     0.131 A 
ATOM     90  C   UNL A   1      45.345  26.945  36.848  1.00  0.00     0.055 A 
ATOM     91  C   UNL A   1      46.743  28.644  35.874  1.00  0.00     0.041 A 
ATOM     92  F   UNL A   1      45.812  30.228  34.421  1.00  0.00    -0.206 F 
ATOM     93  C   UNL A   1      46.600  27.546  36.718  1.00  0.00     0.022 A 
BRANCH  90  94
ATOM     94  S   UNL A   1      45.104  25.595  38.035  1.00  0.00     0.124 S 
ATOM     95  O   UNL A   1      44.063  24.803  37.387  1.00  0.00    -0.237 OA
ATOM     96  O   UNL A   1      46.429  24.986  38.088  1.00  0.00    -0.237 OA
ATOM     97  O   UNL A   1      44.689  26.282  39.258  1.00  0.00    -0.744 OA
ENDBRANCH  90  94
ENDBRANCH  64  87
ENDBRANCH  38  39
ENDBRANCH  30  33
ENDBRANCH  28  29
ENDBRANCH  27  28
ENDBRANCH   1  27
TORSDOF 17
ENDMDL
MODEL 2
REMARK VINA RESULT:     -11.5      5.449     10.024
REMARK SMILES CCCN1CCC[C@@]2(CCN(c3ccc(C(=O)NCCCCNC(=O)c4ccc(-c5c6nc(c(-c7cc(S(=O)(=O)[O-])ccc7F)c7ccc([nH]7)c(-c7cc(S(=O)(=O)[O-])ccc7F)c7nc(c(-c8cc(S(=O)(=O)[O-])ccc8F)c8ccc5[nH]8)C=C7)C=C6)cc4)cn3)C2)C1=O
REMARK SMILES IDX 20 1 19 2 18 3 16 4 17 5 15 7 12 8 13 9 90 10 14 11 89 12
REMARK SMILES IDX 11 13 4 14 5 15 92 16 6 17 8 18 93 19 7 20 9 21 91 22 10 23
REMARK SMILES IDX 3 24 2 25 1 26 21 27 22 28 23 29 24 30 25 32 26 33 27 34
REMARK SMILES IDX 88 35 28 36 87 37 29 38 30 39 31 40 81 41 32 42 86 43 80 44
REMARK SMILES IDX 82 45 33 46 85 47 79 48 78 49 34 51 66 52 46 53 65 54 47 55
REMARK SMILES IDX 50 56 64 57 83 58 48 59 49 60 63 62 84 63 51 64 35 65 36 66
REMARK SMILES IDX 44 67 37 68 43 69 45 70 42 71 38 72 39 73 40 74 41 75 67 76
REMARK SMILES IDX 68 77 76 78 69 79 75 80 77 81 74 82 70 83 71 84 72 85 73 86
REMARK SMILES IDX 52 87 53 88 61 89 54 90 60 91 62 92 59 93 55 94 56 95 57 96
REMARK SMILES IDX 58 97
REMARK H PARENT 18 6 23 31 82 50 50 61
REMARK Flexibility Score: inf
ROOT
ATOM      1  C   UNL A   1      38.418  20.215  25.125  1.00  0.00     0.023 C 
ENDROOT
BRANCH   1   2
ATOM      2  C   UNL A   1      37.042  20.867  24.965  1.00  0.00     0.116 C 
BRANCH   2   3
ATOM      3  N   UNL A   1      35.992  19.870  24.886  1.00  0.00    -0.352 N 
ATOM      4  C   UNL A   1      34.622  19.962  24.945  1.00  0.00     0.252 C 
ATOM      5  O   UNL A   1      33.974  18.930  24.765  1.00  0.00    -0.269 OA
ATOM      6  H   UNL A   1      36.322  18.950  24.769  1.00  0.00     0.163 HD
BRANCH   4   7
ATOM      7  C   UNL A   1      33.885  21.231  25.183  1.00  0.00     0.058 A 
ATOM      8  C   UNL A   1      32.502  23.541  25.911  1.00  0.00     0.128 A 
ATOM      9  C   UNL A   1      32.725  23.252  24.571  1.00  0.00     0.048 A 
ATOM     10  N   UNL A   1      32.978  22.740  26.881  1.00  0.00    -0.239 NA
ATOM     11  C   UNL A   1      33.448  22.117  24.208  1.00  0.00     0.019 A 
ATOM     12  C   UNL A   1      33.638  21.607  26.501  1.00  0.00     0.127 A 
BRANCH   8  13
ATOM     13  N   UNL A   1      31.765  24.658  26.224  1.00  0.00    -0.356 N 
ATOM     14  N   UNL A   1      32.315  28.256  24.125  1.00  0.00    -0.342 N 
ATOM     15  C   UNL A   1      32.763  29.338  24.990  1.00  0.00     0.119 C 
ATOM     16  C   UNL A   1      31.279  27.419  24.520  1.00  0.00     0.230 C 
ATOM     17  C   UNL A   1      32.806  28.963  26.464  1.00  0.00     0.023 C 
ATOM     18  C   UNL A   1      31.317  26.993  25.992  1.00  0.00     0.069 C 
ATOM     19  O   UNL A   1      30.448  26.985  23.724  1.00  0.00    -0.274 OA
ATOM     20  C   UNL A   1      31.530  28.228  26.874  1.00  0.00     0.021 C 
ATOM     21  C   UNL A   1      30.051  26.195  26.355  1.00  0.00     0.040 C 
ATOM     22  C   UNL A   1      32.446  25.949  26.193  1.00  0.00     0.135 C 
ATOM     23  C   UNL A   1      30.373  24.785  25.843  1.00  0.00     0.119 C 
BRANCH  14  24
ATOM     24  C   UNL A   1      32.694  28.290  22.714  1.00  0.00     0.119 C 
BRANCH  24  25
ATOM     25  C   UNL A   1      33.586  27.093  22.358  1.00  0.00     0.018 C 
ATOM     26  C   UNL A   1      32.910  26.080  21.443  1.00  0.00     0.006 C 
ENDBRANCH  24  25
ENDBRANCH  14  24
ENDBRANCH   8  13
ENDBRANCH   4   7
ENDBRANCH   2   3
ENDBRANCH   1   2
BRANCH   1  27
ATOM     27  C   UNL A   1      39.446  21.076  25.862  1.00  0.00     0.023 C 
BRANCH  27  28
ATOM     28  C   UNL A   1      40.367  20.316  26.812  1.00  0.00     0.116 C 
BRANCH  28  29
ATOM     29  N   UNL A   1      41.308  19.442  26.127  1.00  0.00    -0.352 N 
ATOM     30  C   UNL A   1      42.564  19.743  25.653  1.00  0.00     0.251 C 
ATOM     31  H   UNL A   1      41.007  18.515  25.985  1.00  0.00     0.163 HD
ATOM     32  O   UNL A   1      43.195  18.914  25.011  1.00  0.00    -0.269 OA
BRANCH  30  33
ATOM     33  C   UNL A   1      43.114  21.095  25.890  1.00  0.00     0.039 A 
ATOM     34  C   UNL A   1      43.194  21.986  24.817  1.00  0.00     0.014 A 
ATOM     35  C   UNL A   1      43.486  21.496  27.174  1.00  0.00     0.014 A 
ATOM     36  C   UNL A   1      43.568  23.312  25.048  1.00  0.00     0.010 A 
ATOM     37  C   UNL A   1      43.804  22.830  27.413  1.00  0.00     0.010 A 
ATOM     38  C   UNL A   1      43.831  23.754  26.355  1.00  0.00    -0.014 A 
BRANCH  38  39
ATOM     39  C   UNL A   1      44.098  25.186  26.650  1.00  0.00     0.031 A 
ATOM     40  C   UNL A   1      45.495  25.729  26.532  1.00  0.00     0.074 A 
ATOM     41  C   UNL A   1      43.100  25.962  27.120  1.00  0.00     0.049 A 
ATOM     42  N   UNL A   1      45.952  26.907  26.867  1.00  0.00    -0.248 NA
ATOM     43  C   UNL A   1      46.516  24.816  25.995  1.00  0.00     0.031 C 
ATOM     44  C   UNL A   1      41.714  25.529  27.321  1.00  0.00     0.029 A 
ATOM     45  N   UNL A   1      43.100  27.269  27.540  1.00  0.00    -0.354 N 
ATOM     46  C   UNL A   1      47.318  26.872  26.607  1.00  0.00     0.074 A 
ATOM     47  C   UNL A   1      47.618  25.543  26.119  1.00  0.00     0.031 C 
ATOM     48  C   UNL A   1      41.002  26.549  27.826  1.00  0.00     0.029 A 
ATOM     49  C   UNL A   1      41.884  27.694  28.026  1.00  0.00     0.049 A 
ATOM     50  H   UNL A   1      43.895  27.848  27.498  1.00  0.00     0.167 HD
ATOM     51  C   UNL A   1      48.232  27.861  26.755  1.00  0.00     0.034 A 
ATOM     52  C   UNL A   1      41.527  28.864  28.595  1.00  0.00     0.034 A 
ATOM     53  C   UNL A   1      47.911  29.189  27.215  1.00  0.00     0.049 A 
ATOM     54  C   UNL A   1      42.565  29.949  28.740  1.00  0.00     0.074 A 
ATOM     55  C   UNL A   1      48.744  30.291  27.308  1.00  0.00     0.029 A 
ATOM     56  N   UNL A   1      46.663  29.596  27.667  1.00  0.00    -0.354 N 
ATOM     57  N   UNL A   1      43.838  29.922  28.416  1.00  0.00    -0.248 NA
ATOM     58  C   UNL A   1      42.119  31.224  29.317  1.00  0.00     0.031 C 
ATOM     59  C   UNL A   1      48.017  31.344  27.876  1.00  0.00     0.029 A 
ATOM     60  C   UNL A   1      46.712  30.921  28.072  1.00  0.00     0.049 A 
ATOM     61  H   UNL A   1      45.860  29.027  27.695  1.00  0.00     0.167 HD
ATOM     62  C   UNL A   1      44.333  31.186  28.723  1.00  0.00     0.074 A 
ATOM     63  C   UNL A   1      43.221  31.955  29.240  1.00  0.00     0.031 C 
ATOM     64  C   UNL A   1      45.594  31.670  28.591  1.00  0.00     0.034 A 
BRANCH  51  65
ATOM     65  C   UNL A   1      49.672  27.539  26.446  1.00  0.00     0.023 A 
ATOM     66  C   UNL A   1      50.202  27.674  25.152  1.00  0.00     0.031 A 
ATOM     67  C   UNL A   1      50.531  27.101  27.469  1.00  0.00     0.131 A 
ATOM     68  C   UNL A   1      51.538  27.326  24.904  1.00  0.00     0.055 A 
ATOM     69  C   UNL A   1      51.878  26.820  27.230  1.00  0.00     0.041 A 
ATOM     70  F   UNL A   1      50.073  26.935  28.721  1.00  0.00    -0.206 F 
ATOM     71  C   UNL A   1      52.386  26.923  25.939  1.00  0.00     0.022 A 
BRANCH  68  72
ATOM     72  S   UNL A   1      52.129  27.313  23.190  1.00  0.00     0.124 S 
ATOM     73  O   UNL A   1      50.883  27.134  22.450  1.00  0.00    -0.237 OA
ATOM     74  O   UNL A   1      52.764  28.620  23.064  1.00  0.00    -0.237 OA
ATOM     75  O   UNL A   1      53.040  26.170  23.150  1.00  0.00    -0.744 OA
ENDBRANCH  68  72
ENDBRANCH  51  65
BRANCH  52  76
ATOM     76  C   UNL A   1      40.141  29.073  29.105  1.00  0.00     0.023 A 
ATOM     77  C   UNL A   1      39.844  28.937  30.471  1.00  0.00     0.031 A 
ATOM     78  C   UNL A   1      39.078  29.339  28.224  1.00  0.00     0.131 A 
ATOM     79  C   UNL A   1      38.512  29.005  30.908  1.00  0.00     0.055 A 
ATOM     80  C   UNL A   1      37.761  29.463  28.671  1.00  0.00     0.041 A 
ATOM     81  F   UNL A   1      39.305  29.484  26.909  1.00  0.00    -0.206 F 
ATOM     82  C   UNL A   1      37.470  29.278  30.019  1.00  0.00     0.022 A 
BRANCH  79  83
ATOM     83  S   UNL A   1      38.148  28.615  32.642  1.00  0.00     0.124 S 
ATOM     84  O   UNL A   1      36.831  29.218  32.813  1.00  0.00    -0.237 OA
ATOM     85  O   UNL A   1      38.190  27.157  32.637  1.00  0.00    -0.237 OA
ATOM     86  O   UNL A   1      39.234  29.267  33.372  1.00  0.00    -0.744 OA
ENDBRANCH  79  83
ENDBRANCH  52  76
BRANCH  64  87
ATOM     87  C   UNL A   1      45.815  33.113  28.971  1.00  0.00     0.023 A 
ATOM     88  C   UNL A   1      45.703  34.149  28.029  1.00  0.00     0.031 A 
ATOM     89  C   UNL A   1      46.159  33.450  30.292  1.00  0.00     0.131 A 
ATOM     90  C   UNL A   1      45.985  35.470  28.408  1.00  0.00     0.055 A 
ATOM     91  C   UNL A   1      46.383  34.772  30.676  1.00  0.00     0.041 A 
ATOM     92  F   UNL A   1      46.282  32.499  31.231  1.00  0.00    -0.206 F 
ATOM     93  C   UNL A   1      46.308  35.790  29.729  1.00  0.00     0.022 A 
BRANCH  90  94
ATOM     94  S   UNL A   1      46.005  36.757  27.131  1.00  0.00     0.124 S 
ATOM     95  O   UNL A   1      46.287  35.985  25.925  1.00  0.00    -0.237 OA
ATOM     96  O   UNL A   1      44.660  37.316  27.230  1.00  0.00    -0.237 OA
ATOM     97  O   UNL A   1      47.079  37.651  27.561  1.00  0.00    -0.744 OA
ENDBRANCH  90  94
ENDBRANCH  64  87
ENDBRANCH  38  39
ENDBRANCH  30  33
ENDBRANCH  28  29
ENDBRANCH  27  28
ENDBRANCH   1  27
TORSDOF 17
ENDMDL
MODEL 3
REMARK VINA RESULT:     -11.5      3.671      8.222
REMARK SMILES CCCN1CCC[C@@]2(CCN(c3ccc(C(=O)NCCCCNC(=O)c4ccc(-c5c6nc(c(-c7cc(S(=O)(=O)[O-])ccc7F)c7ccc([nH]7)c(-c7cc(S(=O)(=O)[O-])ccc7F)c7nc(c(-c8cc(S(=O)(=O)[O-])ccc8F)c8ccc5[nH]8)C=C7)C=C6)cc4)cn3)C2)C1=O
REMARK SMILES IDX 20 1 19 2 18 3 16 4 17 5 15 7 12 8 13 9 90 10 14 11 89 12
REMARK SMILES IDX 11 13 4 14 5 15 92 16 6 17 8 18 93 19 7 20 9 21 91 22 10 23
REMARK SMILES IDX 3 24 2 25 1 26 21 27 22 28 23 29 24 30 25 32 26 33 27 34
REMARK SMILES IDX 88 35 28 36 87 37 29 38 30 39 31 40 81 41 32 42 86 43 80 44
REMARK SMILES IDX 82 45 33 46 85 47 79 48 78 49 34 51 66 52 46 53 65 54 47 55
REMARK SMILES IDX 50 56 64 57 83 58 48 59 49 60 63 62 84 63 51 64 35 65 36 66
REMARK SMILES IDX 44 67 37 68 43 69 45 70 42 71 38 72 39 73 40 74 41 75 67 76
REMARK SMILES IDX 68 77 76 78 69 79 75 80 77 81 74 82 70 83 71 84 72 85 73 86
REMARK SMILES IDX 52 87 53 88 61 89 54 90 60 91 62 92 59 93 55 94 56 95 57 96
REMARK SMILES IDX 58 97
REMARK H PARENT 18 6 23 31 82 50 50 61
REMARK Flexibility Score: inf
ROOT
ATOM      1  C   UNL A   1      31.981  29.971  25.145  1.00  0.00     0.023 C 
ENDROOT
BRANCH   1   2
ATOM      2  C   UNL A   1      30.604  30.528  24.776  1.00  0.00     0.116 C 
BRANCH   2   3
ATOM      3  N   UNL A   1      30.210  30.121  23.440  1.00  0.00    -0.352 N 
ATOM      4  C   UNL A   1      30.140  28.892  22.830  1.00  0.00     0.252 C 
ATOM      5  O   UNL A   1      29.684  28.850  21.687  1.00  0.00    -0.269 OA
ATOM      6  H   UNL A   1      29.943  30.868  22.859  1.00  0.00     0.163 HD
BRANCH   4   7
ATOM      7  C   UNL A   1      30.552  27.618  23.478  1.00  0.00     0.058 A 
ATOM      8  C   UNL A   1      31.074  25.240  24.836  1.00  0.00     0.128 A 
ATOM      9  C   UNL A   1      32.039  25.800  24.008  1.00  0.00     0.048 A 
ATOM     10  N   UNL A   1      29.861  25.808  24.969  1.00  0.00    -0.239 NA
ATOM     11  C   UNL A   1      31.765  26.969  23.300  1.00  0.00     0.019 A 
ATOM     12  C   UNL A   1      29.634  26.979  24.307  1.00  0.00     0.127 A 
BRANCH   8  13
ATOM     13  N   UNL A   1      31.394  24.099  25.533  1.00  0.00    -0.356 N 
ATOM     14  N   UNL A   1      35.148  22.273  25.066  1.00  0.00    -0.342 N 
ATOM     15  C   UNL A   1      35.043  20.917  24.545  1.00  0.00     0.119 C 
ATOM     16  C   UNL A   1      34.311  22.704  26.086  1.00  0.00     0.230 C 
ATOM     17  C   UNL A   1      33.610  20.424  24.410  1.00  0.00     0.023 C 
ATOM     18  C   UNL A   1      32.851  22.255  25.958  1.00  0.00     0.069 C 
ATOM     19  O   UNL A   1      34.697  23.461  26.975  1.00  0.00    -0.274 OA
ATOM     20  C   UNL A   1      32.804  20.750  25.667  1.00  0.00     0.021 C 
ATOM     21  C   UNL A   1      32.051  22.659  27.210  1.00  0.00     0.040 C 
ATOM     22  C   UNL A   1      32.161  23.072  24.835  1.00  0.00     0.135 C 
ATOM     23  C   UNL A   1      31.716  24.133  26.945  1.00  0.00     0.119 C 
BRANCH  14  24
ATOM     24  C   UNL A   1      36.361  23.037  24.781  1.00  0.00     0.119 C 
BRANCH  24  25
ATOM     25  C   UNL A   1      37.587  22.377  25.426  1.00  0.00     0.018 C 
ATOM     26  C   UNL A   1      38.380  23.316  26.328  1.00  0.00     0.006 C 
ENDBRANCH  24  25
ENDBRANCH  14  24
ENDBRANCH   8  13
ENDBRANCH   4   7
ENDBRANCH   2   3
ENDBRANCH   1   2
BRANCH   1  27
ATOM     27  C   UNL A   1      32.042  29.280  26.508  1.00  0.00     0.023 C 
BRANCH  27  28
ATOM     28  C   UNL A   1      33.309  29.549  27.315  1.00  0.00     0.116 C 
BRANCH  28  29
ATOM     29  N   UNL A   1      33.588  30.965  27.497  1.00  0.00    -0.352 N 
ATOM     30  C   UNL A   1      34.713  31.554  28.030  1.00  0.00     0.251 C 
ATOM     31  H   UNL A   1      32.881  31.583  27.199  1.00  0.00     0.163 HD
ATOM     32  O   UNL A   1      34.752  32.765  28.201  1.00  0.00    -0.269 OA
BRANCH  30  33
ATOM     33  C   UNL A   1      35.846  30.695  28.435  1.00  0.00     0.039 A 
ATOM     34  C   UNL A   1      37.002  30.692  27.651  1.00  0.00     0.014 A 
ATOM     35  C   UNL A   1      35.786  29.949  29.613  1.00  0.00     0.014 A 
ATOM     36  C   UNL A   1      38.134  30.006  28.096  1.00  0.00     0.010 A 
ATOM     37  C   UNL A   1      36.932  29.313  30.084  1.00  0.00     0.010 A 
ATOM     38  C   UNL A   1      38.121  29.350  29.338  1.00  0.00    -0.014 A 
BRANCH  38  39
ATOM     39  C   UNL A   1      39.349  28.728  29.899  1.00  0.00     0.031 A 
ATOM     40  C   UNL A   1      39.995  29.314  31.124  1.00  0.00     0.074 A 
ATOM     41  C   UNL A   1      39.932  27.704  29.243  1.00  0.00     0.049 A 
ATOM     42  N   UNL A   1      41.132  28.999  31.686  1.00  0.00    -0.248 NA
ATOM     43  C   UNL A   1      39.281  30.418  31.783  1.00  0.00     0.031 C 
ATOM     44  C   UNL A   1      39.420  27.085  28.016  1.00  0.00     0.029 A 
ATOM     45  N   UNL A   1      41.094  27.019  29.496  1.00  0.00    -0.354 N 
ATOM     46  C   UNL A   1      41.286  29.882  32.750  1.00  0.00     0.074 A 
ATOM     47  C   UNL A   1      40.140  30.765  32.732  1.00  0.00     0.031 C 
ATOM     48  C   UNL A   1      40.264  26.116  27.626  1.00  0.00     0.029 A 
ATOM     49  C   UNL A   1      41.396  26.072  28.544  1.00  0.00     0.049 A 
ATOM     50  H   UNL A   1      41.658  27.190  30.284  1.00  0.00     0.167 HD
ATOM     51  C   UNL A   1      42.288  29.940  33.662  1.00  0.00     0.034 A 
ATOM     52  C   UNL A   1      42.478  25.277  28.411  1.00  0.00     0.034 A 
ATOM     53  C   UNL A   1      43.407  29.031  33.683  1.00  0.00     0.049 A 
ATOM     54  C   UNL A   1      43.574  25.359  29.445  1.00  0.00     0.074 A 
ATOM     55  C   UNL A   1      44.424  28.943  34.619  1.00  0.00     0.029 A 
ATOM     56  N   UNL A   1      43.666  28.061  32.725  1.00  0.00    -0.354 N 
ATOM     57  N   UNL A   1      43.663  26.149  30.491  1.00  0.00    -0.248 NA
ATOM     58  C   UNL A   1      44.706  24.438  29.288  1.00  0.00     0.031 C 
ATOM     59  C   UNL A   1      45.330  27.965  34.192  1.00  0.00     0.029 A 
ATOM     60  C   UNL A   1      44.843  27.394  33.027  1.00  0.00     0.049 A 
ATOM     61  H   UNL A   1      43.096  27.874  31.944  1.00  0.00     0.167 HD
ATOM     62  C   UNL A   1      44.848  25.797  31.130  1.00  0.00     0.074 A 
ATOM     63  C   UNL A   1      45.428  24.714  30.364  1.00  0.00     0.031 C 
ATOM     64  C   UNL A   1      45.409  26.320  32.249  1.00  0.00     0.034 A 
BRANCH  51  65
ATOM     65  C   UNL A   1      42.236  31.038  34.693  1.00  0.00     0.023 A 
ATOM     66  C   UNL A   1      42.785  32.309  34.452  1.00  0.00     0.031 A 
ATOM     67  C   UNL A   1      41.614  30.811  35.933  1.00  0.00     0.131 A 
ATOM     68  C   UNL A   1      42.747  33.287  35.456  1.00  0.00     0.055 A 
ATOM     69  C   UNL A   1      41.520  31.810  36.903  1.00  0.00     0.041 A 
ATOM     70  F   UNL A   1      41.090  29.610  36.224  1.00  0.00    -0.206 F 
ATOM     71  C   UNL A   1      42.097  33.055  36.671  1.00  0.00     0.022 A 
BRANCH  68  72
ATOM     72  S   UNL A   1      43.645  34.840  35.190  1.00  0.00     0.124 S 
ATOM     73  O   UNL A   1      42.562  35.748  34.821  1.00  0.00    -0.237 OA
ATOM     74  O   UNL A   1      44.261  35.076  36.491  1.00  0.00    -0.237 OA
ATOM     75  O   UNL A   1      44.575  34.518  34.109  1.00  0.00    -0.744 OA
ENDBRANCH  68  72
ENDBRANCH  51  65
BRANCH  52  76
ATOM     76  C   UNL A   1      42.609  24.355  27.244  1.00  0.00     0.023 A 
ATOM     77  C   UNL A   1      42.088  23.053  27.289  1.00  0.00     0.031 A 
ATOM     78  C   UNL A   1      43.322  24.740  26.096  1.00  0.00     0.131 A 
ATOM     79  C   UNL A   1      42.340  22.161  26.235  1.00  0.00     0.055 A 
ATOM     80  C   UNL A   1      43.522  23.868  25.023  1.00  0.00     0.041 A 
ATOM     81  F   UNL A   1      43.838  25.976  25.997  1.00  0.00    -0.206 F 
ATOM     82  C   UNL A   1      43.044  22.563  25.097  1.00  0.00     0.022 A 
BRANCH  79  83
ATOM     83  S   UNL A   1      41.832  20.429  26.424  1.00  0.00     0.124 S 
ATOM     84  O   UNL A   1      40.395  20.513  26.186  1.00  0.00    -0.237 OA
ATOM     85  O   UNL A   1      42.618  19.772  25.386  1.00  0.00    -0.237 OA
ATOM     86  O   UNL A   1      42.221  20.110  27.795  1.00  0.00    -0.744 OA
ENDBRANCH  79  83
ENDBRANCH  52  76
BRANCH  64  87
ATOM     87  C   UNL A   1      46.692  25.689  32.730  1.00  0.00     0.023 A 
ATOM     88  C   UNL A   1      47.931  25.997  32.144  1.00  0.00     0.031 A 
ATOM     89  C   UNL A   1      46.668  24.753  33.779  1.00  0.00     0.131 A 
ATOM     90  C   UNL A   1      49.090  25.337  32.574  1.00  0.00     0.055 A 
ATOM     91  C   UNL A   1      47.832  24.141  34.242  1.00  0.00     0.041 A 
ATOM     92  F   UNL A   1      45.511  24.421  34.373  1.00  0.00    -0.206 F 
ATOM     93  C   UNL A   1      49.051  24.422  33.631  1.00  0.00     0.022 A 
BRANCH  90  94
ATOM     94  S   UNL A   1      50.641  25.625  31.680  1.00  0.00     0.124 S 
ATOM     95  O   UNL A   1      50.697  24.469  30.790  1.00  0.00    -0.237 OA
ATOM     96  O   UNL A   1      50.397  26.912  31.038  1.00  0.00    -0.237 OA
ATOM     97  O   UNL A   1      51.650  25.642  32.738  1.00  0.00    -0.744 OA
ENDBRANCH  90  94
ENDBRANCH  64  87
ENDBRANCH  38  39
ENDBRANCH  30  33
ENDBRANCH  28  29
ENDBRANCH  27  28
ENDBRANCH   1  27
TORSDOF 17
ENDMDL
