MODEL 1
REMARK VINA RESULT:     -12.9      0.000      0.000
REMARK SMILES C[C@@H](C(=O)NCCCCNC(=O)c1ccc(-c2c3nc(c(-c4cc(S(=O)(=O)[O-])ccc4F)c4ccc([nH]4)c(-c4cc(S(=O)(=O)[O-])ccc4F)c4nc(c(-c5cc(S(=O)(=O)[O-])ccc5F)c5ccc2[nH]5)C=C4)C=C3)cc1)c1ccc2c3cc(Cl)ccc3n(C(=O)c3ccc(Cl)cc3)c2c1
REMARK SMILES IDX 7 1 6 2 5 3 3 4 4 5 2 7 1 8 76 9 77 10 98 11 78 12 97 13
REMARK SMILES IDX 79 14 87 15 80 16 86 17 81 18 85 19 82 20 84 21 83 22 88 23
REMARK SMILES IDX 89 24 90 25 91 26 96 27 92 28 95 29 93 30 94 31 8 32 9 33
REMARK SMILES IDX 10 34 11 35 12 37 13 38 14 39 75 40 15 41 74 42 16 43 17 44
REMARK SMILES IDX 18 45 68 46 19 47 73 48 67 49 69 50 20 51 72 52 66 53 65 54
REMARK SMILES IDX 21 56 53 57 33 58 52 59 34 60 37 61 51 62 70 63 35 64 36 65
REMARK SMILES IDX 50 67 71 68 38 69 22 70 23 71 31 72 24 73 30 74 32 75 29 76
REMARK SMILES IDX 25 77 26 78 27 79 28 80 54 81 55 82 63 83 56 84 62 85 64 86
REMARK SMILES IDX 61 87 57 88 58 89 59 90 60 91 39 92 40 93 48 94 41 95 47 96
REMARK SMILES IDX 49 97 46 98 42 99 43 100 44 101 45 102
REMARK H PARENT 5 6 10 36 69 55 37 66
REMARK Flexibility Score: inf
ROOT
ATOM      1  C   UNL A   1      31.926  29.307  27.079  1.00  0.00     0.023 C 
ENDROOT
BRANCH   1   2
ATOM      2  C   UNL A   1      31.398  28.323  26.034  1.00  0.00     0.116 C 
BRANCH   2   3
ATOM      3  N   UNL A   1      30.975  27.094  26.670  1.00  0.00    -0.356 N 
ATOM      4  C   UNL A   1      30.849  25.846  26.134  1.00  0.00     0.227 C 
ATOM      5  O   UNL A   1      30.273  25.000  26.818  1.00  0.00    -0.274 OA
ATOM      6  H   UNL A   1      30.744  27.170  27.624  1.00  0.00     0.163 HD
BRANCH   4   7
ATOM      7  C   UNL A   1      31.466  25.551  24.757  1.00  0.00     0.105 C 
ATOM      8  C   UNL A   1      30.578  24.704  23.841  1.00  0.00     0.023 C 
BRANCH   7   9
ATOM      9  C   UNL A   1      32.826  24.877  24.870  1.00  0.00    -0.034 A 
ATOM     10  C   UNL A   1      33.981  25.626  25.105  1.00  0.00     0.005 A 
ATOM     11  C   UNL A   1      32.914  23.483  24.751  1.00  0.00     0.032 A 
ATOM     12  C   UNL A   1      35.202  24.998  25.332  1.00  0.00     0.011 A 
ATOM     13  C   UNL A   1      34.168  22.855  24.892  1.00  0.00     0.057 A 
ATOM     14  C   UNL A   1      35.289  23.594  25.249  1.00  0.00     0.008 A 
ATOM     15  N   UNL A   1      34.547  21.508  24.746  1.00  0.00    -0.276 N 
ATOM     16  C   UNL A   1      36.355  22.684  25.438  1.00  0.00     0.009 A 
ATOM     17  C   UNL A   1      35.924  21.419  25.011  1.00  0.00     0.057 A 
ATOM     18  C   UNL A   1      37.683  22.879  25.871  1.00  0.00     0.031 A 
ATOM     19  C   UNL A   1      36.866  20.384  24.849  1.00  0.00     0.029 A 
ATOM     20  C   UNL A   1      38.587  21.831  25.782  1.00  0.00     0.041 A 
ATOM     21  C   UNL A   1      38.196  20.611  25.245  1.00  0.00     0.023 A 
ATOM     22  Cl  UNL A   1      40.211  22.073  26.298  1.00  0.00    -0.084 Cl
BRANCH  15  23
ATOM     23  C   UNL A   1      33.636  20.499  24.324  1.00  0.00     0.262 C 
ATOM     24  O   UNL A   1      32.776  20.859  23.513  1.00  0.00    -0.268 OA
BRANCH  23  25
ATOM     25  C   UNL A   1      33.511  19.073  24.747  1.00  0.00     0.040 A 
ATOM     26  C   UNL A   1      34.303  18.138  24.045  1.00  0.00     0.015 A 
ATOM     27  C   UNL A   1      32.565  18.591  25.655  1.00  0.00     0.015 A 
ATOM     28  C   UNL A   1      34.163  16.763  24.243  1.00  0.00     0.021 A 
ATOM     29  C   UNL A   1      32.447  17.209  25.880  1.00  0.00     0.021 A 
ATOM     30  C   UNL A   1      33.237  16.303  25.168  1.00  0.00     0.041 A 
ATOM     31  Cl  UNL A   1      33.041  14.611  25.406  1.00  0.00    -0.084 Cl
ENDBRANCH  23  25
ENDBRANCH  15  23
ENDBRANCH   7   9
ENDBRANCH   4   7
ENDBRANCH   2   3
ENDBRANCH   1   2
BRANCH   1  32
ATOM     32  C   UNL A   1      31.778  30.779  26.685  1.00  0.00     0.023 C 
BRANCH  32  33
ATOM     33  C   UNL A   1      33.042  31.607  26.857  1.00  0.00     0.116 C 
BRANCH  33  34
ATOM     34  N   UNL A   1      32.752  32.982  27.222  1.00  0.00    -0.352 N 
ATOM     35  C   UNL A   1      33.283  33.735  28.240  1.00  0.00     0.251 C 
ATOM     36  H   UNL A   1      32.082  33.438  26.662  1.00  0.00     0.163 HD
ATOM     37  O   UNL A   1      32.783  34.818  28.514  1.00  0.00    -0.269 OA
BRANCH  35  38
ATOM     38  C   UNL A   1      34.434  33.214  29.010  1.00  0.00     0.039 A 
ATOM     39  C   UNL A   1      34.196  32.286  30.024  1.00  0.00     0.014 A 
ATOM     40  C   UNL A   1      35.737  33.641  28.738  1.00  0.00     0.014 A 
ATOM     41  C   UNL A   1      35.270  31.763  30.745  1.00  0.00     0.010 A 
ATOM     42  C   UNL A   1      36.812  33.052  29.395  1.00  0.00     0.010 A 
ATOM     43  C   UNL A   1      36.589  32.126  30.424  1.00  0.00    -0.014 A 
BRANCH  43  44
ATOM     44  C   UNL A   1      37.737  31.579  31.192  1.00  0.00     0.031 A 
ATOM     45  C   UNL A   1      38.636  30.545  30.565  1.00  0.00     0.074 A 
ATOM     46  C   UNL A   1      37.956  31.995  32.455  1.00  0.00     0.049 A 
ATOM     47  N   UNL A   1      39.688  29.948  31.065  1.00  0.00    -0.248 NA
ATOM     48  C   UNL A   1      38.289  30.104  29.205  1.00  0.00     0.031 C 
ATOM     49  C   UNL A   1      37.129  32.960  33.181  1.00  0.00     0.029 A 
ATOM     50  N   UNL A   1      38.944  31.667  33.349  1.00  0.00    -0.354 N 
ATOM     51  C   UNL A   1      40.116  29.052  30.091  1.00  0.00     0.074 A 
ATOM     52  C   UNL A   1      39.168  29.135  29.001  1.00  0.00     0.031 C 
ATOM     53  C   UNL A   1      37.671  33.182  34.389  1.00  0.00     0.029 A 
ATOM     54  C   UNL A   1      38.854  32.342  34.545  1.00  0.00     0.049 A 
ATOM     55  H   UNL A   1      39.650  31.010  33.154  1.00  0.00     0.167 HD
ATOM     56  C   UNL A   1      41.213  28.256  30.092  1.00  0.00     0.034 A 
ATOM     57  C   UNL A   1      39.639  32.290  35.639  1.00  0.00     0.034 A 
ATOM     58  C   UNL A   1      42.154  28.199  31.185  1.00  0.00     0.049 A 
ATOM     59  C   UNL A   1      40.842  31.378  35.626  1.00  0.00     0.074 A 
ATOM     60  C   UNL A   1      43.330  27.474  31.271  1.00  0.00     0.029 A 
ATOM     61  N   UNL A   1      42.022  28.883  32.386  1.00  0.00    -0.354 N 
ATOM     62  N   UNL A   1      41.270  30.584  34.670  1.00  0.00    -0.248 NA
ATOM     63  C   UNL A   1      41.675  31.372  36.834  1.00  0.00     0.031 C 
ATOM     64  C   UNL A   1      43.863  27.654  32.552  1.00  0.00     0.029 A 
ATOM     65  C   UNL A   1      43.075  28.568  33.233  1.00  0.00     0.049 A 
ATOM     66  H   UNL A   1      41.288  29.502  32.606  1.00  0.00     0.167 HD
ATOM     67  C   UNL A   1      42.448  30.017  35.150  1.00  0.00     0.074 A 
ATOM     68  C   UNL A   1      42.666  30.574  36.470  1.00  0.00     0.031 C 
ATOM     69  C   UNL A   1      43.278  29.124  34.552  1.00  0.00     0.034 A 
BRANCH  56  70
ATOM     70  C   UNL A   1      41.428  27.362  28.891  1.00  0.00     0.023 A 
ATOM     71  C   UNL A   1      42.419  27.631  27.930  1.00  0.00     0.031 A 
ATOM     72  C   UNL A   1      40.606  26.239  28.685  1.00  0.00     0.131 A 
ATOM     73  C   UNL A   1      42.507  26.844  26.772  1.00  0.00     0.055 A 
ATOM     74  C   UNL A   1      40.759  25.404  27.577  1.00  0.00     0.041 A 
ATOM     75  F   UNL A   1      39.625  25.941  29.553  1.00  0.00    -0.206 F 
ATOM     76  C   UNL A   1      41.703  25.716  26.601  1.00  0.00     0.022 A 
BRANCH  73  77
ATOM     77  S   UNL A   1      43.570  27.413  25.416  1.00  0.00     0.124 S 
ATOM     78  O   UNL A   1      42.583  27.832  24.424  1.00  0.00    -0.237 OA
ATOM     79  O   UNL A   1      44.340  28.480  26.045  1.00  0.00    -0.237 OA
ATOM     80  O   UNL A   1      44.335  26.219  25.056  1.00  0.00    -0.744 OA
ENDBRANCH  73  77
ENDBRANCH  56  70
BRANCH  57  81
ATOM     81  C   UNL A   1      39.329  33.126  36.836  1.00  0.00     0.023 A 
ATOM     82  C   UNL A   1      39.965  34.362  37.036  1.00  0.00     0.031 A 
ATOM     83  C   UNL A   1      38.435  32.679  37.824  1.00  0.00     0.131 A 
ATOM     84  C   UNL A   1      39.741  35.081  38.221  1.00  0.00     0.055 A 
ATOM     85  C   UNL A   1      38.168  33.426  38.972  1.00  0.00     0.041 A 
ATOM     86  F   UNL A   1      37.797  31.506  37.682  1.00  0.00    -0.206 F 
ATOM     87  C   UNL A   1      38.835  34.629  39.183  1.00  0.00     0.022 A 
BRANCH  84  88
ATOM     88  S   UNL A   1      40.728  36.570  38.532  1.00  0.00     0.124 S 
ATOM     89  O   UNL A   1      39.693  37.565  38.784  1.00  0.00    -0.237 OA
ATOM     90  O   UNL A   1      41.528  36.168  39.685  1.00  0.00    -0.237 OA
ATOM     91  O   UNL A   1      41.477  36.748  37.289  1.00  0.00    -0.744 OA
ENDBRANCH  84  88
ENDBRANCH  57  81
BRANCH  69  92
ATOM     92  C   UNL A   1      44.533  28.742  35.303  1.00  0.00     0.023 A 
ATOM     93  C   UNL A   1      44.536  27.745  36.293  1.00  0.00     0.031 A 
ATOM     94  C   UNL A   1      45.742  29.415  35.042  1.00  0.00     0.131 A 
ATOM     95  C   UNL A   1      45.701  27.501  37.037  1.00  0.00     0.055 A 
ATOM     96  C   UNL A   1      46.917  29.113  35.732  1.00  0.00     0.041 A 
ATOM     97  F   UNL A   1      45.800  30.380  34.110  1.00  0.00    -0.206 F 
ATOM     98  C   UNL A   1      46.896  28.164  36.750  1.00  0.00     0.022 A 
BRANCH  95  99
ATOM     99  S   UNL A   1      45.599  26.400  38.475  1.00  0.00     0.124 S 
ATOM    100  O   UNL A   1      46.912  26.578  39.087  1.00  0.00    -0.237 OA
ATOM    101  O   UNL A   1      44.470  26.956  39.214  1.00  0.00    -0.237 OA
ATOM    102  O   UNL A   1      45.364  25.084  37.883  1.00  0.00    -0.744 OA
ENDBRANCH  95  99
ENDBRANCH  69  92
ENDBRANCH  43  44
ENDBRANCH  35  38
ENDBRANCH  33  34
ENDBRANCH  32  33
ENDBRANCH   1  32
TORSDOF 17
ENDMDL
MODEL 2
REMARK VINA RESULT:     -12.6      1.524      7.379
REMARK SMILES C[C@@H](C(=O)NCCCCNC(=O)c1ccc(-c2c3nc(c(-c4cc(S(=O)(=O)[O-])ccc4F)c4ccc([nH]4)c(-c4cc(S(=O)(=O)[O-])ccc4F)c4nc(c(-c5cc(S(=O)(=O)[O-])ccc5F)c5ccc2[nH]5)C=C4)C=C3)cc1)c1ccc2c3cc(Cl)ccc3n(C(=O)c3ccc(Cl)cc3)c2c1
REMARK SMILES IDX 7 1 6 2 5 3 3 4 4 5 2 7 1 8 76 9 77 10 98 11 78 12 97 13
REMARK SMILES IDX 79 14 87 15 80 16 86 17 81 18 85 19 82 20 84 21 83 22 88 23
REMARK SMILES IDX 89 24 90 25 91 26 96 27 92 28 95 29 93 30 94 31 8 32 9 33
REMARK SMILES IDX 10 34 11 35 12 37 13 38 14 39 75 40 15 41 74 42 16 43 17 44
REMARK SMILES IDX 18 45 68 46 19 47 73 48 67 49 69 50 20 51 72 52 66 53 65 54
REMARK SMILES IDX 21 56 53 57 33 58 52 59 34 60 37 61 51 62 70 63 35 64 36 65
REMARK SMILES IDX 50 67 71 68 38 69 22 70 23 71 31 72 24 73 30 74 32 75 29 76
REMARK SMILES IDX 25 77 26 78 27 79 28 80 54 81 55 82 63 83 56 84 62 85 64 86
REMARK SMILES IDX 61 87 57 88 58 89 59 90 60 91 39 92 40 93 48 94 41 95 47 96
REMARK SMILES IDX 49 97 46 98 42 99 43 100 44 101 45 102
REMARK H PARENT 5 6 10 36 69 55 37 66
REMARK Flexibility Score: inf
ROOT
ATOM      1  C   UNL A   1      32.426  29.650  25.254  1.00  0.00     0.023 C 
ENDROOT
BRANCH   1   2
ATOM      2  C   UNL A   1      31.313  28.739  24.734  1.00  0.00     0.116 C 
BRANCH   2   3
ATOM      3  N   UNL A   1      30.983  27.735  25.721  1.00  0.00    -0.356 N 
ATOM      4  C   UNL A   1      30.830  26.388  25.562  1.00  0.00     0.227 C 
ATOM      5  O   UNL A   1      30.345  25.765  26.506  1.00  0.00    -0.274 OA
ATOM      6  H   UNL A   1      30.849  28.071  26.637  1.00  0.00     0.163 HD
BRANCH   4   7
ATOM      7  C   UNL A   1      31.310  25.724  24.261  1.00  0.00     0.105 C 
ATOM      8  C   UNL A   1      30.280  24.791  23.617  1.00  0.00     0.023 C 
BRANCH   7   9
ATOM      9  C   UNL A   1      32.607  24.952  24.456  1.00  0.00    -0.034 A 
ATOM     10  C   UNL A   1      33.792  25.610  24.787  1.00  0.00     0.005 A 
ATOM     11  C   UNL A   1      32.604  23.557  24.314  1.00  0.00     0.032 A 
ATOM     12  C   UNL A   1      34.946  24.892  25.086  1.00  0.00     0.011 A 
ATOM     13  C   UNL A   1      33.796  22.838  24.530  1.00  0.00     0.057 A 
ATOM     14  C   UNL A   1      34.939  23.488  24.980  1.00  0.00     0.008 A 
ATOM     15  N   UNL A   1      34.087  21.469  24.383  1.00  0.00    -0.276 N 
ATOM     16  C   UNL A   1      35.920  22.499  25.225  1.00  0.00     0.009 A 
ATOM     17  C   UNL A   1      35.432  21.276  24.743  1.00  0.00     0.057 A 
ATOM     18  C   UNL A   1      37.224  22.591  25.755  1.00  0.00     0.031 A 
ATOM     19  C   UNL A   1      36.308  20.178  24.626  1.00  0.00     0.029 A 
ATOM     20  C   UNL A   1      38.055  21.482  25.708  1.00  0.00     0.041 A 
ATOM     21  C   UNL A   1      37.618  20.302  25.119  1.00  0.00     0.023 A 
ATOM     22  Cl  UNL A   1      39.652  21.597  26.341  1.00  0.00    -0.084 Cl
BRANCH  15  23
ATOM     23  C   UNL A   1      33.139  20.535  23.878  1.00  0.00     0.262 C 
ATOM     24  O   UNL A   1      32.260  21.007  23.149  1.00  0.00    -0.268 OA
BRANCH  23  25
ATOM     25  C   UNL A   1      32.998  19.071  24.129  1.00  0.00     0.040 A 
ATOM     26  C   UNL A   1      32.712  18.686  25.458  1.00  0.00     0.015 A 
ATOM     27  C   UNL A   1      33.285  18.072  23.196  1.00  0.00     0.015 A 
ATOM     28  C   UNL A   1      32.707  17.345  25.848  1.00  0.00     0.021 A 
ATOM     29  C   UNL A   1      33.247  16.719  23.580  1.00  0.00     0.021 A 
ATOM     30  C   UNL A   1      32.969  16.364  24.902  1.00  0.00     0.041 A 
ATOM     31  Cl  UNL A   1      32.985  14.711  25.375  1.00  0.00    -0.084 Cl
ENDBRANCH  23  25
ENDBRANCH  15  23
ENDBRANCH   7   9
ENDBRANCH   4   7
ENDBRANCH   2   3
ENDBRANCH   1   2
BRANCH   1  32
ATOM     32  C   UNL A   1      31.968  30.664  26.305  1.00  0.00     0.023 C 
BRANCH  32  33
ATOM     33  C   UNL A   1      33.066  31.136  27.246  1.00  0.00     0.116 C 
BRANCH  33  34
ATOM     34  N   UNL A   1      33.090  32.582  27.379  1.00  0.00    -0.352 N 
ATOM     35  C   UNL A   1      33.926  33.364  28.137  1.00  0.00     0.251 C 
ATOM     36  H   UNL A   1      32.414  33.069  26.854  1.00  0.00     0.163 HD
ATOM     37  O   UNL A   1      33.680  34.556  28.272  1.00  0.00    -0.269 OA
BRANCH  35  38
ATOM     38  C   UNL A   1      35.096  32.751  28.803  1.00  0.00     0.039 A 
ATOM     39  C   UNL A   1      36.374  33.156  28.417  1.00  0.00     0.014 A 
ATOM     40  C   UNL A   1      34.935  31.780  29.796  1.00  0.00     0.014 A 
ATOM     41  C   UNL A   1      37.490  32.608  29.051  1.00  0.00     0.010 A 
ATOM     42  C   UNL A   1      36.043  31.304  30.488  1.00  0.00     0.010 A 
ATOM     43  C   UNL A   1      37.334  31.692  30.105  1.00  0.00    -0.014 A 
BRANCH  43  44
ATOM     44  C   UNL A   1      38.518  31.100  30.779  1.00  0.00     0.031 A 
ATOM     45  C   UNL A   1      38.900  31.555  32.164  1.00  0.00     0.074 A 
ATOM     46  C   UNL A   1      39.259  30.173  30.140  1.00  0.00     0.049 A 
ATOM     47  N   UNL A   1      39.892  31.162  32.923  1.00  0.00    -0.248 NA
ATOM     48  C   UNL A   1      38.073  32.613  32.764  1.00  0.00     0.031 C 
ATOM     49  C   UNL A   1      39.010  29.685  28.782  1.00  0.00     0.029 A 
ATOM     50  N   UNL A   1      40.363  29.469  30.548  1.00  0.00    -0.354 N 
ATOM     51  C   UNL A   1      39.817  31.933  34.077  1.00  0.00     0.074 A 
ATOM     52  C   UNL A   1      38.727  32.865  33.888  1.00  0.00     0.031 C 
ATOM     53  C   UNL A   1      39.905  28.728  28.489  1.00  0.00     0.029 A 
ATOM     54  C   UNL A   1      40.820  28.567  29.614  1.00  0.00     0.049 A 
ATOM     55  H   UNL A   1      40.790  29.598  31.426  1.00  0.00     0.167 HD
ATOM     56  C   UNL A   1      40.569  31.853  35.202  1.00  0.00     0.034 A 
ATOM     57  C   UNL A   1      41.857  27.707  29.664  1.00  0.00     0.034 A 
ATOM     58  C   UNL A   1      41.643  30.906  35.376  1.00  0.00     0.049 A 
ATOM     59  C   UNL A   1      42.694  27.653  30.919  1.00  0.00     0.074 A 
ATOM     60  C   UNL A   1      42.433  30.696  36.493  1.00  0.00     0.029 A 
ATOM     61  N   UNL A   1      42.089  30.020  34.404  1.00  0.00    -0.354 N 
ATOM     62  N   UNL A   1      42.570  28.345  32.029  1.00  0.00    -0.248 NA
ATOM     63  C   UNL A   1      43.799  26.687  30.931  1.00  0.00     0.031 C 
ATOM     64  C   UNL A   1      43.407  29.745  36.169  1.00  0.00     0.029 A 
ATOM     65  C   UNL A   1      43.166  29.288  34.883  1.00  0.00     0.049 A 
ATOM     66  H   UNL A   1      41.698  29.924  33.505  1.00  0.00     0.167 HD
ATOM     67  C   UNL A   1      43.557  27.864  32.886  1.00  0.00     0.074 A 
ATOM     68  C   UNL A   1      44.253  26.816  32.167  1.00  0.00     0.031 C 
ATOM     69  C   UNL A   1      43.857  28.249  34.154  1.00  0.00     0.034 A 
BRANCH  56  70
ATOM     70  C   UNL A   1      40.273  32.839  36.311  1.00  0.00     0.023 A 
ATOM     71  C   UNL A   1      39.523  32.480  37.446  1.00  0.00     0.031 A 
ATOM     72  C   UNL A   1      40.720  34.169  36.216  1.00  0.00     0.131 A 
ATOM     73  C   UNL A   1      39.172  33.455  38.393  1.00  0.00     0.055 A 
ATOM     74  C   UNL A   1      40.446  35.113  37.208  1.00  0.00     0.041 A 
ATOM     75  F   UNL A   1      41.419  34.581  35.147  1.00  0.00    -0.206 F 
ATOM     76  C   UNL A   1      39.652  34.763  38.297  1.00  0.00     0.022 A 
BRANCH  73  77
ATOM     77  S   UNL A   1      37.944  33.030  39.659  1.00  0.00     0.124 S 
ATOM     78  O   UNL A   1      38.145  34.099  40.635  1.00  0.00    -0.237 OA
ATOM     79  O   UNL A   1      36.693  33.072  38.911  1.00  0.00    -0.237 OA
ATOM     80  O   UNL A   1      38.360  31.702  40.107  1.00  0.00    -0.744 OA
ENDBRANCH  73  77
ENDBRANCH  56  70
BRANCH  57  81
ATOM     81  C   UNL A   1      42.164  26.820  28.505  1.00  0.00     0.023 A 
ATOM     82  C   UNL A   1      43.328  27.005  27.742  1.00  0.00     0.031 A 
ATOM     83  C   UNL A   1      41.272  25.808  28.107  1.00  0.00     0.131 A 
ATOM     84  C   UNL A   1      43.544  26.230  26.592  1.00  0.00     0.055 A 
ATOM     85  C   UNL A   1      41.520  24.998  26.998  1.00  0.00     0.041 A 
ATOM     86  F   UNL A   1      40.145  25.585  28.802  1.00  0.00    -0.206 F 
ATOM     87  C   UNL A   1      42.655  25.218  26.223  1.00  0.00     0.022 A 
BRANCH  84  88
ATOM     88  S   UNL A   1      44.955  26.633  25.526  1.00  0.00     0.124 S 
ATOM     89  O   UNL A   1      45.069  25.425  24.718  1.00  0.00    -0.237 OA
ATOM     90  O   UNL A   1      44.481  27.827  24.834  1.00  0.00    -0.237 OA
ATOM     91  O   UNL A   1      46.045  26.856  26.474  1.00  0.00    -0.744 OA
ENDBRANCH  84  88
ENDBRANCH  57  81
BRANCH  69  92
ATOM     92  C   UNL A   1      44.952  27.484  34.863  1.00  0.00     0.023 A 
ATOM     93  C   UNL A   1      44.688  26.321  35.607  1.00  0.00     0.031 A 
ATOM     94  C   UNL A   1      46.279  27.948  34.815  1.00  0.00     0.131 A 
ATOM     95  C   UNL A   1      45.719  25.708  36.335  1.00  0.00     0.055 A 
ATOM     96  C   UNL A   1      47.315  27.288  35.478  1.00  0.00     0.041 A 
ATOM     97  F   UNL A   1      46.593  29.055  34.123  1.00  0.00    -0.206 F 
ATOM     98  C   UNL A   1      47.034  26.171  36.259  1.00  0.00     0.022 A 
BRANCH  95  99
ATOM     99  S   UNL A   1      45.293  24.373  37.488  1.00  0.00     0.124 S 
ATOM    100  O   UNL A   1      46.590  24.057  38.078  1.00  0.00    -0.237 OA
ATOM    101  O   UNL A   1      44.332  25.022  38.374  1.00  0.00    -0.237 OA
ATOM    102  O   UNL A   1      44.736  23.336  36.621  1.00  0.00    -0.744 OA
ENDBRANCH  95  99
ENDBRANCH  69  92
ENDBRANCH  43  44
ENDBRANCH  35  38
ENDBRANCH  33  34
ENDBRANCH  32  33
ENDBRANCH   1  32
TORSDOF 17
ENDMDL
MODEL 3
REMARK VINA RESULT:     -12.5      1.740      3.320
REMARK SMILES C[C@@H](C(=O)NCCCCNC(=O)c1ccc(-c2c3nc(c(-c4cc(S(=O)(=O)[O-])ccc4F)c4ccc([nH]4)c(-c4cc(S(=O)(=O)[O-])ccc4F)c4nc(c(-c5cc(S(=O)(=O)[O-])ccc5F)c5ccc2[nH]5)C=C4)C=C3)cc1)c1ccc2c3cc(Cl)ccc3n(C(=O)c3ccc(Cl)cc3)c2c1
REMARK SMILES IDX 7 1 6 2 5 3 3 4 4 5 2 7 1 8 76 9 77 10 98 11 78 12 97 13
REMARK SMILES IDX 79 14 87 15 80 16 86 17 81 18 85 19 82 20 84 21 83 22 88 23
REMARK SMILES IDX 89 24 90 25 91 26 96 27 92 28 95 29 93 30 94 31 8 32 9 33
REMARK SMILES IDX 10 34 11 35 12 37 13 38 14 39 75 40 15 41 74 42 16 43 17 44
REMARK SMILES IDX 18 45 68 46 19 47 73 48 67 49 69 50 20 51 72 52 66 53 65 54
REMARK SMILES IDX 21 56 53 57 33 58 52 59 34 60 37 61 51 62 70 63 35 64 36 65
REMARK SMILES IDX 50 67 71 68 38 69 22 70 23 71 31 72 24 73 30 74 32 75 29 76
REMARK SMILES IDX 25 77 26 78 27 79 28 80 54 81 55 82 63 83 56 84 62 85 64 86
REMARK SMILES IDX 61 87 57 88 58 89 59 90 60 91 39 92 40 93 48 94 41 95 47 96
REMARK SMILES IDX 49 97 46 98 42 99 43 100 44 101 45 102
REMARK H PARENT 5 6 10 36 69 55 37 66
REMARK Flexibility Score: inf
ROOT
ATOM      1  C   UNL A   1      32.734  30.494  27.063  1.00  0.00     0.023 C 
ENDROOT
BRANCH   1   2
ATOM      2  C   UNL A   1      31.985  29.615  26.060  1.00  0.00     0.116 C 
BRANCH   2   3
ATOM      3  N   UNL A   1      31.494  28.419  26.708  1.00  0.00    -0.356 N 
ATOM      4  C   UNL A   1      31.151  27.219  26.157  1.00  0.00     0.227 C 
ATOM      5  O   UNL A   1      30.563  26.417  26.883  1.00  0.00    -0.274 OA
ATOM      6  H   UNL A   1      31.392  28.480  27.686  1.00  0.00     0.163 HD
BRANCH   4   7
ATOM      7  C   UNL A   1      31.555  26.914  24.705  1.00  0.00     0.105 C 
ATOM      8  C   UNL A   1      30.612  27.508  23.654  1.00  0.00     0.023 C 
BRANCH   7   9
ATOM      9  C   UNL A   1      31.686  25.420  24.448  1.00  0.00    -0.034 A 
ATOM     10  C   UNL A   1      30.747  24.740  23.669  1.00  0.00     0.005 A 
ATOM     11  C   UNL A   1      32.774  24.722  24.990  1.00  0.00     0.032 A 
ATOM     12  C   UNL A   1      30.935  23.403  23.332  1.00  0.00     0.011 A 
ATOM     13  C   UNL A   1      32.915  23.346  24.722  1.00  0.00     0.057 A 
ATOM     14  C   UNL A   1      32.047  22.706  23.845  1.00  0.00     0.008 A 
ATOM     15  N   UNL A   1      33.850  22.405  25.193  1.00  0.00    -0.276 N 
ATOM     16  C   UNL A   1      32.512  21.381  23.680  1.00  0.00     0.009 A 
ATOM     17  C   UNL A   1      33.548  21.167  24.600  1.00  0.00     0.057 A 
ATOM     18  C   UNL A   1      32.059  20.330  22.856  1.00  0.00     0.031 A 
ATOM     19  C   UNL A   1      34.015  19.857  24.826  1.00  0.00     0.029 A 
ATOM     20  C   UNL A   1      32.580  19.057  23.031  1.00  0.00     0.041 A 
ATOM     21  C   UNL A   1      33.519  18.814  24.026  1.00  0.00     0.023 A 
ATOM     22  Cl  UNL A   1      32.017  17.770  22.035  1.00  0.00    -0.084 Cl
BRANCH  15  23
ATOM     23  C   UNL A   1      34.844  22.732  26.158  1.00  0.00     0.262 C 
ATOM     24  O   UNL A   1      34.421  23.067  27.269  1.00  0.00    -0.268 OA
BRANCH  23  25
ATOM     25  C   UNL A   1      36.330  22.790  26.033  1.00  0.00     0.040 A 
ATOM     26  C   UNL A   1      36.979  21.584  25.687  1.00  0.00     0.015 A 
ATOM     27  C   UNL A   1      37.116  23.889  26.386  1.00  0.00     0.015 A 
ATOM     28  C   UNL A   1      38.371  21.475  25.689  1.00  0.00     0.021 A 
ATOM     29  C   UNL A   1      38.519  23.790  26.355  1.00  0.00     0.021 A 
ATOM     30  C   UNL A   1      39.137  22.584  26.018  1.00  0.00     0.041 A 
ATOM     31  Cl  UNL A   1      40.852  22.455  26.043  1.00  0.00    -0.084 Cl
ENDBRANCH  23  25
ENDBRANCH  15  23
ENDBRANCH   7   9
ENDBRANCH   4   7
ENDBRANCH   2   3
ENDBRANCH   1   2
BRANCH   1  32
ATOM     32  C   UNL A   1      32.198  31.923  27.168  1.00  0.00     0.023 C 
BRANCH  32  33
ATOM     33  C   UNL A   1      33.274  32.996  27.245  1.00  0.00     0.116 C 
BRANCH  33  34
ATOM     34  N   UNL A   1      32.818  34.180  27.952  1.00  0.00    -0.352 N 
ATOM     35  C   UNL A   1      33.203  34.651  29.182  1.00  0.00     0.251 C 
ATOM     36  H   UNL A   1      32.140  34.720  27.484  1.00  0.00     0.163 HD
ATOM     37  O   UNL A   1      32.576  35.566  29.702  1.00  0.00    -0.269 OA
BRANCH  35  38
ATOM     38  C   UNL A   1      34.352  34.029  29.876  1.00  0.00     0.039 A 
ATOM     39  C   UNL A   1      35.636  34.500  29.599  1.00  0.00     0.014 A 
ATOM     40  C   UNL A   1      34.166  32.986  30.789  1.00  0.00     0.014 A 
ATOM     41  C   UNL A   1      36.731  33.944  30.261  1.00  0.00     0.010 A 
ATOM     42  C   UNL A   1      35.248  32.497  31.514  1.00  0.00     0.010 A 
ATOM     43  C   UNL A   1      36.545  32.952  31.239  1.00  0.00    -0.014 A 
BRANCH  43  44
ATOM     44  C   UNL A   1      37.707  32.351  31.944  1.00  0.00     0.031 A 
ATOM     45  C   UNL A   1      38.542  31.302  31.256  1.00  0.00     0.074 A 
ATOM     46  C   UNL A   1      37.996  32.731  33.203  1.00  0.00     0.049 A 
ATOM     47  N   UNL A   1      39.593  30.659  31.696  1.00  0.00    -0.248 NA
ATOM     48  C   UNL A   1      38.120  30.901  29.904  1.00  0.00     0.031 C 
ATOM     49  C   UNL A   1      37.235  33.708  33.985  1.00  0.00     0.029 A 
ATOM     50  N   UNL A   1      39.010  32.352  34.045  1.00  0.00    -0.354 N 
ATOM     51  C   UNL A   1      39.948  29.771  30.686  1.00  0.00     0.074 A 
ATOM     52  C   UNL A   1      38.955  29.908  29.641  1.00  0.00     0.031 C 
ATOM     53  C   UNL A   1      37.837  33.885  35.172  1.00  0.00     0.029 A 
ATOM     54  C   UNL A   1      38.996  33.004  35.257  1.00  0.00     0.049 A 
ATOM     55  H   UNL A   1      39.685  31.676  33.805  1.00  0.00     0.167 HD
ATOM     56  C   UNL A   1      41.016  28.939  30.621  1.00  0.00     0.034 A 
ATOM     57  C   UNL A   1      39.827  32.901  36.314  1.00  0.00     0.034 A 
ATOM     58  C   UNL A   1      42.001  28.827  31.669  1.00  0.00     0.049 A 
ATOM     59  C   UNL A   1      40.996  31.951  36.228  1.00  0.00     0.074 A 
ATOM     60  C   UNL A   1      43.155  28.062  31.688  1.00  0.00     0.029 A 
ATOM     61  N   UNL A   1      41.946  29.489  32.889  1.00  0.00    -0.354 N 
ATOM     62  N   UNL A   1      41.354  31.165  35.239  1.00  0.00    -0.248 NA
ATOM     63  C   UNL A   1      41.882  31.891  37.397  1.00  0.00     0.031 C 
ATOM     64  C   UNL A   1      43.750  28.196  32.947  1.00  0.00     0.029 A 
ATOM     65  C   UNL A   1      43.024  29.121  33.681  1.00  0.00     0.049 A 
ATOM     66  H   UNL A   1      41.244  30.127  33.154  1.00  0.00     0.167 HD
ATOM     67  C   UNL A   1      42.533  30.549  35.653  1.00  0.00     0.074 A 
ATOM     68  C   UNL A   1      42.828  31.069  36.973  1.00  0.00     0.031 C 
ATOM     69  C   UNL A   1      43.305  29.641  35.000  1.00  0.00     0.034 A 
BRANCH  56  70
ATOM     70  C   UNL A   1      41.146  28.065  29.394  1.00  0.00     0.023 A 
ATOM     71  C   UNL A   1      42.063  28.355  28.367  1.00  0.00     0.031 A 
ATOM     72  C   UNL A   1      40.318  26.939  29.232  1.00  0.00     0.131 A 
ATOM     73  C   UNL A   1      42.070  27.586  27.193  1.00  0.00     0.055 A 
ATOM     74  C   UNL A   1      40.395  26.123  28.102  1.00  0.00     0.041 A 
ATOM     75  F   UNL A   1      39.406  26.622  30.164  1.00  0.00    -0.206 F 
ATOM     76  C   UNL A   1      41.262  26.455  27.065  1.00  0.00     0.022 A 
BRANCH  73  77
ATOM     77  S   UNL A   1      43.027  28.183  25.772  1.00  0.00     0.124 S 
ATOM     78  O   UNL A   1      44.356  27.651  26.068  1.00  0.00    -0.237 OA
ATOM     79  O   UNL A   1      42.330  27.576  24.645  1.00  0.00    -0.237 OA
ATOM     80  O   UNL A   1      42.913  29.638  25.868  1.00  0.00    -0.744 OA
ENDBRANCH  73  77
ENDBRANCH  56  70
BRANCH  57  81
ATOM     81  C   UNL A   1      39.599  33.721  37.540  1.00  0.00     0.023 A 
ATOM     82  C   UNL A   1      38.863  33.210  38.622  1.00  0.00     0.031 A 
ATOM     83  C   UNL A   1      40.067  35.043  37.629  1.00  0.00     0.131 A 
ATOM     84  C   UNL A   1      38.568  34.034  39.720  1.00  0.00     0.055 A 
ATOM     85  C   UNL A   1      39.824  35.840  38.749  1.00  0.00     0.041 A 
ATOM     86  F   UNL A   1      40.778  35.581  36.625  1.00  0.00    -0.206 F 
ATOM     87  C   UNL A   1      39.056  35.341  39.797  1.00  0.00     0.022 A 
BRANCH  84  88
ATOM     88  S   UNL A   1      37.450  33.405  41.002  1.00  0.00     0.124 S 
ATOM     89  O   UNL A   1      38.345  32.563  41.787  1.00  0.00    -0.237 OA
ATOM     90  O   UNL A   1      37.000  34.637  41.642  1.00  0.00    -0.237 OA
ATOM     91  O   UNL A   1      36.427  32.691  40.241  1.00  0.00    -0.744 OA
ENDBRANCH  84  88
ENDBRANCH  57  81
BRANCH  69  92
ATOM     92  C   UNL A   1      44.578  29.202  35.687  1.00  0.00     0.023 A 
ATOM     93  C   UNL A   1      44.589  28.192  36.664  1.00  0.00     0.031 A 
ATOM     94  C   UNL A   1      45.798  29.832  35.376  1.00  0.00     0.131 A 
ATOM     95  C   UNL A   1      45.777  27.895  37.348  1.00  0.00     0.055 A 
ATOM     96  C   UNL A   1      46.992  29.477  36.006  1.00  0.00     0.041 A 
ATOM     97  F   UNL A   1      45.850  30.807  34.454  1.00  0.00    -0.206 F 
ATOM     98  C   UNL A   1      46.982  28.516  37.012  1.00  0.00     0.022 A 
BRANCH  95  99
ATOM     99  S   UNL A   1      45.701  26.778  38.776  1.00  0.00     0.124 S 
ATOM    100  O   UNL A   1      46.992  27.014  39.415  1.00  0.00    -0.237 OA
ATOM    101  O   UNL A   1      44.533  27.274  39.498  1.00  0.00    -0.237 OA
ATOM    102  O   UNL A   1      45.541  25.457  38.171  1.00  0.00    -0.744 OA
ENDBRANCH  95  99
ENDBRANCH  69  92
ENDBRANCH  43  44
ENDBRANCH  35  38
ENDBRANCH  33  34
ENDBRANCH  32  33
ENDBRANCH   1  32
TORSDOF 17
ENDMDL
