MODEL 1
REMARK VINA RESULT:     -12.7      0.000      0.000
REMARK SMILES Cc1cc(F)cc(N[C@H](C(=O)NCCCCNC(=O)c2ccc(-c3c4nc(c(-c5cc(S(=O)(=O)[O-])ccc5F)c5ccc([nH]5)c(-c5cc(S(=O)(=O)[O-])ccc5F)c5nc(c(-c6cc(S(=O)(=O)[O-])ccc6F)c6ccc3[nH]6)C=C5)C=C4)cc2)c2cc(C)cc(C)c2)c1
REMARK SMILES IDX 15 1 14 2 13 3 12 4 10 5 11 6 9 8 8 9 7 11 1 12 2 13 3 14
REMARK SMILES IDX 91 15 4 16 5 17 6 18 83 19 84 20 90 21 85 22 88 23 86 24
REMARK SMILES IDX 87 25 89 26 16 27 17 28 18 29 19 31 20 32 21 33 82 34 22 35
REMARK SMILES IDX 81 36 23 37 24 38 25 39 75 40 26 41 80 42 74 43 76 44 27 45
REMARK SMILES IDX 79 46 73 47 72 48 28 50 60 51 40 52 59 53 41 54 44 55 58 56
REMARK SMILES IDX 77 57 42 58 43 59 57 61 78 62 45 63 29 64 30 65 38 66 31 67
REMARK SMILES IDX 37 68 39 69 36 70 32 71 33 72 34 73 35 74 61 75 62 76 70 77
REMARK SMILES IDX 63 78 69 79 71 80 68 81 64 82 65 83 66 84 67 85 46 86 47 87
REMARK SMILES IDX 55 88 48 89 54 90 56 91 53 92 49 93 50 94 51 95 52 96
REMARK H PARENT 12 7 8 10 17 30 76 49 44 60
REMARK Flexibility Score: inf
ROOT
ATOM      1  C   UNL A   1      31.182  32.169  26.134  1.00  0.00     0.023 C 
ENDROOT
BRANCH   1   2
ATOM      2  C   UNL A   1      31.171  30.792  25.469  1.00  0.00     0.023 C 
BRANCH   2   3
ATOM      3  C   UNL A   1      32.376  29.902  25.758  1.00  0.00     0.116 C 
BRANCH   3   4
ATOM      4  N   UNL A   1      33.246  29.699  24.619  1.00  0.00    -0.354 N 
ATOM      5  C   UNL A   1      33.133  28.794  23.593  1.00  0.00     0.247 C 
ATOM      6  O   UNL A   1      33.978  28.901  22.696  1.00  0.00    -0.272 OA
ATOM      7  H   UNL A   1      34.028  30.295  24.574  1.00  0.00     0.163 HD
BRANCH   5   8
ATOM      8  C   UNL A   1      32.117  27.610  23.640  1.00  0.00     0.200 C 
BRANCH   8   9
ATOM      9  N   UNL A   1      30.978  27.707  22.695  1.00  0.00    -0.370 N 
ATOM     10  H   UNL A   1      31.074  27.156  21.886  1.00  0.00     0.161 HD
BRANCH   9  11
ATOM     11  C   UNL A   1      29.807  28.436  22.750  1.00  0.00     0.038 A 
ATOM     12  C   UNL A   1      28.711  31.965  21.702  1.00  0.00     0.044 C 
ATOM     13  C   UNL A   1      28.669  30.569  22.245  1.00  0.00    -0.046 A 
ATOM     14  C   UNL A   1      27.466  30.052  22.720  1.00  0.00     0.042 A 
ATOM     15  C   UNL A   1      29.829  29.770  22.299  1.00  0.00     0.029 A 
ATOM     16  C   UNL A   1      27.427  28.742  23.158  1.00  0.00     0.125 A 
ATOM     17  F   UNL A   1      26.275  28.227  23.608  1.00  0.00    -0.207 F 
ATOM     18  C   UNL A   1      28.566  27.940  23.132  1.00  0.00     0.065 A 
ENDBRANCH   9  11
ENDBRANCH   8   9
BRANCH   8  19
ATOM     19  C   UNL A   1      32.715  26.203  23.622  1.00  0.00    -0.016 A 
ATOM     20  C   UNL A   1      33.551  25.752  24.653  1.00  0.00     0.009 A 
ATOM     21  C   UNL A   1      32.569  25.382  22.490  1.00  0.00     0.009 A 
ATOM     22  C   UNL A   1      34.398  24.656  24.476  1.00  0.00    -0.051 A 
ATOM     23  C   UNL A   1      33.297  24.188  22.365  1.00  0.00    -0.051 A 
ATOM     24  C   UNL A   1      35.556  24.464  25.412  1.00  0.00     0.044 C 
ATOM     25  C   UNL A   1      34.257  23.870  23.332  1.00  0.00     0.006 A 
ATOM     26  C   UNL A   1      33.136  23.308  21.161  1.00  0.00     0.044 C 
ENDBRANCH   8  19
ENDBRANCH   5   8
ENDBRANCH   3   4
ENDBRANCH   2   3
ENDBRANCH   1   2
BRANCH   1  27
ATOM     27  C   UNL A   1      32.195  32.357  27.259  1.00  0.00     0.116 C 
BRANCH  27  28
ATOM     28  N   UNL A   1      32.524  33.753  27.505  1.00  0.00    -0.352 N 
ATOM     29  C   UNL A   1      33.617  34.295  28.142  1.00  0.00     0.251 C 
ATOM     30  H   UNL A   1      31.870  34.406  27.166  1.00  0.00     0.163 HD
ATOM     31  O   UNL A   1      33.655  35.502  28.370  1.00  0.00    -0.269 OA
BRANCH  29  32
ATOM     32  C   UNL A   1      34.723  33.416  28.583  1.00  0.00     0.039 A 
ATOM     33  C   UNL A   1      36.043  33.830  28.388  1.00  0.00     0.014 A 
ATOM     34  C   UNL A   1      34.456  32.203  29.222  1.00  0.00     0.014 A 
ATOM     35  C   UNL A   1      37.093  33.073  28.918  1.00  0.00     0.010 A 
ATOM     36  C   UNL A   1      35.497  31.492  29.814  1.00  0.00     0.010 A 
ATOM     37  C   UNL A   1      36.826  31.924  29.680  1.00  0.00    -0.014 A 
BRANCH  37  38
ATOM     38  C   UNL A   1      37.909  31.159  30.356  1.00  0.00     0.031 A 
ATOM     39  C   UNL A   1      38.278  31.481  31.778  1.00  0.00     0.074 A 
ATOM     40  C   UNL A   1      38.621  30.247  29.663  1.00  0.00     0.049 A 
ATOM     41  N   UNL A   1      39.282  31.043  32.495  1.00  0.00    -0.248 NA
ATOM     42  C   UNL A   1      37.421  32.453  32.472  1.00  0.00     0.031 C 
ATOM     43  C   UNL A   1      38.385  29.869  28.267  1.00  0.00     0.029 A 
ATOM     44  N   UNL A   1      39.704  29.485  30.031  1.00  0.00    -0.354 N 
ATOM     45  C   UNL A   1      39.192  31.705  33.715  1.00  0.00     0.074 A 
ATOM     46  C   UNL A   1      38.068  32.612  33.617  1.00  0.00     0.031 C 
ATOM     47  C   UNL A   1      39.284  28.940  27.905  1.00  0.00     0.029 A 
ATOM     48  C   UNL A   1      40.194  28.692  29.018  1.00  0.00     0.049 A 
ATOM     49  H   UNL A   1      40.093  29.505  30.935  1.00  0.00     0.167 HD
ATOM     50  C   UNL A   1      39.964  31.555  34.821  1.00  0.00     0.034 A 
ATOM     51  C   UNL A   1      41.266  27.874  28.983  1.00  0.00     0.034 A 
ATOM     52  C   UNL A   1      41.070  30.633  34.909  1.00  0.00     0.049 A 
ATOM     53  C   UNL A   1      42.121  27.736  30.217  1.00  0.00     0.074 A 
ATOM     54  C   UNL A   1      41.884  30.364  35.995  1.00  0.00     0.029 A 
ATOM     55  N   UNL A   1      41.520  29.830  33.868  1.00  0.00    -0.354 N 
ATOM     56  N   UNL A   1      42.001  28.342  31.376  1.00  0.00    -0.248 NA
ATOM     57  C   UNL A   1      43.249  26.798  30.143  1.00  0.00     0.031 C 
ATOM     58  C   UNL A   1      42.862  29.446  35.596  1.00  0.00     0.029 A 
ATOM     59  C   UNL A   1      42.615  29.085  34.281  1.00  0.00     0.049 A 
ATOM     60  H   UNL A   1      41.122  29.797  32.969  1.00  0.00     0.167 HD
ATOM     61  C   UNL A   1      43.016  27.829  32.179  1.00  0.00     0.074 A 
ATOM     62  C   UNL A   1      43.734  26.863  31.374  1.00  0.00     0.031 C 
ATOM     63  C   UNL A   1      43.320  28.123  33.469  1.00  0.00     0.034 A 
BRANCH  50  64
ATOM     64  C   UNL A   1      39.648  32.431  36.010  1.00  0.00     0.023 A 
ATOM     65  C   UNL A   1      38.800  31.995  37.044  1.00  0.00     0.031 A 
ATOM     66  C   UNL A   1      40.174  33.732  36.098  1.00  0.00     0.131 A 
ATOM     67  C   UNL A   1      38.437  32.877  38.072  1.00  0.00     0.055 A 
ATOM     68  C   UNL A   1      39.876  34.576  37.171  1.00  0.00     0.041 A 
ATOM     69  F   UNL A   1      40.974  34.213  35.133  1.00  0.00    -0.206 F 
ATOM     70  C   UNL A   1      38.990  34.156  38.157  1.00  0.00     0.022 A 
BRANCH  67  71
ATOM     71  S   UNL A   1      37.117  32.378  39.212  1.00  0.00     0.124 S 
ATOM     72  O   UNL A   1      35.922  32.705  38.438  1.00  0.00    -0.237 OA
ATOM     73  O   UNL A   1      37.385  30.957  39.404  1.00  0.00    -0.237 OA
ATOM     74  O   UNL A   1      37.341  33.220  40.386  1.00  0.00    -0.744 OA
ENDBRANCH  67  71
ENDBRANCH  50  64
BRANCH  51  75
ATOM     75  C   UNL A   1      41.606  27.129  27.736  1.00  0.00     0.023 A 
ATOM     76  C   UNL A   1      41.442  25.737  27.660  1.00  0.00     0.031 A 
ATOM     77  C   UNL A   1      42.139  27.792  26.616  1.00  0.00     0.131 A 
ATOM     78  C   UNL A   1      41.849  25.046  26.507  1.00  0.00     0.055 A 
ATOM     79  C   UNL A   1      42.495  27.108  25.453  1.00  0.00     0.041 A 
ATOM     80  F   UNL A   1      42.311  29.124  26.634  1.00  0.00    -0.206 F 
ATOM     81  C   UNL A   1      42.362  25.723  25.399  1.00  0.00     0.022 A 
BRANCH  78  82
ATOM     82  S   UNL A   1      41.771  23.234  26.508  1.00  0.00     0.124 S 
ATOM     83  O   UNL A   1      42.481  22.906  25.278  1.00  0.00    -0.237 OA
ATOM     84  O   UNL A   1      42.456  22.903  27.753  1.00  0.00    -0.237 OA
ATOM     85  O   UNL A   1      40.336  22.955  26.495  1.00  0.00    -0.744 OA
ENDBRANCH  78  82
ENDBRANCH  51  75
BRANCH  63  86
ATOM     86  C   UNL A   1      44.439  27.339  34.109  1.00  0.00     0.023 A 
ATOM     87  C   UNL A   1      44.216  26.105  34.741  1.00  0.00     0.031 A 
ATOM     88  C   UNL A   1      45.752  27.841  34.074  1.00  0.00     0.131 A 
ATOM     89  C   UNL A   1      45.287  25.431  35.350  1.00  0.00     0.055 A 
ATOM     90  C   UNL A   1      46.821  27.142  34.635  1.00  0.00     0.041 A 
ATOM     91  F   UNL A   1      46.018  29.017  33.484  1.00  0.00    -0.206 F 
ATOM     92  C   UNL A   1      46.590  25.934  35.286  1.00  0.00     0.022 A 
BRANCH  89  93
ATOM     93  S   UNL A   1      44.946  23.917  36.288  1.00  0.00     0.124 S 
ATOM     94  O   UNL A   1      44.578  24.447  37.598  1.00  0.00    -0.237 OA
ATOM     95  O   UNL A   1      43.865  23.308  35.520  1.00  0.00    -0.237 OA
ATOM     96  O   UNL A   1      46.216  23.194  36.247  1.00  0.00    -0.744 OA
ENDBRANCH  89  93
ENDBRANCH  63  86
ENDBRANCH  37  38
ENDBRANCH  29  32
ENDBRANCH  27  28
ENDBRANCH   1  27
TORSDOF 17
ENDMDL
MODEL 2
REMARK VINA RESULT:     -12.6      0.723      7.450
REMARK SMILES Cc1cc(F)cc(N[C@H](C(=O)NCCCCNC(=O)c2ccc(-c3c4nc(c(-c5cc(S(=O)(=O)[O-])ccc5F)c5ccc([nH]5)c(-c5cc(S(=O)(=O)[O-])ccc5F)c5nc(c(-c6cc(S(=O)(=O)[O-])ccc6F)c6ccc3[nH]6)C=C5)C=C4)cc2)c2cc(C)cc(C)c2)c1
REMARK SMILES IDX 15 1 14 2 13 3 12 4 10 5 11 6 9 8 8 9 7 11 1 12 2 13 3 14
REMARK SMILES IDX 91 15 4 16 5 17 6 18 83 19 84 20 90 21 85 22 88 23 86 24
REMARK SMILES IDX 87 25 89 26 16 27 17 28 18 29 19 31 20 32 21 33 82 34 22 35
REMARK SMILES IDX 81 36 23 37 24 38 25 39 75 40 26 41 80 42 74 43 76 44 27 45
REMARK SMILES IDX 79 46 73 47 72 48 28 50 60 51 40 52 59 53 41 54 44 55 58 56
REMARK SMILES IDX 77 57 42 58 43 59 57 61 78 62 45 63 29 64 30 65 38 66 31 67
REMARK SMILES IDX 37 68 39 69 36 70 32 71 33 72 34 73 35 74 61 75 62 76 70 77
REMARK SMILES IDX 63 78 69 79 71 80 68 81 64 82 65 83 66 84 67 85 46 86 47 87
REMARK SMILES IDX 55 88 48 89 54 90 56 91 53 92 49 93 50 94 51 95 52 96
REMARK H PARENT 12 7 8 10 17 30 76 49 44 60
REMARK Flexibility Score: inf
ROOT
ATOM      1  C   UNL A   1      31.324  31.897  26.595  1.00  0.00     0.023 C 
ENDROOT
BRANCH   1   2
ATOM      2  C   UNL A   1      31.398  30.643  25.724  1.00  0.00     0.023 C 
BRANCH   2   3
ATOM      3  C   UNL A   1      32.625  29.759  25.931  1.00  0.00     0.116 C 
BRANCH   3   4
ATOM      4  N   UNL A   1      33.448  29.608  24.750  1.00  0.00    -0.354 N 
ATOM      5  C   UNL A   1      33.269  28.780  23.669  1.00  0.00     0.247 C 
ATOM      6  O   UNL A   1      34.087  28.922  22.752  1.00  0.00    -0.272 OA
ATOM      7  H   UNL A   1      34.247  30.181  24.717  1.00  0.00     0.163 HD
BRANCH   5   8
ATOM      8  C   UNL A   1      32.217  27.628  23.673  1.00  0.00     0.200 C 
BRANCH   8   9
ATOM      9  N   UNL A   1      31.142  27.741  22.657  1.00  0.00    -0.370 N 
ATOM     10  H   UNL A   1      31.343  27.295  21.803  1.00  0.00     0.161 HD
BRANCH   9  11
ATOM     11  C   UNL A   1      29.910  28.362  22.697  1.00  0.00     0.038 A 
ATOM     12  C   UNL A   1      28.383  31.544  21.184  1.00  0.00     0.044 C 
ATOM     13  C   UNL A   1      28.525  30.266  21.952  1.00  0.00    -0.046 A 
ATOM     14  C   UNL A   1      27.421  29.735  22.615  1.00  0.00     0.042 A 
ATOM     15  C   UNL A   1      29.761  29.594  22.031  1.00  0.00     0.029 A 
ATOM     16  C   UNL A   1      27.549  28.524  23.266  1.00  0.00     0.125 A 
ATOM     17  F   UNL A   1      26.493  27.996  23.899  1.00  0.00    -0.207 F 
ATOM     18  C   UNL A   1      28.759  27.833  23.269  1.00  0.00     0.065 A 
ENDBRANCH   9  11
ENDBRANCH   8   9
BRANCH   8  19
ATOM     19  C   UNL A   1      32.771  26.203  23.716  1.00  0.00    -0.016 A 
ATOM     20  C   UNL A   1      33.583  25.769  24.773  1.00  0.00     0.009 A 
ATOM     21  C   UNL A   1      32.610  25.343  22.616  1.00  0.00     0.009 A 
ATOM     22  C   UNL A   1      34.398  24.641  24.648  1.00  0.00    -0.051 A 
ATOM     23  C   UNL A   1      33.302  24.123  22.546  1.00  0.00    -0.051 A 
ATOM     24  C   UNL A   1      35.540  24.451  25.603  1.00  0.00     0.044 C 
ATOM     25  C   UNL A   1      34.243  23.814  23.535  1.00  0.00     0.006 A 
ATOM     26  C   UNL A   1      33.125  23.202  21.376  1.00  0.00     0.044 C 
ENDBRANCH   8  19
ENDBRANCH   5   8
ENDBRANCH   3   4
ENDBRANCH   2   3
ENDBRANCH   1   2
BRANCH   1  27
ATOM     27  C   UNL A   1      32.649  32.608  26.854  1.00  0.00     0.116 C 
BRANCH  27  28
ATOM     28  N   UNL A   1      32.497  33.852  27.593  1.00  0.00    -0.352 N 
ATOM     29  C   UNL A   1      33.250  34.349  28.634  1.00  0.00     0.251 C 
ATOM     30  H   UNL A   1      31.747  34.422  27.308  1.00  0.00     0.163 HD
ATOM     31  O   UNL A   1      32.884  35.364  29.221  1.00  0.00    -0.269 OA
BRANCH  29  32
ATOM     32  C   UNL A   1      34.473  33.636  29.063  1.00  0.00     0.039 A 
ATOM     33  C   UNL A   1      35.722  34.210  28.810  1.00  0.00     0.014 A 
ATOM     34  C   UNL A   1      34.386  32.421  29.748  1.00  0.00     0.014 A 
ATOM     35  C   UNL A   1      36.876  33.614  29.326  1.00  0.00     0.010 A 
ATOM     36  C   UNL A   1      35.528  31.872  30.326  1.00  0.00     0.010 A 
ATOM     37  C   UNL A   1      36.784  32.468  30.133  1.00  0.00    -0.014 A 
BRANCH  37  38
ATOM     38  C   UNL A   1      37.978  31.873  30.794  1.00  0.00     0.031 A 
ATOM     39  C   UNL A   1      38.785  30.823  30.079  1.00  0.00     0.074 A 
ATOM     40  C   UNL A   1      38.277  32.204  32.067  1.00  0.00     0.049 A 
ATOM     41  N   UNL A   1      39.759  30.076  30.530  1.00  0.00    -0.248 NA
ATOM     42  C   UNL A   1      38.419  30.557  28.680  1.00  0.00     0.031 C 
ATOM     43  C   UNL A   1      37.551  33.182  32.881  1.00  0.00     0.029 A 
ATOM     44  N   UNL A   1      39.257  31.739  32.909  1.00  0.00    -0.354 N 
ATOM     45  C   UNL A   1      40.107  29.233  29.480  1.00  0.00     0.074 A 
ATOM     46  C   UNL A   1      39.200  29.528  28.390  1.00  0.00     0.031 C 
ATOM     47  C   UNL A   1      38.119  33.253  34.095  1.00  0.00     0.029 A 
ATOM     48  C   UNL A   1      39.214  32.292  34.169  1.00  0.00     0.049 A 
ATOM     49  H   UNL A   1      39.928  31.072  32.636  1.00  0.00     0.167 HD
ATOM     50  C   UNL A   1      41.103  28.313  29.421  1.00  0.00     0.034 A 
ATOM     51  C   UNL A   1      39.958  32.038  35.266  1.00  0.00     0.034 A 
ATOM     52  C   UNL A   1      42.011  28.044  30.511  1.00  0.00     0.049 A 
ATOM     53  C   UNL A   1      41.048  30.999  35.186  1.00  0.00     0.074 A 
ATOM     54  C   UNL A   1      43.085  27.173  30.542  1.00  0.00     0.029 A 
ATOM     55  N   UNL A   1      41.948  28.642  31.763  1.00  0.00    -0.354 N 
ATOM     56  N   UNL A   1      41.387  30.235  34.172  1.00  0.00    -0.248 NA
ATOM     57  C   UNL A   1      41.860  30.792  36.393  1.00  0.00     0.031 C 
ATOM     58  C   UNL A   1      43.634  27.198  31.829  1.00  0.00     0.029 A 
ATOM     59  C   UNL A   1      42.950  28.139  32.581  1.00  0.00     0.049 A 
ATOM     60  H   UNL A   1      41.289  29.321  32.032  1.00  0.00     0.167 HD
ATOM     61  C   UNL A   1      42.477  29.487  34.610  1.00  0.00     0.074 A 
ATOM     62  C   UNL A   1      42.739  29.893  35.975  1.00  0.00     0.031 C 
ATOM     63  C   UNL A   1      43.201  28.555  33.940  1.00  0.00     0.034 A 
BRANCH  50  64
ATOM     64  C   UNL A   1      41.237  27.517  28.146  1.00  0.00     0.023 A 
ATOM     65  C   UNL A   1      40.850  26.167  28.073  1.00  0.00     0.031 A 
ATOM     66  C   UNL A   1      41.790  28.104  26.993  1.00  0.00     0.131 A 
ATOM     67  C   UNL A   1      41.098  25.428  26.907  1.00  0.00     0.055 A 
ATOM     68  C   UNL A   1      41.955  27.385  25.807  1.00  0.00     0.041 A 
ATOM     69  F   UNL A   1      42.197  29.383  27.005  1.00  0.00    -0.206 F 
ATOM     70  C   UNL A   1      41.624  26.034  25.764  1.00  0.00     0.022 A 
BRANCH  67  71
ATOM     71  S   UNL A   1      40.861  23.630  26.957  1.00  0.00     0.124 S 
ATOM     72  O   UNL A   1      41.743  23.188  25.879  1.00  0.00    -0.237 OA
ATOM     73  O   UNL A   1      41.287  23.293  28.310  1.00  0.00    -0.237 OA
ATOM     74  O   UNL A   1      39.433  23.465  26.692  1.00  0.00    -0.744 OA
ENDBRANCH  67  71
ENDBRANCH  50  64
BRANCH  51  75
ATOM     75  C   UNL A   1      39.695  32.766  36.541  1.00  0.00     0.023 A 
ATOM     76  C   UNL A   1      38.730  32.304  37.450  1.00  0.00     0.031 A 
ATOM     77  C   UNL A   1      40.376  33.957  36.851  1.00  0.00     0.131 A 
ATOM     78  C   UNL A   1      38.440  33.051  38.603  1.00  0.00     0.055 A 
ATOM     79  C   UNL A   1      40.120  34.669  38.023  1.00  0.00     0.041 A 
ATOM     80  F   UNL A   1      41.313  34.439  36.019  1.00  0.00    -0.206 F 
ATOM     81  C   UNL A   1      39.137  34.224  38.901  1.00  0.00     0.022 A 
BRANCH  78  82
ATOM     82  S   UNL A   1      37.077  32.508  39.669  1.00  0.00     0.124 S 
ATOM     83  O   UNL A   1      37.156  33.468  40.764  1.00  0.00    -0.237 OA
ATOM     84  O   UNL A   1      35.927  32.640  38.780  1.00  0.00    -0.237 OA
ATOM     85  O   UNL A   1      37.441  31.136  40.014  1.00  0.00    -0.744 OA
ENDBRANCH  78  82
ENDBRANCH  51  75
BRANCH  63  86
ATOM     86  C   UNL A   1      44.390  27.962  34.654  1.00  0.00     0.023 A 
ATOM     87  C   UNL A   1      44.288  26.794  35.427  1.00  0.00     0.031 A 
ATOM     88  C   UNL A   1      45.649  28.579  34.545  1.00  0.00     0.131 A 
ATOM     89  C   UNL A   1      45.419  26.301  36.097  1.00  0.00     0.055 A 
ATOM     90  C   UNL A   1      46.781  28.055  35.170  1.00  0.00     0.041 A 
ATOM     91  F   UNL A   1      45.801  29.699  33.819  1.00  0.00    -0.206 F 
ATOM     92  C   UNL A   1      46.667  26.915  35.960  1.00  0.00     0.022 A 
BRANCH  89  93
ATOM     93  S   UNL A   1      45.226  24.881  37.208  1.00  0.00     0.124 S 
ATOM     94  O   UNL A   1      46.528  24.829  37.865  1.00  0.00    -0.237 OA
ATOM     95  O   UNL A   1      44.104  25.289  38.048  1.00  0.00    -0.237 OA
ATOM     96  O   UNL A   1      44.945  23.770  36.301  1.00  0.00    -0.744 OA
ENDBRANCH  89  93
ENDBRANCH  63  86
ENDBRANCH  37  38
ENDBRANCH  29  32
ENDBRANCH  27  28
ENDBRANCH   1  27
TORSDOF 17
ENDMDL
MODEL 3
REMARK VINA RESULT:     -12.6      1.684      7.747
REMARK SMILES Cc1cc(F)cc(N[C@H](C(=O)NCCCCNC(=O)c2ccc(-c3c4nc(c(-c5cc(S(=O)(=O)[O-])ccc5F)c5ccc([nH]5)c(-c5cc(S(=O)(=O)[O-])ccc5F)c5nc(c(-c6cc(S(=O)(=O)[O-])ccc6F)c6ccc3[nH]6)C=C5)C=C4)cc2)c2cc(C)cc(C)c2)c1
REMARK SMILES IDX 15 1 14 2 13 3 12 4 10 5 11 6 9 8 8 9 7 11 1 12 2 13 3 14
REMARK SMILES IDX 91 15 4 16 5 17 6 18 83 19 84 20 90 21 85 22 88 23 86 24
REMARK SMILES IDX 87 25 89 26 16 27 17 28 18 29 19 31 20 32 21 33 82 34 22 35
REMARK SMILES IDX 81 36 23 37 24 38 25 39 75 40 26 41 80 42 74 43 76 44 27 45
REMARK SMILES IDX 79 46 73 47 72 48 28 50 60 51 40 52 59 53 41 54 44 55 58 56
REMARK SMILES IDX 77 57 42 58 43 59 57 61 78 62 45 63 29 64 30 65 38 66 31 67
REMARK SMILES IDX 37 68 39 69 36 70 32 71 33 72 34 73 35 74 61 75 62 76 70 77
REMARK SMILES IDX 63 78 69 79 71 80 68 81 64 82 65 83 66 84 67 85 46 86 47 87
REMARK SMILES IDX 55 88 48 89 54 90 56 91 53 92 49 93 50 94 51 95 52 96
REMARK H PARENT 12 7 8 10 17 30 76 49 44 60
REMARK Flexibility Score: inf
ROOT
ATOM      1  C   UNL A   1      31.756  31.037  26.927  1.00  0.00     0.023 C 
ENDROOT
BRANCH   1   2
ATOM      2  C   UNL A   1      31.901  30.058  25.762  1.00  0.00     0.023 C 
BRANCH   2   3
ATOM      3  C   UNL A   1      33.265  29.389  25.620  1.00  0.00     0.116 C 
BRANCH   3   4
ATOM      4  N   UNL A   1      33.727  29.275  24.253  1.00  0.00    -0.354 N 
ATOM      5  C   UNL A   1      33.349  28.381  23.282  1.00  0.00     0.247 C 
ATOM      6  O   UNL A   1      33.845  28.570  22.165  1.00  0.00    -0.272 OA
ATOM      7  H   UNL A   1      34.407  29.933  23.981  1.00  0.00     0.163 HD
BRANCH   5   8
ATOM      8  C   UNL A   1      32.492  27.118  23.607  1.00  0.00     0.200 C 
BRANCH   8   9
ATOM      9  N   UNL A   1      31.211  27.008  22.869  1.00  0.00    -0.370 N 
ATOM     10  H   UNL A   1      31.170  26.256  22.236  1.00  0.00     0.161 HD
BRANCH   9  11
ATOM     11  C   UNL A   1      30.064  27.776  22.913  1.00  0.00     0.038 A 
ATOM     12  C   UNL A   1      29.009  31.222  21.585  1.00  0.00     0.044 C 
ATOM     13  C   UNL A   1      28.959  29.887  22.262  1.00  0.00    -0.046 A 
ATOM     14  C   UNL A   1      27.770  29.457  22.846  1.00  0.00     0.042 A 
ATOM     15  C   UNL A   1      30.098  29.060  22.334  1.00  0.00     0.029 A 
ATOM     16  C   UNL A   1      27.719  28.197  23.411  1.00  0.00     0.125 A 
ATOM     17  F   UNL A   1      26.579  27.765  23.967  1.00  0.00    -0.207 F 
ATOM     18  C   UNL A   1      28.832  27.360  23.405  1.00  0.00     0.065 A 
ENDBRANCH   9  11
ENDBRANCH   8   9
BRANCH   8  19
ATOM     19  C   UNL A   1      33.231  25.779  23.608  1.00  0.00    -0.016 A 
ATOM     20  C   UNL A   1      32.810  24.713  22.800  1.00  0.00     0.009 A 
ATOM     21  C   UNL A   1      34.256  25.532  24.538  1.00  0.00     0.009 A 
ATOM     22  C   UNL A   1      33.210  23.400  23.062  1.00  0.00    -0.051 A 
ATOM     23  C   UNL A   1      34.786  24.243  24.704  1.00  0.00    -0.051 A 
ATOM     24  C   UNL A   1      32.430  22.263  22.468  1.00  0.00     0.044 C 
ATOM     25  C   UNL A   1      34.209  23.173  24.009  1.00  0.00     0.006 A 
ATOM     26  C   UNL A   1      35.885  23.981  25.690  1.00  0.00     0.044 C 
ENDBRANCH   8  19
ENDBRANCH   5   8
ENDBRANCH   3   4
ENDBRANCH   2   3
ENDBRANCH   1   2
BRANCH   1  27
ATOM     27  C   UNL A   1      32.980  31.894  27.235  1.00  0.00     0.116 C 
BRANCH  27  28
ATOM     28  N   UNL A   1      32.664  33.306  27.397  1.00  0.00    -0.352 N 
ATOM     29  C   UNL A   1      33.197  34.226  28.272  1.00  0.00     0.251 C 
ATOM     30  H   UNL A   1      31.969  33.654  26.793  1.00  0.00     0.163 HD
ATOM     31  O   UNL A   1      32.705  35.350  28.350  1.00  0.00    -0.269 OA
BRANCH  29  32
ATOM     32  C   UNL A   1      34.332  33.845  29.141  1.00  0.00     0.039 A 
ATOM     33  C   UNL A   1      34.128  32.912  30.161  1.00  0.00     0.014 A 
ATOM     34  C   UNL A   1      35.604  34.382  28.926  1.00  0.00     0.014 A 
ATOM     35  C   UNL A   1      35.219  32.446  30.902  1.00  0.00     0.010 A 
ATOM     36  C   UNL A   1      36.698  33.860  29.612  1.00  0.00     0.010 A 
ATOM     37  C   UNL A   1      36.520  32.877  30.599  1.00  0.00    -0.014 A 
BRANCH  37  38
ATOM     38  C   UNL A   1      37.715  32.317  31.287  1.00  0.00     0.031 A 
ATOM     39  C   UNL A   1      38.470  31.173  30.666  1.00  0.00     0.074 A 
ATOM     40  C   UNL A   1      38.061  32.770  32.509  1.00  0.00     0.049 A 
ATOM     41  N   UNL A   1      39.436  30.446  31.167  1.00  0.00    -0.248 NA
ATOM     42  C   UNL A   1      38.055  30.774  29.313  1.00  0.00     0.031 C 
ATOM     43  C   UNL A   1      37.389  33.850  33.235  1.00  0.00     0.029 A 
ATOM     44  N   UNL A   1      39.053  32.364  33.369  1.00  0.00    -0.354 N 
ATOM     45  C   UNL A   1      39.727  29.488  30.202  1.00  0.00     0.074 A 
ATOM     46  C   UNL A   1      38.797  29.695  29.112  1.00  0.00     0.031 C 
ATOM     47  C   UNL A   1      37.995  34.029  34.419  1.00  0.00     0.029 A 
ATOM     48  C   UNL A   1      39.064  33.047  34.565  1.00  0.00     0.049 A 
ATOM     49  H   UNL A   1      39.696  31.651  33.151  1.00  0.00     0.167 HD
ATOM     50  C   UNL A   1      40.694  28.535  30.215  1.00  0.00     0.034 A 
ATOM     51  C   UNL A   1      39.832  32.886  35.662  1.00  0.00     0.034 A 
ATOM     52  C   UNL A   1      41.626  28.353  31.302  1.00  0.00     0.049 A 
ATOM     53  C   UNL A   1      40.888  31.810  35.663  1.00  0.00     0.074 A 
ATOM     54  C   UNL A   1      42.675  27.456  31.396  1.00  0.00     0.029 A 
ATOM     55  N   UNL A   1      41.618  29.080  32.486  1.00  0.00    -0.354 N 
ATOM     56  N   UNL A   1      41.175  30.934  34.727  1.00  0.00    -0.248 NA
ATOM     57  C   UNL A   1      41.730  31.705  36.863  1.00  0.00     0.031 C 
ATOM     58  C   UNL A   1      43.263  27.598  32.658  1.00  0.00     0.029 A 
ATOM     59  C   UNL A   1      42.629  28.635  33.324  1.00  0.00     0.049 A 
ATOM     60  H   UNL A   1      40.987  29.805  32.699  1.00  0.00     0.167 HD
ATOM     61  C   UNL A   1      42.255  30.202  35.212  1.00  0.00     0.074 A 
ATOM     62  C   UNL A   1      42.570  30.739  36.519  1.00  0.00     0.031 C 
ATOM     63  C   UNL A   1      42.933  29.182  34.625  1.00  0.00     0.034 A 
BRANCH  50  64
ATOM     64  C   UNL A   1      40.767  27.606  29.027  1.00  0.00     0.023 A 
ATOM     65  C   UNL A   1      41.731  27.774  28.017  1.00  0.00     0.031 A 
ATOM     66  C   UNL A   1      39.842  26.557  28.883  1.00  0.00     0.131 A 
ATOM     67  C   UNL A   1      41.696  26.964  26.872  1.00  0.00     0.055 A 
ATOM     68  C   UNL A   1      39.867  25.699  27.781  1.00  0.00     0.041 A 
ATOM     69  F   UNL A   1      38.886  26.357  29.805  1.00  0.00    -0.206 F 
ATOM     70  C   UNL A   1      40.786  25.911  26.759  1.00  0.00     0.022 A 
BRANCH  67  71
ATOM     71  S   UNL A   1      42.758  27.404  25.469  1.00  0.00     0.124 S 
ATOM     72  O   UNL A   1      42.014  28.512  24.874  1.00  0.00    -0.237 OA
ATOM     73  O   UNL A   1      44.014  27.756  26.122  1.00  0.00    -0.237 OA
ATOM     74  O   UNL A   1      42.791  26.183  24.668  1.00  0.00    -0.744 OA
ENDBRANCH  67  71
ENDBRANCH  50  64
BRANCH  51  75
ATOM     75  C   UNL A   1      39.629  33.751  36.860  1.00  0.00     0.023 A 
ATOM     76  C   UNL A   1      38.985  33.258  38.006  1.00  0.00     0.031 A 
ATOM     77  C   UNL A   1      40.039  35.096  36.862  1.00  0.00     0.131 A 
ATOM     78  C   UNL A   1      38.729  34.114  39.089  1.00  0.00     0.055 A 
ATOM     79  C   UNL A   1      39.827  35.930  37.960  1.00  0.00     0.041 A 
ATOM     80  F   UNL A   1      40.665  35.617  35.794  1.00  0.00    -0.206 F 
ATOM     81  C   UNL A   1      39.156  35.443  39.079  1.00  0.00     0.022 A 
BRANCH  78  82
ATOM     82  S   UNL A   1      37.753  33.484  40.482  1.00  0.00     0.124 S 
ATOM     83  O   UNL A   1      38.639  32.460  41.025  1.00  0.00    -0.237 OA
ATOM     84  O   UNL A   1      37.580  34.682  41.296  1.00  0.00    -0.237 OA
ATOM     85  O   UNL A   1      36.536  32.984  39.846  1.00  0.00    -0.744 OA
ENDBRANCH  78  82
ENDBRANCH  51  75
BRANCH  63  86
ATOM     86  C   UNL A   1      44.125  28.629  35.365  1.00  0.00     0.023 A 
ATOM     87  C   UNL A   1      43.996  27.630  36.344  1.00  0.00     0.031 A 
ATOM     88  C   UNL A   1      45.413  29.111  35.073  1.00  0.00     0.131 A 
ATOM     89  C   UNL A   1      45.134  27.173  37.027  1.00  0.00     0.055 A 
ATOM     90  C   UNL A   1      46.547  28.615  35.717  1.00  0.00     0.041 A 
ATOM     91  F   UNL A   1      45.592  30.066  34.146  1.00  0.00    -0.206 F 
ATOM     92  C   UNL A   1      46.410  27.647  36.707  1.00  0.00     0.022 A 
BRANCH  89  93
ATOM     93  S   UNL A   1      44.921  25.995  38.389  1.00  0.00     0.124 S 
ATOM     94  O   UNL A   1      44.113  26.762  39.332  1.00  0.00    -0.237 OA
ATOM     95  O   UNL A   1      44.248  24.877  37.735  1.00  0.00    -0.237 OA
ATOM     96  O   UNL A   1      46.290  25.722  38.825  1.00  0.00    -0.744 OA
ENDBRANCH  89  93
ENDBRANCH  63  86
ENDBRANCH  37  38
ENDBRANCH  29  32
ENDBRANCH  27  28
ENDBRANCH   1  27
TORSDOF 17
ENDMDL
