MODEL 1
REMARK VINA RESULT:     -12.8      0.000      0.000
REMARK SMILES Cc1c(CC(=O)NCCCCNC(=O)c2ccc(-c3c4nc(c(-c5cc(S(=O)(=O)[O-])ccc5F)c5ccc([nH]5)c(-c5cc(S(=O)(=O)[O-])ccc5F)c5nc(c(-c6cc(S(=O)(=O)[O-])ccc6F)c6ccc3[nH]6)C=C5)C=C4)cc2)c2cc(O)ccc2n1C(=O)c1ccc(Cl)cc1
REMARK SMILES IDX 9 1 8 2 7 3 5 4 6 5 4 7 3 8 1 9 2 10 85 11 78 12 84 13 79 14
REMARK SMILES IDX 83 15 80 16 82 17 86 18 87 19 88 20 89 21 94 22 90 23 93 24
REMARK SMILES IDX 91 25 92 26 81 27 10 29 11 30 12 31 13 32 14 34 15 35 16 36
REMARK SMILES IDX 77 37 17 38 76 39 18 40 19 41 20 42 70 43 21 44 75 45 69 46
REMARK SMILES IDX 71 47 22 48 74 49 68 50 67 51 23 53 55 54 35 55 54 56 36 57
REMARK SMILES IDX 39 58 53 59 72 60 37 61 38 62 52 64 73 65 40 66 24 67 25 68
REMARK SMILES IDX 33 69 26 70 32 71 34 72 31 73 27 74 28 75 29 76 30 77 56 78
REMARK SMILES IDX 57 79 65 80 58 81 64 82 66 83 63 84 59 85 60 86 61 87 62 88
REMARK SMILES IDX 41 89 42 90 50 91 43 92 49 93 51 94 48 95 44 96 45 97 46 98
REMARK SMILES IDX 47 99
REMARK H PARENT 7 6 81 28 12 33 71 52 39 63
REMARK Flexibility Score: inf
ROOT
ATOM      1  C   UNL A   1      36.596  22.574  23.560  1.00  0.00     0.023 C 
ENDROOT
BRANCH   1   2
ATOM      2  C   UNL A   1      35.236  22.944  24.150  1.00  0.00     0.116 C 
BRANCH   2   3
ATOM      3  N   UNL A   1      34.414  21.779  24.408  1.00  0.00    -0.356 N 
ATOM      4  C   UNL A   1      33.190  21.469  23.885  1.00  0.00     0.224 C 
ATOM      5  O   UNL A   1      32.671  20.396  24.201  1.00  0.00    -0.275 OA
ATOM      6  H   UNL A   1      34.786  21.126  25.043  1.00  0.00     0.163 HD
BRANCH   4   7
ATOM      7  C   UNL A   1      32.528  22.402  22.881  1.00  0.00     0.138 C 
BRANCH   7   8
ATOM      8  C   UNL A   1      32.063  23.699  23.480  1.00  0.00    -0.009 A 
ATOM      9  C   UNL A   1      32.831  25.345  21.630  1.00  0.00     0.065 C 
ATOM     10  C   UNL A   1      32.229  24.972  22.949  1.00  0.00     0.028 A 
ATOM     11  N   UNL A   1      31.794  25.911  23.895  1.00  0.00    -0.280 N 
ATOM     12  C   UNL A   1      31.316  23.842  24.683  1.00  0.00     0.008 A 
ATOM     13  C   UNL A   1      31.079  25.207  24.881  1.00  0.00     0.057 A 
ATOM     14  C   UNL A   1      30.801  22.907  25.609  1.00  0.00     0.056 A 
ATOM     15  C   UNL A   1      30.264  25.632  25.952  1.00  0.00     0.031 A 
ATOM     16  C   UNL A   1      30.060  23.351  26.699  1.00  0.00     0.116 A 
ATOM     17  C   UNL A   1      29.779  24.694  26.867  1.00  0.00     0.048 A 
BRANCH  11  18
ATOM     18  C   UNL A   1      32.043  27.314  23.849  1.00  0.00     0.262 C 
ATOM     19  O   UNL A   1      33.195  27.720  23.999  1.00  0.00    -0.268 OA
BRANCH  18  20
ATOM     20  C   UNL A   1      31.026  28.348  23.605  1.00  0.00     0.040 A 
ATOM     21  C   UNL A   1      31.065  29.576  24.274  1.00  0.00     0.015 A 
ATOM     22  C   UNL A   1      29.994  28.052  22.707  1.00  0.00     0.015 A 
ATOM     23  C   UNL A   1      30.008  30.476  24.108  1.00  0.00     0.021 A 
ATOM     24  C   UNL A   1      28.948  28.957  22.540  1.00  0.00     0.021 A 
ATOM     25  C   UNL A   1      28.949  30.156  23.256  1.00  0.00     0.041 A 
ATOM     26  Cl  UNL A   1      27.615  31.231  23.105  1.00  0.00    -0.084 Cl
ENDBRANCH  18  20
ENDBRANCH  11  18
BRANCH  16  27
ATOM     27  O   UNL A   1      29.603  22.417  27.581  1.00  0.00    -0.508 OA
ATOM     28  H   UNL A   1      29.127  22.686  28.343  1.00  0.00     0.293 HD
ENDBRANCH  16  27
ENDBRANCH   7   8
ENDBRANCH   4   7
ENDBRANCH   2   3
ENDBRANCH   1   2
BRANCH   1  29
ATOM     29  C   UNL A   1      37.393  21.548  24.384  1.00  0.00     0.023 C 
BRANCH  29  30
ATOM     30  C   UNL A   1      38.010  22.108  25.668  1.00  0.00     0.116 C 
BRANCH  30  31
ATOM     31  N   UNL A   1      39.444  21.905  25.735  1.00  0.00    -0.352 N 
ATOM     32  C   UNL A   1      40.486  22.543  26.345  1.00  0.00     0.251 C 
ATOM     33  H   UNL A   1      39.735  21.120  25.220  1.00  0.00     0.163 HD
ATOM     34  O   UNL A   1      41.584  21.992  26.221  1.00  0.00    -0.269 OA
BRANCH  32  35
ATOM     35  C   UNL A   1      40.402  23.829  27.091  1.00  0.00     0.039 A 
ATOM     36  C   UNL A   1      39.336  24.728  27.048  1.00  0.00     0.014 A 
ATOM     37  C   UNL A   1      41.535  24.173  27.855  1.00  0.00     0.014 A 
ATOM     38  C   UNL A   1      39.419  25.956  27.698  1.00  0.00     0.010 A 
ATOM     39  C   UNL A   1      41.623  25.400  28.508  1.00  0.00     0.010 A 
ATOM     40  C   UNL A   1      40.579  26.310  28.391  1.00  0.00    -0.014 A 
BRANCH  40  41
ATOM     41  C   UNL A   1      40.629  27.646  28.979  1.00  0.00     0.031 A 
ATOM     42  C   UNL A   1      41.642  28.582  28.408  1.00  0.00     0.074 A 
ATOM     43  C   UNL A   1      39.770  28.064  29.927  1.00  0.00     0.049 A 
ATOM     44  N   UNL A   1      42.661  29.132  28.989  1.00  0.00    -0.248 NA
ATOM     45  C   UNL A   1      41.544  28.871  26.972  1.00  0.00     0.031 C 
ATOM     46  C   UNL A   1      38.529  27.429  30.380  1.00  0.00     0.029 A 
ATOM     47  N   UNL A   1      39.793  29.231  30.628  1.00  0.00    -0.354 N 
ATOM     48  C   UNL A   1      43.254  29.966  28.033  1.00  0.00     0.074 A 
ATOM     49  C   UNL A   1      42.594  29.672  26.786  1.00  0.00     0.031 C 
ATOM     50  C   UNL A   1      37.810  28.322  31.100  1.00  0.00     0.029 A 
ATOM     51  C   UNL A   1      38.613  29.516  31.294  1.00  0.00     0.049 A 
ATOM     52  H   UNL A   1      40.580  29.821  30.659  1.00  0.00     0.167 HD
ATOM     53  C   UNL A   1      44.147  30.947  28.355  1.00  0.00     0.034 A 
ATOM     54  C   UNL A   1      38.290  30.684  31.896  1.00  0.00     0.034 A 
ATOM     55  C   UNL A   1      44.667  30.781  29.681  1.00  0.00     0.049 A 
ATOM     56  C   UNL A   1      39.539  31.442  32.143  1.00  0.00     0.074 A 
ATOM     57  C   UNL A   1      45.472  29.852  30.307  1.00  0.00     0.029 A 
ATOM     58  N   UNL A   1      44.116  31.536  30.684  1.00  0.00    -0.354 N 
ATOM     59  N   UNL A   1      40.455  31.097  33.005  1.00  0.00    -0.248 NA
ATOM     60  C   UNL A   1      39.962  32.394  31.128  1.00  0.00     0.031 C 
ATOM     61  C   UNL A   1      44.994  29.795  31.646  1.00  0.00     0.029 A 
ATOM     62  C   UNL A   1      43.945  30.710  31.764  1.00  0.00     0.049 A 
ATOM     63  H   UNL A   1      43.886  32.492  30.638  1.00  0.00     0.167 HD
ATOM     64  C   UNL A   1      41.655  31.443  32.400  1.00  0.00     0.074 A 
ATOM     65  C   UNL A   1      41.282  32.334  31.305  1.00  0.00     0.031 C 
ATOM     66  C   UNL A   1      42.812  30.768  32.667  1.00  0.00     0.034 A 
BRANCH  53  67
ATOM     67  C   UNL A   1      44.358  32.220  27.566  1.00  0.00     0.023 A 
ATOM     68  C   UNL A   1      43.765  33.443  27.925  1.00  0.00     0.031 A 
ATOM     69  C   UNL A   1      45.344  32.291  26.556  1.00  0.00     0.131 A 
ATOM     70  C   UNL A   1      44.126  34.648  27.303  1.00  0.00     0.055 A 
ATOM     71  C   UNL A   1      45.752  33.504  25.982  1.00  0.00     0.041 A 
ATOM     72  F   UNL A   1      45.987  31.191  26.135  1.00  0.00    -0.206 F 
ATOM     73  C   UNL A   1      45.139  34.692  26.354  1.00  0.00     0.022 A 
BRANCH  70  74
ATOM     74  S   UNL A   1      43.266  36.186  27.735  1.00  0.00     0.124 S 
ATOM     75  O   UNL A   1      44.215  37.197  27.267  1.00  0.00    -0.237 OA
ATOM     76  O   UNL A   1      42.036  36.068  26.950  1.00  0.00    -0.237 OA
ATOM     77  O   UNL A   1      43.092  36.089  29.173  1.00  0.00    -0.744 OA
ENDBRANCH  70  74
ENDBRANCH  53  67
BRANCH  54  78
ATOM     78  C   UNL A   1      36.973  31.355  31.816  1.00  0.00     0.023 A 
ATOM     79  C   UNL A   1      36.399  31.609  30.555  1.00  0.00     0.031 A 
ATOM     80  C   UNL A   1      36.421  32.011  32.926  1.00  0.00     0.131 A 
ATOM     81  C   UNL A   1      35.345  32.521  30.425  1.00  0.00     0.055 A 
ATOM     82  C   UNL A   1      35.355  32.910  32.797  1.00  0.00     0.041 A 
ATOM     83  F   UNL A   1      36.946  31.839  34.149  1.00  0.00    -0.206 F 
ATOM     84  C   UNL A   1      34.821  33.178  31.538  1.00  0.00     0.022 A 
BRANCH  81  85
ATOM     85  S   UNL A   1      34.681  32.929  28.787  1.00  0.00     0.124 S 
ATOM     86  O   UNL A   1      35.893  33.253  28.036  1.00  0.00    -0.237 OA
ATOM     87  O   UNL A   1      34.025  31.681  28.413  1.00  0.00    -0.237 OA
ATOM     88  O   UNL A   1      33.797  34.061  29.048  1.00  0.00    -0.744 OA
ENDBRANCH  81  85
ENDBRANCH  54  78
BRANCH  66  89
ATOM     89  C   UNL A   1      42.846  29.783  33.814  1.00  0.00     0.023 A 
ATOM     90  C   UNL A   1      43.483  30.192  35.000  1.00  0.00     0.031 A 
ATOM     91  C   UNL A   1      42.529  28.417  33.683  1.00  0.00     0.131 A 
ATOM     92  C   UNL A   1      43.837  29.250  35.973  1.00  0.00     0.055 A 
ATOM     93  C   UNL A   1      42.816  27.492  34.693  1.00  0.00     0.041 A 
ATOM     94  F   UNL A   1      42.028  27.921  32.546  1.00  0.00    -0.206 F 
ATOM     95  C   UNL A   1      43.491  27.903  35.836  1.00  0.00     0.022 A 
BRANCH  92  96
ATOM     96  S   UNL A   1      44.908  29.719  37.357  1.00  0.00     0.124 S 
ATOM     97  O   UNL A   1      43.956  30.292  38.305  1.00  0.00    -0.237 OA
ATOM     98  O   UNL A   1      45.483  28.434  37.749  1.00  0.00    -0.237 OA
ATOM     99  O   UNL A   1      45.852  30.666  36.771  1.00  0.00    -0.744 OA
ENDBRANCH  92  96
ENDBRANCH  66  89
ENDBRANCH  40  41
ENDBRANCH  32  35
ENDBRANCH  30  31
ENDBRANCH  29  30
ENDBRANCH   1  29
TORSDOF 18
ENDMDL
MODEL 2
REMARK VINA RESULT:     -12.7      3.714      9.166
REMARK SMILES Cc1c(CC(=O)NCCCCNC(=O)c2ccc(-c3c4nc(c(-c5cc(S(=O)(=O)[O-])ccc5F)c5ccc([nH]5)c(-c5cc(S(=O)(=O)[O-])ccc5F)c5nc(c(-c6cc(S(=O)(=O)[O-])ccc6F)c6ccc3[nH]6)C=C5)C=C4)cc2)c2cc(O)ccc2n1C(=O)c1ccc(Cl)cc1
REMARK SMILES IDX 9 1 8 2 7 3 5 4 6 5 4 7 3 8 1 9 2 10 85 11 78 12 84 13 79 14
REMARK SMILES IDX 83 15 80 16 82 17 86 18 87 19 88 20 89 21 94 22 90 23 93 24
REMARK SMILES IDX 91 25 92 26 81 27 10 29 11 30 12 31 13 32 14 34 15 35 16 36
REMARK SMILES IDX 77 37 17 38 76 39 18 40 19 41 20 42 70 43 21 44 75 45 69 46
REMARK SMILES IDX 71 47 22 48 74 49 68 50 67 51 23 53 55 54 35 55 54 56 36 57
REMARK SMILES IDX 39 58 53 59 72 60 37 61 38 62 52 64 73 65 40 66 24 67 25 68
REMARK SMILES IDX 33 69 26 70 32 71 34 72 31 73 27 74 28 75 29 76 30 77 56 78
REMARK SMILES IDX 57 79 65 80 58 81 64 82 66 83 63 84 59 85 60 86 61 87 62 88
REMARK SMILES IDX 41 89 42 90 50 91 43 92 49 93 51 94 48 95 44 96 45 97 46 98
REMARK SMILES IDX 47 99
REMARK H PARENT 7 6 81 28 12 33 71 52 39 63
REMARK Flexibility Score: inf
ROOT
ATOM      1  C   UNL A   1      32.006  28.781  27.621  1.00  0.00     0.023 C 
ENDROOT
BRANCH   1   2
ATOM      2  C   UNL A   1      31.167  27.762  26.852  1.00  0.00     0.116 C 
BRANCH   2   3
ATOM      3  N   UNL A   1      31.604  27.615  25.478  1.00  0.00    -0.356 N 
ATOM      4  C   UNL A   1      32.390  26.637  24.935  1.00  0.00     0.224 C 
ATOM      5  O   UNL A   1      32.612  26.668  23.723  1.00  0.00    -0.275 OA
ATOM      6  H   UNL A   1      31.295  28.311  24.854  1.00  0.00     0.163 HD
BRANCH   4   7
ATOM      7  C   UNL A   1      32.912  25.503  25.806  1.00  0.00     0.138 C 
BRANCH   7   8
ATOM      8  C   UNL A   1      33.294  24.276  25.029  1.00  0.00    -0.009 A 
ATOM      9  C   UNL A   1      30.999  23.681  23.979  1.00  0.00     0.065 C 
ATOM     10  C   UNL A   1      32.453  23.473  24.269  1.00  0.00     0.028 A 
ATOM     11  N   UNL A   1      33.173  22.348  23.843  1.00  0.00    -0.280 N 
ATOM     12  C   UNL A   1      34.609  23.750  24.893  1.00  0.00     0.008 A 
ATOM     13  C   UNL A   1      34.534  22.610  24.084  1.00  0.00     0.057 A 
ATOM     14  C   UNL A   1      35.866  24.174  25.379  1.00  0.00     0.056 A 
ATOM     15  C   UNL A   1      35.715  21.944  23.695  1.00  0.00     0.031 A 
ATOM     16  C   UNL A   1      37.013  23.462  25.042  1.00  0.00     0.116 A 
ATOM     17  C   UNL A   1      36.948  22.367  24.201  1.00  0.00     0.048 A 
BRANCH  11  18
ATOM     18  C   UNL A   1      32.611  21.166  23.278  1.00  0.00     0.262 C 
ATOM     19  O   UNL A   1      32.109  21.222  22.156  1.00  0.00    -0.268 OA
BRANCH  18  20
ATOM     20  C   UNL A   1      32.600  19.841  23.918  1.00  0.00     0.040 A 
ATOM     21  C   UNL A   1      32.703  19.706  25.307  1.00  0.00     0.015 A 
ATOM     22  C   UNL A   1      32.522  18.716  23.091  1.00  0.00     0.015 A 
ATOM     23  C   UNL A   1      32.818  18.428  25.860  1.00  0.00     0.021 A 
ATOM     24  C   UNL A   1      32.630  17.443  23.650  1.00  0.00     0.021 A 
ATOM     25  C   UNL A   1      32.797  17.305  25.029  1.00  0.00     0.041 A 
ATOM     26  Cl  UNL A   1      33.010  15.737  25.702  1.00  0.00    -0.084 Cl
ENDBRANCH  18  20
ENDBRANCH  11  18
BRANCH  16  27
ATOM     27  O   UNL A   1      38.201  23.891  25.553  1.00  0.00    -0.508 OA
ATOM     28  H   UNL A   1      38.991  23.424  25.359  1.00  0.00     0.293 HD
ENDBRANCH  16  27
ENDBRANCH   7   8
ENDBRANCH   4   7
ENDBRANCH   2   3
ENDBRANCH   1   2
BRANCH   1  29
ATOM     29  C   UNL A   1      32.222  30.116  26.888  1.00  0.00     0.023 C 
BRANCH  29  30
ATOM     30  C   UNL A   1      33.643  30.675  26.994  1.00  0.00     0.116 C 
BRANCH  30  31
ATOM     31  N   UNL A   1      33.850  31.455  28.198  1.00  0.00    -0.352 N 
ATOM     32  C   UNL A   1      34.887  31.642  29.066  1.00  0.00     0.251 C 
ATOM     33  H   UNL A   1      33.052  31.974  28.449  1.00  0.00     0.163 HD
ATOM     34  O   UNL A   1      34.686  32.478  29.953  1.00  0.00    -0.269 OA
BRANCH  32  35
ATOM     35  C   UNL A   1      36.184  30.911  29.043  1.00  0.00     0.039 A 
ATOM     36  C   UNL A   1      36.337  29.526  28.960  1.00  0.00     0.014 A 
ATOM     37  C   UNL A   1      37.341  31.704  29.174  1.00  0.00     0.014 A 
ATOM     38  C   UNL A   1      37.598  28.946  29.064  1.00  0.00     0.010 A 
ATOM     39  C   UNL A   1      38.605  31.129  29.277  1.00  0.00     0.010 A 
ATOM     40  C   UNL A   1      38.726  29.744  29.266  1.00  0.00    -0.014 A 
BRANCH  40  41
ATOM     41  C   UNL A   1      40.006  29.063  29.448  1.00  0.00     0.031 A 
ATOM     42  C   UNL A   1      40.565  29.067  30.833  1.00  0.00     0.074 A 
ATOM     43  C   UNL A   1      40.630  28.394  28.461  1.00  0.00     0.049 A 
ATOM     44  N   UNL A   1      41.666  29.596  31.266  1.00  0.00    -0.248 NA
ATOM     45  C   UNL A   1      39.735  28.469  31.886  1.00  0.00     0.031 C 
ATOM     46  C   UNL A   1      40.106  28.004  27.148  1.00  0.00     0.029 A 
ATOM     47  N   UNL A   1      41.868  27.830  28.479  1.00  0.00    -0.354 N 
ATOM     48  C   UNL A   1      41.752  29.266  32.623  1.00  0.00     0.074 A 
ATOM     49  C   UNL A   1      40.483  28.676  32.969  1.00  0.00     0.031 C 
ATOM     50  C   UNL A   1      40.927  27.079  26.601  1.00  0.00     0.029 A 
ATOM     51  C   UNL A   1      42.104  26.945  27.440  1.00  0.00     0.049 A 
ATOM     52  H   UNL A   1      42.539  28.033  29.170  1.00  0.00     0.167 HD
ATOM     53  C   UNL A   1      42.910  29.366  33.340  1.00  0.00     0.034 A 
ATOM     54  C   UNL A   1      43.157  26.103  27.322  1.00  0.00     0.034 A 
ATOM     55  C   UNL A   1      43.888  30.167  32.664  1.00  0.00     0.049 A 
ATOM     56  C   UNL A   1      44.241  26.587  28.208  1.00  0.00     0.074 A 
ATOM     57  C   UNL A   1      43.994  31.499  32.321  1.00  0.00     0.029 A 
ATOM     58  N   UNL A   1      44.871  29.520  31.961  1.00  0.00    -0.354 N 
ATOM     59  N   UNL A   1      44.923  27.682  28.012  1.00  0.00    -0.248 NA
ATOM     60  C   UNL A   1      44.304  26.044  29.555  1.00  0.00     0.031 C 
ATOM     61  C   UNL A   1      44.710  31.505  31.091  1.00  0.00     0.029 A 
ATOM     62  C   UNL A   1      45.020  30.181  30.772  1.00  0.00     0.049 A 
ATOM     63  H   UNL A   1      45.377  28.728  32.257  1.00  0.00     0.167 HD
ATOM     64  C   UNL A   1      45.143  28.192  29.283  1.00  0.00     0.074 A 
ATOM     65  C   UNL A   1      44.840  27.088  30.191  1.00  0.00     0.031 C 
ATOM     66  C   UNL A   1      45.287  29.532  29.502  1.00  0.00     0.034 A 
BRANCH  53  67
ATOM     67  C   UNL A   1      43.262  28.515  34.540  1.00  0.00     0.023 A 
ATOM     68  C   UNL A   1      43.287  27.111  34.495  1.00  0.00     0.031 A 
ATOM     69  C   UNL A   1      43.802  29.100  35.708  1.00  0.00     0.131 A 
ATOM     70  C   UNL A   1      43.804  26.348  35.553  1.00  0.00     0.055 A 
ATOM     71  C   UNL A   1      44.380  28.341  36.735  1.00  0.00     0.041 A 
ATOM     72  F   UNL A   1      43.842  30.432  35.863  1.00  0.00    -0.206 F 
ATOM     73  C   UNL A   1      44.380  26.955  36.662  1.00  0.00     0.022 A 
BRANCH  70  74
ATOM     74  S   UNL A   1      43.729  24.536  35.488  1.00  0.00     0.124 S 
ATOM     75  O   UNL A   1      44.421  24.258  34.229  1.00  0.00    -0.237 OA
ATOM     76  O   UNL A   1      44.458  24.166  36.701  1.00  0.00    -0.237 OA
ATOM     77  O   UNL A   1      42.306  24.251  35.512  1.00  0.00    -0.744 OA
ENDBRANCH  70  74
ENDBRANCH  53  67
BRANCH  54  78
ATOM     78  C   UNL A   1      43.083  24.694  26.878  1.00  0.00     0.023 A 
ATOM     79  C   UNL A   1      44.016  24.213  25.937  1.00  0.00     0.031 A 
ATOM     80  C   UNL A   1      41.947  23.909  27.126  1.00  0.00     0.131 A 
ATOM     81  C   UNL A   1      43.780  23.015  25.251  1.00  0.00     0.055 A 
ATOM     82  C   UNL A   1      41.721  22.703  26.452  1.00  0.00     0.041 A 
ATOM     83  F   UNL A   1      41.004  24.330  27.983  1.00  0.00    -0.206 F 
ATOM     84  C   UNL A   1      42.635  22.258  25.498  1.00  0.00     0.022 A 
BRANCH  81  85
ATOM     85  S   UNL A   1      44.927  22.455  23.963  1.00  0.00     0.124 S 
ATOM     86  O   UNL A   1      44.049  22.338  22.800  1.00  0.00    -0.237 OA
ATOM     87  O   UNL A   1      45.885  23.554  23.919  1.00  0.00    -0.237 OA
ATOM     88  O   UNL A   1      45.434  21.189  24.482  1.00  0.00    -0.744 OA
ENDBRANCH  81  85
ENDBRANCH  54  78
BRANCH  66  89
ATOM     89  C   UNL A   1      45.450  30.462  28.320  1.00  0.00     0.023 A 
ATOM     90  C   UNL A   1      46.742  30.949  28.053  1.00  0.00     0.031 A 
ATOM     91  C   UNL A   1      44.372  31.073  27.650  1.00  0.00     0.131 A 
ATOM     92  C   UNL A   1      46.923  32.042  27.198  1.00  0.00     0.055 A 
ATOM     93  C   UNL A   1      44.565  32.116  26.738  1.00  0.00     0.041 A 
ATOM     94  F   UNL A   1      43.103  30.752  27.929  1.00  0.00    -0.206 F 
ATOM     95  C   UNL A   1      45.843  32.619  26.523  1.00  0.00     0.022 A 
BRANCH  92  96
ATOM     96  S   UNL A   1      48.537  32.855  27.075  1.00  0.00     0.124 S 
ATOM     97  O   UNL A   1      48.229  34.037  26.275  1.00  0.00    -0.237 OA
ATOM     98  O   UNL A   1      48.856  33.116  28.478  1.00  0.00    -0.237 OA
ATOM     99  O   UNL A   1      49.386  31.863  26.422  1.00  0.00    -0.744 OA
ENDBRANCH  92  96
ENDBRANCH  66  89
ENDBRANCH  40  41
ENDBRANCH  32  35
ENDBRANCH  30  31
ENDBRANCH  29  30
ENDBRANCH   1  29
TORSDOF 18
ENDMDL
MODEL 3
REMARK VINA RESULT:     -12.6      2.787      4.391
REMARK SMILES Cc1c(CC(=O)NCCCCNC(=O)c2ccc(-c3c4nc(c(-c5cc(S(=O)(=O)[O-])ccc5F)c5ccc([nH]5)c(-c5cc(S(=O)(=O)[O-])ccc5F)c5nc(c(-c6cc(S(=O)(=O)[O-])ccc6F)c6ccc3[nH]6)C=C5)C=C4)cc2)c2cc(O)ccc2n1C(=O)c1ccc(Cl)cc1
REMARK SMILES IDX 9 1 8 2 7 3 5 4 6 5 4 7 3 8 1 9 2 10 85 11 78 12 84 13 79 14
REMARK SMILES IDX 83 15 80 16 82 17 86 18 87 19 88 20 89 21 94 22 90 23 93 24
REMARK SMILES IDX 91 25 92 26 81 27 10 29 11 30 12 31 13 32 14 34 15 35 16 36
REMARK SMILES IDX 77 37 17 38 76 39 18 40 19 41 20 42 70 43 21 44 75 45 69 46
REMARK SMILES IDX 71 47 22 48 74 49 68 50 67 51 23 53 55 54 35 55 54 56 36 57
REMARK SMILES IDX 39 58 53 59 72 60 37 61 38 62 52 64 73 65 40 66 24 67 25 68
REMARK SMILES IDX 33 69 26 70 32 71 34 72 31 73 27 74 28 75 29 76 30 77 56 78
REMARK SMILES IDX 57 79 65 80 58 81 64 82 66 83 63 84 59 85 60 86 61 87 62 88
REMARK SMILES IDX 41 89 42 90 50 91 43 92 49 93 51 94 48 95 44 96 45 97 46 98
REMARK SMILES IDX 47 99
REMARK H PARENT 7 6 81 28 12 33 71 52 39 63
REMARK Flexibility Score: inf
ROOT
ATOM      1  C   UNL A   1      39.820  21.530  26.470  1.00  0.00     0.023 C 
ENDROOT
BRANCH   1   2
ATOM      2  C   UNL A   1      38.940  22.778  26.535  1.00  0.00     0.116 C 
BRANCH   2   3
ATOM      3  N   UNL A   1      38.345  23.097  25.252  1.00  0.00    -0.356 N 
ATOM      4  C   UNL A   1      37.035  23.359  24.964  1.00  0.00     0.224 C 
ATOM      5  O   UNL A   1      36.737  23.657  23.806  1.00  0.00    -0.275 OA
ATOM      6  H   UNL A   1      38.966  23.130  24.489  1.00  0.00     0.163 HD
BRANCH   4   7
ATOM      7  C   UNL A   1      35.992  23.351  26.072  1.00  0.00     0.138 C 
BRANCH   7   8
ATOM      8  C   UNL A   1      34.701  22.691  25.678  1.00  0.00    -0.009 A 
ATOM      9  C   UNL A   1      35.590  20.362  24.969  1.00  0.00     0.065 C 
ATOM     10  C   UNL A   1      34.539  21.409  25.168  1.00  0.00     0.028 A 
ATOM     11  N   UNL A   1      33.201  21.246  24.784  1.00  0.00    -0.280 N 
ATOM     12  C   UNL A   1      33.401  23.255  25.811  1.00  0.00     0.008 A 
ATOM     13  C   UNL A   1      32.476  22.315  25.338  1.00  0.00     0.057 A 
ATOM     14  C   UNL A   1      32.938  24.488  26.322  1.00  0.00     0.056 A 
ATOM     15  C   UNL A   1      31.093  22.572  25.451  1.00  0.00     0.031 A 
ATOM     16  C   UNL A   1      31.572  24.752  26.359  1.00  0.00     0.116 A 
ATOM     17  C   UNL A   1      30.655  23.805  25.943  1.00  0.00     0.048 A 
BRANCH  11  18
ATOM     18  C   UNL A   1      32.691  20.186  23.978  1.00  0.00     0.262 C 
ATOM     19  O   UNL A   1      32.194  20.454  22.886  1.00  0.00    -0.268 OA
BRANCH  18  20
ATOM     20  C   UNL A   1      32.728  18.758  24.331  1.00  0.00     0.040 A 
ATOM     21  C   UNL A   1      32.461  18.326  25.635  1.00  0.00     0.015 A 
ATOM     22  C   UNL A   1      33.077  17.846  23.329  1.00  0.00     0.015 A 
ATOM     23  C   UNL A   1      32.635  16.976  25.953  1.00  0.00     0.021 A 
ATOM     24  C   UNL A   1      33.241  16.500  23.653  1.00  0.00     0.021 A 
ATOM     25  C   UNL A   1      33.039  16.074  24.967  1.00  0.00     0.041 A 
ATOM     26  Cl  UNL A   1      33.320  14.427  25.374  1.00  0.00    -0.084 Cl
ENDBRANCH  18  20
ENDBRANCH  11  18
BRANCH  16  27
ATOM     27  O   UNL A   1      31.171  25.963  26.837  1.00  0.00    -0.508 OA
ATOM     28  H   UNL A   1      31.694  26.725  26.681  1.00  0.00     0.293 HD
ENDBRANCH  16  27
ENDBRANCH   7   8
ENDBRANCH   4   7
ENDBRANCH   2   3
ENDBRANCH   1   2
BRANCH   1  29
ATOM     29  C   UNL A   1      40.749  21.338  27.681  1.00  0.00     0.023 C 
BRANCH  29  30
ATOM     30  C   UNL A   1      42.226  21.154  27.323  1.00  0.00     0.116 C 
BRANCH  30  31
ATOM     31  N   UNL A   1      42.576  21.762  26.056  1.00  0.00    -0.352 N 
ATOM     32  C   UNL A   1      42.668  23.042  25.586  1.00  0.00     0.251 C 
ATOM     33  H   UNL A   1      42.803  21.094  25.370  1.00  0.00     0.163 HD
ATOM     34  O   UNL A   1      43.092  23.148  24.431  1.00  0.00    -0.269 OA
BRANCH  32  35
ATOM     35  C   UNL A   1      42.271  24.271  26.326  1.00  0.00     0.039 A 
ATOM     36  C   UNL A   1      41.356  25.228  25.886  1.00  0.00     0.014 A 
ATOM     37  C   UNL A   1      42.933  24.493  27.550  1.00  0.00     0.014 A 
ATOM     38  C   UNL A   1      41.151  26.397  26.612  1.00  0.00     0.010 A 
ATOM     39  C   UNL A   1      42.731  25.661  28.281  1.00  0.00     0.010 A 
ATOM     40  C   UNL A   1      41.869  26.634  27.786  1.00  0.00    -0.014 A 
BRANCH  40  41
ATOM     41  C   UNL A   1      41.664  27.917  28.453  1.00  0.00     0.031 A 
ATOM     42  C   UNL A   1      42.558  29.035  28.026  1.00  0.00     0.074 A 
ATOM     43  C   UNL A   1      40.682  28.133  29.347  1.00  0.00     0.049 A 
ATOM     44  N   UNL A   1      43.432  29.691  28.722  1.00  0.00    -0.248 NA
ATOM     45  C   UNL A   1      42.525  29.405  26.605  1.00  0.00     0.031 C 
ATOM     46  C   UNL A   1      39.525  27.285  29.655  1.00  0.00     0.029 A 
ATOM     47  N   UNL A   1      40.468  29.237  30.114  1.00  0.00    -0.354 N 
ATOM     48  C   UNL A   1      43.956  30.670  27.871  1.00  0.00     0.074 A 
ATOM     49  C   UNL A   1      43.446  30.367  26.556  1.00  0.00     0.031 C 
ATOM     50  C   UNL A   1      38.623  28.006  30.361  1.00  0.00     0.029 A 
ATOM     51  C   UNL A   1      39.212  29.292  30.692  1.00  0.00     0.049 A 
ATOM     52  H   UNL A   1      41.148  29.936  30.245  1.00  0.00     0.167 HD
ATOM     53  C   UNL A   1      44.658  31.750  28.323  1.00  0.00     0.034 A 
ATOM     54  C   UNL A   1      38.664  30.352  31.330  1.00  0.00     0.034 A 
ATOM     55  C   UNL A   1      45.096  31.572  29.677  1.00  0.00     0.049 A 
ATOM     56  C   UNL A   1      39.757  31.272  31.727  1.00  0.00     0.074 A 
ATOM     57  C   UNL A   1      45.987  30.735  30.315  1.00  0.00     0.029 A 
ATOM     58  N   UNL A   1      44.359  32.161  30.672  1.00  0.00    -0.354 N 
ATOM     59  N   UNL A   1      40.648  31.010  32.642  1.00  0.00    -0.248 NA
ATOM     60  C   UNL A   1      40.100  32.346  30.808  1.00  0.00     0.031 C 
ATOM     61  C   UNL A   1      45.424  30.511  31.603  1.00  0.00     0.029 A 
ATOM     62  C   UNL A   1      44.239  31.246  31.683  1.00  0.00     0.049 A 
ATOM     63  H   UNL A   1      43.986  33.073  30.661  1.00  0.00     0.167 HD
ATOM     64  C   UNL A   1      41.821  31.576  32.163  1.00  0.00     0.074 A 
ATOM     65  C   UNL A   1      41.396  32.475  31.093  1.00  0.00     0.031 C 
ATOM     66  C   UNL A   1      43.046  31.067  32.488  1.00  0.00     0.034 A 
BRANCH  53  67
ATOM     67  C   UNL A   1      44.724  33.093  27.630  1.00  0.00     0.023 A 
ATOM     68  C   UNL A   1      43.821  34.135  27.904  1.00  0.00     0.031 A 
ATOM     69  C   UNL A   1      45.840  33.443  26.836  1.00  0.00     0.131 A 
ATOM     70  C   UNL A   1      44.016  35.430  27.401  1.00  0.00     0.055 A 
ATOM     71  C   UNL A   1      46.070  34.752  26.391  1.00  0.00     0.041 A 
ATOM     72  F   UNL A   1      46.776  32.536  26.516  1.00  0.00    -0.206 F 
ATOM     73  C   UNL A   1      45.152  35.755  26.671  1.00  0.00     0.022 A 
BRANCH  70  74
ATOM     74  S   UNL A   1      42.773  36.717  27.703  1.00  0.00     0.124 S 
ATOM     75  O   UNL A   1      41.538  36.030  27.321  1.00  0.00    -0.237 OA
ATOM     76  O   UNL A   1      42.939  36.959  29.136  1.00  0.00    -0.237 OA
ATOM     77  O   UNL A   1      43.191  37.807  26.840  1.00  0.00    -0.744 OA
ENDBRANCH  70  74
ENDBRANCH  53  67
BRANCH  54  78
ATOM     78  C   UNL A   1      37.268  30.819  31.178  1.00  0.00     0.023 A 
ATOM     79  C   UNL A   1      36.760  31.076  29.889  1.00  0.00     0.031 A 
ATOM     80  C   UNL A   1      36.536  31.298  32.273  1.00  0.00     0.131 A 
ATOM     81  C   UNL A   1      35.588  31.825  29.724  1.00  0.00     0.055 A 
ATOM     82  C   UNL A   1      35.355  32.032  32.107  1.00  0.00     0.041 A 
ATOM     83  F   UNL A   1      36.986  31.117  33.524  1.00  0.00    -0.206 F 
ATOM     84  C   UNL A   1      34.884  32.310  30.826  1.00  0.00     0.022 A 
BRANCH  81  85
ATOM     85  S   UNL A   1      34.997  32.249  28.063  1.00  0.00     0.124 S 
ATOM     86  O   UNL A   1      36.051  33.138  27.579  1.00  0.00    -0.237 OA
ATOM     87  O   UNL A   1      34.937  30.939  27.425  1.00  0.00    -0.237 OA
ATOM     88  O   UNL A   1      33.712  32.895  28.312  1.00  0.00    -0.744 OA
ENDBRANCH  81  85
ENDBRANCH  54  78
BRANCH  66  89
ATOM     89  C   UNL A   1      43.148  30.020  33.575  1.00  0.00     0.023 A 
ATOM     90  C   UNL A   1      43.682  30.422  34.813  1.00  0.00     0.031 A 
ATOM     91  C   UNL A   1      43.000  28.638  33.348  1.00  0.00     0.131 A 
ATOM     92  C   UNL A   1      44.103  29.467  35.745  1.00  0.00     0.055 A 
ATOM     93  C   UNL A   1      43.352  27.689  34.314  1.00  0.00     0.041 A 
ATOM     94  F   UNL A   1      42.609  28.163  32.160  1.00  0.00    -0.206 F 
ATOM     95  C   UNL A   1      43.925  28.100  35.512  1.00  0.00     0.022 A 
BRANCH  92  96
ATOM     96  S   UNL A   1      45.053  29.965  37.205  1.00  0.00     0.124 S 
ATOM     97  O   UNL A   1      45.893  28.794  37.443  1.00  0.00    -0.237 OA
ATOM     98  O   UNL A   1      45.758  31.151  36.723  1.00  0.00    -0.237 OA
ATOM     99  O   UNL A   1      44.036  30.220  38.220  1.00  0.00    -0.744 OA
ENDBRANCH  92  96
ENDBRANCH  66  89
ENDBRANCH  40  41
ENDBRANCH  32  35
ENDBRANCH  30  31
ENDBRANCH  29  30
ENDBRANCH   1  29
TORSDOF 18
ENDMDL
