MODEL 1
REMARK VINA RESULT:     -12.6      0.000      0.000
REMARK SMILES Cc1ccc(C#N)cc1S(=O)(=O)Nc1cccc(C(=O)NCCCCNC(=O)c2ccc(-c3c4nc(c(-c5cc(S(=O)(=O)[O-])ccc5F)c5ccc([nH]5)c(-c5cc(S(=O)(=O)[O-])ccc5F)c5nc(c(-c6cc(S(=O)(=O)[O-])ccc6F)c6ccc3[nH]6)C=C5)C=C4)cc2)c1
REMARK SMILES IDX 23 1 22 2 21 3 19 4 20 5 18 7 14 8 15 9 92 10 16 11 17 12
REMARK SMILES IDX 13 13 10 15 11 16 12 17 9 18 1 19 2 20 3 21 4 22 8 23 5 24
REMARK SMILES IDX 6 25 7 26 24 27 25 28 26 29 27 30 28 32 29 33 30 34 91 35
REMARK SMILES IDX 31 36 90 37 32 38 33 39 34 40 84 41 35 42 89 43 83 44 85 45
REMARK SMILES IDX 36 46 88 47 82 48 81 49 37 51 69 52 49 53 68 54 50 55 53 56
REMARK SMILES IDX 67 57 86 58 51 59 52 60 66 62 87 63 54 64 38 65 39 66 47 67
REMARK SMILES IDX 40 68 46 69 48 70 45 71 41 72 42 73 43 74 44 75 70 76 71 77
REMARK SMILES IDX 79 78 72 79 78 80 80 81 77 82 73 83 74 84 75 85 76 86 55 87
REMARK SMILES IDX 56 88 64 89 57 90 63 91 65 92 62 93 58 94 59 95 60 96 61 97
REMARK H PARENT 21 6 13 14 26 31 85 50 53 61
REMARK Flexibility Score: inf
ROOT
ATOM      1  C   UNL A   1      34.698  20.949  25.644  1.00  0.00     0.023 C 
ENDROOT
BRANCH   1   2
ATOM      2  C   UNL A   1      33.329  20.292  25.538  1.00  0.00     0.116 C 
BRANCH   2   3
ATOM      3  N   UNL A   1      32.177  21.101  25.899  1.00  0.00    -0.352 N 
ATOM      4  C   UNL A   1      31.728  22.321  25.426  1.00  0.00     0.251 C 
ATOM      5  O   UNL A   1      30.663  22.749  25.873  1.00  0.00    -0.269 OA
ATOM      6  H   UNL A   1      31.616  20.711  26.609  1.00  0.00     0.163 HD
BRANCH   4   7
ATOM      7  C   UNL A   1      32.509  23.199  24.489  1.00  0.00     0.041 A 
ATOM      8  C   UNL A   1      33.486  25.357  23.985  1.00  0.00     0.050 A 
ATOM      9  C   UNL A   1      33.421  25.113  22.623  1.00  0.00     0.027 A 
ATOM     10  C   UNL A   1      33.198  24.336  24.894  1.00  0.00     0.040 A 
ATOM     11  C   UNL A   1      32.938  23.880  22.181  1.00  0.00     0.003 A 
ATOM     12  C   UNL A   1      32.429  22.953  23.108  1.00  0.00     0.014 A 
BRANCH   8  13
ATOM     13  N   UNL A   1      33.850  26.627  24.502  1.00  0.00    -0.280 N 
ATOM     14  H   UNL A   1      34.710  26.692  24.975  1.00  0.00     0.180 HD
BRANCH  13  15
ATOM     15  S   UNL A   1      32.927  28.039  24.373  1.00  0.00     0.262 S 
ATOM     16  O   UNL A   1      33.547  28.725  23.252  1.00  0.00    -0.201 OA
ATOM     17  O   UNL A   1      32.976  28.644  25.689  1.00  0.00    -0.201 OA
BRANCH  15  18
ATOM     18  C   UNL A   1      31.190  27.926  23.954  1.00  0.00     0.092 A 
ATOM     19  C   UNL A   1      30.352  26.167  25.659  1.00  0.00     0.046 C 
ATOM     20  C   UNL A   1      30.213  27.067  24.475  1.00  0.00    -0.030 A 
ATOM     21  C   UNL A   1      28.915  27.091  23.908  1.00  0.00     0.006 A 
ATOM     22  C   UNL A   1      28.532  28.062  22.988  1.00  0.00     0.020 A 
ATOM     23  C   UNL A   1      30.763  28.951  23.071  1.00  0.00     0.042 A 
ATOM     24  C   UNL A   1      29.443  29.040  22.616  1.00  0.00     0.053 A 
BRANCH  24  25
ATOM     25  C   UNL A   1      29.019  30.144  21.799  1.00  0.00     0.099 C 
ATOM     26  N   UNL A   1      28.703  31.033  21.131  1.00  0.00    -0.192 NA
ENDBRANCH  24  25
ENDBRANCH  15  18
ENDBRANCH  13  15
ENDBRANCH   8  13
ENDBRANCH   4   7
ENDBRANCH   2   3
ENDBRANCH   1   2
BRANCH   1  27
ATOM     27  C   UNL A   1      35.851  20.267  24.932  1.00  0.00     0.023 C 
BRANCH  27  28
ATOM     28  C   UNL A   1      37.214  20.916  25.107  1.00  0.00     0.116 C 
BRANCH  28  29
ATOM     29  N   UNL A   1      38.316  19.967  25.249  1.00  0.00    -0.352 N 
ATOM     30  C   UNL A   1      39.539  20.122  25.870  1.00  0.00     0.251 C 
ATOM     31  H   UNL A   1      38.163  19.084  24.840  1.00  0.00     0.163 HD
ATOM     32  O   UNL A   1      40.378  19.229  25.807  1.00  0.00    -0.269 OA
BRANCH  30  33
ATOM     33  C   UNL A   1      39.845  21.396  26.558  1.00  0.00     0.039 A 
ATOM     34  C   UNL A   1      39.244  22.577  26.131  1.00  0.00     0.014 A 
ATOM     35  C   UNL A   1      40.823  21.426  27.555  1.00  0.00     0.014 A 
ATOM     36  C   UNL A   1      39.812  23.791  26.485  1.00  0.00     0.010 A 
ATOM     37  C   UNL A   1      41.295  22.658  28.018  1.00  0.00     0.010 A 
ATOM     38  C   UNL A   1      40.855  23.852  27.426  1.00  0.00    -0.014 A 
BRANCH  38  39
ATOM     39  C   UNL A   1      41.469  25.171  27.749  1.00  0.00     0.031 A 
ATOM     40  C   UNL A   1      42.856  25.523  27.270  1.00  0.00     0.074 A 
ATOM     41  C   UNL A   1      40.743  26.084  28.424  1.00  0.00     0.049 A 
ATOM     42  N   UNL A   1      43.525  26.636  27.439  1.00  0.00    -0.248 NA
ATOM     43  C   UNL A   1      43.594  24.500  26.510  1.00  0.00     0.031 C 
ATOM     44  C   UNL A   1      39.387  25.861  28.930  1.00  0.00     0.029 A 
ATOM     45  N   UNL A   1      41.019  27.380  28.781  1.00  0.00    -0.354 N 
ATOM     46  C   UNL A   1      44.761  26.441  26.831  1.00  0.00     0.074 A 
ATOM     47  C   UNL A   1      44.769  25.087  26.324  1.00  0.00     0.031 C 
ATOM     48  C   UNL A   1      38.928  26.994  29.473  1.00  0.00     0.029 A 
ATOM     49  C   UNL A   1      39.986  27.999  29.447  1.00  0.00     0.049 A 
ATOM     50  H   UNL A   1      41.875  27.824  28.581  1.00  0.00     0.167 HD
ATOM     51  C   UNL A   1      45.785  27.317  26.695  1.00  0.00     0.034 A 
ATOM     52  C   UNL A   1      39.898  29.226  30.000  1.00  0.00     0.034 A 
ATOM     53  C   UNL A   1      45.750  28.674  27.184  1.00  0.00     0.049 A 
ATOM     54  C   UNL A   1      41.065  30.168  29.865  1.00  0.00     0.074 A 
ATOM     55  C   UNL A   1      46.725  29.648  27.061  1.00  0.00     0.029 A 
ATOM     56  N   UNL A   1      44.698  29.252  27.879  1.00  0.00    -0.354 N 
ATOM     57  N   UNL A   1      42.205  29.980  29.245  1.00  0.00    -0.248 NA
ATOM     58  C   UNL A   1      40.934  31.488  30.493  1.00  0.00     0.031 C 
ATOM     59  C   UNL A   1      46.304  30.779  27.759  1.00  0.00     0.029 A 
ATOM     60  C   UNL A   1      45.017  30.557  28.222  1.00  0.00     0.049 A 
ATOM     61  H   UNL A   1      43.849  28.802  28.098  1.00  0.00     0.167 HD
ATOM     62  C   UNL A   1      42.913  31.170  29.378  1.00  0.00     0.074 A 
ATOM     63  C   UNL A   1      42.060  32.078  30.115  1.00  0.00     0.031 C 
ATOM     64  C   UNL A   1      44.158  31.476  28.932  1.00  0.00     0.034 A 
BRANCH  51  65
ATOM     65  C   UNL A   1      47.046  26.874  25.984  1.00  0.00     0.023 A 
ATOM     66  C   UNL A   1      48.062  26.220  26.709  1.00  0.00     0.031 A 
ATOM     67  C   UNL A   1      47.316  27.243  24.654  1.00  0.00     0.131 A 
ATOM     68  C   UNL A   1      49.316  26.009  26.121  1.00  0.00     0.055 A 
ATOM     69  C   UNL A   1      48.548  26.977  24.054  1.00  0.00     0.041 A 
ATOM     70  F   UNL A   1      46.387  27.873  23.918  1.00  0.00    -0.206 F 
ATOM     71  C   UNL A   1      49.561  26.375  24.794  1.00  0.00     0.022 A 
BRANCH  68  72
ATOM     72  S   UNL A   1      50.704  25.348  27.084  1.00  0.00     0.124 S 
ATOM     73  O   UNL A   1      50.052  24.305  27.872  1.00  0.00    -0.237 OA
ATOM     74  O   UNL A   1      51.601  24.870  26.036  1.00  0.00    -0.237 OA
ATOM     75  O   UNL A   1      51.179  26.497  27.848  1.00  0.00    -0.744 OA
ENDBRANCH  68  72
ENDBRANCH  51  65
BRANCH  52  76
ATOM     76  C   UNL A   1      38.635  29.619  30.693  1.00  0.00     0.023 A 
ATOM     77  C   UNL A   1      37.664  30.396  30.033  1.00  0.00     0.031 A 
ATOM     78  C   UNL A   1      38.432  29.329  32.053  1.00  0.00     0.131 A 
ATOM     79  C   UNL A   1      36.588  30.929  30.751  1.00  0.00     0.055 A 
ATOM     80  C   UNL A   1      37.307  29.787  32.743  1.00  0.00     0.041 A 
ATOM     81  F   UNL A   1      39.335  28.607  32.733  1.00  0.00    -0.206 F 
ATOM     82  C   UNL A   1      36.390  30.609  32.097  1.00  0.00     0.022 A 
BRANCH  79  83
ATOM     83  S   UNL A   1      35.501  32.175  30.003  1.00  0.00     0.124 S 
ATOM     84  O   UNL A   1      35.030  31.491  28.804  1.00  0.00    -0.237 OA
ATOM     85  O   UNL A   1      34.504  32.366  31.054  1.00  0.00    -0.237 OA
ATOM     86  O   UNL A   1      36.387  33.313  29.776  1.00  0.00    -0.744 OA
ENDBRANCH  79  83
ENDBRANCH  52  76
BRANCH  64  87
ATOM     87  C   UNL A   1      44.702  32.865  29.180  1.00  0.00     0.023 A 
ATOM     88  C   UNL A   1      44.353  33.914  28.307  1.00  0.00     0.031 A 
ATOM     89  C   UNL A   1      45.678  33.118  30.160  1.00  0.00     0.131 A 
ATOM     90  C   UNL A   1      45.013  35.146  28.392  1.00  0.00     0.055 A 
ATOM     91  C   UNL A   1      46.283  34.370  30.286  1.00  0.00     0.041 A 
ATOM     92  F   UNL A   1      46.061  32.150  31.007  1.00  0.00    -0.206 F 
ATOM     93  C   UNL A   1      45.966  35.384  29.387  1.00  0.00     0.022 A 
BRANCH  90  94
ATOM     94  S   UNL A   1      44.745  36.439  27.147  1.00  0.00     0.124 S 
ATOM     95  O   UNL A   1      43.756  35.814  26.271  1.00  0.00    -0.237 OA
ATOM     96  O   UNL A   1      44.249  37.546  27.959  1.00  0.00    -0.237 OA
ATOM     97  O   UNL A   1      46.064  36.635  26.554  1.00  0.00    -0.744 OA
ENDBRANCH  90  94
ENDBRANCH  64  87
ENDBRANCH  38  39
ENDBRANCH  30  33
ENDBRANCH  28  29
ENDBRANCH  27  28
ENDBRANCH   1  27
TORSDOF 18
ENDMDL
MODEL 2
REMARK VINA RESULT:     -12.2      5.441     10.718
REMARK SMILES Cc1ccc(C#N)cc1S(=O)(=O)Nc1cccc(C(=O)NCCCCNC(=O)c2ccc(-c3c4nc(c(-c5cc(S(=O)(=O)[O-])ccc5F)c5ccc([nH]5)c(-c5cc(S(=O)(=O)[O-])ccc5F)c5nc(c(-c6cc(S(=O)(=O)[O-])ccc6F)c6ccc3[nH]6)C=C5)C=C4)cc2)c1
REMARK SMILES IDX 23 1 22 2 21 3 19 4 20 5 18 7 14 8 15 9 92 10 16 11 17 12
REMARK SMILES IDX 13 13 10 15 11 16 12 17 9 18 1 19 2 20 3 21 4 22 8 23 5 24
REMARK SMILES IDX 6 25 7 26 24 27 25 28 26 29 27 30 28 32 29 33 30 34 91 35
REMARK SMILES IDX 31 36 90 37 32 38 33 39 34 40 84 41 35 42 89 43 83 44 85 45
REMARK SMILES IDX 36 46 88 47 82 48 81 49 37 51 69 52 49 53 68 54 50 55 53 56
REMARK SMILES IDX 67 57 86 58 51 59 52 60 66 62 87 63 54 64 38 65 39 66 47 67
REMARK SMILES IDX 40 68 46 69 48 70 45 71 41 72 42 73 43 74 44 75 70 76 71 77
REMARK SMILES IDX 79 78 72 79 78 80 80 81 77 82 73 83 74 84 75 85 76 86 55 87
REMARK SMILES IDX 56 88 64 89 57 90 63 91 65 92 62 93 58 94 59 95 60 96 61 97
REMARK H PARENT 21 6 13 14 26 31 85 50 53 61
REMARK Flexibility Score: inf
ROOT
ATOM      1  C   UNL A   1      31.581  30.670  26.553  1.00  0.00     0.023 C 
ENDROOT
BRANCH   1   2
ATOM      2  C   UNL A   1      32.958  30.074  26.810  1.00  0.00     0.116 C 
BRANCH   2   3
ATOM      3  N   UNL A   1      33.598  29.387  25.702  1.00  0.00    -0.352 N 
ATOM      4  C   UNL A   1      33.105  28.490  24.770  1.00  0.00     0.251 C 
ATOM      5  O   UNL A   1      33.871  28.113  23.881  1.00  0.00    -0.269 OA
ATOM      6  H   UNL A   1      34.555  29.596  25.595  1.00  0.00     0.163 HD
BRANCH   4   7
ATOM      7  C   UNL A   1      31.738  27.871  24.839  1.00  0.00     0.041 A 
ATOM      8  C   UNL A   1      30.310  26.052  25.556  1.00  0.00     0.050 A 
ATOM      9  C   UNL A   1      29.401  26.313  24.544  1.00  0.00     0.027 A 
ATOM     10  C   UNL A   1      31.363  26.936  25.796  1.00  0.00     0.040 A 
ATOM     11  C   UNL A   1      29.633  27.395  23.693  1.00  0.00     0.003 A 
ATOM     12  C   UNL A   1      30.825  28.132  23.803  1.00  0.00     0.014 A 
BRANCH   8  13
ATOM     13  N   UNL A   1      30.203  24.902  26.380  1.00  0.00    -0.280 N 
ATOM     14  H   UNL A   1      29.430  24.850  26.985  1.00  0.00     0.180 HD
BRANCH  13  15
ATOM     15  S   UNL A   1      31.296  23.610  26.406  1.00  0.00     0.262 S 
ATOM     16  O   UNL A   1      30.456  22.472  26.078  1.00  0.00    -0.201 OA
ATOM     17  O   UNL A   1      31.926  23.674  27.710  1.00  0.00    -0.201 OA
BRANCH  15  18
ATOM     18  C   UNL A   1      32.638  23.563  25.221  1.00  0.00     0.092 A 
ATOM     19  C   UNL A   1      31.368  23.810  22.978  1.00  0.00     0.046 C 
ATOM     20  C   UNL A   1      32.578  23.565  23.821  1.00  0.00    -0.030 A 
ATOM     21  C   UNL A   1      33.781  23.415  23.088  1.00  0.00     0.006 A 
ATOM     22  C   UNL A   1      35.028  23.456  23.706  1.00  0.00     0.020 A 
ATOM     23  C   UNL A   1      33.918  23.674  25.826  1.00  0.00     0.042 A 
ATOM     24  C   UNL A   1      35.099  23.653  25.077  1.00  0.00     0.053 A 
BRANCH  24  25
ATOM     25  C   UNL A   1      36.374  23.864  25.708  1.00  0.00     0.099 C 
ATOM     26  N   UNL A   1      37.401  24.007  26.217  1.00  0.00    -0.192 NA
ENDBRANCH  24  25
ENDBRANCH  15  18
ENDBRANCH  13  15
ENDBRANCH   8  13
ENDBRANCH   4   7
ENDBRANCH   2   3
ENDBRANCH   1   2
BRANCH   1  27
ATOM     27  C   UNL A   1      31.456  32.180  26.619  1.00  0.00     0.023 C 
BRANCH  27  28
ATOM     28  C   UNL A   1      32.735  32.937  26.936  1.00  0.00     0.116 C 
BRANCH  28  29
ATOM     29  N   UNL A   1      32.570  34.010  27.914  1.00  0.00    -0.352 N 
ATOM     30  C   UNL A   1      33.352  34.339  29.003  1.00  0.00     0.251 C 
ATOM     31  H   UNL A   1      31.782  34.584  27.775  1.00  0.00     0.163 HD
ATOM     32  O   UNL A   1      32.998  35.231  29.767  1.00  0.00    -0.269 OA
BRANCH  30  33
ATOM     33  C   UNL A   1      34.586  33.567  29.267  1.00  0.00     0.039 A 
ATOM     34  C   UNL A   1      34.506  32.324  29.890  1.00  0.00     0.014 A 
ATOM     35  C   UNL A   1      35.831  34.140  28.999  1.00  0.00     0.014 A 
ATOM     36  C   UNL A   1      35.639  31.796  30.492  1.00  0.00     0.010 A 
ATOM     37  C   UNL A   1      36.990  33.526  29.485  1.00  0.00     0.010 A 
ATOM     38  C   UNL A   1      36.897  32.394  30.309  1.00  0.00    -0.014 A 
BRANCH  38  39
ATOM     39  C   UNL A   1      38.084  31.822  31.007  1.00  0.00     0.031 A 
ATOM     40  C   UNL A   1      38.467  32.277  32.394  1.00  0.00     0.074 A 
ATOM     41  C   UNL A   1      38.783  30.835  30.411  1.00  0.00     0.049 A 
ATOM     42  N   UNL A   1      39.451  31.862  33.152  1.00  0.00    -0.248 NA
ATOM     43  C   UNL A   1      37.652  33.337  33.012  1.00  0.00     0.031 C 
ATOM     44  C   UNL A   1      38.500  30.305  29.075  1.00  0.00     0.029 A 
ATOM     45  N   UNL A   1      39.847  30.086  30.845  1.00  0.00    -0.354 N 
ATOM     46  C   UNL A   1      39.387  32.618  34.317  1.00  0.00     0.074 A 
ATOM     47  C   UNL A   1      38.293  33.550  34.152  1.00  0.00     0.031 C 
ATOM     48  C   UNL A   1      39.324  29.281  28.825  1.00  0.00     0.029 A 
ATOM     49  C   UNL A   1      40.260  29.139  29.936  1.00  0.00     0.049 A 
ATOM     50  H   UNL A   1      40.276  30.215  31.723  1.00  0.00     0.167 HD
ATOM     51  C   UNL A   1      40.159  32.531  35.427  1.00  0.00     0.034 A 
ATOM     52  C   UNL A   1      41.289  28.267  29.971  1.00  0.00     0.034 A 
ATOM     53  C   UNL A   1      41.230  31.577  35.585  1.00  0.00     0.049 A 
ATOM     54  C   UNL A   1      42.154  28.215  31.202  1.00  0.00     0.074 A 
ATOM     55  C   UNL A   1      42.044  31.388  36.688  1.00  0.00     0.029 A 
ATOM     56  N   UNL A   1      41.636  30.656  34.630  1.00  0.00    -0.354 N 
ATOM     57  N   UNL A   1      42.047  28.905  32.311  1.00  0.00    -0.248 NA
ATOM     58  C   UNL A   1      43.271  27.263  31.194  1.00  0.00     0.031 C 
ATOM     59  C   UNL A   1      42.998  30.422  36.366  1.00  0.00     0.029 A 
ATOM     60  C   UNL A   1      42.712  29.923  35.107  1.00  0.00     0.049 A 
ATOM     61  H   UNL A   1      41.222  30.541  33.743  1.00  0.00     0.167 HD
ATOM     62  C   UNL A   1      43.060  28.446  33.147  1.00  0.00     0.074 A 
ATOM     63  C   UNL A   1      43.752  27.402  32.422  1.00  0.00     0.031 C 
ATOM     64  C   UNL A   1      43.386  28.860  34.398  1.00  0.00     0.034 A 
BRANCH  51  65
ATOM     65  C   UNL A   1      39.897  33.470  36.586  1.00  0.00     0.023 A 
ATOM     66  C   UNL A   1      39.315  32.973  37.769  1.00  0.00     0.031 A 
ATOM     67  C   UNL A   1      40.058  34.862  36.463  1.00  0.00     0.131 A 
ATOM     68  C   UNL A   1      38.863  33.861  38.753  1.00  0.00     0.055 A 
ATOM     69  C   UNL A   1      39.659  35.739  37.472  1.00  0.00     0.041 A 
ATOM     70  F   UNL A   1      40.602  35.391  35.355  1.00  0.00    -0.206 F 
ATOM     71  C   UNL A   1      39.040  35.241  38.616  1.00  0.00     0.022 A 
BRANCH  68  72
ATOM     72  S   UNL A   1      37.936  33.269  40.195  1.00  0.00     0.124 S 
ATOM     73  O   UNL A   1      38.157  34.347  41.157  1.00  0.00    -0.237 OA
ATOM     74  O   UNL A   1      36.578  33.172  39.667  1.00  0.00    -0.237 OA
ATOM     75  O   UNL A   1      38.577  32.001  40.527  1.00  0.00    -0.744 OA
ENDBRANCH  68  72
ENDBRANCH  51  65
BRANCH  52  76
ATOM     76  C   UNL A   1      41.510  27.361  28.804  1.00  0.00     0.023 A 
ATOM     77  C   UNL A   1      42.543  27.617  27.882  1.00  0.00     0.031 A 
ATOM     78  C   UNL A   1      40.628  26.304  28.527  1.00  0.00     0.131 A 
ATOM     79  C   UNL A   1      42.612  26.888  26.690  1.00  0.00     0.055 A 
ATOM     80  C   UNL A   1      40.758  25.519  27.379  1.00  0.00     0.041 A 
ATOM     81  F   UNL A   1      39.617  26.028  29.365  1.00  0.00    -0.206 F 
ATOM     82  C   UNL A   1      41.740  25.823  26.444  1.00  0.00     0.022 A 
BRANCH  79  83
ATOM     83  S   UNL A   1      43.732  27.397  25.356  1.00  0.00     0.124 S 
ATOM     84  O   UNL A   1      44.457  26.163  25.077  1.00  0.00    -0.237 OA
ATOM     85  O   UNL A   1      42.787  27.822  24.324  1.00  0.00    -0.237 OA
ATOM     86  O   UNL A   1      44.517  28.471  25.956  1.00  0.00    -0.744 OA
ENDBRANCH  79  83
ENDBRANCH  52  76
BRANCH  64  87
ATOM     87  C   UNL A   1      44.525  28.176  35.119  1.00  0.00     0.023 A 
ATOM     88  C   UNL A   1      44.244  27.198  36.094  1.00  0.00     0.031 A 
ATOM     89  C   UNL A   1      45.859  28.594  34.971  1.00  0.00     0.131 A 
ATOM     90  C   UNL A   1      45.266  26.715  36.920  1.00  0.00     0.055 A 
ATOM     91  C   UNL A   1      46.888  28.058  35.748  1.00  0.00     0.041 A 
ATOM     92  F   UNL A   1      46.183  29.535  34.068  1.00  0.00    -0.206 F 
ATOM     93  C   UNL A   1      46.590  27.129  36.741  1.00  0.00     0.022 A 
BRANCH  90  94
ATOM     94  S   UNL A   1      44.900  25.627  38.324  1.00  0.00     0.124 S 
ATOM     95  O   UNL A   1      44.006  24.642  37.718  1.00  0.00    -0.237 OA
ATOM     96  O   UNL A   1      46.226  25.130  38.679  1.00  0.00    -0.237 OA
ATOM     97  O   UNL A   1      44.277  26.512  39.302  1.00  0.00    -0.744 OA
ENDBRANCH  90  94
ENDBRANCH  64  87
ENDBRANCH  38  39
ENDBRANCH  30  33
ENDBRANCH  28  29
ENDBRANCH  27  28
ENDBRANCH   1  27
TORSDOF 18
ENDMDL
MODEL 3
REMARK VINA RESULT:     -12.2      4.564      9.740
REMARK SMILES Cc1ccc(C#N)cc1S(=O)(=O)Nc1cccc(C(=O)NCCCCNC(=O)c2ccc(-c3c4nc(c(-c5cc(S(=O)(=O)[O-])ccc5F)c5ccc([nH]5)c(-c5cc(S(=O)(=O)[O-])ccc5F)c5nc(c(-c6cc(S(=O)(=O)[O-])ccc6F)c6ccc3[nH]6)C=C5)C=C4)cc2)c1
REMARK SMILES IDX 23 1 22 2 21 3 19 4 20 5 18 7 14 8 15 9 92 10 16 11 17 12
REMARK SMILES IDX 13 13 10 15 11 16 12 17 9 18 1 19 2 20 3 21 4 22 8 23 5 24
REMARK SMILES IDX 6 25 7 26 24 27 25 28 26 29 27 30 28 32 29 33 30 34 91 35
REMARK SMILES IDX 31 36 90 37 32 38 33 39 34 40 84 41 35 42 89 43 83 44 85 45
REMARK SMILES IDX 36 46 88 47 82 48 81 49 37 51 69 52 49 53 68 54 50 55 53 56
REMARK SMILES IDX 67 57 86 58 51 59 52 60 66 62 87 63 54 64 38 65 39 66 47 67
REMARK SMILES IDX 40 68 46 69 48 70 45 71 41 72 42 73 43 74 44 75 70 76 71 77
REMARK SMILES IDX 79 78 72 79 78 80 80 81 77 82 73 83 74 84 75 85 76 86 55 87
REMARK SMILES IDX 56 88 64 89 57 90 63 91 65 92 62 93 58 94 59 95 60 96 61 97
REMARK H PARENT 21 6 13 14 26 31 85 50 53 61
REMARK Flexibility Score: inf
ROOT
ATOM      1  C   UNL A   1      31.752  29.773  26.386  1.00  0.00     0.023 C 
ENDROOT
BRANCH   1   2
ATOM      2  C   UNL A   1      31.909  29.520  24.893  1.00  0.00     0.116 C 
BRANCH   2   3
ATOM      3  N   UNL A   1      30.758  29.795  24.051  1.00  0.00    -0.352 N 
ATOM      4  C   UNL A   1      29.939  28.957  23.313  1.00  0.00     0.251 C 
ATOM      5  O   UNL A   1      28.975  29.463  22.738  1.00  0.00    -0.269 OA
ATOM      6  H   UNL A   1      30.517  30.748  23.994  1.00  0.00     0.163 HD
BRANCH   4   7
ATOM      7  C   UNL A   1      30.216  27.497  23.086  1.00  0.00     0.041 A 
ATOM      8  C   UNL A   1      30.395  25.249  23.968  1.00  0.00     0.050 A 
ATOM      9  C   UNL A   1      31.270  24.880  22.960  1.00  0.00     0.027 A 
ATOM     10  C   UNL A   1      29.748  26.486  23.916  1.00  0.00     0.040 A 
ATOM     11  C   UNL A   1      31.591  25.812  21.972  1.00  0.00     0.003 A 
ATOM     12  C   UNL A   1      31.114  27.131  22.069  1.00  0.00     0.014 A 
BRANCH   8  13
ATOM     13  N   UNL A   1      30.118  24.398  25.069  1.00  0.00    -0.280 N 
ATOM     14  H   UNL A   1      29.175  24.283  25.325  1.00  0.00     0.180 HD
BRANCH  13  15
ATOM     15  S   UNL A   1      31.276  23.565  25.979  1.00  0.00     0.262 S 
ATOM     16  O   UNL A   1      30.952  22.174  25.713  1.00  0.00    -0.201 OA
ATOM     17  O   UNL A   1      31.139  24.079  27.327  1.00  0.00    -0.201 OA
BRANCH  15  18
ATOM     18  C   UNL A   1      33.011  23.731  25.569  1.00  0.00     0.092 A 
ATOM     19  C   UNL A   1      33.399  26.264  25.942  1.00  0.00     0.046 C 
ATOM     20  C   UNL A   1      33.791  24.893  25.496  1.00  0.00    -0.030 A 
ATOM     21  C   UNL A   1      35.130  24.786  25.045  1.00  0.00     0.006 A 
ATOM     22  C   UNL A   1      35.745  23.552  24.855  1.00  0.00     0.020 A 
ATOM     23  C   UNL A   1      33.674  22.483  25.441  1.00  0.00     0.042 A 
ATOM     24  C   UNL A   1      35.032  22.391  25.119  1.00  0.00     0.053 A 
BRANCH  24  25
ATOM     25  C   UNL A   1      35.697  21.117  25.090  1.00  0.00     0.099 C 
ATOM     26  N   UNL A   1      36.253  20.104  25.079  1.00  0.00    -0.192 NA
ENDBRANCH  24  25
ENDBRANCH  15  18
ENDBRANCH  13  15
ENDBRANCH   8  13
ENDBRANCH   4   7
ENDBRANCH   2   3
ENDBRANCH   1   2
BRANCH   1  27
ATOM     27  C   UNL A   1      33.002  29.677  27.240  1.00  0.00     0.023 C 
BRANCH  27  28
ATOM     28  C   UNL A   1      33.946  30.866  27.168  1.00  0.00     0.116 C 
BRANCH  28  29
ATOM     29  N   UNL A   1      33.902  31.739  28.339  1.00  0.00    -0.352 N 
ATOM     30  C   UNL A   1      34.804  31.868  29.377  1.00  0.00     0.251 C 
ATOM     31  H   UNL A   1      33.110  32.321  28.397  1.00  0.00     0.163 HD
ATOM     32  O   UNL A   1      34.546  32.600  30.327  1.00  0.00    -0.269 OA
BRANCH  30  33
ATOM     33  C   UNL A   1      36.050  31.072  29.356  1.00  0.00     0.039 A 
ATOM     34  C   UNL A   1      36.097  29.839  30.002  1.00  0.00     0.014 A 
ATOM     35  C   UNL A   1      37.207  31.612  28.790  1.00  0.00     0.014 A 
ATOM     36  C   UNL A   1      37.330  29.293  30.328  1.00  0.00     0.010 A 
ATOM     37  C   UNL A   1      38.436  30.979  28.999  1.00  0.00     0.010 A 
ATOM     38  C   UNL A   1      38.520  29.860  29.842  1.00  0.00    -0.014 A 
BRANCH  38  39
ATOM     39  C   UNL A   1      39.828  29.271  30.249  1.00  0.00     0.031 A 
ATOM     40  C   UNL A   1      40.547  29.750  31.486  1.00  0.00     0.074 A 
ATOM     41  C   UNL A   1      40.338  28.249  29.533  1.00  0.00     0.049 A 
ATOM     42  N   UNL A   1      41.676  29.325  31.996  1.00  0.00    -0.248 NA
ATOM     43  C   UNL A   1      39.931  30.849  32.250  1.00  0.00     0.031 C 
ATOM     44  C   UNL A   1      39.727  27.693  28.323  1.00  0.00     0.029 A 
ATOM     45  N   UNL A   1      41.458  27.480  29.720  1.00  0.00    -0.354 N 
ATOM     46  C   UNL A   1      41.915  30.113  33.118  1.00  0.00     0.074 A 
ATOM     47  C   UNL A   1      40.836  31.072  33.193  1.00  0.00     0.031 C 
ATOM     48  C   UNL A   1      40.441  26.639  27.915  1.00  0.00     0.029 A 
ATOM     49  C   UNL A   1      41.616  26.497  28.770  1.00  0.00     0.049 A 
ATOM     50  H   UNL A   1      42.090  27.618  30.463  1.00  0.00     0.167 HD
ATOM     51  C   UNL A   1      42.931  30.031  34.009  1.00  0.00     0.034 A 
ATOM     52  C   UNL A   1      42.602  25.596  28.582  1.00  0.00     0.034 A 
ATOM     53  C   UNL A   1      43.986  29.049  33.933  1.00  0.00     0.049 A 
ATOM     54  C   UNL A   1      43.739  25.550  29.567  1.00  0.00     0.074 A 
ATOM     55  C   UNL A   1      45.040  28.864  34.811  1.00  0.00     0.029 A 
ATOM     56  N   UNL A   1      44.126  28.093  32.938  1.00  0.00    -0.354 N 
ATOM     57  N   UNL A   1      43.921  26.271  30.647  1.00  0.00    -0.248 NA
ATOM     58  C   UNL A   1      44.799  24.565  29.320  1.00  0.00     0.031 C 
ATOM     59  C   UNL A   1      45.864  27.862  34.299  1.00  0.00     0.029 A 
ATOM     60  C   UNL A   1      45.269  27.339  33.163  1.00  0.00     0.049 A 
ATOM     61  H   UNL A   1      43.507  27.967  32.183  1.00  0.00     0.167 HD
ATOM     62  C   UNL A   1      45.096  25.804  31.226  1.00  0.00     0.074 A 
ATOM     63  C   UNL A   1      45.566  24.720  30.389  1.00  0.00     0.031 C 
ATOM     64  C   UNL A   1      45.726  26.239  32.347  1.00  0.00     0.034 A 
BRANCH  51  65
ATOM     65  C   UNL A   1      42.980  31.006  35.166  1.00  0.00     0.023 A 
ATOM     66  C   UNL A   1      43.757  32.177  35.058  1.00  0.00     0.031 A 
ATOM     67  C   UNL A   1      42.411  30.704  36.416  1.00  0.00     0.131 A 
ATOM     68  C   UNL A   1      43.991  32.968  36.190  1.00  0.00     0.055 A 
ATOM     69  C   UNL A   1      42.598  31.527  37.527  1.00  0.00     0.041 A 
ATOM     70  F   UNL A   1      41.666  29.598  36.577  1.00  0.00    -0.206 F 
ATOM     71  C   UNL A   1      43.408  32.655  37.422  1.00  0.00     0.022 A 
BRANCH  68  72
ATOM     72  S   UNL A   1      45.141  34.369  36.133  1.00  0.00     0.124 S 
ATOM     73  O   UNL A   1      45.877  34.104  34.899  1.00  0.00    -0.237 OA
ATOM     74  O   UNL A   1      44.230  35.509  36.084  1.00  0.00    -0.237 OA
ATOM     75  O   UNL A   1      45.919  34.235  37.360  1.00  0.00    -0.744 OA
ENDBRANCH  68  72
ENDBRANCH  51  65
BRANCH  52  76
ATOM     76  C   UNL A   1      42.512  24.655  27.426  1.00  0.00     0.023 A 
ATOM     77  C   UNL A   1      41.712  23.499  27.501  1.00  0.00     0.031 A 
ATOM     78  C   UNL A   1      43.310  24.830  26.283  1.00  0.00     0.131 A 
ATOM     79  C   UNL A   1      41.795  22.525  26.499  1.00  0.00     0.055 A 
ATOM     80  C   UNL A   1      43.320  23.898  25.243  1.00  0.00     0.041 A 
ATOM     81  F   UNL A   1      44.104  25.905  26.169  1.00  0.00    -0.206 F 
ATOM     82  C   UNL A   1      42.577  22.728  25.358  1.00  0.00     0.022 A 
BRANCH  79  83
ATOM     83  S   UNL A   1      41.018  20.900  26.720  1.00  0.00     0.124 S 
ATOM     84  O   UNL A   1      42.056  19.996  26.241  1.00  0.00    -0.237 OA
ATOM     85  O   UNL A   1      40.778  20.881  28.162  1.00  0.00    -0.237 OA
ATOM     86  O   UNL A   1      39.816  20.978  25.895  1.00  0.00    -0.744 OA
ENDBRANCH  79  83
ENDBRANCH  52  76
BRANCH  64  87
ATOM     87  C   UNL A   1      46.990  25.540  32.792  1.00  0.00     0.023 A 
ATOM     88  C   UNL A   1      46.910  24.481  33.719  1.00  0.00     0.031 A 
ATOM     89  C   UNL A   1      48.267  26.012  32.439  1.00  0.00     0.131 A 
ATOM     90  C   UNL A   1      48.075  23.970  34.303  1.00  0.00     0.055 A 
ATOM     91  C   UNL A   1      49.430  25.452  32.972  1.00  0.00     0.041 A 
ATOM     92  F   UNL A   1      48.402  27.029  31.573  1.00  0.00    -0.206 F 
ATOM     93  C   UNL A   1      49.336  24.441  33.923  1.00  0.00     0.022 A 
BRANCH  90  94
ATOM     94  S   UNL A   1      47.992  22.766  35.657  1.00  0.00     0.124 S 
ATOM     95  O   UNL A   1      49.406  22.483  35.897  1.00  0.00    -0.237 OA
ATOM     96  O   UNL A   1      47.322  23.529  36.705  1.00  0.00    -0.237 OA
ATOM     97  O   UNL A   1      47.224  21.659  35.097  1.00  0.00    -0.744 OA
ENDBRANCH  90  94
ENDBRANCH  64  87
ENDBRANCH  38  39
ENDBRANCH  30  33
ENDBRANCH  28  29
ENDBRANCH  27  28
ENDBRANCH   1  27
TORSDOF 18
ENDMDL
