MODEL 1
REMARK VINA RESULT:     -12.4      0.000      0.000
REMARK SMILES Cc1ccccc1-c1nc(CC(=O)NCCCCNC(=O)c2ccc(-c3c4nc(c(-c5cc(S(=O)(=O)[O-])ccc5F)c5ccc([nH]5)c(-c5cc(S(=O)(=O)[O-])ccc5F)c5nc(c(-c6cc(S(=O)(=O)[O-])ccc6F)c6ccc3[nH]6)C=C5)C=C4)cc2)cs1
REMARK SMILES IDX 17 1 16 2 15 3 14 4 12 5 13 6 11 8 10 9 8 10 9 11 86 12
REMARK SMILES IDX 85 13 7 14 1 15 2 16 3 17 4 18 6 19 5 20 18 21 19 22 20 23
REMARK SMILES IDX 21 25 22 26 23 27 84 28 24 29 83 30 25 31 26 32 27 33 77 34
REMARK SMILES IDX 28 35 82 36 76 37 78 38 29 39 81 40 75 41 74 42 30 44 62 45
REMARK SMILES IDX 42 46 61 47 43 48 46 49 60 50 79 51 44 52 45 53 59 55 80 56
REMARK SMILES IDX 47 57 31 58 32 59 40 60 33 61 39 62 41 63 38 64 34 65 35 66
REMARK SMILES IDX 36 67 37 68 63 69 64 70 72 71 65 72 71 73 73 74 70 75 66 76
REMARK SMILES IDX 67 77 68 78 69 79 48 80 49 81 57 82 50 83 56 84 58 85 55 86
REMARK SMILES IDX 51 87 52 88 53 89 54 90
REMARK H PARENT 14 7 19 24 78 43 46 54
REMARK Flexibility Score: inf
ROOT
ATOM      1  C   UNL A   1      32.948  30.950  27.100  1.00  0.00     0.023 C 
ENDROOT
BRANCH   1   2
ATOM      2  C   UNL A   1      31.960  29.819  26.817  1.00  0.00     0.023 C 
BRANCH   2   3
ATOM      3  C   UNL A   1      31.424  29.748  25.378  1.00  0.00     0.116 C 
BRANCH   3   4
ATOM      4  N   UNL A   1      32.496  29.763  24.384  1.00  0.00    -0.356 N 
ATOM      5  C   UNL A   1      32.897  28.772  23.533  1.00  0.00     0.226 C 
ATOM      6  O   UNL A   1      33.897  28.962  22.833  1.00  0.00    -0.275 OA
ATOM      7  H   UNL A   1      33.000  30.606  24.317  1.00  0.00     0.163 HD
BRANCH   5   8
ATOM      8  C   UNL A   1      32.119  27.473  23.443  1.00  0.00     0.157 C 
BRANCH   8   9
ATOM      9  C   UNL A   1      32.635  26.450  24.395  1.00  0.00     0.061 A 
ATOM     10  C   UNL A   1      34.153  24.937  24.970  1.00  0.00     0.123 A 
ATOM     11  N   UNL A   1      33.915  25.969  24.191  1.00  0.00    -0.241 NA
ATOM     12  S   UNL A   1      32.933  24.627  26.147  1.00  0.00    -0.122 S 
ATOM     13  C   UNL A   1      31.971  25.872  25.462  1.00  0.00     0.091 A 
BRANCH  10  14
ATOM     14  C   UNL A   1      35.344  24.086  24.878  1.00  0.00     0.013 A 
ATOM     15  C   UNL A   1      34.447  22.894  22.800  1.00  0.00     0.045 C 
ATOM     16  C   UNL A   1      35.494  23.128  23.855  1.00  0.00    -0.041 A 
ATOM     17  C   UNL A   1      36.619  22.284  23.868  1.00  0.00     0.004 A 
ATOM     18  C   UNL A   1      37.579  22.383  24.874  1.00  0.00     0.000 A 
ATOM     19  C   UNL A   1      36.318  24.166  25.891  1.00  0.00     0.011 A 
ATOM     20  C   UNL A   1      37.427  23.321  25.889  1.00  0.00     0.001 A 
ENDBRANCH  10  14
ENDBRANCH   8   9
ENDBRANCH   5   8
ENDBRANCH   3   4
ENDBRANCH   2   3
ENDBRANCH   1   2
BRANCH   1  21
ATOM     21  C   UNL A   1      34.294  30.477  27.630  1.00  0.00     0.116 C 
BRANCH  21  22
ATOM     22  N   UNL A   1      34.893  31.343  28.637  1.00  0.00    -0.352 N 
ATOM     23  C   UNL A   1      36.010  31.091  29.421  1.00  0.00     0.251 C 
ATOM     24  H   UNL A   1      34.453  32.212  28.778  1.00  0.00     0.163 HD
ATOM     25  O   UNL A   1      36.390  31.872  30.277  1.00  0.00    -0.269 OA
BRANCH  23  26
ATOM     26  C   UNL A   1      36.815  29.885  29.108  1.00  0.00     0.039 A 
ATOM     27  C   UNL A   1      37.126  29.030  30.170  1.00  0.00     0.014 A 
ATOM     28  C   UNL A   1      37.460  29.756  27.881  1.00  0.00     0.014 A 
ATOM     29  C   UNL A   1      38.245  28.205  30.075  1.00  0.00     0.010 A 
ATOM     30  C   UNL A   1      38.623  29.008  27.819  1.00  0.00     0.010 A 
ATOM     31  C   UNL A   1      39.055  28.287  28.939  1.00  0.00    -0.014 A 
BRANCH  31  32
ATOM     32  C   UNL A   1      40.434  27.797  28.922  1.00  0.00     0.031 A 
ATOM     33  C   UNL A   1      40.765  26.425  28.488  1.00  0.00     0.074 A 
ATOM     34  C   UNL A   1      41.443  28.618  29.289  1.00  0.00     0.049 A 
ATOM     35  N   UNL A   1      41.819  25.779  28.865  1.00  0.00    -0.248 NA
ATOM     36  C   UNL A   1      39.900  25.651  27.608  1.00  0.00     0.031 C 
ATOM     37  C   UNL A   1      42.877  28.391  29.131  1.00  0.00     0.029 A 
ATOM     38  N   UNL A   1      41.357  29.713  30.146  1.00  0.00    -0.354 N 
ATOM     39  C   UNL A   1      41.922  24.652  28.085  1.00  0.00     0.074 A 
ATOM     40  C   UNL A   1      40.673  24.590  27.359  1.00  0.00     0.031 C 
ATOM     41  C   UNL A   1      43.529  29.102  30.062  1.00  0.00     0.029 A 
ATOM     42  C   UNL A   1      42.534  29.714  30.923  1.00  0.00     0.049 A 
ATOM     43  H   UNL A   1      40.618  30.361  30.199  1.00  0.00     0.167 HD
ATOM     44  C   UNL A   1      43.097  23.960  28.038  1.00  0.00     0.034 A 
ATOM     45  C   UNL A   1      42.471  29.613  32.283  1.00  0.00     0.034 A 
ATOM     46  C   UNL A   1      44.110  24.506  28.941  1.00  0.00     0.049 A 
ATOM     47  C   UNL A   1      43.170  28.392  32.847  1.00  0.00     0.074 A 
ATOM     48  C   UNL A   1      45.244  25.285  28.773  1.00  0.00     0.029 A 
ATOM     49  N   UNL A   1      43.884  24.457  30.306  1.00  0.00    -0.354 N 
ATOM     50  N   UNL A   1      43.766  27.481  32.127  1.00  0.00    -0.248 NA
ATOM     51  C   UNL A   1      43.164  28.054  34.271  1.00  0.00     0.031 C 
ATOM     52  C   UNL A   1      45.683  25.715  30.060  1.00  0.00     0.029 A 
ATOM     53  C   UNL A   1      44.825  25.187  31.006  1.00  0.00     0.049 A 
ATOM     54  H   UNL A   1      43.144  23.962  30.725  1.00  0.00     0.167 HD
ATOM     55  C   UNL A   1      44.141  26.438  32.933  1.00  0.00     0.074 A 
ATOM     56  C   UNL A   1      43.750  26.846  34.270  1.00  0.00     0.031 C 
ATOM     57  C   UNL A   1      44.698  25.289  32.452  1.00  0.00     0.034 A 
BRANCH  44  58
ATOM     58  C   UNL A   1      43.404  22.930  26.976  1.00  0.00     0.023 A 
ATOM     59  C   UNL A   1      42.812  21.653  27.054  1.00  0.00     0.031 A 
ATOM     60  C   UNL A   1      44.284  23.123  25.894  1.00  0.00     0.131 A 
ATOM     61  C   UNL A   1      43.182  20.618  26.177  1.00  0.00     0.055 A 
ATOM     62  C   UNL A   1      44.712  22.076  25.068  1.00  0.00     0.041 A 
ATOM     63  F   UNL A   1      44.726  24.344  25.560  1.00  0.00    -0.206 F 
ATOM     64  C   UNL A   1      44.173  20.807  25.218  1.00  0.00     0.022 A 
BRANCH  61  65
ATOM     65  S   UNL A   1      42.338  19.018  26.296  1.00  0.00     0.124 S 
ATOM     66  O   UNL A   1      42.430  18.720  27.721  1.00  0.00    -0.237 OA
ATOM     67  O   UNL A   1      41.009  19.335  25.786  1.00  0.00    -0.237 OA
ATOM     68  O   UNL A   1      43.138  18.148  25.434  1.00  0.00    -0.744 OA
ENDBRANCH  61  65
ENDBRANCH  44  58
BRANCH  45  69
ATOM     69  C   UNL A   1      41.259  30.275  32.855  1.00  0.00     0.023 A 
ATOM     70  C   UNL A   1      41.255  31.686  32.876  1.00  0.00     0.031 A 
ATOM     71  C   UNL A   1      40.031  29.617  32.998  1.00  0.00     0.131 A 
ATOM     72  C   UNL A   1      40.046  32.391  32.838  1.00  0.00     0.055 A 
ATOM     73  C   UNL A   1      38.828  30.330  33.062  1.00  0.00     0.041 A 
ATOM     74  F   UNL A   1      39.957  28.279  32.948  1.00  0.00    -0.206 F 
ATOM     75  C   UNL A   1      38.827  31.720  32.931  1.00  0.00     0.022 A 
BRANCH  72  76
ATOM     76  S   UNL A   1      40.084  34.141  32.343  1.00  0.00     0.124 S 
ATOM     77  O   UNL A   1      40.753  34.760  33.481  1.00  0.00    -0.237 OA
ATOM     78  O   UNL A   1      40.840  34.097  31.093  1.00  0.00    -0.237 OA
ATOM     79  O   UNL A   1      38.673  34.480  32.176  1.00  0.00    -0.744 OA
ENDBRANCH  72  76
ENDBRANCH  45  69
BRANCH  57  80
ATOM     80  C   UNL A   1      45.135  24.154  33.338  1.00  0.00     0.023 A 
ATOM     81  C   UNL A   1      46.435  24.087  33.867  1.00  0.00     0.031 A 
ATOM     82  C   UNL A   1      44.284  23.063  33.622  1.00  0.00     0.131 A 
ATOM     83  C   UNL A   1      46.818  23.020  34.697  1.00  0.00     0.055 A 
ATOM     84  C   UNL A   1      44.695  21.964  34.380  1.00  0.00     0.041 A 
ATOM     85  F   UNL A   1      43.008  23.042  33.210  1.00  0.00    -0.206 F 
ATOM     86  C   UNL A   1      45.966  21.943  34.936  1.00  0.00     0.022 A 
BRANCH  83  87
ATOM     87  S   UNL A   1      48.424  23.105  35.531  1.00  0.00     0.124 S 
ATOM     88  O   UNL A   1      48.880  24.453  35.208  1.00  0.00    -0.237 OA
ATOM     89  O   UNL A   1      48.045  22.880  36.925  1.00  0.00    -0.237 OA
ATOM     90  O   UNL A   1      49.191  22.024  34.917  1.00  0.00    -0.744 OA
ENDBRANCH  83  87
ENDBRANCH  57  80
ENDBRANCH  31  32
ENDBRANCH  23  26
ENDBRANCH  21  22
ENDBRANCH   1  21
TORSDOF 16
ENDMDL
MODEL 2
REMARK VINA RESULT:     -12.0      4.223     10.736
REMARK SMILES Cc1ccccc1-c1nc(CC(=O)NCCCCNC(=O)c2ccc(-c3c4nc(c(-c5cc(S(=O)(=O)[O-])ccc5F)c5ccc([nH]5)c(-c5cc(S(=O)(=O)[O-])ccc5F)c5nc(c(-c6cc(S(=O)(=O)[O-])ccc6F)c6ccc3[nH]6)C=C5)C=C4)cc2)cs1
REMARK SMILES IDX 17 1 16 2 15 3 14 4 12 5 13 6 11 8 10 9 8 10 9 11 86 12
REMARK SMILES IDX 85 13 7 14 1 15 2 16 3 17 4 18 6 19 5 20 18 21 19 22 20 23
REMARK SMILES IDX 21 25 22 26 23 27 84 28 24 29 83 30 25 31 26 32 27 33 77 34
REMARK SMILES IDX 28 35 82 36 76 37 78 38 29 39 81 40 75 41 74 42 30 44 62 45
REMARK SMILES IDX 42 46 61 47 43 48 46 49 60 50 79 51 44 52 45 53 59 55 80 56
REMARK SMILES IDX 47 57 31 58 32 59 40 60 33 61 39 62 41 63 38 64 34 65 35 66
REMARK SMILES IDX 36 67 37 68 63 69 64 70 72 71 65 72 71 73 73 74 70 75 66 76
REMARK SMILES IDX 67 77 68 78 69 79 48 80 49 81 57 82 50 83 56 84 58 85 55 86
REMARK SMILES IDX 51 87 52 88 53 89 54 90
REMARK H PARENT 14 7 19 24 78 43 46 54
REMARK Flexibility Score: inf
ROOT
ATOM      1  C   UNL A   1      38.533  21.574  25.660  1.00  0.00     0.023 C 
ENDROOT
BRANCH   1   2
ATOM      2  C   UNL A   1      37.201  21.756  24.934  1.00  0.00     0.023 C 
BRANCH   2   3
ATOM      3  C   UNL A   1      35.964  21.215  25.667  1.00  0.00     0.116 C 
BRANCH   3   4
ATOM      4  N   UNL A   1      35.319  20.123  24.938  1.00  0.00    -0.356 N 
ATOM      5  C   UNL A   1      33.994  19.797  24.869  1.00  0.00     0.226 C 
ATOM      6  O   UNL A   1      33.669  18.768  24.267  1.00  0.00    -0.275 OA
ATOM      7  H   UNL A   1      35.924  19.542  24.423  1.00  0.00     0.163 HD
BRANCH   5   8
ATOM      8  C   UNL A   1      32.946  20.688  25.507  1.00  0.00     0.157 C 
BRANCH   8   9
ATOM      9  C   UNL A   1      32.901  22.035  24.874  1.00  0.00     0.061 A 
ATOM     10  C   UNL A   1      32.813  24.246  25.042  1.00  0.00     0.123 A 
ATOM     11  N   UNL A   1      33.083  23.136  25.691  1.00  0.00    -0.241 NA
ATOM     12  S   UNL A   1      32.543  24.044  23.352  1.00  0.00    -0.122 S 
ATOM     13  C   UNL A   1      32.657  22.343  23.549  1.00  0.00     0.091 A 
BRANCH  10  14
ATOM     14  C   UNL A   1      32.733  25.572  25.663  1.00  0.00     0.013 A 
ATOM     15  C   UNL A   1      30.202  25.374  25.980  1.00  0.00     0.045 C 
ATOM     16  C   UNL A   1      31.510  26.107  26.115  1.00  0.00    -0.041 A 
ATOM     17  C   UNL A   1      31.483  27.417  26.625  1.00  0.00     0.004 A 
ATOM     18  C   UNL A   1      32.643  28.187  26.687  1.00  0.00     0.000 A 
ATOM     19  C   UNL A   1      33.893  26.367  25.725  1.00  0.00     0.011 A 
ATOM     20  C   UNL A   1      33.848  27.664  26.233  1.00  0.00     0.001 A 
ENDBRANCH  10  14
ENDBRANCH   8   9
ENDBRANCH   5   8
ENDBRANCH   3   4
ENDBRANCH   2   3
ENDBRANCH   1   2
BRANCH   1  21
ATOM     21  C   UNL A   1      39.026  22.827  26.372  1.00  0.00     0.116 C 
BRANCH  21  22
ATOM     22  N   UNL A   1      40.472  23.009  26.357  1.00  0.00    -0.352 N 
ATOM     23  C   UNL A   1      41.183  24.189  26.524  1.00  0.00     0.251 C 
ATOM     24  H   UNL A   1      41.009  22.197  26.211  1.00  0.00     0.163 HD
ATOM     25  O   UNL A   1      42.398  24.230  26.437  1.00  0.00    -0.269 OA
BRANCH  23  26
ATOM     26  C   UNL A   1      40.427  25.396  26.939  1.00  0.00     0.039 A 
ATOM     27  C   UNL A   1      40.706  26.588  26.264  1.00  0.00     0.014 A 
ATOM     28  C   UNL A   1      39.687  25.405  28.119  1.00  0.00     0.014 A 
ATOM     29  C   UNL A   1      40.447  27.804  26.892  1.00  0.00     0.010 A 
ATOM     30  C   UNL A   1      39.514  26.608  28.783  1.00  0.00     0.010 A 
ATOM     31  C   UNL A   1      39.958  27.801  28.201  1.00  0.00    -0.014 A 
BRANCH  31  32
ATOM     32  C   UNL A   1      40.049  28.971  29.075  1.00  0.00     0.031 A 
ATOM     33  C   UNL A   1      38.995  30.006  29.101  1.00  0.00     0.074 A 
ATOM     34  C   UNL A   1      41.110  29.111  29.902  1.00  0.00     0.049 A 
ATOM     35  N   UNL A   1      39.191  31.233  29.454  1.00  0.00    -0.248 NA
ATOM     36  C   UNL A   1      37.624  29.738  28.691  1.00  0.00     0.031 C 
ATOM     37  C   UNL A   1      41.272  30.076  30.986  1.00  0.00     0.029 A 
ATOM     38  N   UNL A   1      42.382  28.573  29.723  1.00  0.00    -0.354 N 
ATOM     39  C   UNL A   1      37.963  31.833  29.591  1.00  0.00     0.074 A 
ATOM     40  C   UNL A   1      37.023  30.877  29.049  1.00  0.00     0.031 C 
ATOM     41  C   UNL A   1      42.581  30.280  31.188  1.00  0.00     0.029 A 
ATOM     42  C   UNL A   1      43.301  29.548  30.162  1.00  0.00     0.049 A 
ATOM     43  H   UNL A   1      42.598  27.683  29.361  1.00  0.00     0.167 HD
ATOM     44  C   UNL A   1      37.850  33.017  30.260  1.00  0.00     0.034 A 
ATOM     45  C   UNL A   1      44.233  30.061  29.307  1.00  0.00     0.034 A 
ATOM     46  C   UNL A   1      39.145  33.545  30.691  1.00  0.00     0.049 A 
ATOM     47  C   UNL A   1      44.119  31.558  29.092  1.00  0.00     0.074 A 
ATOM     48  C   UNL A   1      39.819  33.602  31.900  1.00  0.00     0.029 A 
ATOM     49  N   UNL A   1      40.064  33.927  29.728  1.00  0.00    -0.354 N 
ATOM     50  N   UNL A   1      43.206  32.317  29.636  1.00  0.00    -0.248 NA
ATOM     51  C   UNL A   1      44.971  32.300  28.161  1.00  0.00     0.031 C 
ATOM     52  C   UNL A   1      41.162  34.007  31.643  1.00  0.00     0.029 A 
ATOM     53  C   UNL A   1      41.298  34.208  30.283  1.00  0.00     0.049 A 
ATOM     54  H   UNL A   1      39.863  33.990  28.767  1.00  0.00     0.167 HD
ATOM     55  C   UNL A   1      43.286  33.577  29.102  1.00  0.00     0.074 A 
ATOM     56  C   UNL A   1      44.412  33.521  28.188  1.00  0.00     0.031 C 
ATOM     57  C   UNL A   1      42.396  34.568  29.400  1.00  0.00     0.034 A 
BRANCH  44  58
ATOM     58  C   UNL A   1      36.529  33.569  30.743  1.00  0.00     0.023 A 
ATOM     59  C   UNL A   1      35.658  34.189  29.825  1.00  0.00     0.031 A 
ATOM     60  C   UNL A   1      36.086  33.549  32.079  1.00  0.00     0.131 A 
ATOM     61  C   UNL A   1      34.491  34.848  30.251  1.00  0.00     0.055 A 
ATOM     62  C   UNL A   1      34.966  34.268  32.517  1.00  0.00     0.041 A 
ATOM     63  F   UNL A   1      36.688  32.792  33.006  1.00  0.00    -0.206 F 
ATOM     64  C   UNL A   1      34.168  34.939  31.602  1.00  0.00     0.022 A 
BRANCH  61  65
ATOM     65  S   UNL A   1      33.386  35.573  29.010  1.00  0.00     0.124 S 
ATOM     66  O   UNL A   1      32.552  36.460  29.814  1.00  0.00    -0.237 OA
ATOM     67  O   UNL A   1      34.328  36.218  28.102  1.00  0.00    -0.237 OA
ATOM     68  O   UNL A   1      32.692  34.412  28.454  1.00  0.00    -0.744 OA
ENDBRANCH  61  65
ENDBRANCH  44  58
BRANCH  45  69
ATOM     69  C   UNL A   1      44.705  29.063  28.300  1.00  0.00     0.023 A 
ATOM     70  C   UNL A   1      45.581  28.058  28.764  1.00  0.00     0.031 A 
ATOM     71  C   UNL A   1      44.052  28.847  27.081  1.00  0.00     0.131 A 
ATOM     72  C   UNL A   1      45.630  26.813  28.126  1.00  0.00     0.055 A 
ATOM     73  C   UNL A   1      44.185  27.636  26.390  1.00  0.00     0.041 A 
ATOM     74  F   UNL A   1      43.178  29.743  26.600  1.00  0.00    -0.206 F 
ATOM     75  C   UNL A   1      44.935  26.593  26.937  1.00  0.00     0.022 A 
BRANCH  72  76
ATOM     76  S   UNL A   1      46.344  25.407  29.033  1.00  0.00     0.124 S 
ATOM     77  O   UNL A   1      47.259  26.074  29.950  1.00  0.00    -0.237 OA
ATOM     78  O   UNL A   1      45.163  24.788  29.632  1.00  0.00    -0.237 OA
ATOM     79  O   UNL A   1      46.970  24.605  27.984  1.00  0.00    -0.744 OA
ENDBRANCH  72  76
ENDBRANCH  45  69
BRANCH  57  80
ATOM     80  C   UNL A   1      42.497  35.959  28.835  1.00  0.00     0.023 A 
ATOM     81  C   UNL A   1      43.004  37.030  29.592  1.00  0.00     0.031 A 
ATOM     82  C   UNL A   1      42.020  36.273  27.544  1.00  0.00     0.131 A 
ATOM     83  C   UNL A   1      43.094  38.319  29.040  1.00  0.00     0.055 A 
ATOM     84  C   UNL A   1      42.035  37.571  27.029  1.00  0.00     0.041 A 
ATOM     85  F   UNL A   1      41.559  35.324  26.715  1.00  0.00    -0.206 F 
ATOM     86  C   UNL A   1      42.588  38.604  27.773  1.00  0.00     0.022 A 
BRANCH  83  87
ATOM     87  S   UNL A   1      43.964  39.602  29.977  1.00  0.00     0.124 S 
ATOM     88  O   UNL A   1      43.136  40.782  29.746  1.00  0.00    -0.237 OA
ATOM     89  O   UNL A   1      43.926  39.056  31.332  1.00  0.00    -0.237 OA
ATOM     90  O   UNL A   1      45.289  39.641  29.363  1.00  0.00    -0.744 OA
ENDBRANCH  83  87
ENDBRANCH  57  80
ENDBRANCH  31  32
ENDBRANCH  23  26
ENDBRANCH  21  22
ENDBRANCH   1  21
TORSDOF 16
ENDMDL
MODEL 3
REMARK VINA RESULT:     -11.9      2.302      2.729
REMARK SMILES Cc1ccccc1-c1nc(CC(=O)NCCCCNC(=O)c2ccc(-c3c4nc(c(-c5cc(S(=O)(=O)[O-])ccc5F)c5ccc([nH]5)c(-c5cc(S(=O)(=O)[O-])ccc5F)c5nc(c(-c6cc(S(=O)(=O)[O-])ccc6F)c6ccc3[nH]6)C=C5)C=C4)cc2)cs1
REMARK SMILES IDX 17 1 16 2 15 3 14 4 12 5 13 6 11 8 10 9 8 10 9 11 86 12
REMARK SMILES IDX 85 13 7 14 1 15 2 16 3 17 4 18 6 19 5 20 18 21 19 22 20 23
REMARK SMILES IDX 21 25 22 26 23 27 84 28 24 29 83 30 25 31 26 32 27 33 77 34
REMARK SMILES IDX 28 35 82 36 76 37 78 38 29 39 81 40 75 41 74 42 30 44 62 45
REMARK SMILES IDX 42 46 61 47 43 48 46 49 60 50 79 51 44 52 45 53 59 55 80 56
REMARK SMILES IDX 47 57 31 58 32 59 40 60 33 61 39 62 41 63 38 64 34 65 35 66
REMARK SMILES IDX 36 67 37 68 63 69 64 70 72 71 65 72 71 73 73 74 70 75 66 76
REMARK SMILES IDX 67 77 68 78 69 79 48 80 49 81 57 82 50 83 56 84 58 85 55 86
REMARK SMILES IDX 51 87 52 88 53 89 54 90
REMARK H PARENT 14 7 19 24 78 43 46 54
REMARK Flexibility Score: inf
ROOT
ATOM      1  C   UNL A   1      32.631  31.334  26.864  1.00  0.00     0.023 C 
ENDROOT
BRANCH   1   2
ATOM      2  C   UNL A   1      31.638  30.325  26.290  1.00  0.00     0.023 C 
BRANCH   2   3
ATOM      3  C   UNL A   1      32.195  28.915  26.035  1.00  0.00     0.116 C 
BRANCH   3   4
ATOM      4  N   UNL A   1      31.589  28.282  24.864  1.00  0.00    -0.356 N 
ATOM      5  C   UNL A   1      30.915  27.097  24.776  1.00  0.00     0.226 C 
ATOM      6  O   UNL A   1      30.564  26.697  23.661  1.00  0.00    -0.275 OA
ATOM      7  H   UNL A   1      31.679  28.780  24.019  1.00  0.00     0.163 HD
BRANCH   5   8
ATOM      8  C   UNL A   1      30.594  26.299  26.025  1.00  0.00     0.157 C 
BRANCH   8   9
ATOM      9  C   UNL A   1      31.460  25.094  26.153  1.00  0.00     0.061 A 
ATOM     10  C   UNL A   1      33.350  24.018  25.712  1.00  0.00     0.123 A 
ATOM     11  N   UNL A   1      32.773  25.200  25.734  1.00  0.00    -0.241 NA
ATOM     12  S   UNL A   1      32.415  22.748  26.405  1.00  0.00    -0.122 S 
ATOM     13  C   UNL A   1      31.106  23.839  26.611  1.00  0.00     0.091 A 
BRANCH  10  14
ATOM     14  C   UNL A   1      34.678  23.754  25.149  1.00  0.00     0.013 A 
ATOM     15  C   UNL A   1      33.691  23.117  22.877  1.00  0.00     0.045 C 
ATOM     16  C   UNL A   1      34.848  23.338  23.813  1.00  0.00    -0.041 A 
ATOM     17  C   UNL A   1      36.139  23.019  23.355  1.00  0.00     0.004 A 
ATOM     18  C   UNL A   1      37.243  23.108  24.201  1.00  0.00     0.000 A 
ATOM     19  C   UNL A   1      35.803  23.831  25.991  1.00  0.00     0.011 A 
ATOM     20  C   UNL A   1      37.076  23.510  25.521  1.00  0.00     0.001 A 
ENDBRANCH  10  14
ENDBRANCH   8   9
ENDBRANCH   5   8
ENDBRANCH   3   4
ENDBRANCH   2   3
ENDBRANCH   1   2
BRANCH   1  21
ATOM     21  C   UNL A   1      33.711  30.712  27.738  1.00  0.00     0.116 C 
BRANCH  21  22
ATOM     22  N   UNL A   1      34.387  31.645  28.631  1.00  0.00    -0.352 N 
ATOM     23  C   UNL A   1      35.578  31.454  29.317  1.00  0.00     0.251 C 
ATOM     24  H   UNL A   1      33.945  32.514  28.764  1.00  0.00     0.163 HD
ATOM     25  O   UNL A   1      36.024  32.290  30.085  1.00  0.00    -0.269 OA
BRANCH  23  26
ATOM     26  C   UNL A   1      36.372  30.243  28.996  1.00  0.00     0.039 A 
ATOM     27  C   UNL A   1      36.820  29.469  30.072  1.00  0.00     0.014 A 
ATOM     28  C   UNL A   1      36.881  30.040  27.716  1.00  0.00     0.014 A 
ATOM     29  C   UNL A   1      37.941  28.658  29.908  1.00  0.00     0.010 A 
ATOM     30  C   UNL A   1      38.048  29.309  27.575  1.00  0.00     0.010 A 
ATOM     31  C   UNL A   1      38.618  28.675  28.686  1.00  0.00    -0.014 A 
BRANCH  31  32
ATOM     32  C   UNL A   1      39.998  28.208  28.547  1.00  0.00     0.031 A 
ATOM     33  C   UNL A   1      40.324  26.773  28.429  1.00  0.00     0.074 A 
ATOM     34  C   UNL A   1      41.010  29.104  28.504  1.00  0.00     0.049 A 
ATOM     35  N   UNL A   1      41.460  26.255  28.763  1.00  0.00    -0.248 NA
ATOM     36  C   UNL A   1      39.364  25.788  27.948  1.00  0.00     0.031 C 
ATOM     37  C   UNL A   1      42.405  28.854  28.155  1.00  0.00     0.029 A 
ATOM     38  N   UNL A   1      41.013  30.385  29.052  1.00  0.00    -0.354 N 
ATOM     39  C   UNL A   1      41.489  24.965  28.294  1.00  0.00     0.074 A 
ATOM     40  C   UNL A   1      40.140  24.704  27.845  1.00  0.00     0.031 C 
ATOM     41  C   UNL A   1      43.168  29.790  28.739  1.00  0.00     0.029 A 
ATOM     42  C   UNL A   1      42.303  30.599  29.578  1.00  0.00     0.049 A 
ATOM     43  H   UNL A   1      40.259  31.018  29.069  1.00  0.00     0.167 HD
ATOM     44  C   UNL A   1      42.674  24.293  28.216  1.00  0.00     0.034 A 
ATOM     45  C   UNL A   1      42.480  30.858  30.906  1.00  0.00     0.034 A 
ATOM     46  C   UNL A   1      43.796  25.065  28.750  1.00  0.00     0.049 A 
ATOM     47  C   UNL A   1      43.331  29.833  31.630  1.00  0.00     0.074 A 
ATOM     48  C   UNL A   1      44.841  25.780  28.188  1.00  0.00     0.029 A 
ATOM     49  N   UNL A   1      43.811  25.374  30.100  1.00  0.00    -0.354 N 
ATOM     50  N   UNL A   1      43.843  28.769  31.073  1.00  0.00    -0.248 NA
ATOM     51  C   UNL A   1      43.587  29.880  33.071  1.00  0.00     0.031 C 
ATOM     52  C   UNL A   1      45.470  26.536  29.220  1.00  0.00     0.029 A 
ATOM     53  C   UNL A   1      44.816  26.270  30.408  1.00  0.00     0.049 A 
ATOM     54  H   UNL A   1      43.182  25.001  30.759  1.00  0.00     0.167 HD
ATOM     55  C   UNL A   1      44.407  27.977  32.040  1.00  0.00     0.074 A 
ATOM     56  C   UNL A   1      44.229  28.718  33.275  1.00  0.00     0.031 C 
ATOM     57  C   UNL A   1      44.934  26.746  31.778  1.00  0.00     0.034 A 
BRANCH  44  58
ATOM     58  C   UNL A   1      42.850  23.022  27.417  1.00  0.00     0.023 A 
ATOM     59  C   UNL A   1      43.824  22.971  26.399  1.00  0.00     0.031 A 
ATOM     60  C   UNL A   1      42.082  21.854  27.579  1.00  0.00     0.131 A 
ATOM     61  C   UNL A   1      43.923  21.867  25.533  1.00  0.00     0.055 A 
ATOM     62  C   UNL A   1      42.125  20.786  26.672  1.00  0.00     0.041 A 
ATOM     63  F   UNL A   1      41.296  21.675  28.649  1.00  0.00    -0.206 F 
ATOM     64  C   UNL A   1      43.039  20.796  25.629  1.00  0.00     0.022 A 
BRANCH  61  65
ATOM     65  S   UNL A   1      45.236  21.841  24.284  1.00  0.00     0.124 S 
ATOM     66  O   UNL A   1      46.371  21.313  25.033  1.00  0.00    -0.237 OA
ATOM     67  O   UNL A   1      44.671  20.965  23.264  1.00  0.00    -0.237 OA
ATOM     68  O   UNL A   1      45.358  23.245  23.892  1.00  0.00    -0.744 OA
ENDBRANCH  61  65
ENDBRANCH  44  58
BRANCH  45  69
ATOM     69  C   UNL A   1      41.350  31.637  31.497  1.00  0.00     0.023 A 
ATOM     70  C   UNL A   1      40.346  30.898  32.160  1.00  0.00     0.031 A 
ATOM     71  C   UNL A   1      41.430  33.010  31.760  1.00  0.00     0.131 A 
ATOM     72  C   UNL A   1      39.599  31.485  33.188  1.00  0.00     0.055 A 
ATOM     73  C   UNL A   1      40.608  33.615  32.718  1.00  0.00     0.041 A 
ATOM     74  F   UNL A   1      42.383  33.765  31.194  1.00  0.00    -0.206 F 
ATOM     75  C   UNL A   1      39.723  32.844  33.474  1.00  0.00     0.022 A 
BRANCH  72  76
ATOM     76  S   UNL A   1      38.716  30.392  34.344  1.00  0.00     0.124 S 
ATOM     77  O   UNL A   1      37.646  31.259  34.820  1.00  0.00    -0.237 OA
ATOM     78  O   UNL A   1      38.315  29.282  33.481  1.00  0.00    -0.237 OA
ATOM     79  O   UNL A   1      39.735  30.041  35.330  1.00  0.00    -0.744 OA
ENDBRANCH  72  76
ENDBRANCH  45  69
BRANCH  57  80
ATOM     80  C   UNL A   1      45.578  25.887  32.832  1.00  0.00     0.023 A 
ATOM     81  C   UNL A   1      44.828  25.002  33.625  1.00  0.00     0.031 A 
ATOM     82  C   UNL A   1      46.956  25.982  33.128  1.00  0.00     0.131 A 
ATOM     83  C   UNL A   1      45.453  24.205  34.599  1.00  0.00     0.055 A 
ATOM     84  C   UNL A   1      47.559  25.249  34.152  1.00  0.00     0.041 A 
ATOM     85  F   UNL A   1      47.778  26.757  32.406  1.00  0.00    -0.206 F 
ATOM     86  C   UNL A   1      46.810  24.342  34.888  1.00  0.00     0.022 A 
BRANCH  83  87
ATOM     87  S   UNL A   1      44.477  22.923  35.427  1.00  0.00     0.124 S 
ATOM     88  O   UNL A   1      44.901  21.707  34.741  1.00  0.00    -0.237 OA
ATOM     89  O   UNL A   1      44.924  23.060  36.811  1.00  0.00    -0.237 OA
ATOM     90  O   UNL A   1      43.095  23.328  35.181  1.00  0.00    -0.744 OA
ENDBRANCH  83  87
ENDBRANCH  57  80
ENDBRANCH  31  32
ENDBRANCH  23  26
ENDBRANCH  21  22
ENDBRANCH   1  21
TORSDOF 16
ENDMDL
