MODEL 1
REMARK VINA RESULT:     -12.8      0.000      0.000
REMARK SMILES O=C(NCCCCNC(=O)c1ccnc(-n2cnnn2)c1)c1ccc(-c2c3nc(c(-c4cc(S(=O)(=O)[O-])ccc4F)c4ccc([nH]4)c(-c4cc(S(=O)(=O)[O-])ccc4F)c4nc(c(-c5cc(S(=O)(=O)[O-])ccc5F)c5ccc2[nH]5)C=C4)C=C3)cc1
REMARK SMILES IDX 4 1 3 2 1 3 2 4 22 6 23 7 84 8 24 9 83 10 25 11 26 12 27 13
REMARK SMILES IDX 77 14 28 15 82 16 76 17 78 18 29 19 81 20 75 21 74 22 30 24
REMARK SMILES IDX 62 25 42 26 61 27 43 28 46 29 60 30 79 31 44 32 45 33 59 35
REMARK SMILES IDX 80 36 47 37 31 38 32 39 40 40 33 41 39 42 41 43 38 44 34 45
REMARK SMILES IDX 35 46 36 47 37 48 63 49 64 50 72 51 65 52 71 53 73 54 70 55
REMARK SMILES IDX 66 56 67 57 68 58 69 59 48 60 49 61 57 62 50 63 56 64 58 65
REMARK SMILES IDX 55 66 51 67 52 68 53 69 54 70 5 71 6 72 7 73 8 74 9 75 10 77
REMARK SMILES IDX 11 78 12 79 21 80 13 81 15 82 14 83 16 84 17 85 20 86 18 87
REMARK SMILES IDX 19 88
REMARK H PARENT 3 5 78 23 46 34 8 76
REMARK Flexibility Score: inf
ROOT
ATOM      1  C   UNL A   1      33.951  30.558  27.249  1.00  0.00     0.116 C 
ENDROOT
BRANCH   1   2
ATOM      2  N   UNL A   1      34.128  31.499  28.334  1.00  0.00    -0.352 N 
ATOM      3  O   UNL A   1      35.046  32.867  29.801  1.00  0.00    -0.269 OA
ATOM      4  C   UNL A   1      35.183  31.833  29.141  1.00  0.00     0.251 C 
ATOM      5  H   UNL A   1      33.312  32.011  28.536  1.00  0.00     0.163 HD
BRANCH   4   6
ATOM      6  C   UNL A   1      36.403  31.005  29.339  1.00  0.00     0.039 A 
ATOM      7  C   UNL A   1      36.442  29.615  29.465  1.00  0.00     0.014 A 
ATOM      8  C   UNL A   1      37.613  31.720  29.431  1.00  0.00     0.014 A 
ATOM      9  C   UNL A   1      37.641  28.969  29.775  1.00  0.00     0.010 A 
ATOM     10  C   UNL A   1      38.811  31.081  29.735  1.00  0.00     0.010 A 
ATOM     11  C   UNL A   1      38.822  29.705  29.939  1.00  0.00    -0.014 A 
BRANCH  11  12
ATOM     12  C   UNL A   1      40.097  28.984  30.021  1.00  0.00     0.031 A 
ATOM     13  C   UNL A   1      40.496  28.718  31.432  1.00  0.00     0.074 A 
ATOM     14  C   UNL A   1      40.763  28.455  28.970  1.00  0.00     0.049 A 
ATOM     15  N   UNL A   1      41.501  29.211  32.078  1.00  0.00    -0.248 NA
ATOM     16  C   UNL A   1      39.553  27.975  32.290  1.00  0.00     0.031 C 
ATOM     17  C   UNL A   1      40.339  28.446  27.570  1.00  0.00     0.029 A 
ATOM     18  N   UNL A   1      41.920  27.721  28.934  1.00  0.00    -0.354 N 
ATOM     19  C   UNL A   1      41.471  28.603  33.331  1.00  0.00     0.074 A 
ATOM     20  C   UNL A   1      40.143  28.079  33.481  1.00  0.00     0.031 C 
ATOM     21  C   UNL A   1      41.091  27.560  26.875  1.00  0.00     0.029 A 
ATOM     22  C   UNL A   1      42.121  27.009  27.745  1.00  0.00     0.049 A 
ATOM     23  H   UNL A   1      42.558  27.695  29.684  1.00  0.00     0.167 HD
ATOM     24  C   UNL A   1      42.628  28.299  33.982  1.00  0.00     0.034 A 
ATOM     25  C   UNL A   1      43.020  26.008  27.497  1.00  0.00     0.034 A 
ATOM     26  C   UNL A   1      43.727  29.096  33.470  1.00  0.00     0.049 A 
ATOM     27  C   UNL A   1      44.095  26.132  28.511  1.00  0.00     0.074 A 
ATOM     28  C   UNL A   1      43.946  30.451  33.298  1.00  0.00     0.029 A 
ATOM     29  N   UNL A   1      44.676  28.474  32.686  1.00  0.00    -0.354 N 
ATOM     30  N   UNL A   1      44.925  27.136  28.550  1.00  0.00    -0.248 NA
ATOM     31  C   UNL A   1      43.931  25.412  29.766  1.00  0.00     0.031 C 
ATOM     32  C   UNL A   1      44.638  30.557  32.055  1.00  0.00     0.029 A 
ATOM     33  C   UNL A   1      44.895  29.268  31.590  1.00  0.00     0.049 A 
ATOM     34  H   UNL A   1      45.116  27.615  32.878  1.00  0.00     0.167 HD
ATOM     35  C   UNL A   1      45.020  27.462  29.894  1.00  0.00     0.074 A 
ATOM     36  C   UNL A   1      44.460  26.310  30.602  1.00  0.00     0.031 C 
ATOM     37  C   UNL A   1      45.270  28.745  30.290  1.00  0.00     0.034 A 
BRANCH  24  38
ATOM     38  C   UNL A   1      42.859  26.983  34.714  1.00  0.00     0.023 A 
ATOM     39  C   UNL A   1      43.799  26.108  34.139  1.00  0.00     0.031 A 
ATOM     40  C   UNL A   1      42.010  26.404  35.686  1.00  0.00     0.131 A 
ATOM     41  C   UNL A   1      43.738  24.725  34.376  1.00  0.00     0.055 A 
ATOM     42  C   UNL A   1      42.004  25.035  35.975  1.00  0.00     0.041 A 
ATOM     43  F   UNL A   1      41.087  27.093  36.364  1.00  0.00    -0.206 F 
ATOM     44  C   UNL A   1      42.838  24.178  35.283  1.00  0.00     0.022 A 
BRANCH  41  45
ATOM     45  S   UNL A   1      44.707  23.644  33.297  1.00  0.00     0.124 S 
ATOM     46  O   UNL A   1      45.063  22.574  34.223  1.00  0.00    -0.237 OA
ATOM     47  O   UNL A   1      43.733  23.305  32.264  1.00  0.00    -0.237 OA
ATOM     48  O   UNL A   1      45.808  24.499  32.863  1.00  0.00    -0.744 OA
ENDBRANCH  41  45
ENDBRANCH  24  38
BRANCH  25  49
ATOM     49  C   UNL A   1      42.852  24.782  26.648  1.00  0.00     0.023 A 
ATOM     50  C   UNL A   1      43.802  24.348  25.685  1.00  0.00     0.031 A 
ATOM     51  C   UNL A   1      41.833  23.857  26.969  1.00  0.00     0.131 A 
ATOM     52  C   UNL A   1      43.701  23.055  25.100  1.00  0.00     0.055 A 
ATOM     53  C   UNL A   1      41.740  22.587  26.393  1.00  0.00     0.041 A 
ATOM     54  F   UNL A   1      40.934  24.119  27.930  1.00  0.00    -0.206 F 
ATOM     55  C   UNL A   1      42.678  22.176  25.463  1.00  0.00     0.022 A 
BRANCH  52  56
ATOM     56  S   UNL A   1      44.949  22.439  23.912  1.00  0.00     0.124 S 
ATOM     57  O   UNL A   1      45.919  23.527  23.884  1.00  0.00    -0.237 OA
ATOM     58  O   UNL A   1      45.386  21.192  24.527  1.00  0.00    -0.237 OA
ATOM     59  O   UNL A   1      44.188  22.270  22.672  1.00  0.00    -0.744 OA
ENDBRANCH  52  56
ENDBRANCH  25  49
BRANCH  37  60
ATOM     60  C   UNL A   1      45.795  29.733  29.270  1.00  0.00     0.023 A 
ATOM     61  C   UNL A   1      45.002  30.564  28.447  1.00  0.00     0.031 A 
ATOM     62  C   UNL A   1      47.192  29.890  29.200  1.00  0.00     0.131 A 
ATOM     63  C   UNL A   1      45.618  31.493  27.582  1.00  0.00     0.055 A 
ATOM     64  C   UNL A   1      47.795  30.824  28.361  1.00  0.00     0.041 A 
ATOM     65  F   UNL A   1      48.002  29.149  29.974  1.00  0.00    -0.206 F 
ATOM     66  C   UNL A   1      47.009  31.623  27.540  1.00  0.00     0.022 A 
BRANCH  63  67
ATOM     67  S   UNL A   1      44.621  32.531  26.465  1.00  0.00     0.124 S 
ATOM     68  O   UNL A   1      43.672  31.594  25.876  1.00  0.00    -0.237 OA
ATOM     69  O   UNL A   1      44.057  33.523  27.376  1.00  0.00    -0.237 OA
ATOM     70  O   UNL A   1      45.611  33.066  25.526  1.00  0.00    -0.744 OA
ENDBRANCH  63  67
ENDBRANCH  37  60
ENDBRANCH  11  12
ENDBRANCH   4   6
ENDBRANCH   1   2
BRANCH   1  71
ATOM     71  C   UNL A   1      32.500  30.251  26.884  1.00  0.00     0.023 C 
BRANCH  71  72
ATOM     72  C   UNL A   1      32.270  29.751  25.455  1.00  0.00     0.023 C 
BRANCH  72  73
ATOM     73  C   UNL A   1      31.445  28.474  25.322  1.00  0.00     0.116 C 
BRANCH  73  74
ATOM     74  N   UNL A   1      31.704  27.770  24.075  1.00  0.00    -0.352 N 
ATOM     75  C   UNL A   1      30.857  27.533  23.029  1.00  0.00     0.251 C 
ATOM     76  H   UNL A   1      32.616  27.416  23.969  1.00  0.00     0.163 HD
ATOM     77  O   UNL A   1      31.185  26.783  22.105  1.00  0.00    -0.269 OA
BRANCH  75  78
ATOM     78  C   UNL A   1      29.529  28.166  22.982  1.00  0.00     0.045 A 
ATOM     79  C   UNL A   1      28.410  27.503  23.478  1.00  0.00     0.034 A 
ATOM     80  C   UNL A   1      29.433  29.479  22.515  1.00  0.00     0.063 A 
ATOM     81  C   UNL A   1      27.211  28.184  23.468  1.00  0.00     0.114 A 
ATOM     82  C   UNL A   1      28.187  30.091  22.556  1.00  0.00     0.157 A 
ATOM     83  N   UNL A   1      27.083  29.457  23.037  1.00  0.00    -0.237 NA
BRANCH  82  84
ATOM     84  N   UNL A   1      28.043  31.427  22.103  1.00  0.00    -0.182 N 
ATOM     85  C   UNL A   1      27.932  31.906  20.823  1.00  0.00     0.254 A 
ATOM     86  N   UNL A   1      27.997  32.485  22.948  1.00  0.00    -0.039 NA
ATOM     87  N   UNL A   1      27.886  33.218  20.851  1.00  0.00    -0.117 NA
ATOM     88  N   UNL A   1      27.939  33.562  22.177  1.00  0.00    -0.024 NA
ENDBRANCH  82  84
ENDBRANCH  75  78
ENDBRANCH  73  74
ENDBRANCH  72  73
ENDBRANCH  71  72
ENDBRANCH   1  71
TORSDOF 15
ENDMDL
MODEL 2
REMARK VINA RESULT:     -12.5      5.263     10.615
REMARK SMILES O=C(NCCCCNC(=O)c1ccnc(-n2cnnn2)c1)c1ccc(-c2c3nc(c(-c4cc(S(=O)(=O)[O-])ccc4F)c4ccc([nH]4)c(-c4cc(S(=O)(=O)[O-])ccc4F)c4nc(c(-c5cc(S(=O)(=O)[O-])ccc5F)c5ccc2[nH]5)C=C4)C=C3)cc1
REMARK SMILES IDX 4 1 3 2 1 3 2 4 22 6 23 7 84 8 24 9 83 10 25 11 26 12 27 13
REMARK SMILES IDX 77 14 28 15 82 16 76 17 78 18 29 19 81 20 75 21 74 22 30 24
REMARK SMILES IDX 62 25 42 26 61 27 43 28 46 29 60 30 79 31 44 32 45 33 59 35
REMARK SMILES IDX 80 36 47 37 31 38 32 39 40 40 33 41 39 42 41 43 38 44 34 45
REMARK SMILES IDX 35 46 36 47 37 48 63 49 64 50 72 51 65 52 71 53 73 54 70 55
REMARK SMILES IDX 66 56 67 57 68 58 69 59 48 60 49 61 57 62 50 63 56 64 58 65
REMARK SMILES IDX 55 66 51 67 52 68 53 69 54 70 5 71 6 72 7 73 8 74 9 75 10 77
REMARK SMILES IDX 11 78 12 79 21 80 13 81 15 82 14 83 16 84 17 85 20 86 18 87
REMARK SMILES IDX 19 88
REMARK H PARENT 3 5 78 23 46 34 8 76
REMARK Flexibility Score: inf
ROOT
ATOM      1  C   UNL A   1      38.315  22.478  26.013  1.00  0.00     0.116 C 
ENDROOT
BRANCH   1   2
ATOM      2  N   UNL A   1      39.737  22.213  26.014  1.00  0.00    -0.352 N 
ATOM      3  O   UNL A   1      41.870  22.185  26.576  1.00  0.00    -0.269 OA
ATOM      4  C   UNL A   1      40.821  22.835  26.573  1.00  0.00     0.251 C 
ATOM      5  H   UNL A   1      39.978  21.410  25.499  1.00  0.00     0.163 HD
BRANCH   4   6
ATOM      6  C   UNL A   1      40.837  24.236  27.076  1.00  0.00     0.039 A 
ATOM      7  C   UNL A   1      40.212  25.331  26.477  1.00  0.00     0.014 A 
ATOM      8  C   UNL A   1      41.582  24.450  28.252  1.00  0.00     0.014 A 
ATOM      9  C   UNL A   1      40.411  26.618  26.981  1.00  0.00     0.010 A 
ATOM     10  C   UNL A   1      41.780  25.729  28.761  1.00  0.00     0.010 A 
ATOM     11  C   UNL A   1      41.219  26.822  28.107  1.00  0.00    -0.014 A 
BRANCH  11  12
ATOM     12  C   UNL A   1      41.211  28.139  28.753  1.00  0.00     0.031 A 
ATOM     13  C   UNL A   1      42.271  29.033  28.206  1.00  0.00     0.074 A 
ATOM     14  C   UNL A   1      40.263  28.583  29.610  1.00  0.00     0.049 A 
ATOM     15  N   UNL A   1      43.318  29.485  28.814  1.00  0.00    -0.248 NA
ATOM     16  C   UNL A   1      42.277  29.292  26.753  1.00  0.00     0.031 C 
ATOM     17  C   UNL A   1      39.051  27.879  30.026  1.00  0.00     0.029 A 
ATOM     18  N   UNL A   1      40.125  29.801  30.223  1.00  0.00    -0.354 N 
ATOM     19  C   UNL A   1      43.949  30.320  27.895  1.00  0.00     0.074 A 
ATOM     20  C   UNL A   1      43.423  29.957  26.610  1.00  0.00     0.031 C 
ATOM     21  C   UNL A   1      38.204  28.751  30.623  1.00  0.00     0.029 A 
ATOM     22  C   UNL A   1      38.845  30.054  30.731  1.00  0.00     0.049 A 
ATOM     23  H   UNL A   1      40.865  30.446  30.299  1.00  0.00     0.167 HD
ATOM     24  C   UNL A   1      44.590  31.448  28.310  1.00  0.00     0.034 A 
ATOM     25  C   UNL A   1      38.322  31.244  31.159  1.00  0.00     0.034 A 
ATOM     26  C   UNL A   1      44.927  31.357  29.718  1.00  0.00     0.049 A 
ATOM     27  C   UNL A   1      39.467  32.127  31.483  1.00  0.00     0.074 A 
ATOM     28  C   UNL A   1      45.612  30.440  30.495  1.00  0.00     0.029 A 
ATOM     29  N   UNL A   1      44.210  32.123  30.613  1.00  0.00    -0.354 N 
ATOM     30  N   UNL A   1      40.282  31.903  32.476  1.00  0.00    -0.248 NA
ATOM     31  C   UNL A   1      40.001  32.965  30.419  1.00  0.00     0.031 C 
ATOM     32  C   UNL A   1      44.880  30.371  31.717  1.00  0.00     0.029 A 
ATOM     33  C   UNL A   1      43.856  31.317  31.663  1.00  0.00     0.049 A 
ATOM     34  H   UNL A   1      43.992  33.078  30.514  1.00  0.00     0.167 HD
ATOM     35  C   UNL A   1      41.543  32.160  31.961  1.00  0.00     0.074 A 
ATOM     36  C   UNL A   1      41.301  32.898  30.721  1.00  0.00     0.031 C 
ATOM     37  C   UNL A   1      42.642  31.500  32.434  1.00  0.00     0.034 A 
BRANCH  24  38
ATOM     38  C   UNL A   1      44.482  32.787  27.592  1.00  0.00     0.023 A 
ATOM     39  C   UNL A   1      43.944  33.851  28.339  1.00  0.00     0.031 A 
ATOM     40  C   UNL A   1      44.538  32.997  26.194  1.00  0.00     0.131 A 
ATOM     41  C   UNL A   1      43.322  34.938  27.702  1.00  0.00     0.055 A 
ATOM     42  C   UNL A   1      43.984  34.119  25.569  1.00  0.00     0.041 A 
ATOM     43  F   UNL A   1      45.055  32.113  25.336  1.00  0.00    -0.206 F 
ATOM     44  C   UNL A   1      43.327  35.076  26.319  1.00  0.00     0.022 A 
BRANCH  41  45
ATOM     45  S   UNL A   1      42.310  36.041  28.718  1.00  0.00     0.124 S 
ATOM     46  O   UNL A   1      40.968  35.626  28.325  1.00  0.00    -0.237 OA
ATOM     47  O   UNL A   1      42.731  35.672  30.066  1.00  0.00    -0.237 OA
ATOM     48  O   UNL A   1      42.716  37.373  28.278  1.00  0.00    -0.744 OA
ENDBRANCH  41  45
ENDBRANCH  24  38
BRANCH  25  49
ATOM     49  C   UNL A   1      36.921  31.764  31.010  1.00  0.00     0.023 A 
ATOM     50  C   UNL A   1      36.186  32.371  32.062  1.00  0.00     0.031 A 
ATOM     51  C   UNL A   1      36.370  31.895  29.715  1.00  0.00     0.131 A 
ATOM     52  C   UNL A   1      34.972  33.061  31.791  1.00  0.00     0.055 A 
ATOM     53  C   UNL A   1      35.178  32.576  29.455  1.00  0.00     0.041 A 
ATOM     54  F   UNL A   1      37.021  31.442  28.634  1.00  0.00    -0.206 F 
ATOM     55  C   UNL A   1      34.478  33.171  30.490  1.00  0.00     0.022 A 
BRANCH  52  56
ATOM     56  S   UNL A   1      34.039  33.917  33.113  1.00  0.00     0.124 S 
ATOM     57  O   UNL A   1      32.956  32.981  33.390  1.00  0.00    -0.237 OA
ATOM     58  O   UNL A   1      35.043  34.080  34.157  1.00  0.00    -0.237 OA
ATOM     59  O   UNL A   1      33.615  35.168  32.479  1.00  0.00    -0.744 OA
ENDBRANCH  52  56
ENDBRANCH  25  49
BRANCH  37  60
ATOM     60  C   UNL A   1      42.537  30.759  33.750  1.00  0.00     0.023 A 
ATOM     61  C   UNL A   1      42.201  29.394  33.901  1.00  0.00     0.031 A 
ATOM     62  C   UNL A   1      42.886  31.475  34.910  1.00  0.00     0.131 A 
ATOM     63  C   UNL A   1      42.203  28.806  35.182  1.00  0.00     0.055 A 
ATOM     64  C   UNL A   1      42.908  30.884  36.172  1.00  0.00     0.041 A 
ATOM     65  F   UNL A   1      43.239  32.768  34.834  1.00  0.00    -0.206 F 
ATOM     66  C   UNL A   1      42.556  29.548  36.314  1.00  0.00     0.022 A 
BRANCH  63  67
ATOM     67  S   UNL A   1      41.712  27.066  35.412  1.00  0.00     0.124 S 
ATOM     68  O   UNL A   1      40.773  26.825  34.322  1.00  0.00    -0.237 OA
ATOM     69  O   UNL A   1      42.989  26.364  35.322  1.00  0.00    -0.237 OA
ATOM     70  O   UNL A   1      41.109  27.057  36.747  1.00  0.00    -0.744 OA
ENDBRANCH  63  67
ENDBRANCH  37  60
ENDBRANCH  11  12
ENDBRANCH   4   6
ENDBRANCH   1   2
BRANCH   1  71
ATOM     71  C   UNL A   1      37.478  21.544  25.141  1.00  0.00     0.023 C 
BRANCH  71  72
ATOM     72  C   UNL A   1      36.011  21.391  25.553  1.00  0.00     0.023 C 
BRANCH  72  73
ATOM     73  C   UNL A   1      34.980  21.860  24.530  1.00  0.00     0.116 C 
BRANCH  73  74
ATOM     74  N   UNL A   1      33.661  22.049  25.115  1.00  0.00    -0.352 N 
ATOM     75  C   UNL A   1      32.520  21.323  24.916  1.00  0.00     0.251 C 
ATOM     76  H   UNL A   1      33.578  22.804  25.740  1.00  0.00     0.163 HD
ATOM     77  O   UNL A   1      31.438  21.707  25.369  1.00  0.00    -0.269 OA
BRANCH  75  78
ATOM     78  C   UNL A   1      32.556  20.065  24.153  1.00  0.00     0.045 A 
ATOM     79  C   UNL A   1      32.144  20.031  22.823  1.00  0.00     0.034 A 
ATOM     80  C   UNL A   1      33.097  18.931  24.763  1.00  0.00     0.063 A 
ATOM     81  C   UNL A   1      32.272  18.835  22.149  1.00  0.00     0.114 A 
ATOM     82  C   UNL A   1      33.200  17.774  24.002  1.00  0.00     0.157 A 
ATOM     83  N   UNL A   1      32.802  17.723  22.701  1.00  0.00    -0.237 NA
BRANCH  82  84
ATOM     84  N   UNL A   1      33.753  16.600  24.576  1.00  0.00    -0.182 N 
ATOM     85  C   UNL A   1      35.057  16.316  24.891  1.00  0.00     0.254 A 
ATOM     86  N   UNL A   1      33.000  15.524  24.907  1.00  0.00    -0.039 NA
ATOM     87  N   UNL A   1      35.137  15.085  25.341  1.00  0.00    -0.117 NA
ATOM     88  N   UNL A   1      33.853  14.604  25.334  1.00  0.00    -0.024 NA
ENDBRANCH  82  84
ENDBRANCH  75  78
ENDBRANCH  73  74
ENDBRANCH  72  73
ENDBRANCH  71  72
ENDBRANCH   1  71
TORSDOF 15
ENDMDL
MODEL 3
REMARK VINA RESULT:     -12.5      5.660     10.802
REMARK SMILES O=C(NCCCCNC(=O)c1ccnc(-n2cnnn2)c1)c1ccc(-c2c3nc(c(-c4cc(S(=O)(=O)[O-])ccc4F)c4ccc([nH]4)c(-c4cc(S(=O)(=O)[O-])ccc4F)c4nc(c(-c5cc(S(=O)(=O)[O-])ccc5F)c5ccc2[nH]5)C=C4)C=C3)cc1
REMARK SMILES IDX 4 1 3 2 1 3 2 4 22 6 23 7 84 8 24 9 83 10 25 11 26 12 27 13
REMARK SMILES IDX 77 14 28 15 82 16 76 17 78 18 29 19 81 20 75 21 74 22 30 24
REMARK SMILES IDX 62 25 42 26 61 27 43 28 46 29 60 30 79 31 44 32 45 33 59 35
REMARK SMILES IDX 80 36 47 37 31 38 32 39 40 40 33 41 39 42 41 43 38 44 34 45
REMARK SMILES IDX 35 46 36 47 37 48 63 49 64 50 72 51 65 52 71 53 73 54 70 55
REMARK SMILES IDX 66 56 67 57 68 58 69 59 48 60 49 61 57 62 50 63 56 64 58 65
REMARK SMILES IDX 55 66 51 67 52 68 53 69 54 70 5 71 6 72 7 73 8 74 9 75 10 77
REMARK SMILES IDX 11 78 12 79 21 80 13 81 15 82 14 83 16 84 17 85 20 86 18 87
REMARK SMILES IDX 19 88
REMARK H PARENT 3 5 78 23 46 34 8 76
REMARK Flexibility Score: inf
ROOT
ATOM      1  C   UNL A   1      38.043  22.802  25.771  1.00  0.00     0.116 C 
ENDROOT
BRANCH   1   2
ATOM      2  N   UNL A   1      39.276  22.367  26.390  1.00  0.00    -0.352 N 
ATOM      3  O   UNL A   1      40.949  22.136  27.810  1.00  0.00    -0.269 OA
ATOM      4  C   UNL A   1      40.110  22.906  27.333  1.00  0.00     0.251 C 
ATOM      5  H   UNL A   1      39.583  21.491  26.060  1.00  0.00     0.163 HD
BRANCH   4   6
ATOM      6  C   UNL A   1      40.131  24.338  27.735  1.00  0.00     0.039 A 
ATOM      7  C   UNL A   1      39.093  25.256  27.565  1.00  0.00     0.014 A 
ATOM      8  C   UNL A   1      41.334  24.788  28.315  1.00  0.00     0.014 A 
ATOM      9  C   UNL A   1      39.287  26.605  27.872  1.00  0.00     0.010 A 
ATOM     10  C   UNL A   1      41.531  26.129  28.625  1.00  0.00     0.010 A 
ATOM     11  C   UNL A   1      40.517  27.048  28.375  1.00  0.00    -0.014 A 
BRANCH  11  12
ATOM     12  C   UNL A   1      40.611  28.410  28.912  1.00  0.00     0.031 A 
ATOM     13  C   UNL A   1      41.774  29.151  28.347  1.00  0.00     0.074 A 
ATOM     14  C   UNL A   1      39.676  29.011  29.683  1.00  0.00     0.049 A 
ATOM     15  N   UNL A   1      42.834  29.553  28.969  1.00  0.00    -0.248 NA
ATOM     16  C   UNL A   1      41.866  29.284  26.881  1.00  0.00     0.031 C 
ATOM     17  C   UNL A   1      38.385  28.462  30.093  1.00  0.00     0.029 A 
ATOM     18  N   UNL A   1      39.632  30.284  30.189  1.00  0.00    -0.354 N 
ATOM     19  C   UNL A   1      43.581  30.244  28.018  1.00  0.00     0.074 A 
ATOM     20  C   UNL A   1      43.076  29.825  26.742  1.00  0.00     0.031 C 
ATOM     21  C   UNL A   1      37.603  29.456  30.577  1.00  0.00     0.029 A 
ATOM     22  C   UNL A   1      38.362  30.698  30.611  1.00  0.00     0.049 A 
ATOM     23  H   UNL A   1      40.427  30.861  30.249  1.00  0.00     0.167 HD
ATOM     24  C   UNL A   1      44.312  31.338  28.372  1.00  0.00     0.034 A 
ATOM     25  C   UNL A   1      37.941  31.964  30.915  1.00  0.00     0.034 A 
ATOM     26  C   UNL A   1      44.579  31.335  29.798  1.00  0.00     0.049 A 
ATOM     27  C   UNL A   1      39.153  32.760  31.224  1.00  0.00     0.074 A 
ATOM     28  C   UNL A   1      45.140  30.427  30.678  1.00  0.00     0.029 A 
ATOM     29  N   UNL A   1      43.904  32.238  30.592  1.00  0.00    -0.354 N 
ATOM     30  N   UNL A   1      39.899  32.545  32.271  1.00  0.00    -0.248 NA
ATOM     31  C   UNL A   1      39.809  33.451  30.124  1.00  0.00     0.031 C 
ATOM     32  C   UNL A   1      44.354  30.531  31.865  1.00  0.00     0.029 A 
ATOM     33  C   UNL A   1      43.430  31.560  31.685  1.00  0.00     0.049 A 
ATOM     34  H   UNL A   1      43.784  33.197  30.407  1.00  0.00     0.167 HD
ATOM     35  C   UNL A   1      41.200  32.638  31.800  1.00  0.00     0.074 A 
ATOM     36  C   UNL A   1      41.083  33.288  30.494  1.00  0.00     0.031 C 
ATOM     37  C   UNL A   1      42.209  31.920  32.377  1.00  0.00     0.034 A 
BRANCH  24  38
ATOM     38  C   UNL A   1      44.365  32.616  27.545  1.00  0.00     0.023 A 
ATOM     39  C   UNL A   1      43.819  33.767  28.143  1.00  0.00     0.031 A 
ATOM     40  C   UNL A   1      44.580  32.704  26.149  1.00  0.00     0.131 A 
ATOM     41  C   UNL A   1      43.338  34.829  27.359  1.00  0.00     0.055 A 
ATOM     42  C   UNL A   1      44.166  33.798  25.382  1.00  0.00     0.041 A 
ATOM     43  F   UNL A   1      45.127  31.724  25.424  1.00  0.00    -0.206 F 
ATOM     44  C   UNL A   1      43.496  34.849  25.979  1.00  0.00     0.022 A 
BRANCH  41  45
ATOM     45  S   UNL A   1      42.297  36.066  28.170  1.00  0.00     0.124 S 
ATOM     46  O   UNL A   1      42.677  37.271  27.439  1.00  0.00    -0.237 OA
ATOM     47  O   UNL A   1      40.959  35.548  27.906  1.00  0.00    -0.237 OA
ATOM     48  O   UNL A   1      42.727  36.009  29.564  1.00  0.00    -0.744 OA
ENDBRANCH  41  45
ENDBRANCH  24  38
BRANCH  25  49
ATOM     49  C   UNL A   1      36.605  32.598  30.657  1.00  0.00     0.023 A 
ATOM     50  C   UNL A   1      35.913  33.401  31.602  1.00  0.00     0.031 A 
ATOM     51  C   UNL A   1      36.099  32.622  29.337  1.00  0.00     0.131 A 
ATOM     52  C   UNL A   1      34.783  34.170  31.208  1.00  0.00     0.055 A 
ATOM     53  C   UNL A   1      34.989  33.381  28.956  1.00  0.00     0.041 A 
ATOM     54  F   UNL A   1      36.723  31.976  28.342  1.00  0.00    -0.206 F 
ATOM     55  C   UNL A   1      34.332  34.166  29.886  1.00  0.00     0.022 A 
BRANCH  52  56
ATOM     56  S   UNL A   1      33.915  35.272  32.383  1.00  0.00     0.124 S 
ATOM     57  O   UNL A   1      33.883  36.539  31.661  1.00  0.00    -0.237 OA
ATOM     58  O   UNL A   1      32.637  34.596  32.569  1.00  0.00    -0.237 OA
ATOM     59  O   UNL A   1      34.782  35.266  33.564  1.00  0.00    -0.744 OA
ENDBRANCH  52  56
ENDBRANCH  25  49
BRANCH  37  60
ATOM     60  C   UNL A   1      41.978  31.306  33.742  1.00  0.00     0.023 A 
ATOM     61  C   UNL A   1      42.121  31.976  34.979  1.00  0.00     0.031 A 
ATOM     62  C   UNL A   1      41.502  29.983  33.770  1.00  0.00     0.131 A 
ATOM     63  C   UNL A   1      41.811  31.307  36.181  1.00  0.00     0.055 A 
ATOM     64  C   UNL A   1      41.175  29.334  34.959  1.00  0.00     0.041 A 
ATOM     65  F   UNL A   1      41.320  29.299  32.629  1.00  0.00    -0.206 F 
ATOM     66  C   UNL A   1      41.338  29.991  36.171  1.00  0.00     0.022 A 
BRANCH  63  67
ATOM     67  S   UNL A   1      42.047  32.125  37.792  1.00  0.00     0.124 S 
ATOM     68  O   UNL A   1      42.785  33.338  37.459  1.00  0.00    -0.237 OA
ATOM     69  O   UNL A   1      40.674  32.319  38.251  1.00  0.00    -0.237 OA
ATOM     70  O   UNL A   1      42.810  31.141  38.564  1.00  0.00    -0.744 OA
ENDBRANCH  63  67
ENDBRANCH  37  60
ENDBRANCH  11  12
ENDBRANCH   4   6
ENDBRANCH   1   2
BRANCH   1  71
ATOM     71  C   UNL A   1      37.371  21.774  24.864  1.00  0.00     0.023 C 
BRANCH  71  72
ATOM     72  C   UNL A   1      35.967  21.334  25.289  1.00  0.00     0.023 C 
BRANCH  72  73
ATOM     73  C   UNL A   1      34.825  21.781  24.380  1.00  0.00     0.116 C 
BRANCH  73  74
ATOM     74  N   UNL A   1      33.556  21.874  25.084  1.00  0.00    -0.352 N 
ATOM     75  C   UNL A   1      32.444  21.089  24.961  1.00  0.00     0.251 C 
ATOM     76  H   UNL A   1      33.487  22.604  25.741  1.00  0.00     0.163 HD
ATOM     77  O   UNL A   1      31.387  21.395  25.521  1.00  0.00    -0.269 OA
BRANCH  75  78
ATOM     78  C   UNL A   1      32.481  19.859  24.154  1.00  0.00     0.045 A 
ATOM     79  C   UNL A   1      32.230  19.902  22.785  1.00  0.00     0.034 A 
ATOM     80  C   UNL A   1      32.863  18.667  24.773  1.00  0.00     0.063 A 
ATOM     81  C   UNL A   1      32.353  18.724  22.079  1.00  0.00     0.114 A 
ATOM     82  C   UNL A   1      32.974  17.532  23.980  1.00  0.00     0.157 A 
ATOM     83  N   UNL A   1      32.733  17.557  22.641  1.00  0.00    -0.237 NA
BRANCH  82  84
ATOM     84  N   UNL A   1      33.370  16.301  24.564  1.00  0.00    -0.182 N 
ATOM     85  C   UNL A   1      32.606  15.345  25.183  1.00  0.00     0.254 A 
ATOM     86  N   UNL A   1      34.658  15.883  24.586  1.00  0.00    -0.039 NA
ATOM     87  N   UNL A   1      33.387  14.393  25.640  1.00  0.00    -0.117 NA
ATOM     88  N   UNL A   1      34.659  14.748  25.270  1.00  0.00    -0.024 NA
ENDBRANCH  82  84
ENDBRANCH  75  78
ENDBRANCH  73  74
ENDBRANCH  72  73
ENDBRANCH  71  72
ENDBRANCH   1  71
TORSDOF 15
ENDMDL
