MODEL 1
REMARK VINA RESULT:     -13.6      0.000      0.000
REMARK SMILES O=C(NCCCCNC(=O)c1nnn(-c2cccc(C(F)(F)F)c2)c1[C@@H]1COc2ccccc2O1)c1ccc(-c2c3nc(c(-c4cc(S(=O)(=O)[O-])ccc4F)c4ccc([nH]4)c(-c4cc(S(=O)(=O)[O-])ccc4F)c4nc(c(-c5cc(S(=O)(=O)[O-])ccc5F)c5ccc2[nH]5)C=C4)C=C3)cc1
REMARK SMILES IDX 5 1 4 2 3 3 1 4 2 5 36 7 37 8 98 9 38 10 97 11 39 12 40 13
REMARK SMILES IDX 41 14 91 15 42 16 96 17 90 18 92 19 43 20 95 21 89 22 88 23
REMARK SMILES IDX 44 25 76 26 56 27 75 28 57 29 60 30 74 31 93 32 58 33 59 34
REMARK SMILES IDX 73 36 94 37 61 38 45 39 46 40 54 41 47 42 53 43 55 44 52 45
REMARK SMILES IDX 48 46 49 47 50 48 51 49 77 50 78 51 86 52 79 53 85 54 87 55
REMARK SMILES IDX 84 56 80 57 81 58 82 59 83 60 62 61 63 62 71 63 64 64 70 65
REMARK SMILES IDX 72 66 69 67 65 68 66 69 67 70 68 71 6 72 7 73 8 74 9 75
REMARK SMILES IDX 10 77 11 78 12 79 25 80 13 81 14 82 26 83 27 84 35 85 28 86
REMARK SMILES IDX 34 87 29 88 33 89 30 90 32 91 31 92 15 93 16 94 24 95 17 96
REMARK SMILES IDX 19 97 18 98 20 99 21 100 22 101 23 102
REMARK H PARENT 3 6 92 24 60 35 8 76
REMARK Flexibility Score: inf
ROOT
ATOM      1  C   UNL A   1      33.388  28.736  26.470  1.00  0.00     0.023 C 
ENDROOT
BRANCH   1   2
ATOM      2  C   UNL A   1      34.831  28.928  26.946  1.00  0.00     0.116 C 
BRANCH   2   3
ATOM      3  N   UNL A   1      34.999  29.501  28.269  1.00  0.00    -0.352 N 
ATOM      4  O   UNL A   1      35.865  30.684  29.925  1.00  0.00    -0.269 OA
ATOM      5  C   UNL A   1      36.093  29.914  28.988  1.00  0.00     0.251 C 
ATOM      6  H   UNL A   1      34.150  29.621  28.751  1.00  0.00     0.163 HD
BRANCH   5   7
ATOM      7  C   UNL A   1      37.482  29.423  28.777  1.00  0.00     0.039 A 
ATOM      8  C   UNL A   1      38.278  29.699  27.667  1.00  0.00     0.014 A 
ATOM      9  C   UNL A   1      37.993  28.569  29.775  1.00  0.00     0.014 A 
ATOM     10  C   UNL A   1      39.498  29.050  27.496  1.00  0.00     0.010 A 
ATOM     11  C   UNL A   1      39.221  27.931  29.619  1.00  0.00     0.010 A 
ATOM     12  C   UNL A   1      39.959  28.149  28.460  1.00  0.00    -0.014 A 
BRANCH  12  13
ATOM     13  C   UNL A   1      41.346  27.689  28.358  1.00  0.00     0.031 A 
ATOM     14  C   UNL A   1      41.447  26.365  27.683  1.00  0.00     0.074 A 
ATOM     15  C   UNL A   1      42.434  28.418  28.684  1.00  0.00     0.049 A 
ATOM     16  N   UNL A   1      41.822  25.241  28.195  1.00  0.00    -0.248 NA
ATOM     17  C   UNL A   1      40.867  26.234  26.333  1.00  0.00     0.031 C 
ATOM     18  C   UNL A   1      42.465  29.812  29.127  1.00  0.00     0.029 A 
ATOM     19  N   UNL A   1      43.763  28.100  28.593  1.00  0.00    -0.354 N 
ATOM     20  C   UNL A   1      41.792  24.326  27.146  1.00  0.00     0.074 A 
ATOM     21  C   UNL A   1      40.976  24.923  26.128  1.00  0.00     0.031 C 
ATOM     22  C   UNL A   1      43.732  30.281  29.041  1.00  0.00     0.029 A 
ATOM     23  C   UNL A   1      44.623  29.201  28.640  1.00  0.00     0.049 A 
ATOM     24  H   UNL A   1      44.086  27.175  28.502  1.00  0.00     0.167 HD
ATOM     25  C   UNL A   1      42.699  23.311  27.082  1.00  0.00     0.034 A 
ATOM     26  C   UNL A   1      45.948  29.247  28.311  1.00  0.00     0.034 A 
ATOM     27  C   UNL A   1      43.267  23.047  28.389  1.00  0.00     0.049 A 
ATOM     28  C   UNL A   1      46.464  27.859  28.394  1.00  0.00     0.074 A 
ATOM     29  C   UNL A   1      42.738  22.759  29.635  1.00  0.00     0.029 A 
ATOM     30  N   UNL A   1      44.569  23.431  28.631  1.00  0.00    -0.354 N 
ATOM     31  N   UNL A   1      46.565  27.200  29.513  1.00  0.00    -0.248 NA
ATOM     32  C   UNL A   1      46.406  27.037  27.194  1.00  0.00     0.031 C 
ATOM     33  C   UNL A   1      43.558  23.472  30.560  1.00  0.00     0.029 A 
ATOM     34  C   UNL A   1      44.594  24.072  29.843  1.00  0.00     0.049 A 
ATOM     35  H   UNL A   1      45.340  23.273  28.041  1.00  0.00     0.167 HD
ATOM     36  C   UNL A   1      46.121  25.922  29.213  1.00  0.00     0.074 A 
ATOM     37  C   UNL A   1      46.130  25.854  27.752  1.00  0.00     0.031 C 
ATOM     38  C   UNL A   1      45.516  25.146  30.161  1.00  0.00     0.034 A 
BRANCH  25  39
ATOM     39  C   UNL A   1      43.401  22.899  25.795  1.00  0.00     0.023 A 
ATOM     40  C   UNL A   1      43.482  21.517  25.545  1.00  0.00     0.031 A 
ATOM     41  C   UNL A   1      44.260  23.707  25.013  1.00  0.00     0.131 A 
ATOM     42  C   UNL A   1      44.494  20.991  24.726  1.00  0.00     0.055 A 
ATOM     43  C   UNL A   1      45.216  23.180  24.139  1.00  0.00     0.041 A 
ATOM     44  F   UNL A   1      44.289  25.041  25.091  1.00  0.00    -0.206 F 
ATOM     45  C   UNL A   1      45.372  21.812  24.028  1.00  0.00     0.022 A 
BRANCH  42  46
ATOM     46  S   UNL A   1      44.774  19.204  24.780  1.00  0.00     0.124 S 
ATOM     47  O   UNL A   1      46.003  19.140  25.564  1.00  0.00    -0.237 OA
ATOM     48  O   UNL A   1      43.562  18.733  25.440  1.00  0.00    -0.237 OA
ATOM     49  O   UNL A   1      44.903  18.840  23.372  1.00  0.00    -0.744 OA
ENDBRANCH  42  46
ENDBRANCH  25  39
BRANCH  26  50
ATOM     50  C   UNL A   1      46.702  30.355  27.641  1.00  0.00     0.023 A 
ATOM     51  C   UNL A   1      46.078  31.443  26.980  1.00  0.00     0.031 A 
ATOM     52  C   UNL A   1      48.091  30.483  27.869  1.00  0.00     0.131 A 
ATOM     53  C   UNL A   1      46.836  32.576  26.583  1.00  0.00     0.055 A 
ATOM     54  C   UNL A   1      48.833  31.599  27.474  1.00  0.00     0.041 A 
ATOM     55  F   UNL A   1      48.771  29.562  28.571  1.00  0.00    -0.206 F 
ATOM     56  C   UNL A   1      48.206  32.656  26.838  1.00  0.00     0.022 A 
BRANCH  53  57
ATOM     57  S   UNL A   1      46.044  34.025  25.798  1.00  0.00     0.124 S 
ATOM     58  O   UNL A   1      44.974  33.418  25.024  1.00  0.00    -0.237 OA
ATOM     59  O   UNL A   1      45.641  34.828  26.953  1.00  0.00    -0.237 OA
ATOM     60  O   UNL A   1      47.122  34.615  25.000  1.00  0.00    -0.744 OA
ENDBRANCH  53  57
ENDBRANCH  26  50
BRANCH  38  61
ATOM     61  C   UNL A   1      45.651  25.535  31.617  1.00  0.00     0.023 A 
ATOM     62  C   UNL A   1      46.731  25.189  32.462  1.00  0.00     0.031 A 
ATOM     63  C   UNL A   1      44.659  26.382  32.146  1.00  0.00     0.131 A 
ATOM     64  C   UNL A   1      46.773  25.672  33.785  1.00  0.00     0.055 A 
ATOM     65  C   UNL A   1      44.716  26.876  33.447  1.00  0.00     0.041 A 
ATOM     66  F   UNL A   1      43.620  26.771  31.388  1.00  0.00    -0.206 F 
ATOM     67  C   UNL A   1      45.771  26.515  34.275  1.00  0.00     0.022 A 
BRANCH  64  68
ATOM     68  S   UNL A   1      48.122  25.190  34.912  1.00  0.00     0.124 S 
ATOM     69  O   UNL A   1      47.503  24.206  35.790  1.00  0.00    -0.237 OA
ATOM     70  O   UNL A   1      49.133  24.678  33.990  1.00  0.00    -0.237 OA
ATOM     71  O   UNL A   1      48.483  26.450  35.567  1.00  0.00    -0.744 OA
ENDBRANCH  64  68
ENDBRANCH  38  61
ENDBRANCH  12  13
ENDBRANCH   5   7
ENDBRANCH   2   3
ENDBRANCH   1   2
BRANCH   1  72
ATOM     72  C   UNL A   1      32.898  29.700  25.399  1.00  0.00     0.023 C 
BRANCH  72  73
ATOM     73  C   UNL A   1      31.403  29.725  25.115  1.00  0.00     0.116 C 
BRANCH  73  74
ATOM     74  N   UNL A   1      30.958  29.360  23.795  1.00  0.00    -0.351 N 
ATOM     75  C   UNL A   1      30.701  28.158  23.158  1.00  0.00     0.273 C 
ATOM     76  H   UNL A   1      30.799  30.141  23.217  1.00  0.00     0.163 HD
ATOM     77  O   UNL A   1      30.290  28.303  22.000  1.00  0.00    -0.267 OA
BRANCH  75  78
ATOM     78  C   UNL A   1      30.867  26.782  23.697  1.00  0.00     0.178 A 
ATOM     79  N   UNL A   1      29.719  25.997  23.753  1.00  0.00    -0.124 NA
ATOM     80  C   UNL A   1      31.922  25.980  24.153  1.00  0.00     0.122 A 
ATOM     81  N   UNL A   1      30.023  24.784  24.181  1.00  0.00    -0.061 NA
ATOM     82  N   UNL A   1      31.318  24.787  24.525  1.00  0.00    -0.213 N 
BRANCH  80  83
ATOM     83  C   UNL A   1      33.402  26.135  24.037  1.00  0.00     0.262 C 
ATOM     84  C   UNL A   1      33.838  25.700  22.618  1.00  0.00     0.281 C 
ATOM     85  O   UNL A   1      34.142  25.533  25.104  1.00  0.00    -0.477 OA
ATOM     86  O   UNL A   1      34.032  24.288  22.542  1.00  0.00    -0.485 OA
ATOM     87  C   UNL A   1      35.102  24.656  24.671  1.00  0.00     0.162 A 
ATOM     88  C   UNL A   1      35.001  23.976  23.454  1.00  0.00     0.161 A 
ATOM     89  C   UNL A   1      36.165  24.389  25.524  1.00  0.00     0.050 A 
ATOM     90  C   UNL A   1      35.880  22.953  23.131  1.00  0.00     0.050 A 
ATOM     91  C   UNL A   1      37.092  23.404  25.175  1.00  0.00     0.004 A 
ATOM     92  C   UNL A   1      36.930  22.667  23.997  1.00  0.00     0.004 A 
ENDBRANCH  80  83
BRANCH  82  93
ATOM     93  C   UNL A   1      31.872  23.695  25.220  1.00  0.00     0.067 A 
ATOM     94  C   UNL A   1      31.960  23.735  26.613  1.00  0.00     0.028 A 
ATOM     95  C   UNL A   1      32.157  22.522  24.511  1.00  0.00     0.041 A 
ATOM     96  C   UNL A   1      32.226  22.553  27.306  1.00  0.00     0.003 A 
ATOM     97  C   UNL A   1      32.455  21.340  25.202  1.00  0.00     0.058 A 
ATOM     98  C   UNL A   1      32.453  21.361  26.608  1.00  0.00     0.013 A 
BRANCH  97  99
ATOM     99  C   UNL A   1      32.692  20.054  24.456  1.00  0.00     0.416 C 
ATOM    100  F   UNL A   1      32.149  20.065  23.206  1.00  0.00    -0.166 F 
ATOM    101  F   UNL A   1      34.015  19.779  24.285  1.00  0.00    -0.166 F 
ATOM    102  F   UNL A   1      32.163  18.961  25.076  1.00  0.00    -0.166 F 
ENDBRANCH  97  99
ENDBRANCH  82  93
ENDBRANCH  75  78
ENDBRANCH  73  74
ENDBRANCH  72  73
ENDBRANCH   1  72
TORSDOF 17
ENDMDL
MODEL 2
REMARK VINA RESULT:     -13.5      3.551      8.285
REMARK SMILES O=C(NCCCCNC(=O)c1nnn(-c2cccc(C(F)(F)F)c2)c1[C@@H]1COc2ccccc2O1)c1ccc(-c2c3nc(c(-c4cc(S(=O)(=O)[O-])ccc4F)c4ccc([nH]4)c(-c4cc(S(=O)(=O)[O-])ccc4F)c4nc(c(-c5cc(S(=O)(=O)[O-])ccc5F)c5ccc2[nH]5)C=C4)C=C3)cc1
REMARK SMILES IDX 5 1 4 2 3 3 1 4 2 5 36 7 37 8 98 9 38 10 97 11 39 12 40 13
REMARK SMILES IDX 41 14 91 15 42 16 96 17 90 18 92 19 43 20 95 21 89 22 88 23
REMARK SMILES IDX 44 25 76 26 56 27 75 28 57 29 60 30 74 31 93 32 58 33 59 34
REMARK SMILES IDX 73 36 94 37 61 38 45 39 46 40 54 41 47 42 53 43 55 44 52 45
REMARK SMILES IDX 48 46 49 47 50 48 51 49 77 50 78 51 86 52 79 53 85 54 87 55
REMARK SMILES IDX 84 56 80 57 81 58 82 59 83 60 62 61 63 62 71 63 64 64 70 65
REMARK SMILES IDX 72 66 69 67 65 68 66 69 67 70 68 71 6 72 7 73 8 74 9 75
REMARK SMILES IDX 10 77 11 78 12 79 25 80 13 81 14 82 26 83 27 84 35 85 28 86
REMARK SMILES IDX 34 87 29 88 33 89 30 90 32 91 31 92 15 93 16 94 24 95 17 96
REMARK SMILES IDX 19 97 18 98 20 99 21 100 22 101 23 102
REMARK H PARENT 3 6 92 24 60 35 8 76
REMARK Flexibility Score: inf
ROOT
ATOM      1  C   UNL A   1      37.851  21.071  24.915  1.00  0.00     0.023 C 
ENDROOT
BRANCH   1   2
ATOM      2  C   UNL A   1      38.217  19.750  25.598  1.00  0.00     0.116 C 
BRANCH   2   3
ATOM      3  N   UNL A   1      39.560  19.255  25.358  1.00  0.00    -0.352 N 
ATOM      4  O   UNL A   1      41.679  18.737  25.725  1.00  0.00    -0.269 OA
ATOM      5  C   UNL A   1      40.794  19.586  25.863  1.00  0.00     0.251 C 
ATOM      6  H   UNL A   1      39.595  18.528  24.695  1.00  0.00     0.163 HD
BRANCH   5   7
ATOM      7  C   UNL A   1      41.143  20.905  26.457  1.00  0.00     0.039 A 
ATOM      8  C   UNL A   1      41.740  21.965  25.778  1.00  0.00     0.014 A 
ATOM      9  C   UNL A   1      40.883  21.049  27.834  1.00  0.00     0.014 A 
ATOM     10  C   UNL A   1      42.174  23.091  26.472  1.00  0.00     0.010 A 
ATOM     11  C   UNL A   1      41.299  22.181  28.532  1.00  0.00     0.010 A 
ATOM     12  C   UNL A   1      41.976  23.188  27.853  1.00  0.00    -0.014 A 
BRANCH  12  13
ATOM     13  C   UNL A   1      42.222  24.484  28.488  1.00  0.00     0.031 A 
ATOM     14  C   UNL A   1      41.148  25.470  28.183  1.00  0.00     0.074 A 
ATOM     15  C   UNL A   1      43.208  24.744  29.373  1.00  0.00     0.049 A 
ATOM     16  N   UNL A   1      41.241  26.554  27.487  1.00  0.00    -0.248 NA
ATOM     17  C   UNL A   1      39.760  25.101  28.519  1.00  0.00     0.031 C 
ATOM     18  C   UNL A   1      44.171  23.792  29.929  1.00  0.00     0.029 A 
ATOM     19  N   UNL A   1      43.502  25.898  30.048  1.00  0.00    -0.354 N 
ATOM     20  C   UNL A   1      39.980  27.140  27.544  1.00  0.00     0.074 A 
ATOM     21  C   UNL A   1      39.081  26.102  27.961  1.00  0.00     0.031 C 
ATOM     22  C   UNL A   1      44.775  24.344  31.007  1.00  0.00     0.029 A 
ATOM     23  C   UNL A   1      44.327  25.721  31.162  1.00  0.00     0.049 A 
ATOM     24  H   UNL A   1      43.160  26.779  29.772  1.00  0.00     0.167 HD
ATOM     25  C   UNL A   1      39.843  28.495  27.555  1.00  0.00     0.034 A 
ATOM     26  C   UNL A   1      44.575  26.605  32.173  1.00  0.00     0.034 A 
ATOM     27  C   UNL A   1      41.025  29.136  27.013  1.00  0.00     0.049 A 
ATOM     28  C   UNL A   1      44.256  27.958  31.655  1.00  0.00     0.074 A 
ATOM     29  C   UNL A   1      41.733  29.019  25.829  1.00  0.00     0.029 A 
ATOM     30  N   UNL A   1      41.878  29.786  27.879  1.00  0.00    -0.354 N 
ATOM     31  N   UNL A   1      44.941  28.543  30.714  1.00  0.00    -0.248 NA
ATOM     32  C   UNL A   1      42.899  28.453  31.832  1.00  0.00     0.031 C 
ATOM     33  C   UNL A   1      43.105  29.125  26.206  1.00  0.00     0.029 A 
ATOM     34  C   UNL A   1      43.157  29.397  27.574  1.00  0.00     0.049 A 
ATOM     35  H   UNL A   1      41.615  30.416  28.588  1.00  0.00     0.167 HD
ATOM     36  C   UNL A   1      43.989  29.128  29.894  1.00  0.00     0.074 A 
ATOM     37  C   UNL A   1      42.759  29.123  30.684  1.00  0.00     0.031 C 
ATOM     38  C   UNL A   1      44.218  29.293  28.557  1.00  0.00     0.034 A 
BRANCH  25  39
ATOM     39  C   UNL A   1      38.873  29.230  28.471  1.00  0.00     0.023 A 
ATOM     40  C   UNL A   1      39.163  29.188  29.847  1.00  0.00     0.031 A 
ATOM     41  C   UNL A   1      37.563  29.650  28.141  1.00  0.00     0.131 A 
ATOM     42  C   UNL A   1      38.148  29.354  30.803  1.00  0.00     0.055 A 
ATOM     43  C   UNL A   1      36.574  29.890  29.100  1.00  0.00     0.041 A 
ATOM     44  F   UNL A   1      37.127  29.785  26.884  1.00  0.00    -0.206 F 
ATOM     45  C   UNL A   1      36.849  29.693  30.440  1.00  0.00     0.022 A 
BRANCH  42  46
ATOM     46  S   UNL A   1      38.518  28.889  32.512  1.00  0.00     0.124 S 
ATOM     47  O   UNL A   1      37.180  28.595  33.015  1.00  0.00    -0.237 OA
ATOM     48  O   UNL A   1      39.402  27.745  32.323  1.00  0.00    -0.237 OA
ATOM     49  O   UNL A   1      39.151  30.086  33.058  1.00  0.00    -0.744 OA
ENDBRANCH  42  46
ENDBRANCH  25  39
BRANCH  26  50
ATOM     50  C   UNL A   1      44.773  26.320  33.631  1.00  0.00     0.023 A 
ATOM     51  C   UNL A   1      43.775  26.536  34.615  1.00  0.00     0.031 A 
ATOM     52  C   UNL A   1      45.900  25.575  34.044  1.00  0.00     0.131 A 
ATOM     53  C   UNL A   1      43.936  26.021  35.930  1.00  0.00     0.055 A 
ATOM     54  C   UNL A   1      46.054  25.072  35.338  1.00  0.00     0.041 A 
ATOM     55  F   UNL A   1      46.862  25.225  33.174  1.00  0.00    -0.206 F 
ATOM     56  C   UNL A   1      45.068  25.284  36.284  1.00  0.00     0.022 A 
BRANCH  53  57
ATOM     57  S   UNL A   1      42.633  26.218  37.197  1.00  0.00     0.124 S 
ATOM     58  O   UNL A   1      41.987  27.457  36.793  1.00  0.00    -0.237 OA
ATOM     59  O   UNL A   1      41.851  24.992  37.038  1.00  0.00    -0.237 OA
ATOM     60  O   UNL A   1      43.384  26.297  38.451  1.00  0.00    -0.744 OA
ENDBRANCH  53  57
ENDBRANCH  26  50
BRANCH  38  61
ATOM     61  C   UNL A   1      45.635  29.170  28.038  1.00  0.00     0.023 A 
ATOM     62  C   UNL A   1      46.187  28.022  27.426  1.00  0.00     0.031 A 
ATOM     63  C   UNL A   1      46.437  30.325  28.098  1.00  0.00     0.131 A 
ATOM     64  C   UNL A   1      47.502  28.056  26.922  1.00  0.00     0.055 A 
ATOM     65  C   UNL A   1      47.729  30.361  27.578  1.00  0.00     0.041 A 
ATOM     66  F   UNL A   1      45.964  31.458  28.643  1.00  0.00    -0.206 F 
ATOM     67  C   UNL A   1      48.271  29.223  26.995  1.00  0.00     0.022 A 
BRANCH  64  68
ATOM     68  S   UNL A   1      48.258  26.571  26.184  1.00  0.00     0.124 S 
ATOM     69  O   UNL A   1      49.364  27.101  25.396  1.00  0.00    -0.237 OA
ATOM     70  O   UNL A   1      48.630  25.791  27.362  1.00  0.00    -0.237 OA
ATOM     71  O   UNL A   1      47.169  25.993  25.394  1.00  0.00    -0.744 OA
ENDBRANCH  64  68
ENDBRANCH  38  61
ENDBRANCH  12  13
ENDBRANCH   5   7
ENDBRANCH   2   3
ENDBRANCH   1   2
BRANCH   1  72
ATOM     72  C   UNL A   1      36.367  21.323  24.690  1.00  0.00     0.023 C 
BRANCH  72  73
ATOM     73  C   UNL A   1      35.462  21.302  25.913  1.00  0.00     0.116 C 
BRANCH  73  74
ATOM     74  N   UNL A   1      34.155  20.714  25.779  1.00  0.00    -0.351 N 
ATOM     75  C   UNL A   1      32.969  21.114  25.186  1.00  0.00     0.273 C 
ATOM     76  H   UNL A   1      34.089  19.828  26.203  1.00  0.00     0.163 HD
ATOM     77  O   UNL A   1      32.074  20.266  25.274  1.00  0.00    -0.267 OA
BRANCH  75  78
ATOM     78  C   UNL A   1      32.680  22.399  24.493  1.00  0.00     0.178 A 
ATOM     79  N   UNL A   1      31.978  22.311  23.294  1.00  0.00    -0.124 NA
ATOM     80  C   UNL A   1      32.884  23.763  24.738  1.00  0.00     0.122 A 
ATOM     81  N   UNL A   1      31.729  23.522  22.827  1.00  0.00    -0.061 NA
ATOM     82  N   UNL A   1      32.354  24.401  23.624  1.00  0.00    -0.213 N 
BRANCH  80  83
ATOM     83  C   UNL A   1      33.280  24.497  25.976  1.00  0.00     0.262 C 
ATOM     84  C   UNL A   1      32.055  24.584  26.916  1.00  0.00     0.281 C 
ATOM     85  O   UNL A   1      33.943  25.743  25.735  1.00  0.00    -0.477 OA
ATOM     86  O   UNL A   1      31.223  25.695  26.587  1.00  0.00    -0.485 OA
ATOM     87  C   UNL A   1      33.354  26.803  26.374  1.00  0.00     0.162 A 
ATOM     88  C   UNL A   1      31.997  26.815  26.709  1.00  0.00     0.161 A 
ATOM     89  C   UNL A   1      34.134  27.925  26.616  1.00  0.00     0.050 A 
ATOM     90  C   UNL A   1      31.386  27.970  27.174  1.00  0.00     0.050 A 
ATOM     91  C   UNL A   1      33.538  29.072  27.145  1.00  0.00     0.004 A 
ATOM     92  C   UNL A   1      32.162  29.103  27.392  1.00  0.00     0.004 A 
ENDBRANCH  80  83
BRANCH  82  93
ATOM     93  C   UNL A   1      32.451  25.755  23.251  1.00  0.00     0.067 A 
ATOM     94  C   UNL A   1      33.603  26.215  22.611  1.00  0.00     0.028 A 
ATOM     95  C   UNL A   1      31.316  26.566  23.371  1.00  0.00     0.041 A 
ATOM     96  C   UNL A   1      33.573  27.463  21.985  1.00  0.00     0.003 A 
ATOM     97  C   UNL A   1      31.294  27.832  22.770  1.00  0.00     0.058 A 
ATOM     98  C   UNL A   1      32.422  28.257  22.048  1.00  0.00     0.013 A 
BRANCH  97  99
ATOM     99  C   UNL A   1      30.056  28.687  22.829  1.00  0.00     0.416 C 
ATOM    100  F   UNL A   1      29.963  29.550  21.777  1.00  0.00    -0.166 F 
ATOM    101  F   UNL A   1      28.908  27.955  22.812  1.00  0.00    -0.166 F 
ATOM    102  F   UNL A   1      29.984  29.464  23.947  1.00  0.00    -0.166 F 
ENDBRANCH  97  99
ENDBRANCH  82  93
ENDBRANCH  75  78
ENDBRANCH  73  74
ENDBRANCH  72  73
ENDBRANCH   1  72
TORSDOF 17
ENDMDL
MODEL 3
REMARK VINA RESULT:     -13.5      4.594      9.003
REMARK SMILES O=C(NCCCCNC(=O)c1nnn(-c2cccc(C(F)(F)F)c2)c1[C@@H]1COc2ccccc2O1)c1ccc(-c2c3nc(c(-c4cc(S(=O)(=O)[O-])ccc4F)c4ccc([nH]4)c(-c4cc(S(=O)(=O)[O-])ccc4F)c4nc(c(-c5cc(S(=O)(=O)[O-])ccc5F)c5ccc2[nH]5)C=C4)C=C3)cc1
REMARK SMILES IDX 5 1 4 2 3 3 1 4 2 5 36 7 37 8 98 9 38 10 97 11 39 12 40 13
REMARK SMILES IDX 41 14 91 15 42 16 96 17 90 18 92 19 43 20 95 21 89 22 88 23
REMARK SMILES IDX 44 25 76 26 56 27 75 28 57 29 60 30 74 31 93 32 58 33 59 34
REMARK SMILES IDX 73 36 94 37 61 38 45 39 46 40 54 41 47 42 53 43 55 44 52 45
REMARK SMILES IDX 48 46 49 47 50 48 51 49 77 50 78 51 86 52 79 53 85 54 87 55
REMARK SMILES IDX 84 56 80 57 81 58 82 59 83 60 62 61 63 62 71 63 64 64 70 65
REMARK SMILES IDX 72 66 69 67 65 68 66 69 67 70 68 71 6 72 7 73 8 74 9 75
REMARK SMILES IDX 10 77 11 78 12 79 25 80 13 81 14 82 26 83 27 84 35 85 28 86
REMARK SMILES IDX 34 87 29 88 33 89 30 90 32 91 31 92 15 93 16 94 24 95 17 96
REMARK SMILES IDX 19 97 18 98 20 99 21 100 22 101 23 102
REMARK H PARENT 3 6 92 24 60 35 8 76
REMARK Flexibility Score: inf
ROOT
ATOM      1  C   UNL A   1      37.579  21.741  24.866  1.00  0.00     0.023 C 
ENDROOT
BRANCH   1   2
ATOM      2  C   UNL A   1      38.222  22.752  25.820  1.00  0.00     0.116 C 
BRANCH   2   3
ATOM      3  N   UNL A   1      39.511  22.381  26.373  1.00  0.00    -0.352 N 
ATOM      4  O   UNL A   1      41.164  22.172  27.828  1.00  0.00    -0.269 OA
ATOM      5  C   UNL A   1      40.315  22.926  27.344  1.00  0.00     0.251 C 
ATOM      6  H   UNL A   1      39.888  21.566  25.970  1.00  0.00     0.163 HD
BRANCH   5   7
ATOM      7  C   UNL A   1      40.294  24.354  27.761  1.00  0.00     0.039 A 
ATOM      8  C   UNL A   1      39.224  25.231  27.588  1.00  0.00     0.014 A 
ATOM      9  C   UNL A   1      41.484  24.849  28.331  1.00  0.00     0.014 A 
ATOM     10  C   UNL A   1      39.375  26.588  27.864  1.00  0.00     0.010 A 
ATOM     11  C   UNL A   1      41.635  26.202  28.625  1.00  0.00     0.010 A 
ATOM     12  C   UNL A   1      40.587  27.077  28.359  1.00  0.00    -0.014 A 
BRANCH  12  13
ATOM     13  C   UNL A   1      40.614  28.452  28.864  1.00  0.00     0.031 A 
ATOM     14  C   UNL A   1      41.775  29.219  28.333  1.00  0.00     0.074 A 
ATOM     15  C   UNL A   1      39.640  29.032  29.596  1.00  0.00     0.049 A 
ATOM     16  N   UNL A   1      42.790  29.675  28.989  1.00  0.00    -0.248 NA
ATOM     17  C   UNL A   1      41.928  29.312  26.869  1.00  0.00     0.031 C 
ATOM     18  C   UNL A   1      38.350  28.453  29.970  1.00  0.00     0.029 A 
ATOM     19  N   UNL A   1      39.549  30.309  30.082  1.00  0.00    -0.354 N 
ATOM     20  C   UNL A   1      43.561  30.357  28.051  1.00  0.00     0.074 A 
ATOM     21  C   UNL A   1      43.124  29.890  26.767  1.00  0.00     0.031 C 
ATOM     22  C   UNL A   1      37.529  29.434  30.412  1.00  0.00     0.029 A 
ATOM     23  C   UNL A   1      38.258  30.694  30.454  1.00  0.00     0.049 A 
ATOM     24  H   UNL A   1      40.328  30.906  30.163  1.00  0.00     0.167 HD
ATOM     25  C   UNL A   1      44.259  31.473  28.404  1.00  0.00     0.034 A 
ATOM     26  C   UNL A   1      37.798  31.954  30.712  1.00  0.00     0.034 A 
ATOM     27  C   UNL A   1      44.482  31.508  29.836  1.00  0.00     0.049 A 
ATOM     28  C   UNL A   1      38.979  32.787  31.045  1.00  0.00     0.074 A 
ATOM     29  C   UNL A   1      45.037  30.631  30.752  1.00  0.00     0.029 A 
ATOM     30  N   UNL A   1      43.766  32.411  30.592  1.00  0.00    -0.354 N 
ATOM     31  N   UNL A   1      39.693  32.618  32.122  1.00  0.00    -0.248 NA
ATOM     32  C   UNL A   1      39.655  33.479  29.957  1.00  0.00     0.031 C 
ATOM     33  C   UNL A   1      44.217  30.741  31.914  1.00  0.00     0.029 A 
ATOM     34  C   UNL A   1      43.273  31.742  31.683  1.00  0.00     0.049 A 
ATOM     35  H   UNL A   1      43.633  33.364  30.386  1.00  0.00     0.167 HD
ATOM     36  C   UNL A   1      41.007  32.748  31.700  1.00  0.00     0.074 A 
ATOM     37  C   UNL A   1      40.918  33.374  30.381  1.00  0.00     0.031 C 
ATOM     38  C   UNL A   1      42.018  32.077  32.327  1.00  0.00     0.034 A 
BRANCH  25  39
ATOM     39  C   UNL A   1      44.316  32.729  27.545  1.00  0.00     0.023 A 
ATOM     40  C   UNL A   1      43.732  33.885  28.093  1.00  0.00     0.031 A 
ATOM     41  C   UNL A   1      44.578  32.783  26.156  1.00  0.00     0.131 A 
ATOM     42  C   UNL A   1      43.264  34.918  27.265  1.00  0.00     0.055 A 
ATOM     43  C   UNL A   1      44.178  33.850  25.346  1.00  0.00     0.041 A 
ATOM     44  F   UNL A   1      45.163  31.792  25.477  1.00  0.00    -0.206 F 
ATOM     45  C   UNL A   1      43.471  34.905  25.891  1.00  0.00     0.022 A 
BRANCH  42  46
ATOM     46  S   UNL A   1      42.177  36.162  28.005  1.00  0.00     0.124 S 
ATOM     47  O   UNL A   1      40.865  35.609  27.685  1.00  0.00    -0.237 OA
ATOM     48  O   UNL A   1      42.576  36.108  29.407  1.00  0.00    -0.237 OA
ATOM     49  O   UNL A   1      42.537  37.388  27.298  1.00  0.00    -0.744 OA
ENDBRANCH  42  46
ENDBRANCH  25  39
BRANCH  26  50
ATOM     50  C   UNL A   1      36.457  32.539  30.390  1.00  0.00     0.023 A 
ATOM     51  C   UNL A   1      35.747  33.402  31.263  1.00  0.00     0.031 A 
ATOM     52  C   UNL A   1      35.959  32.444  29.071  1.00  0.00     0.131 A 
ATOM     53  C   UNL A   1      34.605  34.111  30.803  1.00  0.00     0.055 A 
ATOM     54  C   UNL A   1      34.834  33.143  28.625  1.00  0.00     0.041 A 
ATOM     55  F   UNL A   1      36.604  31.735  28.131  1.00  0.00    -0.206 F 
ATOM     56  C   UNL A   1      34.158  33.988  29.486  1.00  0.00     0.022 A 
BRANCH  53  57
ATOM     57  S   UNL A   1      33.716  35.289  31.883  1.00  0.00     0.124 S 
ATOM     58  O   UNL A   1      33.094  36.187  30.925  1.00  0.00    -0.237 OA
ATOM     59  O   UNL A   1      32.819  34.411  32.635  1.00  0.00    -0.237 OA
ATOM     60  O   UNL A   1      34.784  35.890  32.686  1.00  0.00    -0.744 OA
ENDBRANCH  53  57
ENDBRANCH  26  50
BRANCH  38  61
ATOM     61  C   UNL A   1      41.758  31.479  33.694  1.00  0.00     0.023 A 
ATOM     62  C   UNL A   1      41.860  32.169  34.924  1.00  0.00     0.031 A 
ATOM     63  C   UNL A   1      41.296  30.150  33.731  1.00  0.00     0.131 A 
ATOM     64  C   UNL A   1      41.526  31.517  36.127  1.00  0.00     0.055 A 
ATOM     65  C   UNL A   1      40.944  29.516  34.920  1.00  0.00     0.041 A 
ATOM     66  F   UNL A   1      41.150  29.447  32.595  1.00  0.00    -0.206 F 
ATOM     67  C   UNL A   1      41.066  30.195  36.125  1.00  0.00     0.022 A 
BRANCH  64  68
ATOM     68  S   UNL A   1      41.708  32.363  37.730  1.00  0.00     0.124 S 
ATOM     69  O   UNL A   1      42.455  33.571  37.400  1.00  0.00    -0.237 OA
ATOM     70  O   UNL A   1      40.320  32.563  38.139  1.00  0.00    -0.237 OA
ATOM     71  O   UNL A   1      42.445  31.394  38.544  1.00  0.00    -0.744 OA
ENDBRANCH  64  68
ENDBRANCH  38  61
ENDBRANCH  12  13
ENDBRANCH   5   7
ENDBRANCH   2   3
ENDBRANCH   1   2
BRANCH   1  72
ATOM     72  C   UNL A   1      36.065  21.810  24.732  1.00  0.00     0.023 C 
BRANCH  72  73
ATOM     73  C   UNL A   1      35.239  21.467  25.963  1.00  0.00     0.116 C 
BRANCH  73  74
ATOM     74  N   UNL A   1      33.929  20.903  25.765  1.00  0.00    -0.351 N 
ATOM     75  C   UNL A   1      32.774  21.335  25.135  1.00  0.00     0.273 C 
ATOM     76  H   UNL A   1      33.833  20.009  26.168  1.00  0.00     0.163 HD
ATOM     77  O   UNL A   1      31.863  20.500  25.170  1.00  0.00    -0.267 OA
BRANCH  75  78
ATOM     78  C   UNL A   1      32.532  22.638  24.459  1.00  0.00     0.178 A 
ATOM     79  N   UNL A   1      31.841  22.589  23.252  1.00  0.00    -0.124 NA
ATOM     80  C   UNL A   1      32.776  23.991  24.726  1.00  0.00     0.122 A 
ATOM     81  N   UNL A   1      31.635  23.814  22.801  1.00  0.00    -0.061 NA
ATOM     82  N   UNL A   1      32.278  24.661  23.616  1.00  0.00    -0.213 N 
BRANCH  80  83
ATOM     83  C   UNL A   1      33.183  24.694  25.978  1.00  0.00     0.262 C 
ATOM     84  C   UNL A   1      31.951  24.806  26.907  1.00  0.00     0.281 C 
ATOM     85  O   UNL A   1      33.886  25.922  25.763  1.00  0.00    -0.477 OA
ATOM     86  O   UNL A   1      31.158  25.948  26.586  1.00  0.00    -0.485 OA
ATOM     87  C   UNL A   1      33.325  26.991  26.411  1.00  0.00     0.162 A 
ATOM     88  C   UNL A   1      31.966  27.041  26.733  1.00  0.00     0.161 A 
ATOM     89  C   UNL A   1      34.138  28.084  26.678  1.00  0.00     0.050 A 
ATOM     90  C   UNL A   1      31.386  28.208  27.208  1.00  0.00     0.050 A 
ATOM     91  C   UNL A   1      33.573  29.241  27.218  1.00  0.00     0.004 A 
ATOM     92  C   UNL A   1      32.195  29.313  27.451  1.00  0.00     0.004 A 
ENDBRANCH  80  83
BRANCH  82  93
ATOM     93  C   UNL A   1      32.421  26.017  23.265  1.00  0.00     0.067 A 
ATOM     94  C   UNL A   1      33.609  26.458  22.678  1.00  0.00     0.028 A 
ATOM     95  C   UNL A   1      31.301  26.853  23.348  1.00  0.00     0.041 A 
ATOM     96  C   UNL A   1      33.633  27.713  22.067  1.00  0.00     0.003 A 
ATOM     97  C   UNL A   1      31.333  28.126  22.763  1.00  0.00     0.058 A 
ATOM     98  C   UNL A   1      32.499  28.533  22.093  1.00  0.00     0.013 A 
BRANCH  97  99
ATOM     99  C   UNL A   1      30.113  29.009  22.782  1.00  0.00     0.416 C 
ATOM    100  F   UNL A   1      28.957  28.310  22.603  1.00  0.00    -0.166 F 
ATOM    101  F   UNL A   1      29.965  29.680  23.958  1.00  0.00    -0.166 F 
ATOM    102  F   UNL A   1      30.119  29.964  21.809  1.00  0.00    -0.166 F 
ENDBRANCH  97  99
ENDBRANCH  82  93
ENDBRANCH  75  78
ENDBRANCH  73  74
ENDBRANCH  72  73
ENDBRANCH   1  72
TORSDOF 17
ENDMDL
