MODEL 1
REMARK VINA RESULT:     -11.1      0.000      0.000
REMARK SMILES CCOc1cc(OCC)cc(-c2ccc([C@@H](C)C(=O)NCCCCNC(=O)c3ccc(-c4c5nc(c(-c6cc(S(=O)(=O)[O-])ccc6F)c6ccc([nH]6)c(-c6cc(S(=O)(=O)[O-])ccc6F)c6nc(c(-c7cc(S(=O)(=O)[O-])ccc7F)c7ccc4[nH]7)C=C6)C=C5)cc3)cc2)c1
REMARK SMILES IDX 22 1 21 2 20 3 18 4 19 5 16 7 17 8 15 9 12 10 13 11 92 12
REMARK SMILES IDX 14 13 91 14 11 15 4 16 5 17 93 18 6 19 10 20 3 21 2 22 1 23
REMARK SMILES IDX 7 24 8 25 9 26 23 27 24 28 25 29 26 30 27 32 28 33 29 34
REMARK SMILES IDX 90 35 30 36 89 37 31 38 32 39 33 40 83 41 34 42 88 43 82 44
REMARK SMILES IDX 84 45 35 46 87 47 81 48 80 49 36 51 68 52 48 53 67 54 49 55
REMARK SMILES IDX 52 56 66 57 85 58 50 59 51 60 65 62 86 63 53 64 37 65 38 66
REMARK SMILES IDX 46 67 39 68 45 69 47 70 44 71 40 72 41 73 42 74 43 75 69 76
REMARK SMILES IDX 70 77 78 78 71 79 77 80 79 81 76 82 72 83 73 84 74 85 75 86
REMARK SMILES IDX 54 87 55 88 63 89 56 90 62 91 64 92 61 93 57 94 58 95 59 96
REMARK SMILES IDX 60 97
REMARK H PARENT 20 6 25 31 84 50 52 61
REMARK Flexibility Score: inf
ROOT
ATOM      1  C   UNL A   1      32.545  29.470  24.852  1.00  0.00     0.023 C 
ENDROOT
BRANCH   1   2
ATOM      2  C   UNL A   1      31.032  29.664  24.743  1.00  0.00     0.116 C 
BRANCH   2   3
ATOM      3  N   UNL A   1      30.618  30.056  23.411  1.00  0.00    -0.356 N 
ATOM      4  C   UNL A   1      29.820  29.445  22.493  1.00  0.00     0.227 C 
ATOM      5  O   UNL A   1      29.691  30.017  21.403  1.00  0.00    -0.274 OA
ATOM      6  H   UNL A   1      30.981  30.923  23.116  1.00  0.00     0.163 HD
BRANCH   4   7
ATOM      7  C   UNL A   1      29.084  28.119  22.743  1.00  0.00     0.105 C 
ATOM      8  C   UNL A   1      27.744  28.268  23.462  1.00  0.00     0.023 C 
BRANCH   7   9
ATOM      9  C   UNL A   1      29.996  27.018  23.256  1.00  0.00    -0.036 A 
ATOM     10  C   UNL A   1      31.874  25.114  24.266  1.00  0.00    -0.018 A 
ATOM     11  C   UNL A   1      30.690  25.428  24.954  1.00  0.00     0.009 A 
ATOM     12  C   UNL A   1      32.074  25.753  23.034  1.00  0.00     0.009 A 
ATOM     13  C   UNL A   1      29.751  26.327  24.442  1.00  0.00     0.005 A 
ATOM     14  C   UNL A   1      31.166  26.704  22.549  1.00  0.00     0.005 A 
BRANCH  10  15
ATOM     15  C   UNL A   1      32.864  24.174  24.846  1.00  0.00    -0.011 A 
ATOM     16  C   UNL A   1      33.510  21.948  25.602  1.00  0.00     0.123 A 
ATOM     17  C   UNL A   1      34.815  22.381  25.830  1.00  0.00     0.092 A 
ATOM     18  C   UNL A   1      32.545  22.836  25.127  1.00  0.00     0.055 A 
ATOM     19  C   UNL A   1      35.162  23.707  25.580  1.00  0.00     0.123 A 
ATOM     20  C   UNL A   1      34.185  24.587  25.111  1.00  0.00     0.055 A 
BRANCH  16  21
ATOM     21  O   UNL A   1      33.176  20.673  25.971  1.00  0.00    -0.494 OA
BRANCH  21  22
ATOM     22  C   UNL A   1      32.644  19.887  24.897  1.00  0.00     0.226 C 
ATOM     23  C   UNL A   1      33.548  18.710  24.565  1.00  0.00     0.049 C 
ENDBRANCH  21  22
ENDBRANCH  16  21
BRANCH  19  24
ATOM     24  O   UNL A   1      36.474  24.028  25.807  1.00  0.00    -0.494 OA
BRANCH  24  25
ATOM     25  C   UNL A   1      37.484  23.247  25.163  1.00  0.00     0.226 C 
ATOM     26  C   UNL A   1      38.556  22.785  26.139  1.00  0.00     0.049 C 
ENDBRANCH  24  25
ENDBRANCH  19  24
ENDBRANCH  10  15
ENDBRANCH   7   9
ENDBRANCH   4   7
ENDBRANCH   2   3
ENDBRANCH   1   2
BRANCH   1  27
ATOM     27  C   UNL A   1      32.994  28.434  25.882  1.00  0.00     0.023 C 
BRANCH  27  28
ATOM     28  C   UNL A   1      33.127  28.950  27.312  1.00  0.00     0.116 C 
BRANCH  28  29
ATOM     29  N   UNL A   1      33.335  30.387  27.410  1.00  0.00    -0.352 N 
ATOM     30  C   UNL A   1      34.469  31.049  27.833  1.00  0.00     0.251 C 
ATOM     31  H   UNL A   1      32.576  30.954  27.143  1.00  0.00     0.163 HD
ATOM     32  O   UNL A   1      34.473  32.269  27.936  1.00  0.00    -0.269 OA
BRANCH  30  33
ATOM     33  C   UNL A   1      35.656  30.251  28.214  1.00  0.00     0.039 A 
ATOM     34  C   UNL A   1      36.738  30.185  27.333  1.00  0.00     0.014 A 
ATOM     35  C   UNL A   1      35.728  29.652  29.473  1.00  0.00     0.014 A 
ATOM     36  C   UNL A   1      37.933  29.595  27.755  1.00  0.00     0.010 A 
ATOM     37  C   UNL A   1      36.938  29.130  29.915  1.00  0.00     0.010 A 
ATOM     38  C   UNL A   1      38.057  29.109  29.067  1.00  0.00    -0.014 A 
BRANCH  38  39
ATOM     39  C   UNL A   1      39.345  28.580  29.587  1.00  0.00     0.031 A 
ATOM     40  C   UNL A   1      40.064  29.315  30.684  1.00  0.00     0.074 A 
ATOM     41  C   UNL A   1      39.913  27.506  29.004  1.00  0.00     0.049 A 
ATOM     42  N   UNL A   1      41.260  29.114  31.172  1.00  0.00    -0.248 NA
ATOM     43  C   UNL A   1      39.353  30.455  31.281  1.00  0.00     0.031 C 
ATOM     44  C   UNL A   1      39.335  26.736  27.899  1.00  0.00     0.029 A 
ATOM     45  N   UNL A   1      41.114  26.885  29.244  1.00  0.00    -0.354 N 
ATOM     46  C   UNL A   1      41.457  30.118  32.114  1.00  0.00     0.074 A 
ATOM     47  C   UNL A   1      40.277  30.957  32.084  1.00  0.00     0.031 C 
ATOM     48  C   UNL A   1      40.174  25.741  27.570  1.00  0.00     0.029 A 
ATOM     49  C   UNL A   1      41.368  25.826  28.405  1.00  0.00     0.049 A 
ATOM     50  H   UNL A   1      41.735  27.173  29.952  1.00  0.00     0.167 HD
ATOM     51  C   UNL A   1      42.516  30.311  32.941  1.00  0.00     0.034 A 
ATOM     52  C   UNL A   1      42.448  25.024  28.307  1.00  0.00     0.034 A 
ATOM     53  C   UNL A   1      43.672  29.450  32.974  1.00  0.00     0.049 A 
ATOM     54  C   UNL A   1      43.608  25.250  29.242  1.00  0.00     0.074 A 
ATOM     55  C   UNL A   1      44.775  29.516  33.808  1.00  0.00     0.029 A 
ATOM     56  N   UNL A   1      43.875  28.361  32.135  1.00  0.00    -0.354 N 
ATOM     57  N   UNL A   1      43.764  26.182  30.154  1.00  0.00    -0.248 NA
ATOM     58  C   UNL A   1      44.733  24.311  29.140  1.00  0.00     0.031 C 
ATOM     59  C   UNL A   1      45.667  28.502  33.440  1.00  0.00     0.029 A 
ATOM     60  C   UNL A   1      45.093  27.762  32.419  1.00  0.00     0.049 A 
ATOM     61  H   UNL A   1      43.248  28.059  31.439  1.00  0.00     0.167 HD
ATOM     62  C   UNL A   1      44.991  25.919  30.758  1.00  0.00     0.074 A 
ATOM     63  C   UNL A   1      45.529  24.739  30.110  1.00  0.00     0.031 C 
ATOM     64  C   UNL A   1      45.613  26.586  31.762  1.00  0.00     0.034 A 
BRANCH  51  65
ATOM     65  C   UNL A   1      42.470  31.514  33.852  1.00  0.00     0.023 A 
ATOM     66  C   UNL A   1      41.806  31.472  35.092  1.00  0.00     0.031 A 
ATOM     67  C   UNL A   1      43.055  32.729  33.460  1.00  0.00     0.131 A 
ATOM     68  C   UNL A   1      41.668  32.643  35.851  1.00  0.00     0.055 A 
ATOM     69  C   UNL A   1      42.989  33.871  34.262  1.00  0.00     0.041 A 
ATOM     70  F   UNL A   1      43.685  32.835  32.279  1.00  0.00    -0.206 F 
ATOM     71  C   UNL A   1      42.275  33.837  35.457  1.00  0.00     0.022 A 
BRANCH  68  72
ATOM     72  S   UNL A   1      40.551  32.619  37.279  1.00  0.00     0.124 S 
ATOM     73  O   UNL A   1      40.045  33.989  37.279  1.00  0.00    -0.237 OA
ATOM     74  O   UNL A   1      39.592  31.584  36.913  1.00  0.00    -0.237 OA
ATOM     75  O   UNL A   1      41.431  32.288  38.398  1.00  0.00    -0.744 OA
ENDBRANCH  68  72
ENDBRANCH  51  65
BRANCH  52  76
ATOM     76  C   UNL A   1      42.492  23.938  27.289  1.00  0.00     0.023 A 
ATOM     77  C   UNL A   1      41.912  22.685  27.546  1.00  0.00     0.031 A 
ATOM     78  C   UNL A   1      43.147  24.124  26.059  1.00  0.00     0.131 A 
ATOM     79  C   UNL A   1      42.036  21.652  26.604  1.00  0.00     0.055 A 
ATOM     80  C   UNL A   1      43.227  23.105  25.106  1.00  0.00     0.041 A 
ATOM     81  F   UNL A   1      43.709  25.305  25.761  1.00  0.00    -0.206 F 
ATOM     82  C   UNL A   1      42.680  21.857  25.382  1.00  0.00     0.022 A 
BRANCH  79  83
ATOM     83  S   UNL A   1      41.404  20.007  27.034  1.00  0.00     0.124 S 
ATOM     84  O   UNL A   1      40.436  19.771  25.969  1.00  0.00    -0.237 OA
ATOM     85  O   UNL A   1      42.617  19.197  26.990  1.00  0.00    -0.237 OA
ATOM     86  O   UNL A   1      40.834  20.198  28.367  1.00  0.00    -0.744 OA
ENDBRANCH  79  83
ENDBRANCH  52  76
BRANCH  64  87
ATOM     87  C   UNL A   1      46.917  26.016  32.256  1.00  0.00     0.023 A 
ATOM     88  C   UNL A   1      48.139  26.295  31.619  1.00  0.00     0.031 A 
ATOM     89  C   UNL A   1      46.933  25.177  33.384  1.00  0.00     0.131 A 
ATOM     90  C   UNL A   1      49.320  25.702  32.088  1.00  0.00     0.055 A 
ATOM     91  C   UNL A   1      48.118  24.630  33.877  1.00  0.00     0.041 A 
ATOM     92  F   UNL A   1      45.793  24.878  34.029  1.00  0.00    -0.206 F 
ATOM     93  C   UNL A   1      49.319  24.884  33.221  1.00  0.00     0.022 A 
BRANCH  90  94
ATOM     94  S   UNL A   1      50.854  25.959  31.155  1.00  0.00     0.124 S 
ATOM     95  O   UNL A   1      51.811  25.167  31.921  1.00  0.00    -0.237 OA
ATOM     96  O   UNL A   1      50.508  25.439  29.836  1.00  0.00    -0.237 OA
ATOM     97  O   UNL A   1      51.057  27.405  31.217  1.00  0.00    -0.744 OA
ENDBRANCH  90  94
ENDBRANCH  64  87
ENDBRANCH  38  39
ENDBRANCH  30  33
ENDBRANCH  28  29
ENDBRANCH  27  28
ENDBRANCH   1  27
TORSDOF 20
ENDMDL
MODEL 2
REMARK VINA RESULT:     -10.8      2.207      2.646
REMARK SMILES CCOc1cc(OCC)cc(-c2ccc([C@@H](C)C(=O)NCCCCNC(=O)c3ccc(-c4c5nc(c(-c6cc(S(=O)(=O)[O-])ccc6F)c6ccc([nH]6)c(-c6cc(S(=O)(=O)[O-])ccc6F)c6nc(c(-c7cc(S(=O)(=O)[O-])ccc7F)c7ccc4[nH]7)C=C6)C=C5)cc3)cc2)c1
REMARK SMILES IDX 22 1 21 2 20 3 18 4 19 5 16 7 17 8 15 9 12 10 13 11 92 12
REMARK SMILES IDX 14 13 91 14 11 15 4 16 5 17 93 18 6 19 10 20 3 21 2 22 1 23
REMARK SMILES IDX 7 24 8 25 9 26 23 27 24 28 25 29 26 30 27 32 28 33 29 34
REMARK SMILES IDX 90 35 30 36 89 37 31 38 32 39 33 40 83 41 34 42 88 43 82 44
REMARK SMILES IDX 84 45 35 46 87 47 81 48 80 49 36 51 68 52 48 53 67 54 49 55
REMARK SMILES IDX 52 56 66 57 85 58 50 59 51 60 65 62 86 63 53 64 37 65 38 66
REMARK SMILES IDX 46 67 39 68 45 69 47 70 44 71 40 72 41 73 42 74 43 75 69 76
REMARK SMILES IDX 70 77 78 78 71 79 77 80 79 81 76 82 72 83 73 84 74 85 75 86
REMARK SMILES IDX 54 87 55 88 63 89 56 90 62 91 64 92 61 93 57 94 58 95 59 96
REMARK SMILES IDX 60 97
REMARK H PARENT 20 6 25 31 84 50 52 61
REMARK Flexibility Score: inf
ROOT
ATOM      1  C   UNL A   1      31.680  29.808  24.744  1.00  0.00     0.023 C 
ENDROOT
BRANCH   1   2
ATOM      2  C   UNL A   1      30.297  30.440  24.584  1.00  0.00     0.116 C 
BRANCH   2   3
ATOM      3  N   UNL A   1      29.959  30.690  23.197  1.00  0.00    -0.356 N 
ATOM      4  C   UNL A   1      29.309  29.934  22.271  1.00  0.00     0.227 C 
ATOM      5  O   UNL A   1      29.215  30.410  21.133  1.00  0.00    -0.274 OA
ATOM      6  H   UNL A   1      30.256  31.568  22.863  1.00  0.00     0.163 HD
BRANCH   4   7
ATOM      7  C   UNL A   1      28.695  28.556  22.567  1.00  0.00     0.105 C 
ATOM      8  C   UNL A   1      27.481  28.594  23.495  1.00  0.00     0.023 C 
BRANCH   7   9
ATOM      9  C   UNL A   1      29.735  27.493  22.876  1.00  0.00    -0.036 A 
ATOM     10  C   UNL A   1      31.536  25.331  23.382  1.00  0.00    -0.018 A 
ATOM     11  C   UNL A   1      31.762  26.263  22.355  1.00  0.00     0.009 A 
ATOM     12  C   UNL A   1      30.399  25.535  24.178  1.00  0.00     0.009 A 
ATOM     13  C   UNL A   1      30.904  27.344  22.133  1.00  0.00     0.005 A 
ATOM     14  C   UNL A   1      29.503  26.581  23.916  1.00  0.00     0.005 A 
BRANCH  10  15
ATOM     15  C   UNL A   1      32.450  24.179  23.578  1.00  0.00    -0.011 A 
ATOM     16  C   UNL A   1      32.843  21.800  23.935  1.00  0.00     0.123 A 
ATOM     17  C   UNL A   1      34.219  21.989  23.819  1.00  0.00     0.092 A 
ATOM     18  C   UNL A   1      31.971  22.883  23.827  1.00  0.00     0.055 A 
ATOM     19  C   UNL A   1      34.730  23.265  23.592  1.00  0.00     0.123 A 
ATOM     20  C   UNL A   1      33.847  24.341  23.492  1.00  0.00     0.055 A 
BRANCH  16  21
ATOM     21  O   UNL A   1      32.386  20.557  24.279  1.00  0.00    -0.494 OA
BRANCH  21  22
ATOM     22  C   UNL A   1      33.403  19.702  24.818  1.00  0.00     0.226 C 
ATOM     23  C   UNL A   1      32.805  18.571  25.640  1.00  0.00     0.049 C 
ENDBRANCH  21  22
ENDBRANCH  16  21
BRANCH  19  24
ATOM     24  O   UNL A   1      36.092  23.343  23.464  1.00  0.00    -0.494 OA
BRANCH  24  25
ATOM     25  C   UNL A   1      36.900  22.957  24.578  1.00  0.00     0.226 C 
ATOM     26  C   UNL A   1      36.571  23.762  25.826  1.00  0.00     0.049 C 
ENDBRANCH  24  25
ENDBRANCH  19  24
ENDBRANCH  10  15
ENDBRANCH   7   9
ENDBRANCH   4   7
ENDBRANCH   2   3
ENDBRANCH   1   2
BRANCH   1  27
ATOM     27  C   UNL A   1      31.836  28.882  25.950  1.00  0.00     0.023 C 
BRANCH  27  28
ATOM     28  C   UNL A   1      32.579  29.479  27.141  1.00  0.00     0.116 C 
BRANCH  28  29
ATOM     29  N   UNL A   1      32.560  30.934  27.187  1.00  0.00    -0.352 N 
ATOM     30  C   UNL A   1      33.581  31.780  27.566  1.00  0.00     0.251 C 
ATOM     31  H   UNL A   1      31.717  31.364  26.916  1.00  0.00     0.163 HD
ATOM     32  O   UNL A   1      33.394  32.989  27.628  1.00  0.00    -0.269 OA
BRANCH  30  33
ATOM     33  C   UNL A   1      34.884  31.193  27.949  1.00  0.00     0.039 A 
ATOM     34  C   UNL A   1      35.987  32.035  28.106  1.00  0.00     0.014 A 
ATOM     35  C   UNL A   1      34.984  29.831  28.240  1.00  0.00     0.014 A 
ATOM     36  C   UNL A   1      37.170  31.525  28.646  1.00  0.00     0.010 A 
ATOM     37  C   UNL A   1      36.137  29.342  28.844  1.00  0.00     0.010 A 
ATOM     38  C   UNL A   1      37.236  30.186  29.066  1.00  0.00    -0.014 A 
BRANCH  38  39
ATOM     39  C   UNL A   1      38.438  29.639  29.751  1.00  0.00     0.031 A 
ATOM     40  C   UNL A   1      38.834  30.171  31.099  1.00  0.00     0.074 A 
ATOM     41  C   UNL A   1      39.222  28.746  29.115  1.00  0.00     0.049 A 
ATOM     42  N   UNL A   1      39.918  29.945  31.794  1.00  0.00    -0.248 NA
ATOM     43  C   UNL A   1      37.900  31.117  31.728  1.00  0.00     0.031 C 
ATOM     44  C   UNL A   1      38.968  28.190  27.783  1.00  0.00     0.029 A 
ATOM     45  N   UNL A   1      40.406  28.162  29.494  1.00  0.00    -0.354 N 
ATOM     46  C   UNL A   1      39.811  30.741  32.930  1.00  0.00     0.074 A 
ATOM     47  C   UNL A   1      38.582  31.494  32.798  1.00  0.00     0.031 C 
ATOM     48  C   UNL A   1      39.956  27.338  27.466  1.00  0.00     0.029 A 
ATOM     49  C   UNL A   1      40.937  27.319  28.547  1.00  0.00     0.049 A 
ATOM     50  H   UNL A   1      40.834  28.333  30.364  1.00  0.00     0.167 HD
ATOM     51  C   UNL A   1      40.650  30.820  33.993  1.00  0.00     0.034 A 
ATOM     52  C   UNL A   1      42.091  26.622  28.542  1.00  0.00     0.034 A 
ATOM     53  C   UNL A   1      41.858  30.042  34.119  1.00  0.00     0.049 A 
ATOM     54  C   UNL A   1      43.003  26.717  29.737  1.00  0.00     0.074 A 
ATOM     55  C   UNL A   1      42.752  30.000  35.175  1.00  0.00     0.029 A 
ATOM     56  N   UNL A   1      42.343  29.167  33.155  1.00  0.00    -0.354 N 
ATOM     57  N   UNL A   1      42.870  27.446  30.822  1.00  0.00    -0.248 NA
ATOM     58  C   UNL A   1      44.217  25.889  29.712  1.00  0.00     0.031 C 
ATOM     59  C   UNL A   1      43.801  29.140  34.829  1.00  0.00     0.029 A 
ATOM     60  C   UNL A   1      43.531  28.596  33.584  1.00  0.00     0.049 A 
ATOM     61  H   UNL A   1      41.907  28.980  32.293  1.00  0.00     0.167 HD
ATOM     62  C   UNL A   1      43.966  27.137  31.622  1.00  0.00     0.074 A 
ATOM     63  C   UNL A   1      44.746  26.153  30.898  1.00  0.00     0.031 C 
ATOM     64  C   UNL A   1      44.295  27.616  32.848  1.00  0.00     0.034 A 
BRANCH  51  65
ATOM     65  C   UNL A   1      40.292  31.802  35.083  1.00  0.00     0.023 A 
ATOM     66  C   UNL A   1      39.442  31.443  36.145  1.00  0.00     0.031 A 
ATOM     67  C   UNL A   1      40.768  33.122  35.039  1.00  0.00     0.131 A 
ATOM     68  C   UNL A   1      39.023  32.416  37.065  1.00  0.00     0.055 A 
ATOM     69  C   UNL A   1      40.416  34.065  36.008  1.00  0.00     0.041 A 
ATOM     70  F   UNL A   1      41.567  33.528  34.039  1.00  0.00    -0.206 F 
ATOM     71  C   UNL A   1      39.524  33.718  37.019  1.00  0.00     0.022 A 
BRANCH  68  72
ATOM     72  S   UNL A   1      37.696  31.991  38.225  1.00  0.00     0.124 S 
ATOM     73  O   UNL A   1      37.360  30.633  37.802  1.00  0.00    -0.237 OA
ATOM     74  O   UNL A   1      38.355  32.112  39.519  1.00  0.00    -0.237 OA
ATOM     75  O   UNL A   1      36.667  32.992  37.951  1.00  0.00    -0.744 OA
ENDBRANCH  68  72
ENDBRANCH  51  65
BRANCH  52  76
ATOM     76  C   UNL A   1      42.457  25.777  27.371  1.00  0.00     0.023 A 
ATOM     77  C   UNL A   1      42.104  24.418  27.324  1.00  0.00     0.031 A 
ATOM     78  C   UNL A   1      43.198  26.304  26.299  1.00  0.00     0.131 A 
ATOM     79  C   UNL A   1      42.528  23.622  26.249  1.00  0.00     0.055 A 
ATOM     80  C   UNL A   1      43.579  25.518  25.210  1.00  0.00     0.041 A 
ATOM     81  F   UNL A   1      43.552  27.598  26.292  1.00  0.00    -0.206 F 
ATOM     82  C   UNL A   1      43.255  24.166  25.187  1.00  0.00     0.022 A 
BRANCH  79  83
ATOM     83  S   UNL A   1      42.180  21.843  26.297  1.00  0.00     0.124 S 
ATOM     84  O   UNL A   1      43.078  21.335  25.266  1.00  0.00    -0.237 OA
ATOM     85  O   UNL A   1      42.527  21.505  27.673  1.00  0.00    -0.237 OA
ATOM     86  O   UNL A   1      40.756  21.766  25.979  1.00  0.00    -0.744 OA
ENDBRANCH  79  83
ENDBRANCH  52  76
BRANCH  64  87
ATOM     87  C   UNL A   1      45.521  27.035  33.503  1.00  0.00     0.023 A 
ATOM     88  C   UNL A   1      45.453  25.906  34.338  1.00  0.00     0.031 A 
ATOM     89  C   UNL A   1      46.778  27.626  33.285  1.00  0.00     0.131 A 
ATOM     90  C   UNL A   1      46.616  25.431  34.962  1.00  0.00     0.055 A 
ATOM     91  C   UNL A   1      47.939  27.118  33.869  1.00  0.00     0.041 A 
ATOM     92  F   UNL A   1      46.897  28.706  32.497  1.00  0.00    -0.206 F 
ATOM     93  C   UNL A   1      47.860  26.021  34.722  1.00  0.00     0.022 A 
BRANCH  90  94
ATOM     94  S   UNL A   1      46.472  24.070  36.153  1.00  0.00     0.124 S 
ATOM     95  O   UNL A   1      47.599  23.221  35.780  1.00  0.00    -0.237 OA
ATOM     96  O   UNL A   1      46.591  24.761  37.433  1.00  0.00    -0.237 OA
ATOM     97  O   UNL A   1      45.152  23.508  35.874  1.00  0.00    -0.744 OA
ENDBRANCH  90  94
ENDBRANCH  64  87
ENDBRANCH  38  39
ENDBRANCH  30  33
ENDBRANCH  28  29
ENDBRANCH  27  28
ENDBRANCH   1  27
TORSDOF 20
ENDMDL
MODEL 3
REMARK VINA RESULT:     -10.8      3.450      4.706
REMARK SMILES CCOc1cc(OCC)cc(-c2ccc([C@@H](C)C(=O)NCCCCNC(=O)c3ccc(-c4c5nc(c(-c6cc(S(=O)(=O)[O-])ccc6F)c6ccc([nH]6)c(-c6cc(S(=O)(=O)[O-])ccc6F)c6nc(c(-c7cc(S(=O)(=O)[O-])ccc7F)c7ccc4[nH]7)C=C6)C=C5)cc3)cc2)c1
REMARK SMILES IDX 22 1 21 2 20 3 18 4 19 5 16 7 17 8 15 9 12 10 13 11 92 12
REMARK SMILES IDX 14 13 91 14 11 15 4 16 5 17 93 18 6 19 10 20 3 21 2 22 1 23
REMARK SMILES IDX 7 24 8 25 9 26 23 27 24 28 25 29 26 30 27 32 28 33 29 34
REMARK SMILES IDX 90 35 30 36 89 37 31 38 32 39 33 40 83 41 34 42 88 43 82 44
REMARK SMILES IDX 84 45 35 46 87 47 81 48 80 49 36 51 68 52 48 53 67 54 49 55
REMARK SMILES IDX 52 56 66 57 85 58 50 59 51 60 65 62 86 63 53 64 37 65 38 66
REMARK SMILES IDX 46 67 39 68 45 69 47 70 44 71 40 72 41 73 42 74 43 75 69 76
REMARK SMILES IDX 70 77 78 78 71 79 77 80 79 81 76 82 72 83 73 84 74 85 75 86
REMARK SMILES IDX 54 87 55 88 63 89 56 90 62 91 64 92 61 93 57 94 58 95 59 96
REMARK SMILES IDX 60 97
REMARK H PARENT 20 6 25 31 84 50 52 61
REMARK Flexibility Score: inf
ROOT
ATOM      1  C   UNL A   1      34.578  31.097  27.690  1.00  0.00     0.023 C 
ENDROOT
BRANCH   1   2
ATOM      2  C   UNL A   1      34.038  29.873  26.949  1.00  0.00     0.116 C 
BRANCH   2   3
ATOM      3  N   UNL A   1      32.935  29.244  27.647  1.00  0.00    -0.356 N 
ATOM      4  C   UNL A   1      32.028  28.308  27.255  1.00  0.00     0.227 C 
ATOM      5  O   UNL A   1      31.157  28.000  28.078  1.00  0.00    -0.274 OA
ATOM      6  H   UNL A   1      32.820  29.551  28.576  1.00  0.00     0.163 HD
BRANCH   4   7
ATOM      7  C   UNL A   1      32.041  27.627  25.876  1.00  0.00     0.105 C 
ATOM      8  C   UNL A   1      30.672  27.549  25.200  1.00  0.00     0.023 C 
BRANCH   7   9
ATOM      9  C   UNL A   1      32.872  26.356  25.846  1.00  0.00    -0.036 A 
ATOM     10  C   UNL A   1      34.279  23.877  25.633  1.00  0.00    -0.018 A 
ATOM     11  C   UNL A   1      34.807  25.078  25.130  1.00  0.00     0.009 A 
ATOM     12  C   UNL A   1      33.039  23.959  26.284  1.00  0.00     0.009 A 
ATOM     13  C   UNL A   1      34.139  26.297  25.270  1.00  0.00     0.005 A 
ATOM     14  C   UNL A   1      32.338  25.170  26.368  1.00  0.00     0.005 A 
BRANCH  10  15
ATOM     15  C   UNL A   1      34.999  22.593  25.449  1.00  0.00    -0.011 A 
ATOM     16  C   UNL A   1      35.033  20.227  24.862  1.00  0.00     0.123 A 
ATOM     17  C   UNL A   1      36.421  20.196  24.980  1.00  0.00     0.092 A 
ATOM     18  C   UNL A   1      34.330  21.408  25.105  1.00  0.00     0.055 A 
ATOM     19  C   UNL A   1      37.115  21.350  25.339  1.00  0.00     0.123 A 
ATOM     20  C   UNL A   1      36.400  22.523  25.585  1.00  0.00     0.055 A 
BRANCH  16  21
ATOM     21  O   UNL A   1      34.376  19.050  24.628  1.00  0.00    -0.494 OA
BRANCH  21  22
ATOM     22  C   UNL A   1      32.993  19.224  24.293  1.00  0.00     0.226 C 
ATOM     23  C   UNL A   1      32.583  18.336  23.128  1.00  0.00     0.049 C 
ENDBRANCH  21  22
ENDBRANCH  16  21
BRANCH  19  24
ATOM     24  O   UNL A   1      38.478  21.226  25.399  1.00  0.00    -0.494 OA
BRANCH  24  25
ATOM     25  C   UNL A   1      39.225  22.258  26.049  1.00  0.00     0.226 C 
ATOM     26  C   UNL A   1      40.170  21.699  27.102  1.00  0.00     0.049 C 
ENDBRANCH  24  25
ENDBRANCH  19  24
ENDBRANCH  10  15
ENDBRANCH   7   9
ENDBRANCH   4   7
ENDBRANCH   2   3
ENDBRANCH   1   2
BRANCH   1  27
ATOM     27  C   UNL A   1      33.604  32.270  27.801  1.00  0.00     0.023 C 
BRANCH  27  28
ATOM     28  C   UNL A   1      34.241  33.621  28.108  1.00  0.00     0.116 C 
BRANCH  28  29
ATOM     29  N   UNL A   1      33.438  34.477  28.969  1.00  0.00    -0.352 N 
ATOM     30  C   UNL A   1      33.597  34.702  30.321  1.00  0.00     0.251 C 
ATOM     31  H   UNL A   1      32.693  34.951  28.535  1.00  0.00     0.163 HD
ATOM     32  O   UNL A   1      32.793  35.393  30.933  1.00  0.00    -0.269 OA
BRANCH  30  33
ATOM     33  C   UNL A   1      34.722  34.044  31.022  1.00  0.00     0.039 A 
ATOM     34  C   UNL A   1      34.484  32.860  31.722  1.00  0.00     0.014 A 
ATOM     35  C   UNL A   1      36.018  34.551  30.904  1.00  0.00     0.014 A 
ATOM     36  C   UNL A   1      35.564  32.131  32.228  1.00  0.00     0.010 A 
ATOM     37  C   UNL A   1      37.094  33.789  31.345  1.00  0.00     0.010 A 
ATOM     38  C   UNL A   1      36.880  32.565  31.998  1.00  0.00    -0.014 A 
BRANCH  38  39
ATOM     39  C   UNL A   1      38.055  31.758  32.420  1.00  0.00     0.031 A 
ATOM     40  C   UNL A   1      38.754  32.078  33.711  1.00  0.00     0.074 A 
ATOM     41  C   UNL A   1      38.550  30.814  31.595  1.00  0.00     0.049 A 
ATOM     42  N   UNL A   1      39.876  31.605  34.187  1.00  0.00    -0.248 NA
ATOM     43  C   UNL A   1      38.123  33.100  34.560  1.00  0.00     0.031 C 
ATOM     44  C   UNL A   1      37.987  30.445  30.293  1.00  0.00     0.029 A 
ATOM     45  N   UNL A   1      39.652  30.004  31.718  1.00  0.00    -0.354 N 
ATOM     46  C   UNL A   1      40.101  32.290  35.377  1.00  0.00     0.074 A 
ATOM     47  C   UNL A   1      39.025  33.249  35.516  1.00  0.00     0.031 C 
ATOM     48  C   UNL A   1      38.739  29.474  29.749  1.00  0.00     0.029 A 
ATOM     49  C   UNL A   1      39.861  29.182  30.636  1.00  0.00     0.049 A 
ATOM     50  H   UNL A   1      40.239  30.012  32.509  1.00  0.00     0.167 HD
ATOM     51  C   UNL A   1      41.101  32.120  36.278  1.00  0.00     0.034 A 
ATOM     52  C   UNL A   1      40.851  28.305  30.379  1.00  0.00     0.034 A 
ATOM     53  C   UNL A   1      42.150  31.142  36.135  1.00  0.00     0.049 A 
ATOM     54  C   UNL A   1      41.946  28.125  31.399  1.00  0.00     0.074 A 
ATOM     55  C   UNL A   1      43.179  30.844  37.011  1.00  0.00     0.029 A 
ATOM     56  N   UNL A   1      42.304  30.298  35.041  1.00  0.00    -0.354 N 
ATOM     57  N   UNL A   1      42.125  28.754  32.538  1.00  0.00    -0.248 NA
ATOM     58  C   UNL A   1      42.968  27.112  31.102  1.00  0.00     0.031 C 
ATOM     59  C   UNL A   1      43.984  29.859  36.426  1.00  0.00     0.029 A 
ATOM     60  C   UNL A   1      43.421  29.495  35.214  1.00  0.00     0.049 A 
ATOM     61  H   UNL A   1      41.708  30.273  34.259  1.00  0.00     0.167 HD
ATOM     62  C   UNL A   1      43.261  28.187  33.109  1.00  0.00     0.074 A 
ATOM     63  C   UNL A   1      43.720  27.163  32.192  1.00  0.00     0.031 C 
ATOM     64  C   UNL A   1      43.864  28.479  34.288  1.00  0.00     0.034 A 
BRANCH  51  65
ATOM     65  C   UNL A   1      41.108  33.034  37.480  1.00  0.00     0.023 A 
ATOM     66  C   UNL A   1      40.403  32.712  38.654  1.00  0.00     0.031 A 
ATOM     67  C   UNL A   1      41.790  34.262  37.438  1.00  0.00     0.131 A 
ATOM     68  C   UNL A   1      40.321  33.643  39.699  1.00  0.00     0.055 A 
ATOM     69  C   UNL A   1      41.776  35.148  38.518  1.00  0.00     0.041 A 
ATOM     70  F   UNL A   1      42.464  34.633  36.339  1.00  0.00    -0.206 F 
ATOM     71  C   UNL A   1      41.023  34.849  39.650  1.00  0.00     0.022 A 
BRANCH  68  72
ATOM     72  S   UNL A   1      39.159  33.321  41.053  1.00  0.00     0.124 S 
ATOM     73  O   UNL A   1      37.884  33.687  40.438  1.00  0.00    -0.237 OA
ATOM     74  O   UNL A   1      39.358  31.900  41.310  1.00  0.00    -0.237 OA
ATOM     75  O   UNL A   1      39.610  34.219  42.114  1.00  0.00    -0.744 OA
ENDBRANCH  68  72
ENDBRANCH  51  65
BRANCH  52  76
ATOM     76  C   UNL A   1      40.863  27.531  29.106  1.00  0.00     0.023 A 
ATOM     77  C   UNL A   1      41.805  27.809  28.102  1.00  0.00     0.031 A 
ATOM     78  C   UNL A   1      39.910  26.528  28.858  1.00  0.00     0.131 A 
ATOM     79  C   UNL A   1      41.747  27.123  26.880  1.00  0.00     0.055 A 
ATOM     80  C   UNL A   1      39.885  25.816  27.657  1.00  0.00     0.041 A 
ATOM     81  F   UNL A   1      38.994  26.217  29.789  1.00  0.00    -0.206 F 
ATOM     82  C   UNL A   1      40.800  26.121  26.655  1.00  0.00     0.022 A 
BRANCH  79  83
ATOM     83  S   UNL A   1      42.885  27.612  25.555  1.00  0.00     0.124 S 
ATOM     84  O   UNL A   1      42.029  28.447  24.720  1.00  0.00    -0.237 OA
ATOM     85  O   UNL A   1      43.931  28.307  26.298  1.00  0.00    -0.237 OA
ATOM     86  O   UNL A   1      43.287  26.338  24.963  1.00  0.00    -0.744 OA
ENDBRANCH  79  83
ENDBRANCH  52  76
BRANCH  64  87
ATOM     87  C   UNL A   1      45.053  27.637  34.674  1.00  0.00     0.023 A 
ATOM     88  C   UNL A   1      44.912  26.443  35.402  1.00  0.00     0.031 A 
ATOM     89  C   UNL A   1      46.348  28.043  34.306  1.00  0.00     0.131 A 
ATOM     90  C   UNL A   1      46.053  25.719  35.779  1.00  0.00     0.055 A 
ATOM     91  C   UNL A   1      47.475  27.292  34.641  1.00  0.00     0.041 A 
ATOM     92  F   UNL A   1      46.537  29.176  33.611  1.00  0.00    -0.206 F 
ATOM     93  C   UNL A   1      47.332  26.128  35.390  1.00  0.00     0.022 A 
BRANCH  90  94
ATOM     94  S   UNL A   1      45.851  24.267  36.847  1.00  0.00     0.124 S 
ATOM     95  O   UNL A   1      45.497  23.229  35.885  1.00  0.00    -0.237 OA
ATOM     96  O   UNL A   1      47.170  24.144  37.460  1.00  0.00    -0.237 OA
ATOM     97  O   UNL A   1      44.779  24.658  37.761  1.00  0.00    -0.744 OA
ENDBRANCH  90  94
ENDBRANCH  64  87
ENDBRANCH  38  39
ENDBRANCH  30  33
ENDBRANCH  28  29
ENDBRANCH  27  28
ENDBRANCH   1  27
TORSDOF 20
ENDMDL
