MODEL 1
REMARK VINA RESULT:     -11.5      0.000      0.000
REMARK SMILES C/C=C(\C)[C@H]1C(C)=C[C@H]2CC[C@@H](OS(=O)(=O)[O-])[C@@H](C)[C@H]2[C@H]1/C=C/C=C/C(=O)NCCCCNC(=O)c1ccc(-c2c3nc(c(-c4cc(S(=O)(=O)[O-])ccc4F)c4ccc([nH]4)c(-c4cc(S(=O)(=O)[O-])ccc4F)c4nc(c(-c5cc(S(=O)(=O)[O-])ccc5F)c5ccc2[nH]5)C=C4)C=C3)cc1
REMARK SMILES IDX 30 1 29 2 28 3 26 4 27 5 25 7 24 8 23 9 22 10 21 11 5 12
REMARK SMILES IDX 6 13 7 14 8 15 20 16 9 17 18 18 10 19 12 20 19 21 11 22 3 23
REMARK SMILES IDX 1 24 2 25 4 26 13 27 14 28 15 29 16 30 17 31 31 32 32 33
REMARK SMILES IDX 33 34 34 35 35 37 36 38 37 39 98 40 38 41 97 42 39 43 40 44
REMARK SMILES IDX 41 45 91 46 42 47 96 48 90 49 92 50 43 51 95 52 89 53 88 54
REMARK SMILES IDX 44 56 76 57 56 58 75 59 57 60 60 61 74 62 93 63 58 64 59 65
REMARK SMILES IDX 73 67 94 68 61 69 45 70 46 71 54 72 47 73 53 74 55 75 52 76
REMARK SMILES IDX 48 77 49 78 50 79 51 80 77 81 78 82 86 83 79 84 85 85 87 86
REMARK SMILES IDX 84 87 80 88 81 89 82 90 83 91 62 92 63 93 71 94 64 95 70 96
REMARK SMILES IDX 72 97 69 98 65 99 66 100 67 101 68 102
REMARK H PARENT 28 6 33 36 92 55 60 66
REMARK Flexibility Score: inf
ROOT
ATOM      1  C   UNL A   1      34.367  34.450  28.561  1.00  0.00     0.023 C 
ENDROOT
BRANCH   1   2
ATOM      2  C   UNL A   1      34.396  33.005  29.060  1.00  0.00     0.116 C 
BRANCH   2   3
ATOM      3  N   UNL A   1      35.618  32.347  28.649  1.00  0.00    -0.353 N 
ATOM      4  C   UNL A   1      35.816  31.180  27.982  1.00  0.00     0.243 C 
ATOM      5  O   UNL A   1      36.963  30.831  27.709  1.00  0.00    -0.270 OA
ATOM      6  H   UNL A   1      36.444  32.822  28.897  1.00  0.00     0.163 HD
BRANCH   4   7
ATOM      7  C   UNL A   1      34.684  30.386  27.444  1.00  0.00     0.071 C 
ATOM      8  C   UNL A   1      34.703  29.261  26.712  1.00  0.00     0.005 C 
BRANCH   8   9
ATOM      9  C   UNL A   1      33.493  28.495  26.533  1.00  0.00    -0.004 C 
ATOM     10  C   UNL A   1      33.503  27.289  25.940  1.00  0.00    -0.022 C 
BRANCH  10  11
ATOM     11  C   UNL A   1      32.462  26.187  26.107  1.00  0.00     0.027 C 
ATOM     12  C   UNL A   1      31.248  26.054  25.033  1.00  0.00     0.047 C 
ATOM     13  C   UNL A   1      30.905  24.594  24.661  1.00  0.00    -0.069 C 
ATOM     14  C   UNL A   1      30.330  24.235  23.316  1.00  0.00     0.040 C 
ATOM     15  C   UNL A   1      31.134  23.593  25.535  1.00  0.00    -0.024 C 
ATOM     16  C   UNL A   1      33.066  24.795  26.524  1.00  0.00     0.009 C 
ATOM     17  C   UNL A   1      31.919  23.796  26.794  1.00  0.00     0.016 C 
ATOM     18  C   UNL A   1      34.200  24.174  25.617  1.00  0.00     0.021 C 
ATOM     19  C   UNL A   1      32.471  22.478  27.356  1.00  0.00     0.011 C 
ATOM     20  C   UNL A   1      34.711  22.858  26.253  1.00  0.00     0.141 C 
ATOM     21  C   UNL A   1      33.913  24.032  24.117  1.00  0.00     0.011 C 
ATOM     22  C   UNL A   1      33.577  21.865  26.503  1.00  0.00     0.034 C 
BRANCH  12  23
ATOM     23  C   UNL A   1      31.019  27.076  23.882  1.00  0.00    -0.070 C 
ATOM     24  C   UNL A   1      29.677  28.812  22.584  1.00  0.00     0.035 C 
ATOM     25  C   UNL A   1      29.984  27.936  23.766  1.00  0.00    -0.031 C 
ATOM     26  C   UNL A   1      32.071  27.042  22.783  1.00  0.00     0.040 C 
ENDBRANCH  12  23
BRANCH  20  27
ATOM     27  O   UNL A   1      35.710  22.291  25.414  1.00  0.00    -0.276 OA
BRANCH  27  28
ATOM     28  S   UNL A   1      37.187  22.960  25.370  1.00  0.00     0.217 S 
ATOM     29  O   UNL A   1      37.430  23.509  24.052  1.00  0.00    -0.213 OA
ATOM     30  O   UNL A   1      37.370  23.755  26.562  1.00  0.00    -0.213 OA
ATOM     31  O   UNL A   1      38.163  21.695  25.544  1.00  0.00    -0.726 OA
ENDBRANCH  27  28
ENDBRANCH  20  27
ENDBRANCH  10  11
ENDBRANCH   8   9
ENDBRANCH   4   7
ENDBRANCH   2   3
ENDBRANCH   1   2
BRANCH   1  32
ATOM     32  C   UNL A   1      33.091  35.211  28.914  1.00  0.00     0.023 C 
BRANCH  32  33
ATOM     33  C   UNL A   1      33.300  36.421  29.811  1.00  0.00     0.116 C 
BRANCH  33  34
ATOM     34  N   UNL A   1      32.424  36.427  30.973  1.00  0.00    -0.352 N 
ATOM     35  C   UNL A   1      32.561  35.718  32.143  1.00  0.00     0.251 C 
ATOM     36  H   UNL A   1      31.634  37.011  30.914  1.00  0.00     0.163 HD
ATOM     37  O   UNL A   1      31.664  35.727  32.978  1.00  0.00    -0.269 OA
BRANCH  35  38
ATOM     38  C   UNL A   1      33.785  34.917  32.348  1.00  0.00     0.039 A 
ATOM     39  C   UNL A   1      35.029  35.538  32.231  1.00  0.00     0.014 A 
ATOM     40  C   UNL A   1      33.695  33.574  32.724  1.00  0.00     0.014 A 
ATOM     41  C   UNL A   1      36.183  34.826  32.563  1.00  0.00     0.010 A 
ATOM     42  C   UNL A   1      34.837  32.895  33.134  1.00  0.00     0.010 A 
ATOM     43  C   UNL A   1      36.094  33.514  33.059  1.00  0.00    -0.014 A 
BRANCH  43  44
ATOM     44  C   UNL A   1      37.306  32.773  33.498  1.00  0.00     0.031 A 
ATOM     45  C   UNL A   1      38.027  33.193  34.751  1.00  0.00     0.074 A 
ATOM     46  C   UNL A   1      37.779  31.755  32.751  1.00  0.00     0.049 A 
ATOM     47  N   UNL A   1      39.138  32.728  35.260  1.00  0.00    -0.248 NA
ATOM     48  C   UNL A   1      37.432  34.298  35.520  1.00  0.00     0.031 C 
ATOM     49  C   UNL A   1      37.183  31.274  31.502  1.00  0.00     0.029 A 
ATOM     50  N   UNL A   1      38.871  30.940  32.927  1.00  0.00    -0.354 N 
ATOM     51  C   UNL A   1      39.371  33.474  36.409  1.00  0.00     0.074 A 
ATOM     52  C   UNL A   1      38.329  34.476  36.478  1.00  0.00     0.031 C 
ATOM     53  C   UNL A   1      37.896  30.231  31.045  1.00  0.00     0.029 A 
ATOM     54  C   UNL A   1      39.032  30.003  31.932  1.00  0.00     0.049 A 
ATOM     55  H   UNL A   1      39.481  31.020  33.696  1.00  0.00     0.167 HD
ATOM     56  C   UNL A   1      40.341  33.317  37.343  1.00  0.00     0.034 A 
ATOM     57  C   UNL A   1      39.995  29.077  31.747  1.00  0.00     0.034 A 
ATOM     58  C   UNL A   1      41.373  32.315  37.266  1.00  0.00     0.049 A 
ATOM     59  C   UNL A   1      41.108  28.975  32.766  1.00  0.00     0.074 A 
ATOM     60  C   UNL A   1      42.398  32.064  38.162  1.00  0.00     0.029 A 
ATOM     61  N   UNL A   1      41.514  31.394  36.236  1.00  0.00    -0.354 N 
ATOM     62  N   UNL A   1      41.289  29.670  33.867  1.00  0.00    -0.248 NA
ATOM     63  C   UNL A   1      42.138  27.956  32.526  1.00  0.00     0.031 C 
ATOM     64  C   UNL A   1      43.195  31.040  37.643  1.00  0.00     0.029 A 
ATOM     65  C   UNL A   1      42.620  30.592  36.465  1.00  0.00     0.049 A 
ATOM     66  H   UNL A   1      40.916  31.324  35.457  1.00  0.00     0.167 HD
ATOM     67  C   UNL A   1      42.426  29.135  34.469  1.00  0.00     0.074 A 
ATOM     68  C   UNL A   1      42.874  28.051  33.622  1.00  0.00     0.031 C 
ATOM     69  C   UNL A   1      43.047  29.504  35.618  1.00  0.00     0.034 A 
BRANCH  56  70
ATOM     70  C   UNL A   1      40.328  34.252  38.526  1.00  0.00     0.023 A 
ATOM     71  C   UNL A   1      39.717  33.885  39.738  1.00  0.00     0.031 A 
ATOM     72  C   UNL A   1      40.938  35.516  38.452  1.00  0.00     0.131 A 
ATOM     73  C   UNL A   1      39.681  34.792  40.807  1.00  0.00     0.055 A 
ATOM     74  C   UNL A   1      40.968  36.383  39.545  1.00  0.00     0.041 A 
ATOM     75  F   UNL A   1      41.516  35.929  37.313  1.00  0.00    -0.206 F 
ATOM     76  C   UNL A   1      40.328  36.027  40.729  1.00  0.00     0.022 A 
BRANCH  73  77
ATOM     77  S   UNL A   1      38.674  34.380  42.257  1.00  0.00     0.124 S 
ATOM     78  O   UNL A   1      37.796  35.545  42.346  1.00  0.00    -0.237 OA
ATOM     79  O   UNL A   1      38.038  33.132  41.857  1.00  0.00    -0.237 OA
ATOM     80  O   UNL A   1      39.654  34.265  43.333  1.00  0.00    -0.744 OA
ENDBRANCH  73  77
ENDBRANCH  56  70
BRANCH  57  81
ATOM     81  C   UNL A   1      39.988  28.180  30.552  1.00  0.00     0.023 A 
ATOM     82  C   UNL A   1      40.743  28.494  29.411  1.00  0.00     0.031 A 
ATOM     83  C   UNL A   1      39.146  27.056  30.489  1.00  0.00     0.131 A 
ATOM     84  C   UNL A   1      40.572  27.755  28.231  1.00  0.00     0.055 A 
ATOM     85  C   UNL A   1      39.039  26.274  29.337  1.00  0.00     0.041 A 
ATOM     86  F   UNL A   1      38.398  26.705  31.549  1.00  0.00    -0.206 F 
ATOM     87  C   UNL A   1      39.737  26.637  28.190  1.00  0.00     0.022 A 
BRANCH  84  88
ATOM     88  S   UNL A   1      41.330  28.379  26.704  1.00  0.00     0.124 S 
ATOM     89  O   UNL A   1      42.504  29.072  27.222  1.00  0.00    -0.237 OA
ATOM     90  O   UNL A   1      41.584  27.145  25.968  1.00  0.00    -0.237 OA
ATOM     91  O   UNL A   1      40.294  29.241  26.138  1.00  0.00    -0.744 OA
ENDBRANCH  84  88
ENDBRANCH  57  81
BRANCH  69  92
ATOM     92  C   UNL A   1      44.234  28.681  36.058  1.00  0.00     0.023 A 
ATOM     93  C   UNL A   1      44.106  27.622  36.973  1.00  0.00     0.031 A 
ATOM     94  C   UNL A   1      45.516  28.972  35.558  1.00  0.00     0.131 A 
ATOM     95  C   UNL A   1      45.249  26.933  37.409  1.00  0.00     0.055 A 
ATOM     96  C   UNL A   1      46.639  28.237  35.941  1.00  0.00     0.041 A 
ATOM     97  F   UNL A   1      45.698  29.973  34.683  1.00  0.00    -0.206 F 
ATOM     98  C   UNL A   1      46.511  27.221  36.884  1.00  0.00     0.022 A 
BRANCH  95  99
ATOM     99  S   UNL A   1      45.078  25.725  38.750  1.00  0.00     0.124 S 
ATOM    100  O   UNL A   1      44.277  26.461  39.722  1.00  0.00    -0.237 OA
ATOM    101  O   UNL A   1      44.406  24.613  38.084  1.00  0.00    -0.237 OA
ATOM    102  O   UNL A   1      46.457  25.462  39.153  1.00  0.00    -0.744 OA
ENDBRANCH  95  99
ENDBRANCH  69  92
ENDBRANCH  43  44
ENDBRANCH  35  38
ENDBRANCH  33  34
ENDBRANCH  32  33
ENDBRANCH   1  32
TORSDOF 19
ENDMDL
MODEL 2
REMARK VINA RESULT:     -11.1      0.527      7.396
REMARK SMILES C/C=C(\C)[C@H]1C(C)=C[C@H]2CC[C@@H](OS(=O)(=O)[O-])[C@@H](C)[C@H]2[C@H]1/C=C/C=C/C(=O)NCCCCNC(=O)c1ccc(-c2c3nc(c(-c4cc(S(=O)(=O)[O-])ccc4F)c4ccc([nH]4)c(-c4cc(S(=O)(=O)[O-])ccc4F)c4nc(c(-c5cc(S(=O)(=O)[O-])ccc5F)c5ccc2[nH]5)C=C4)C=C3)cc1
REMARK SMILES IDX 30 1 29 2 28 3 26 4 27 5 25 7 24 8 23 9 22 10 21 11 5 12
REMARK SMILES IDX 6 13 7 14 8 15 20 16 9 17 18 18 10 19 12 20 19 21 11 22 3 23
REMARK SMILES IDX 1 24 2 25 4 26 13 27 14 28 15 29 16 30 17 31 31 32 32 33
REMARK SMILES IDX 33 34 34 35 35 37 36 38 37 39 98 40 38 41 97 42 39 43 40 44
REMARK SMILES IDX 41 45 91 46 42 47 96 48 90 49 92 50 43 51 95 52 89 53 88 54
REMARK SMILES IDX 44 56 76 57 56 58 75 59 57 60 60 61 74 62 93 63 58 64 59 65
REMARK SMILES IDX 73 67 94 68 61 69 45 70 46 71 54 72 47 73 53 74 55 75 52 76
REMARK SMILES IDX 48 77 49 78 50 79 51 80 77 81 78 82 86 83 79 84 85 85 87 86
REMARK SMILES IDX 84 87 80 88 81 89 82 90 83 91 62 92 63 93 71 94 64 95 70 96
REMARK SMILES IDX 72 97 69 98 65 99 66 100 67 101 68 102
REMARK H PARENT 28 6 33 36 92 55 60 66
REMARK Flexibility Score: inf
ROOT
ATOM      1  C   UNL A   1      34.653  34.082  28.569  1.00  0.00     0.023 C 
ENDROOT
BRANCH   1   2
ATOM      2  C   UNL A   1      34.408  32.580  28.726  1.00  0.00     0.116 C 
BRANCH   2   3
ATOM      3  N   UNL A   1      35.612  31.833  28.427  1.00  0.00    -0.353 N 
ATOM      4  C   UNL A   1      35.779  30.611  27.859  1.00  0.00     0.243 C 
ATOM      5  O   UNL A   1      36.917  30.185  27.670  1.00  0.00    -0.270 OA
ATOM      6  H   UNL A   1      36.450  32.285  28.679  1.00  0.00     0.163 HD
BRANCH   4   7
ATOM      7  C   UNL A   1      34.632  29.834  27.325  1.00  0.00     0.071 C 
ATOM      8  C   UNL A   1      34.475  29.264  26.120  1.00  0.00     0.005 C 
BRANCH   8   9
ATOM      9  C   UNL A   1      33.409  28.315  25.903  1.00  0.00    -0.004 C 
ATOM     10  C   UNL A   1      33.644  26.994  25.833  1.00  0.00    -0.022 C 
BRANCH  10  11
ATOM     11  C   UNL A   1      32.637  25.879  26.094  1.00  0.00     0.027 C 
ATOM     12  C   UNL A   1      31.399  25.650  25.063  1.00  0.00     0.047 C 
ATOM     13  C   UNL A   1      31.086  24.162  24.789  1.00  0.00    -0.069 C 
ATOM     14  C   UNL A   1      30.486  23.709  23.484  1.00  0.00     0.040 C 
ATOM     15  C   UNL A   1      31.364  23.222  25.714  1.00  0.00    -0.024 C 
ATOM     16  C   UNL A   1      33.289  24.530  26.576  1.00  0.00     0.009 C 
ATOM     17  C   UNL A   1      32.176  23.521  26.937  1.00  0.00     0.016 C 
ATOM     18  C   UNL A   1      34.415  23.884  25.676  1.00  0.00     0.021 C 
ATOM     19  C   UNL A   1      32.777  22.252  27.561  1.00  0.00     0.011 C 
ATOM     20  C   UNL A   1      34.977  22.622  26.376  1.00  0.00     0.141 C 
ATOM     21  C   UNL A   1      34.093  23.645  24.196  1.00  0.00     0.011 C 
ATOM     22  C   UNL A   1      33.876  21.617  26.715  1.00  0.00     0.034 C 
BRANCH  12  23
ATOM     23  C   UNL A   1      31.114  26.595  23.860  1.00  0.00    -0.070 C 
ATOM     24  C   UNL A   1      29.735  28.292  22.548  1.00  0.00     0.035 C 
ATOM     25  C   UNL A   1      30.107  27.491  23.765  1.00  0.00    -0.031 C 
ATOM     26  C   UNL A   1      32.065  26.433  22.684  1.00  0.00     0.040 C 
ENDBRANCH  12  23
BRANCH  20  27
ATOM     27  O   UNL A   1      35.969  22.031  25.545  1.00  0.00    -0.276 OA
BRANCH  27  28
ATOM     28  S   UNL A   1      37.445  22.697  25.469  1.00  0.00     0.217 S 
ATOM     29  O   UNL A   1      37.550  23.757  26.449  1.00  0.00    -0.213 OA
ATOM     30  O   UNL A   1      38.426  21.639  25.397  1.00  0.00    -0.213 OA
ATOM     31  O   UNL A   1      37.456  23.390  24.018  1.00  0.00    -0.726 OA
ENDBRANCH  27  28
ENDBRANCH  20  27
ENDBRANCH  10  11
ENDBRANCH   8   9
ENDBRANCH   4   7
ENDBRANCH   2   3
ENDBRANCH   1   2
BRANCH   1  32
ATOM     32  C   UNL A   1      33.396  34.938  28.697  1.00  0.00     0.023 C 
BRANCH  32  33
ATOM     33  C   UNL A   1      33.531  36.130  29.634  1.00  0.00     0.116 C 
BRANCH  33  34
ATOM     34  N   UNL A   1      32.625  36.065  30.771  1.00  0.00    -0.352 N 
ATOM     35  C   UNL A   1      32.780  35.360  31.941  1.00  0.00     0.251 C 
ATOM     36  H   UNL A   1      31.798  36.593  30.693  1.00  0.00     0.163 HD
ATOM     37  O   UNL A   1      31.862  35.300  32.751  1.00  0.00    -0.269 OA
BRANCH  35  38
ATOM     38  C   UNL A   1      34.052  34.646  32.175  1.00  0.00     0.039 A 
ATOM     39  C   UNL A   1      35.246  35.366  32.160  1.00  0.00     0.014 A 
ATOM     40  C   UNL A   1      34.050  33.282  32.478  1.00  0.00     0.014 A 
ATOM     41  C   UNL A   1      36.435  34.730  32.521  1.00  0.00     0.010 A 
ATOM     42  C   UNL A   1      35.219  32.672  32.918  1.00  0.00     0.010 A 
ATOM     43  C   UNL A   1      36.425  33.390  32.947  1.00  0.00    -0.014 A 
BRANCH  43  44
ATOM     44  C   UNL A   1      37.668  32.721  33.417  1.00  0.00     0.031 A 
ATOM     45  C   UNL A   1      38.256  31.590  32.617  1.00  0.00     0.074 A 
ATOM     46  C   UNL A   1      38.238  33.102  34.577  1.00  0.00     0.049 A 
ATOM     47  N   UNL A   1      39.285  30.832  32.894  1.00  0.00    -0.248 NA
ATOM     48  C   UNL A   1      37.586  31.253  31.352  1.00  0.00     0.031 C 
ATOM     49  C   UNL A   1      37.743  34.167  35.454  1.00  0.00     0.029 A 
ATOM     50  N   UNL A   1      39.356  32.639  35.226  1.00  0.00    -0.354 N 
ATOM     51  C   UNL A   1      39.391  29.936  31.836  1.00  0.00     0.074 A 
ATOM     52  C   UNL A   1      38.273  30.193  30.954  1.00  0.00     0.031 C 
ATOM     53  C   UNL A   1      38.571  34.295  36.505  1.00  0.00     0.029 A 
ATOM     54  C   UNL A   1      39.622  33.287  36.411  1.00  0.00     0.049 A 
ATOM     55  H   UNL A   1      39.917  31.909  34.874  1.00  0.00     0.167 HD
ATOM     56  C   UNL A   1      40.351  29.008  31.601  1.00  0.00     0.034 A 
ATOM     57  C   UNL A   1      40.592  33.081  37.325  1.00  0.00     0.034 A 
ATOM     58  C   UNL A   1      41.461  28.761  32.485  1.00  0.00     0.049 A 
ATOM     59  C   UNL A   1      41.606  31.987  37.072  1.00  0.00     0.074 A 
ATOM     60  C   UNL A   1      42.494  27.850  32.337  1.00  0.00     0.029 A 
ATOM     61  N   UNL A   1      41.688  29.425  33.683  1.00  0.00    -0.354 N 
ATOM     62  N   UNL A   1      41.706  31.173  36.046  1.00  0.00    -0.248 NA
ATOM     63  C   UNL A   1      42.644  31.795  38.093  1.00  0.00     0.031 C 
ATOM     64  C   UNL A   1      43.305  27.919  33.473  1.00  0.00     0.029 A 
ATOM     65  C   UNL A   1      42.830  28.929  34.292  1.00  0.00     0.049 A 
ATOM     66  H   UNL A   1      41.120  30.142  34.047  1.00  0.00     0.167 HD
ATOM     67  C   UNL A   1      42.848  30.408  36.282  1.00  0.00     0.074 A 
ATOM     68  C   UNL A   1      43.408  30.871  37.532  1.00  0.00     0.031 C 
ATOM     69  C   UNL A   1      43.385  29.411  35.534  1.00  0.00     0.034 A 
BRANCH  56  70
ATOM     70  C   UNL A   1      40.239  28.193  30.337  1.00  0.00     0.023 A 
ATOM     71  C   UNL A   1      41.055  28.460  29.223  1.00  0.00     0.031 A 
ATOM     72  C   UNL A   1      39.319  27.136  30.241  1.00  0.00     0.131 A 
ATOM     73  C   UNL A   1      40.898  27.716  28.045  1.00  0.00     0.055 A 
ATOM     74  C   UNL A   1      39.223  26.347  29.093  1.00  0.00     0.041 A 
ATOM     75  F   UNL A   1      38.497  26.850  31.264  1.00  0.00    -0.206 F 
ATOM     76  C   UNL A   1      40.008  26.642  27.982  1.00  0.00     0.022 A 
BRANCH  73  77
ATOM     77  S   UNL A   1      41.789  28.250  26.560  1.00  0.00     0.124 S 
ATOM     78  O   UNL A   1      42.958  28.908  27.139  1.00  0.00    -0.237 OA
ATOM     79  O   UNL A   1      42.041  26.991  25.871  1.00  0.00    -0.237 OA
ATOM     80  O   UNL A   1      40.844  29.146  25.898  1.00  0.00    -0.744 OA
ENDBRANCH  73  77
ENDBRANCH  56  70
BRANCH  57  81
ATOM     81  C   UNL A   1      40.662  33.893  38.577  1.00  0.00     0.023 A 
ATOM     82  C   UNL A   1      39.850  33.586  39.681  1.00  0.00     0.031 A 
ATOM     83  C   UNL A   1      41.457  35.051  38.652  1.00  0.00     0.131 A 
ATOM     84  C   UNL A   1      39.779  34.471  40.768  1.00  0.00     0.055 A 
ATOM     85  C   UNL A   1      41.444  35.886  39.771  1.00  0.00     0.041 A 
ATOM     86  F   UNL A   1      42.254  35.397  37.628  1.00  0.00    -0.206 F 
ATOM     87  C   UNL A   1      40.583  35.611  40.828  1.00  0.00     0.022 A 
BRANCH  84  88
ATOM     88  S   UNL A   1      38.498  34.195  42.024  1.00  0.00     0.124 S 
ATOM     89  O   UNL A   1      39.292  33.722  43.152  1.00  0.00    -0.237 OA
ATOM     90  O   UNL A   1      37.917  35.526  42.159  1.00  0.00    -0.237 OA
ATOM     91  O   UNL A   1      37.630  33.194  41.407  1.00  0.00    -0.744 OA
ENDBRANCH  84  88
ENDBRANCH  57  81
BRANCH  69  92
ATOM     92  C   UNL A   1      44.683  28.808  36.016  1.00  0.00     0.023 A 
ATOM     93  C   UNL A   1      44.714  27.647  36.808  1.00  0.00     0.031 A 
ATOM     94  C   UNL A   1      45.907  29.414  35.683  1.00  0.00     0.131 A 
ATOM     95  C   UNL A   1      45.939  27.166  37.294  1.00  0.00     0.055 A 
ATOM     96  C   UNL A   1      47.128  28.890  36.110  1.00  0.00     0.041 A 
ATOM     97  F   UNL A   1      45.939  30.526  34.931  1.00  0.00    -0.206 F 
ATOM     98  C   UNL A   1      47.147  27.768  36.933  1.00  0.00     0.022 A 
BRANCH  95  99
ATOM     99  S   UNL A   1      45.926  25.802  38.489  1.00  0.00     0.124 S 
ATOM    100  O   UNL A   1      46.716  26.351  39.586  1.00  0.00    -0.237 OA
ATOM    101  O   UNL A   1      44.501  25.634  38.754  1.00  0.00    -0.237 OA
ATOM    102  O   UNL A   1      46.555  24.702  37.761  1.00  0.00    -0.744 OA
ENDBRANCH  95  99
ENDBRANCH  69  92
ENDBRANCH  43  44
ENDBRANCH  35  38
ENDBRANCH  33  34
ENDBRANCH  32  33
ENDBRANCH   1  32
TORSDOF 19
ENDMDL
MODEL 3
REMARK VINA RESULT:     -11.1      6.737     12.487
REMARK SMILES C/C=C(\C)[C@H]1C(C)=C[C@H]2CC[C@@H](OS(=O)(=O)[O-])[C@@H](C)[C@H]2[C@H]1/C=C/C=C/C(=O)NCCCCNC(=O)c1ccc(-c2c3nc(c(-c4cc(S(=O)(=O)[O-])ccc4F)c4ccc([nH]4)c(-c4cc(S(=O)(=O)[O-])ccc4F)c4nc(c(-c5cc(S(=O)(=O)[O-])ccc5F)c5ccc2[nH]5)C=C4)C=C3)cc1
REMARK SMILES IDX 30 1 29 2 28 3 26 4 27 5 25 7 24 8 23 9 22 10 21 11 5 12
REMARK SMILES IDX 6 13 7 14 8 15 20 16 9 17 18 18 10 19 12 20 19 21 11 22 3 23
REMARK SMILES IDX 1 24 2 25 4 26 13 27 14 28 15 29 16 30 17 31 31 32 32 33
REMARK SMILES IDX 33 34 34 35 35 37 36 38 37 39 98 40 38 41 97 42 39 43 40 44
REMARK SMILES IDX 41 45 91 46 42 47 96 48 90 49 92 50 43 51 95 52 89 53 88 54
REMARK SMILES IDX 44 56 76 57 56 58 75 59 57 60 60 61 74 62 93 63 58 64 59 65
REMARK SMILES IDX 73 67 94 68 61 69 45 70 46 71 54 72 47 73 53 74 55 75 52 76
REMARK SMILES IDX 48 77 49 78 50 79 51 80 77 81 78 82 86 83 79 84 85 85 87 86
REMARK SMILES IDX 84 87 80 88 81 89 82 90 83 91 62 92 63 93 71 94 64 95 70 96
REMARK SMILES IDX 72 97 69 98 65 99 66 100 67 101 68 102
REMARK H PARENT 28 6 33 36 92 55 60 66
REMARK Flexibility Score: inf
ROOT
ATOM      1  C   UNL A   1      41.361  21.175  26.417  1.00  0.00     0.023 C 
ENDROOT
BRANCH   1   2
ATOM      2  C   UNL A   1      39.897  21.543  26.662  1.00  0.00     0.116 C 
BRANCH   2   3
ATOM      3  N   UNL A   1      39.793  22.862  27.251  1.00  0.00    -0.353 N 
ATOM      4  C   UNL A   1      38.909  23.868  27.023  1.00  0.00     0.243 C 
ATOM      5  O   UNL A   1      38.997  24.905  27.677  1.00  0.00    -0.270 OA
ATOM      6  H   UNL A   1      40.478  23.064  27.929  1.00  0.00     0.163 HD
BRANCH   4   7
ATOM      7  C   UNL A   1      37.751  23.699  26.110  1.00  0.00     0.071 C 
ATOM      8  C   UNL A   1      36.643  22.958  26.266  1.00  0.00     0.005 C 
BRANCH   8   9
ATOM      9  C   UNL A   1      35.513  23.156  25.390  1.00  0.00    -0.004 C 
ATOM     10  C   UNL A   1      35.069  24.385  25.077  1.00  0.00    -0.022 C 
BRANCH  10  11
ATOM     11  C   UNL A   1      34.255  24.769  23.846  1.00  0.00     0.027 C 
ATOM     12  C   UNL A   1      32.971  23.869  23.414  1.00  0.00     0.047 C 
ATOM     13  C   UNL A   1      31.764  24.701  22.926  1.00  0.00    -0.069 C 
ATOM     14  C   UNL A   1      30.350  24.209  23.084  1.00  0.00     0.040 C 
ATOM     15  C   UNL A   1      31.950  25.910  22.359  1.00  0.00    -0.024 C 
ATOM     16  C   UNL A   1      33.991  26.315  23.712  1.00  0.00     0.009 C 
ATOM     17  C   UNL A   1      33.279  26.601  22.371  1.00  0.00     0.016 C 
ATOM     18  C   UNL A   1      33.307  27.062  24.924  1.00  0.00     0.021 C 
ATOM     19  C   UNL A   1      33.151  28.114  22.139  1.00  0.00     0.011 C 
ATOM     20  C   UNL A   1      33.225  28.578  24.620  1.00  0.00     0.141 C 
ATOM     21  C   UNL A   1      31.986  26.493  25.456  1.00  0.00     0.011 C 
ATOM     22  C   UNL A   1      32.504  28.859  23.302  1.00  0.00     0.034 C 
BRANCH  12  23
ATOM     23  C   UNL A   1      32.584  22.545  24.135  1.00  0.00    -0.070 C 
ATOM     24  C   UNL A   1      32.280  20.018  24.291  1.00  0.00     0.035 C 
ATOM     25  C   UNL A   1      32.790  21.291  23.675  1.00  0.00    -0.031 C 
ATOM     26  C   UNL A   1      31.873  22.730  25.467  1.00  0.00     0.040 C 
ENDBRANCH  12  23
BRANCH  20  27
ATOM     27  O   UNL A   1      32.582  29.237  25.704  1.00  0.00    -0.276 OA
BRANCH  27  28
ATOM     28  S   UNL A   1      33.430  29.587  27.041  1.00  0.00     0.217 S 
ATOM     29  O   UNL A   1      33.302  30.997  27.341  1.00  0.00    -0.213 OA
ATOM     30  O   UNL A   1      33.157  28.578  28.038  1.00  0.00    -0.213 OA
ATOM     31  O   UNL A   1      34.950  29.336  26.582  1.00  0.00    -0.726 OA
ENDBRANCH  27  28
ENDBRANCH  20  27
ENDBRANCH  10  11
ENDBRANCH   8   9
ENDBRANCH   4   7
ENDBRANCH   2   3
ENDBRANCH   1   2
BRANCH   1  32
ATOM     32  C   UNL A   1      41.575  19.746  25.927  1.00  0.00     0.023 C 
BRANCH  32  33
ATOM     33  C   UNL A   1      42.916  19.137  26.307  1.00  0.00     0.116 C 
BRANCH  33  34
ATOM     34  N   UNL A   1      43.812  18.978  25.172  1.00  0.00    -0.352 N 
ATOM     35  C   UNL A   1      44.527  19.950  24.513  1.00  0.00     0.251 C 
ATOM     36  H   UNL A   1      43.921  18.060  24.834  1.00  0.00     0.163 HD
ATOM     37  O   UNL A   1      45.136  19.677  23.485  1.00  0.00    -0.269 OA
BRANCH  35  38
ATOM     38  C   UNL A   1      44.507  21.329  25.044  1.00  0.00     0.039 A 
ATOM     39  C   UNL A   1      45.035  21.574  26.311  1.00  0.00     0.014 A 
ATOM     40  C   UNL A   1      44.031  22.381  24.256  1.00  0.00     0.014 A 
ATOM     41  C   UNL A   1      45.151  22.891  26.761  1.00  0.00     0.010 A 
ATOM     42  C   UNL A   1      44.226  23.693  24.671  1.00  0.00     0.010 A 
ATOM     43  C   UNL A   1      44.789  23.964  25.928  1.00  0.00    -0.014 A 
BRANCH  43  44
ATOM     44  C   UNL A   1      44.987  25.374  26.358  1.00  0.00     0.031 A 
ATOM     45  C   UNL A   1      46.364  25.979  26.326  1.00  0.00     0.074 A 
ATOM     46  C   UNL A   1      43.940  26.091  26.813  1.00  0.00     0.049 A 
ATOM     47  N   UNL A   1      46.757  27.159  26.729  1.00  0.00    -0.248 NA
ATOM     48  C   UNL A   1      47.447  25.137  25.794  1.00  0.00     0.031 C 
ATOM     49  C   UNL A   1      42.562  25.603  26.918  1.00  0.00     0.029 A 
ATOM     50  N   UNL A   1      43.866  27.381  27.278  1.00  0.00    -0.354 N 
ATOM     51  C   UNL A   1      48.126  27.205  26.491  1.00  0.00     0.074 A 
ATOM     52  C   UNL A   1      48.509  25.905  25.985  1.00  0.00     0.031 C 
ATOM     53  C   UNL A   1      41.778  26.591  27.382  1.00  0.00     0.029 A 
ATOM     54  C   UNL A   1      42.601  27.762  27.665  1.00  0.00     0.049 A 
ATOM     55  H   UNL A   1      44.647  27.978  27.328  1.00  0.00     0.167 HD
ATOM     56  C   UNL A   1      48.981  28.246  26.644  1.00  0.00     0.034 A 
ATOM     57  C   UNL A   1      42.159  28.918  28.201  1.00  0.00     0.034 A 
ATOM     58  C   UNL A   1      48.589  29.538  27.147  1.00  0.00     0.049 A 
ATOM     59  C   UNL A   1      43.151  30.036  28.432  1.00  0.00     0.074 A 
ATOM     60  C   UNL A   1      49.374  30.664  27.334  1.00  0.00     0.029 A 
ATOM     61  N   UNL A   1      47.303  29.882  27.544  1.00  0.00    -0.354 N 
ATOM     62  N   UNL A   1      44.437  30.069  28.166  1.00  0.00    -0.248 NA
ATOM     63  C   UNL A   1      42.629  31.276  29.020  1.00  0.00     0.031 C 
ATOM     64  C   UNL A   1      48.579  31.663  27.902  1.00  0.00     0.029 A 
ATOM     65  C   UNL A   1      47.280  31.193  27.993  1.00  0.00     0.049 A 
ATOM     66  H   UNL A   1      46.524  29.282  27.511  1.00  0.00     0.167 HD
ATOM     67  C   UNL A   1      44.861  31.351  28.513  1.00  0.00     0.074 A 
ATOM     68  C   UNL A   1      43.693  32.062  28.985  1.00  0.00     0.031 C 
ATOM     69  C   UNL A   1      46.103  31.894  28.448  1.00  0.00     0.034 A 
BRANCH  56  70
ATOM     70  C   UNL A   1      50.423  28.027  26.262  1.00  0.00     0.023 A 
ATOM     71  C   UNL A   1      50.873  28.258  24.950  1.00  0.00     0.031 A 
ATOM     72  C   UNL A   1      51.361  27.592  27.214  1.00  0.00     0.131 A 
ATOM     73  C   UNL A   1      52.210  28.002  24.613  1.00  0.00     0.055 A 
ATOM     74  C   UNL A   1      52.708  27.415  26.891  1.00  0.00     0.041 A 
ATOM     75  F   UNL A   1      50.984  27.332  28.476  1.00  0.00    -0.206 F 
ATOM     76  C   UNL A   1      53.137  27.611  25.581  1.00  0.00     0.022 A 
BRANCH  73  77
ATOM     77  S   UNL A   1      52.690  28.074  22.867  1.00  0.00     0.124 S 
ATOM     78  O   UNL A   1      52.567  26.673  22.470  1.00  0.00    -0.237 OA
ATOM     79  O   UNL A   1      51.701  28.985  22.304  1.00  0.00    -0.237 OA
ATOM     80  O   UNL A   1      54.058  28.584  22.908  1.00  0.00    -0.744 OA
ENDBRANCH  73  77
ENDBRANCH  56  70
BRANCH  57  81
ATOM     81  C   UNL A   1      40.726  29.095  28.587  1.00  0.00     0.023 A 
ATOM     82  C   UNL A   1      40.327  29.015  29.931  1.00  0.00     0.031 A 
ATOM     83  C   UNL A   1      39.721  29.236  27.614  1.00  0.00     0.131 A 
ATOM     84  C   UNL A   1      38.962  28.983  30.256  1.00  0.00     0.055 A 
ATOM     85  C   UNL A   1      38.366  29.285  27.950  1.00  0.00     0.041 A 
ATOM     86  F   UNL A   1      40.041  29.316  26.311  1.00  0.00    -0.206 F 
ATOM     87  C   UNL A   1      37.979  29.133  29.277  1.00  0.00     0.022 A 
BRANCH  84  88
ATOM     88  S   UNL A   1      38.492  28.574  31.961  1.00  0.00     0.124 S 
ATOM     89  O   UNL A   1      39.501  29.297  32.725  1.00  0.00    -0.237 OA
ATOM     90  O   UNL A   1      37.133  29.098  32.033  1.00  0.00    -0.237 OA
ATOM     91  O   UNL A   1      38.602  27.117  32.003  1.00  0.00    -0.744 OA
ENDBRANCH  84  88
ENDBRANCH  57  81
BRANCH  69  92
ATOM     92  C   UNL A   1      46.244  33.347  28.832  1.00  0.00     0.023 A 
ATOM     93  C   UNL A   1      46.196  34.377  27.876  1.00  0.00     0.031 A 
ATOM     94  C   UNL A   1      46.439  33.704  30.179  1.00  0.00     0.131 A 
ATOM     95  C   UNL A   1      46.405  35.707  28.271  1.00  0.00     0.055 A 
ATOM     96  C   UNL A   1      46.576  35.035  30.574  1.00  0.00     0.041 A 
ATOM     97  F   UNL A   1      46.496  32.763  31.134  1.00  0.00    -0.206 F 
ATOM     98  C   UNL A   1      46.574  36.044  29.617  1.00  0.00     0.022 A 
BRANCH  95  99
ATOM     99  S   UNL A   1      46.556  36.981  26.991  1.00  0.00     0.124 S 
ATOM    100  O   UNL A   1      47.820  37.619  27.343  1.00  0.00    -0.237 OA
ATOM    101  O   UNL A   1      46.563  36.191  25.763  1.00  0.00    -0.237 OA
ATOM    102  O   UNL A   1      45.368  37.809  27.187  1.00  0.00    -0.744 OA
ENDBRANCH  95  99
ENDBRANCH  69  92
ENDBRANCH  43  44
ENDBRANCH  35  38
ENDBRANCH  33  34
ENDBRANCH  32  33
ENDBRANCH   1  32
TORSDOF 19
ENDMDL
