MODEL 1
REMARK VINA RESULT:     -13.6      0.000      0.000
REMARK SMILES Cc1c(NC(=O)c2cccc(-c3cc4ccccc4oc3=O)c2)cccc1C(=O)NCCCCNC(=O)c1ccc(-c2c3nc(c(-c4cc(S(=O)(=O)[O-])ccc4F)c4ccc([nH]4)c(-c4cc(S(=O)(=O)[O-])ccc4F)c4nc(c(-c5cc(S(=O)(=O)[O-])ccc5F)c5ccc2[nH]5)C=C4)C=C3)cc1
REMARK SMILES IDX 32 1 31 2 30 3 28 4 29 5 27 7 1 8 2 9 3 10 24 11 26 12 25 13
REMARK SMILES IDX 4 14 5 15 6 17 7 18 8 19 23 20 9 21 11 22 10 23 12 24 13 25
REMARK SMILES IDX 21 26 14 27 20 28 22 29 15 30 19 31 16 32 18 33 17 34 33 35
REMARK SMILES IDX 34 36 35 37 36 38 37 40 38 41 39 42 100 43 40 44 99 45 41 46
REMARK SMILES IDX 42 47 43 48 93 49 44 50 98 51 92 52 94 53 45 54 97 55 91 56
REMARK SMILES IDX 90 57 46 59 78 60 58 61 77 62 59 63 62 64 76 65 95 66 60 67
REMARK SMILES IDX 61 68 75 70 96 71 63 72 47 73 48 74 56 75 49 76 55 77 57 78
REMARK SMILES IDX 54 79 50 80 51 81 52 82 53 83 79 84 80 85 88 86 81 87 87 88
REMARK SMILES IDX 89 89 86 90 82 91 83 92 84 93 85 94 64 95 65 96 73 97 66 98
REMARK SMILES IDX 72 99 74 100 71 101 67 102 68 103 69 104 70 105
REMARK H PARENT 30 6 4 16 35 39 94 58 62 69
REMARK Flexibility Score: inf
ROOT
ATOM      1  C   UNL A   1      34.348  33.011  28.469  1.00  0.00     0.023 C 
ENDROOT
BRANCH   1   2
ATOM      2  C   UNL A   1      33.612  31.896  27.700  1.00  0.00     0.116 C 
BRANCH   2   3
ATOM      3  N   UNL A   1      34.487  30.770  27.417  1.00  0.00    -0.352 N 
ATOM      4  C   UNL A   1      34.396  29.501  26.917  1.00  0.00     0.251 C 
ATOM      5  O   UNL A   1      35.501  28.930  26.906  1.00  0.00    -0.269 OA
ATOM      6  H   UNL A   1      35.418  30.985  27.655  1.00  0.00     0.163 HD
BRANCH   4   7
ATOM      7  C   UNL A   1      33.207  28.697  26.419  1.00  0.00     0.044 A 
ATOM      8  C   UNL A   1      33.086  29.322  23.928  1.00  0.00     0.047 C 
ATOM      9  C   UNL A   1      32.583  28.614  25.148  1.00  0.00    -0.015 A 
ATOM     10  C   UNL A   1      31.361  27.884  25.006  1.00  0.00     0.045 A 
ATOM     11  C   UNL A   1      30.767  27.246  26.096  1.00  0.00     0.026 A 
ATOM     12  C   UNL A   1      32.563  28.010  27.487  1.00  0.00     0.014 A 
ATOM     13  C   UNL A   1      31.368  27.307  27.338  1.00  0.00     0.003 A 
BRANCH  10  14
ATOM     14  N   UNL A   1      30.762  27.779  23.734  1.00  0.00    -0.322 N 
ATOM     15  C   UNL A   1      31.123  27.081  22.607  1.00  0.00     0.255 C 
ATOM     16  H   UNL A   1      29.933  28.302  23.636  1.00  0.00     0.170 HD
ATOM     17  O   UNL A   1      30.646  27.410  21.519  1.00  0.00    -0.269 OA
BRANCH  15  18
ATOM     18  C   UNL A   1      31.978  25.858  22.653  1.00  0.00     0.040 A 
ATOM     19  C   UNL A   1      32.553  25.427  21.450  1.00  0.00     0.014 A 
ATOM     20  C   UNL A   1      32.110  25.053  23.793  1.00  0.00     0.022 A 
ATOM     21  C   UNL A   1      33.279  24.238  21.396  1.00  0.00     0.001 A 
ATOM     22  C   UNL A   1      32.855  23.860  23.759  1.00  0.00    -0.010 A 
ATOM     23  C   UNL A   1      33.436  23.465  22.545  1.00  0.00     0.009 A 
BRANCH  22  24
ATOM     24  C   UNL A   1      32.964  22.926  24.910  1.00  0.00     0.068 A 
ATOM     25  C   UNL A   1      33.714  21.802  24.885  1.00  0.00     0.028 A 
ATOM     26  C   UNL A   1      33.074  23.600  26.244  1.00  0.00     0.344 A 
ATOM     27  C   UNL A   1      35.136  22.071  25.200  1.00  0.00     0.018 A 
ATOM     28  O   UNL A   1      34.385  23.920  26.599  1.00  0.00    -0.422 OA
ATOM     29  O   UNL A   1      32.095  23.906  26.913  1.00  0.00    -0.246 OA
ATOM     30  C   UNL A   1      36.171  21.284  24.708  1.00  0.00     0.012 A 
ATOM     31  C   UNL A   1      35.429  23.197  25.982  1.00  0.00     0.138 A 
ATOM     32  C   UNL A   1      37.490  21.666  24.960  1.00  0.00     0.001 A 
ATOM     33  C   UNL A   1      36.736  23.609  26.197  1.00  0.00     0.048 A 
ATOM     34  C   UNL A   1      37.770  22.838  25.671  1.00  0.00     0.004 A 
ENDBRANCH  22  24
ENDBRANCH  15  18
ENDBRANCH  10  14
ENDBRANCH   4   7
ENDBRANCH   2   3
ENDBRANCH   1   2
BRANCH   1  35
ATOM     35  C   UNL A   1      35.701  33.438  27.902  1.00  0.00     0.023 C 
BRANCH  35  36
ATOM     36  C   UNL A   1      36.866  32.985  28.764  1.00  0.00     0.116 C 
BRANCH  36  37
ATOM     37  N   UNL A   1      36.545  32.629  30.142  1.00  0.00    -0.352 N 
ATOM     38  C   UNL A   1      36.509  31.362  30.703  1.00  0.00     0.251 C 
ATOM     39  H   UNL A   1      36.328  33.377  30.744  1.00  0.00     0.163 HD
ATOM     40  O   UNL A   1      36.075  31.166  31.837  1.00  0.00    -0.269 OA
BRANCH  38  41
ATOM     41  C   UNL A   1      37.123  30.240  29.945  1.00  0.00     0.039 A 
ATOM     42  C   UNL A   1      37.174  28.996  30.581  1.00  0.00     0.014 A 
ATOM     43  C   UNL A   1      37.912  30.504  28.832  1.00  0.00     0.014 A 
ATOM     44  C   UNL A   1      38.213  28.124  30.269  1.00  0.00     0.010 A 
ATOM     45  C   UNL A   1      39.015  29.703  28.620  1.00  0.00     0.010 A 
ATOM     46  C   UNL A   1      39.208  28.548  29.387  1.00  0.00    -0.014 A 
BRANCH  46  47
ATOM     47  C   UNL A   1      40.542  27.950  29.352  1.00  0.00     0.031 A 
ATOM     48  C   UNL A   1      40.741  26.558  28.897  1.00  0.00     0.074 A 
ATOM     49  C   UNL A   1      41.623  28.697  29.672  1.00  0.00     0.049 A 
ATOM     50  N   UNL A   1      41.754  25.823  29.212  1.00  0.00    -0.248 NA
ATOM     51  C   UNL A   1      39.762  25.856  28.078  1.00  0.00     0.031 C 
ATOM     52  C   UNL A   1      43.027  28.372  29.439  1.00  0.00     0.029 A 
ATOM     53  N   UNL A   1      41.663  29.810  30.507  1.00  0.00    -0.354 N 
ATOM     54  C   UNL A   1      41.729  24.705  28.408  1.00  0.00     0.074 A 
ATOM     55  C   UNL A   1      40.424  24.732  27.794  1.00  0.00     0.031 C 
ATOM     56  C   UNL A   1      43.785  29.076  30.295  1.00  0.00     0.029 A 
ATOM     57  C   UNL A   1      42.889  29.779  31.193  1.00  0.00     0.049 A 
ATOM     58  H   UNL A   1      40.961  30.493  30.600  1.00  0.00     0.167 HD
ATOM     59  C   UNL A   1      42.872  23.975  28.243  1.00  0.00     0.034 A 
ATOM     60  C   UNL A   1      42.929  29.717  32.556  1.00  0.00     0.034 A 
ATOM     61  C   UNL A   1      43.941  24.446  29.133  1.00  0.00     0.049 A 
ATOM     62  C   UNL A   1      43.588  28.463  33.086  1.00  0.00     0.074 A 
ATOM     63  C   UNL A   1      45.082  25.205  28.925  1.00  0.00     0.029 A 
ATOM     64  N   UNL A   1      43.774  24.368  30.514  1.00  0.00    -0.354 N 
ATOM     65  N   UNL A   1      43.872  27.421  32.354  1.00  0.00    -0.248 NA
ATOM     66  C   UNL A   1      43.965  28.275  34.484  1.00  0.00     0.031 C 
ATOM     67  C   UNL A   1      45.557  25.642  30.190  1.00  0.00     0.029 A 
ATOM     68  C   UNL A   1      44.728  25.125  31.169  1.00  0.00     0.049 A 
ATOM     69  H   UNL A   1      43.071  23.845  30.963  1.00  0.00     0.167 HD
ATOM     70  C   UNL A   1      44.414  26.434  33.138  1.00  0.00     0.074 A 
ATOM     71  C   UNL A   1      44.482  27.033  34.460  1.00  0.00     0.031 C 
ATOM     72  C   UNL A   1      44.743  25.207  32.626  1.00  0.00     0.034 A 
BRANCH  59  73
ATOM     73  C   UNL A   1      43.129  23.056  27.058  1.00  0.00     0.023 A 
ATOM     74  C   UNL A   1      42.642  21.731  27.095  1.00  0.00     0.031 A 
ATOM     75  C   UNL A   1      43.893  23.369  25.915  1.00  0.00     0.131 A 
ATOM     76  C   UNL A   1      43.011  20.777  26.126  1.00  0.00     0.055 A 
ATOM     77  C   UNL A   1      44.309  22.409  24.981  1.00  0.00     0.041 A 
ATOM     78  F   UNL A   1      44.220  24.627  25.602  1.00  0.00    -0.206 F 
ATOM     79  C   UNL A   1      43.882  21.098  25.092  1.00  0.00     0.022 A 
BRANCH  76  80
ATOM     80  S   UNL A   1      42.336  19.096  26.234  1.00  0.00     0.124 S 
ATOM     81  O   UNL A   1      42.481  18.795  27.653  1.00  0.00    -0.237 OA
ATOM     82  O   UNL A   1      40.973  19.281  25.746  1.00  0.00    -0.237 OA
ATOM     83  O   UNL A   1      43.207  18.324  25.347  1.00  0.00    -0.744 OA
ENDBRANCH  76  80
ENDBRANCH  59  73
BRANCH  60  84
ATOM     84  C   UNL A   1      41.820  30.475  33.200  1.00  0.00     0.023 A 
ATOM     85  C   UNL A   1      41.852  31.879  33.050  1.00  0.00     0.031 A 
ATOM     86  C   UNL A   1      40.601  29.880  33.545  1.00  0.00     0.131 A 
ATOM     87  C   UNL A   1      40.662  32.618  33.054  1.00  0.00     0.055 A 
ATOM     88  C   UNL A   1      39.424  30.637  33.631  1.00  0.00     0.041 A 
ATOM     89  F   UNL A   1      40.500  28.548  33.664  1.00  0.00    -0.206 F 
ATOM     90  C   UNL A   1      39.442  32.003  33.336  1.00  0.00     0.022 A 
BRANCH  87  91
ATOM     91  S   UNL A   1      40.700  34.313  32.390  1.00  0.00     0.124 S 
ATOM     92  O   UNL A   1      41.282  34.110  31.069  1.00  0.00    -0.237 OA
ATOM     93  O   UNL A   1      39.291  34.706  32.412  1.00  0.00    -0.237 OA
ATOM     94  O   UNL A   1      41.533  35.035  33.348  1.00  0.00    -0.744 OA
ENDBRANCH  87  91
ENDBRANCH  60  84
BRANCH  72  95
ATOM     95  C   UNL A   1      45.182  23.995  33.426  1.00  0.00     0.023 A 
ATOM     96  C   UNL A   1      46.472  23.831  33.952  1.00  0.00     0.031 A 
ATOM     97  C   UNL A   1      44.258  22.970  33.754  1.00  0.00     0.131 A 
ATOM     98  C   UNL A   1      46.826  22.678  34.678  1.00  0.00     0.055 A 
ATOM     99  C   UNL A   1      44.588  21.864  34.544  1.00  0.00     0.041 A 
ATOM    100  F   UNL A   1      42.987  23.000  33.325  1.00  0.00    -0.206 F 
ATOM    101  C   UNL A   1      45.886  21.703  34.998  1.00  0.00     0.022 A 
BRANCH  98 102
ATOM    102  S   UNL A   1      48.563  22.450  35.143  1.00  0.00     0.124 S 
ATOM    103  O   UNL A   1      49.196  23.601  34.506  1.00  0.00    -0.237 OA
ATOM    104  O   UNL A   1      48.505  22.485  36.601  1.00  0.00    -0.237 OA
ATOM    105  O   UNL A   1      48.909  21.153  34.565  1.00  0.00    -0.744 OA
ENDBRANCH  98 102
ENDBRANCH  72  95
ENDBRANCH  46  47
ENDBRANCH  38  41
ENDBRANCH  36  37
ENDBRANCH  35  36
ENDBRANCH   1  35
TORSDOF 17
ENDMDL
MODEL 2
REMARK VINA RESULT:     -13.5      3.864      9.814
REMARK SMILES Cc1c(NC(=O)c2cccc(-c3cc4ccccc4oc3=O)c2)cccc1C(=O)NCCCCNC(=O)c1ccc(-c2c3nc(c(-c4cc(S(=O)(=O)[O-])ccc4F)c4ccc([nH]4)c(-c4cc(S(=O)(=O)[O-])ccc4F)c4nc(c(-c5cc(S(=O)(=O)[O-])ccc5F)c5ccc2[nH]5)C=C4)C=C3)cc1
REMARK SMILES IDX 32 1 31 2 30 3 28 4 29 5 27 7 1 8 2 9 3 10 24 11 26 12 25 13
REMARK SMILES IDX 4 14 5 15 6 17 7 18 8 19 23 20 9 21 11 22 10 23 12 24 13 25
REMARK SMILES IDX 21 26 14 27 20 28 22 29 15 30 19 31 16 32 18 33 17 34 33 35
REMARK SMILES IDX 34 36 35 37 36 38 37 40 38 41 39 42 100 43 40 44 99 45 41 46
REMARK SMILES IDX 42 47 43 48 93 49 44 50 98 51 92 52 94 53 45 54 97 55 91 56
REMARK SMILES IDX 90 57 46 59 78 60 58 61 77 62 59 63 62 64 76 65 95 66 60 67
REMARK SMILES IDX 61 68 75 70 96 71 63 72 47 73 48 74 56 75 49 76 55 77 57 78
REMARK SMILES IDX 54 79 50 80 51 81 52 82 53 83 79 84 80 85 88 86 81 87 87 88
REMARK SMILES IDX 89 89 86 90 82 91 83 92 84 93 85 94 64 95 65 96 73 97 66 98
REMARK SMILES IDX 72 99 74 100 71 101 67 102 68 103 69 104 70 105
REMARK H PARENT 30 6 4 16 35 39 94 58 62 69
REMARK Flexibility Score: inf
ROOT
ATOM      1  C   UNL A   1      37.952  24.030  26.577  1.00  0.00     0.023 C 
ENDROOT
BRANCH   1   2
ATOM      2  C   UNL A   1      37.144  23.121  25.629  1.00  0.00     0.116 C 
BRANCH   2   3
ATOM      3  N   UNL A   1      36.039  22.474  26.316  1.00  0.00    -0.352 N 
ATOM      4  C   UNL A   1      34.706  22.241  26.121  1.00  0.00     0.251 C 
ATOM      5  O   UNL A   1      34.201  21.626  27.077  1.00  0.00    -0.269 OA
ATOM      6  H   UNL A   1      36.338  22.091  27.172  1.00  0.00     0.163 HD
BRANCH   4   7
ATOM      7  C   UNL A   1      33.772  22.621  24.985  1.00  0.00     0.044 A 
ATOM      8  C   UNL A   1      35.389  23.345  23.121  1.00  0.00     0.047 C 
ATOM      9  C   UNL A   1      34.018  23.136  23.686  1.00  0.00    -0.015 A 
ATOM     10  C   UNL A   1      32.919  23.559  22.873  1.00  0.00     0.045 A 
ATOM     11  C   UNL A   1      31.604  23.474  23.330  1.00  0.00     0.026 A 
ATOM     12  C   UNL A   1      32.408  22.543  25.387  1.00  0.00     0.014 A 
ATOM     13  C   UNL A   1      31.346  22.965  24.589  1.00  0.00     0.003 A 
BRANCH  10  14
ATOM     14  N   UNL A   1      33.167  24.040  21.571  1.00  0.00    -0.322 N 
ATOM     15  C   UNL A   1      32.897  25.249  20.975  1.00  0.00     0.255 C 
ATOM     16  H   UNL A   1      33.617  23.392  20.982  1.00  0.00     0.170 HD
ATOM     17  O   UNL A   1      32.890  25.322  19.745  1.00  0.00    -0.269 OA
BRANCH  15  18
ATOM     18  C   UNL A   1      32.730  26.514  21.750  1.00  0.00     0.040 A 
ATOM     19  C   UNL A   1      33.868  27.310  21.936  1.00  0.00     0.014 A 
ATOM     20  C   UNL A   1      31.545  26.861  22.413  1.00  0.00     0.022 A 
ATOM     21  C   UNL A   1      33.812  28.453  22.733  1.00  0.00     0.001 A 
ATOM     22  C   UNL A   1      31.467  28.020  23.207  1.00  0.00    -0.010 A 
ATOM     23  C   UNL A   1      32.617  28.809  23.357  1.00  0.00     0.009 A 
BRANCH  22  24
ATOM     24  C   UNL A   1      30.266  28.396  23.996  1.00  0.00     0.068 A 
ATOM     25  C   UNL A   1      29.979  29.670  24.349  1.00  0.00     0.028 A 
ATOM     26  C   UNL A   1      29.017  27.666  23.607  1.00  0.00     0.344 A 
ATOM     27  C   UNL A   1      29.278  30.403  23.271  1.00  0.00     0.018 A 
ATOM     28  O   UNL A   1      28.316  28.278  22.568  1.00  0.00    -0.422 OA
ATOM     29  O   UNL A   1      28.695  26.595  24.106  1.00  0.00    -0.246 OA
ATOM     30  C   UNL A   1      29.377  31.782  23.121  1.00  0.00     0.012 A 
ATOM     31  C   UNL A   1      28.535  29.655  22.347  1.00  0.00     0.138 A 
ATOM     32  C   UNL A   1      28.777  32.387  22.015  1.00  0.00     0.001 A 
ATOM     33  C   UNL A   1      27.976  30.242  21.222  1.00  0.00     0.048 A 
ATOM     34  C   UNL A   1      28.109  31.618  21.055  1.00  0.00     0.004 A 
ENDBRANCH  22  24
ENDBRANCH  15  18
ENDBRANCH  10  14
ENDBRANCH   4   7
ENDBRANCH   2   3
ENDBRANCH   1   2
BRANCH   1  35
ATOM     35  C   UNL A   1      39.241  23.435  27.141  1.00  0.00     0.023 C 
BRANCH  35  36
ATOM     36  C   UNL A   1      40.378  23.445  26.135  1.00  0.00     0.116 C 
BRANCH  36  37
ATOM     37  N   UNL A   1      40.993  22.154  25.848  1.00  0.00    -0.352 N 
ATOM     38  C   UNL A   1      42.306  21.770  26.079  1.00  0.00     0.251 C 
ATOM     39  H   UNL A   1      40.407  21.475  25.442  1.00  0.00     0.163 HD
ATOM     40  O   UNL A   1      42.756  20.707  25.656  1.00  0.00    -0.269 OA
BRANCH  38  41
ATOM     41  C   UNL A   1      43.142  22.624  26.963  1.00  0.00     0.039 A 
ATOM     42  C   UNL A   1      42.922  22.521  28.339  1.00  0.00     0.014 A 
ATOM     43  C   UNL A   1      43.834  23.705  26.431  1.00  0.00     0.014 A 
ATOM     44  C   UNL A   1      43.153  23.634  29.142  1.00  0.00     0.010 A 
ATOM     45  C   UNL A   1      43.935  24.847  27.199  1.00  0.00     0.010 A 
ATOM     46  C   UNL A   1      43.526  24.835  28.538  1.00  0.00    -0.014 A 
BRANCH  46  47
ATOM     47  C   UNL A   1      43.335  26.136  29.179  1.00  0.00     0.031 A 
ATOM     48  C   UNL A   1      42.051  26.858  29.070  1.00  0.00     0.074 A 
ATOM     49  C   UNL A   1      44.320  26.660  29.943  1.00  0.00     0.049 A 
ATOM     50  N   UNL A   1      41.913  28.133  29.220  1.00  0.00    -0.248 NA
ATOM     51  C   UNL A   1      40.806  26.190  28.720  1.00  0.00     0.031 C 
ATOM     52  C   UNL A   1      44.223  27.787  30.867  1.00  0.00     0.029 A 
ATOM     53  N   UNL A   1      45.688  26.416  29.844  1.00  0.00    -0.354 N 
ATOM     54  C   UNL A   1      40.565  28.403  29.306  1.00  0.00     0.074 A 
ATOM     55  C   UNL A   1      39.925  27.178  28.895  1.00  0.00     0.031 C 
ATOM     56  C   UNL A   1      45.447  28.306  31.052  1.00  0.00     0.029 A 
ATOM     57  C   UNL A   1      46.353  27.613  30.155  1.00  0.00     0.049 A 
ATOM     58  H   UNL A   1      46.109  25.562  29.600  1.00  0.00     0.167 HD
ATOM     59  C   UNL A   1      40.155  29.582  29.860  1.00  0.00     0.034 A 
ATOM     60  C   UNL A   1      47.178  28.214  29.248  1.00  0.00     0.034 A 
ATOM     61  C   UNL A   1      41.292  30.472  30.130  1.00  0.00     0.049 A 
ATOM     62  C   UNL A   1      46.716  29.591  28.827  1.00  0.00     0.074 A 
ATOM     63  C   UNL A   1      41.964  30.826  31.289  1.00  0.00     0.029 A 
ATOM     64  N   UNL A   1      42.072  30.933  29.073  1.00  0.00    -0.354 N 
ATOM     65  N   UNL A   1      45.534  30.078  29.092  1.00  0.00    -0.248 NA
ATOM     66  C   UNL A   1      47.538  30.523  28.063  1.00  0.00     0.031 C 
ATOM     67  C   UNL A   1      43.189  31.440  30.918  1.00  0.00     0.029 A 
ATOM     68  C   UNL A   1      43.250  31.491  29.537  1.00  0.00     0.049 A 
ATOM     69  H   UNL A   1      41.820  30.872  28.123  1.00  0.00     0.167 HD
ATOM     70  C   UNL A   1      45.407  31.324  28.532  1.00  0.00     0.074 A 
ATOM     71  C   UNL A   1      46.704  31.571  27.926  1.00  0.00     0.031 C 
ATOM     72  C   UNL A   1      44.237  32.031  28.607  1.00  0.00     0.034 A 
BRANCH  59  73
ATOM     73  C   UNL A   1      38.773  29.804  30.458  1.00  0.00     0.023 A 
ATOM     74  C   UNL A   1      37.891  30.713  29.834  1.00  0.00     0.031 A 
ATOM     75  C   UNL A   1      38.284  29.237  31.652  1.00  0.00     0.131 A 
ATOM     76  C   UNL A   1      36.682  31.110  30.440  1.00  0.00     0.055 A 
ATOM     77  C   UNL A   1      37.112  29.672  32.286  1.00  0.00     0.041 A 
ATOM     78  F   UNL A   1      38.875  28.189  32.235  1.00  0.00    -0.206 F 
ATOM     79  C   UNL A   1      36.309  30.627  31.689  1.00  0.00     0.022 A 
BRANCH  76  80
ATOM     80  S   UNL A   1      35.594  32.274  29.572  1.00  0.00     0.124 S 
ATOM     81  O   UNL A   1      35.090  31.463  28.470  1.00  0.00    -0.237 OA
ATOM     82  O   UNL A   1      34.632  32.628  30.611  1.00  0.00    -0.237 OA
ATOM     83  O   UNL A   1      36.499  33.354  29.179  1.00  0.00    -0.744 OA
ENDBRANCH  76  80
ENDBRANCH  59  73
BRANCH  60  84
ATOM     84  C   UNL A   1      47.920  27.233  28.407  1.00  0.00     0.023 A 
ATOM     85  C   UNL A   1      47.349  26.925  27.153  1.00  0.00     0.031 A 
ATOM     86  C   UNL A   1      49.280  26.958  28.594  1.00  0.00     0.131 A 
ATOM     87  C   UNL A   1      48.163  26.543  26.079  1.00  0.00     0.055 A 
ATOM     88  C   UNL A   1      50.077  26.493  27.537  1.00  0.00     0.041 A 
ATOM     89  F   UNL A   1      49.887  27.263  29.750  1.00  0.00    -0.206 F 
ATOM     90  C   UNL A   1      49.530  26.332  26.262  1.00  0.00     0.022 A 
BRANCH  87  91
ATOM     91  S   UNL A   1      47.466  26.624  24.399  1.00  0.00     0.124 S 
ATOM     92  O   UNL A   1      47.904  25.358  23.826  1.00  0.00    -0.237 OA
ATOM     93  O   UNL A   1      46.028  26.749  24.646  1.00  0.00    -0.237 OA
ATOM     94  O   UNL A   1      48.078  27.824  23.835  1.00  0.00    -0.744 OA
ENDBRANCH  87  91
ENDBRANCH  60  84
BRANCH  72  95
ATOM     95  C   UNL A   1      43.930  33.329  27.883  1.00  0.00     0.023 A 
ATOM     96  C   UNL A   1      43.852  34.577  28.517  1.00  0.00     0.031 A 
ATOM     97  C   UNL A   1      43.775  33.352  26.473  1.00  0.00     0.131 A 
ATOM     98  C   UNL A   1      43.553  35.749  27.793  1.00  0.00     0.055 A 
ATOM     99  C   UNL A   1      43.558  34.527  25.745  1.00  0.00     0.041 A 
ATOM    100  F   UNL A   1      43.834  32.233  25.736  1.00  0.00    -0.206 F 
ATOM    101  C   UNL A   1      43.429  35.736  26.407  1.00  0.00     0.022 A 
BRANCH  98 102
ATOM    102  S   UNL A   1      43.268  37.282  28.716  1.00  0.00     0.124 S 
ATOM    103  O   UNL A   1      41.895  37.607  28.340  1.00  0.00    -0.237 OA
ATOM    104  O   UNL A   1      43.463  36.858  30.099  1.00  0.00    -0.237 OA
ATOM    105  O   UNL A   1      44.286  38.194  28.196  1.00  0.00    -0.744 OA
ENDBRANCH  98 102
ENDBRANCH  72  95
ENDBRANCH  46  47
ENDBRANCH  38  41
ENDBRANCH  36  37
ENDBRANCH  35  36
ENDBRANCH   1  35
TORSDOF 17
ENDMDL
MODEL 3
REMARK VINA RESULT:     -13.5      4.004     10.112
REMARK SMILES Cc1c(NC(=O)c2cccc(-c3cc4ccccc4oc3=O)c2)cccc1C(=O)NCCCCNC(=O)c1ccc(-c2c3nc(c(-c4cc(S(=O)(=O)[O-])ccc4F)c4ccc([nH]4)c(-c4cc(S(=O)(=O)[O-])ccc4F)c4nc(c(-c5cc(S(=O)(=O)[O-])ccc5F)c5ccc2[nH]5)C=C4)C=C3)cc1
REMARK SMILES IDX 32 1 31 2 30 3 28 4 29 5 27 7 1 8 2 9 3 10 24 11 26 12 25 13
REMARK SMILES IDX 4 14 5 15 6 17 7 18 8 19 23 20 9 21 11 22 10 23 12 24 13 25
REMARK SMILES IDX 21 26 14 27 20 28 22 29 15 30 19 31 16 32 18 33 17 34 33 35
REMARK SMILES IDX 34 36 35 37 36 38 37 40 38 41 39 42 100 43 40 44 99 45 41 46
REMARK SMILES IDX 42 47 43 48 93 49 44 50 98 51 92 52 94 53 45 54 97 55 91 56
REMARK SMILES IDX 90 57 46 59 78 60 58 61 77 62 59 63 62 64 76 65 95 66 60 67
REMARK SMILES IDX 61 68 75 70 96 71 63 72 47 73 48 74 56 75 49 76 55 77 57 78
REMARK SMILES IDX 54 79 50 80 51 81 52 82 53 83 79 84 80 85 88 86 81 87 87 88
REMARK SMILES IDX 89 89 86 90 82 91 83 92 84 93 85 94 64 95 65 96 73 97 66 98
REMARK SMILES IDX 72 99 74 100 71 101 67 102 68 103 69 104 70 105
REMARK H PARENT 30 6 4 16 35 39 94 58 62 69
REMARK Flexibility Score: inf
ROOT
ATOM      1  C   UNL A   1      41.479  18.993  25.936  1.00  0.00     0.023 C 
ENDROOT
BRANCH   1   2
ATOM      2  C   UNL A   1      40.671  19.872  26.911  1.00  0.00     0.116 C 
BRANCH   2   3
ATOM      3  N   UNL A   1      40.688  21.270  26.514  1.00  0.00    -0.352 N 
ATOM      4  C   UNL A   1      39.800  22.239  26.135  1.00  0.00     0.251 C 
ATOM      5  O   UNL A   1      40.373  23.311  25.874  1.00  0.00    -0.269 OA
ATOM      6  H   UNL A   1      41.607  21.623  26.520  1.00  0.00     0.163 HD
BRANCH   4   7
ATOM      7  C   UNL A   1      38.291  22.210  25.960  1.00  0.00     0.044 A 
ATOM      8  C   UNL A   1      37.870  19.895  24.925  1.00  0.00     0.047 C 
ATOM      9  C   UNL A   1      37.418  21.237  25.410  1.00  0.00    -0.015 A 
ATOM     10  C   UNL A   1      36.034  21.552  25.226  1.00  0.00     0.045 A 
ATOM     11  C   UNL A   1      35.521  22.801  25.578  1.00  0.00     0.026 A 
ATOM     12  C   UNL A   1      37.705  23.458  26.316  1.00  0.00     0.014 A 
ATOM     13  C   UNL A   1      36.357  23.756  26.125  1.00  0.00     0.003 A 
BRANCH  10  14
ATOM     14  N   UNL A   1      35.165  20.570  24.708  1.00  0.00    -0.322 N 
ATOM     15  C   UNL A   1      33.793  20.478  24.692  1.00  0.00     0.255 C 
ATOM     16  H   UNL A   1      35.624  19.811  24.281  1.00  0.00     0.170 HD
ATOM     17  O   UNL A   1      33.268  19.380  24.499  1.00  0.00    -0.269 OA
BRANCH  15  18
ATOM     18  C   UNL A   1      32.903  21.673  24.775  1.00  0.00     0.040 A 
ATOM     19  C   UNL A   1      32.035  21.755  25.871  1.00  0.00     0.014 A 
ATOM     20  C   UNL A   1      32.792  22.625  23.751  1.00  0.00     0.022 A 
ATOM     21  C   UNL A   1      31.104  22.789  25.964  1.00  0.00     0.001 A 
ATOM     22  C   UNL A   1      31.871  23.685  23.839  1.00  0.00    -0.010 A 
ATOM     23  C   UNL A   1      31.029  23.752  24.958  1.00  0.00     0.009 A 
BRANCH  22  24
ATOM     24  C   UNL A   1      31.652  24.675  22.752  1.00  0.00     0.068 A 
ATOM     25  C   UNL A   1      30.836  25.745  22.878  1.00  0.00     0.028 A 
ATOM     26  C   UNL A   1      32.891  25.047  21.997  1.00  0.00     0.344 A 
ATOM     27  C   UNL A   1      31.508  26.887  23.538  1.00  0.00     0.018 A 
ATOM     28  O   UNL A   1      33.603  26.097  22.578  1.00  0.00    -0.422 OA
ATOM     29  O   UNL A   1      33.274  24.431  21.010  1.00  0.00    -0.246 OA
ATOM     30  C   UNL A   1      30.812  27.833  24.282  1.00  0.00     0.012 A 
ATOM     31  C   UNL A   1      32.904  26.969  23.441  1.00  0.00     0.138 A 
ATOM     32  C   UNL A   1      31.528  28.818  24.965  1.00  0.00     0.001 A 
ATOM     33  C   UNL A   1      33.626  27.914  24.153  1.00  0.00     0.048 A 
ATOM     34  C   UNL A   1      32.927  28.837  24.927  1.00  0.00     0.004 A 
ENDBRANCH  22  24
ENDBRANCH  15  18
ENDBRANCH  10  14
ENDBRANCH   4   7
ENDBRANCH   2   3
ENDBRANCH   1   2
BRANCH   1  35
ATOM     35  C   UNL A   1      42.995  19.003  26.120  1.00  0.00     0.023 C 
BRANCH  35  36
ATOM     36  C   UNL A   1      43.721  19.659  24.959  1.00  0.00     0.116 C 
BRANCH  36  37
ATOM     37  N   UNL A   1      45.021  20.248  25.264  1.00  0.00    -0.352 N 
ATOM     38  C   UNL A   1      45.291  21.553  25.646  1.00  0.00     0.251 C 
ATOM     39  H   UNL A   1      45.797  19.647  25.190  1.00  0.00     0.163 HD
ATOM     40  O   UNL A   1      46.441  21.981  25.730  1.00  0.00    -0.269 OA
BRANCH  38  41
ATOM     41  C   UNL A   1      44.153  22.409  26.077  1.00  0.00     0.039 A 
ATOM     42  C   UNL A   1      43.873  23.533  25.296  1.00  0.00     0.014 A 
ATOM     43  C   UNL A   1      43.645  22.290  27.364  1.00  0.00     0.014 A 
ATOM     44  C   UNL A   1      43.317  24.654  25.907  1.00  0.00     0.010 A 
ATOM     45  C   UNL A   1      43.222  23.440  27.998  1.00  0.00     0.010 A 
ATOM     46  C   UNL A   1      43.126  24.644  27.289  1.00  0.00    -0.014 A 
BRANCH  46  47
ATOM     47  C   UNL A   1      43.012  25.867  28.081  1.00  0.00     0.031 A 
ATOM     48  C   UNL A   1      41.784  26.688  28.043  1.00  0.00     0.074 A 
ATOM     49  C   UNL A   1      44.013  26.223  28.918  1.00  0.00     0.049 A 
ATOM     50  N   UNL A   1      41.731  27.942  28.346  1.00  0.00    -0.248 NA
ATOM     51  C   UNL A   1      40.503  26.158  27.596  1.00  0.00     0.031 C 
ATOM     52  C   UNL A   1      43.974  27.234  29.971  1.00  0.00     0.029 A 
ATOM     53  N   UNL A   1      45.362  25.895  28.808  1.00  0.00    -0.354 N 
ATOM     54  C   UNL A   1      40.404  28.296  28.446  1.00  0.00     0.074 A 
ATOM     55  C   UNL A   1      39.690  27.179  27.879  1.00  0.00     0.031 C 
ATOM     56  C   UNL A   1      45.226  27.637  30.235  1.00  0.00     0.029 A 
ATOM     57  C   UNL A   1      46.102  26.995  29.273  1.00  0.00     0.049 A 
ATOM     58  H   UNL A   1      45.729  25.048  28.467  1.00  0.00     0.167 HD
ATOM     59  C   UNL A   1      40.065  29.426  29.134  1.00  0.00     0.034 A 
ATOM     60  C   UNL A   1      46.988  27.639  28.458  1.00  0.00     0.034 A 
ATOM     61  C   UNL A   1      41.255  30.192  29.527  1.00  0.00     0.049 A 
ATOM     62  C   UNL A   1      46.632  29.087  28.203  1.00  0.00     0.074 A 
ATOM     63  C   UNL A   1      41.923  30.354  30.731  1.00  0.00     0.029 A 
ATOM     64  N   UNL A   1      42.089  30.721  28.545  1.00  0.00    -0.354 N 
ATOM     65  N   UNL A   1      45.481  29.622  28.509  1.00  0.00    -0.248 NA
ATOM     66  C   UNL A   1      47.535  30.044  27.570  1.00  0.00     0.031 C 
ATOM     67  C   UNL A   1      43.196  30.919  30.455  1.00  0.00     0.029 A 
ATOM     68  C   UNL A   1      43.292  31.131  29.091  1.00  0.00     0.049 A 
ATOM     69  H   UNL A   1      41.855  30.793  27.592  1.00  0.00     0.167 HD
ATOM     70  C   UNL A   1      45.454  30.933  28.104  1.00  0.00     0.074 A 
ATOM     71  C   UNL A   1      46.779  31.157  27.551  1.00  0.00     0.031 C 
ATOM     72  C   UNL A   1      44.335  31.708  28.248  1.00  0.00     0.034 A 
BRANCH  59  73
ATOM     73  C   UNL A   1      38.688  29.672  29.735  1.00  0.00     0.023 A 
ATOM     74  C   UNL A   1      37.941  30.792  29.308  1.00  0.00     0.031 A 
ATOM     75  C   UNL A   1      38.084  28.920  30.763  1.00  0.00     0.131 A 
ATOM     76  C   UNL A   1      36.755  31.186  29.960  1.00  0.00     0.055 A 
ATOM     77  C   UNL A   1      36.937  29.341  31.451  1.00  0.00     0.041 A 
ATOM     78  F   UNL A   1      38.529  27.709  31.113  1.00  0.00    -0.206 F 
ATOM     79  C   UNL A   1      36.273  30.491  31.062  1.00  0.00     0.022 A 
BRANCH  76  80
ATOM     80  S   UNL A   1      35.843  32.629  29.346  1.00  0.00     0.124 S 
ATOM     81  O   UNL A   1      35.731  33.456  30.543  1.00  0.00    -0.237 OA
ATOM     82  O   UNL A   1      36.725  33.126  28.295  1.00  0.00    -0.237 OA
ATOM     83  O   UNL A   1      34.583  32.057  28.872  1.00  0.00    -0.744 OA
ENDBRANCH  76  80
ENDBRANCH  59  73
BRANCH  60  84
ATOM     84  C   UNL A   1      47.678  26.717  27.514  1.00  0.00     0.023 A 
ATOM     85  C   UNL A   1      47.398  26.901  26.142  1.00  0.00     0.031 A 
ATOM     86  C   UNL A   1      48.842  26.019  27.859  1.00  0.00     0.131 A 
ATOM     87  C   UNL A   1      48.355  26.568  25.174  1.00  0.00     0.055 A 
ATOM     88  C   UNL A   1      49.759  25.611  26.879  1.00  0.00     0.041 A 
ATOM     89  F   UNL A   1      49.180  25.847  29.144  1.00  0.00    -0.206 F 
ATOM     90  C   UNL A   1      49.541  25.928  25.535  1.00  0.00     0.022 A 
BRANCH  87  91
ATOM     91  S   UNL A   1      48.157  27.251  23.499  1.00  0.00     0.124 S 
ATOM     92  O   UNL A   1      49.259  28.201  23.425  1.00  0.00    -0.237 OA
ATOM     93  O   UNL A   1      48.277  26.068  22.645  1.00  0.00    -0.237 OA
ATOM     94  O   UNL A   1      46.817  27.831  23.523  1.00  0.00    -0.744 OA
ENDBRANCH  87  91
ENDBRANCH  60  84
BRANCH  72  95
ATOM     95  C   UNL A   1      44.136  33.103  27.685  1.00  0.00     0.023 A 
ATOM     96  C   UNL A   1      44.182  34.272  28.458  1.00  0.00     0.031 A 
ATOM     97  C   UNL A   1      43.961  33.302  26.291  1.00  0.00     0.131 A 
ATOM     98  C   UNL A   1      43.980  35.540  27.880  1.00  0.00     0.055 A 
ATOM     99  C   UNL A   1      43.841  34.568  25.707  1.00  0.00     0.041 A 
ATOM    100  F   UNL A   1      43.906  32.275  25.430  1.00  0.00    -0.206 F 
ATOM    101  C   UNL A   1      43.832  35.699  26.505  1.00  0.00     0.022 A 
BRANCH  98 102
ATOM    102  S   UNL A   1      43.850  36.977  28.978  1.00  0.00     0.124 S 
ATOM    103  O   UNL A   1      45.164  37.593  28.822  1.00  0.00    -0.237 OA
ATOM    104  O   UNL A   1      42.731  37.714  28.399  1.00  0.00    -0.237 OA
ATOM    105  O   UNL A   1      43.593  36.387  30.291  1.00  0.00    -0.744 OA
ENDBRANCH  98 102
ENDBRANCH  72  95
ENDBRANCH  46  47
ENDBRANCH  38  41
ENDBRANCH  36  37
ENDBRANCH  35  36
ENDBRANCH   1  35
TORSDOF 17
ENDMDL
