MODEL 1
REMARK VINA RESULT:     -12.0      0.000      0.000
REMARK SMILES CCc1cc(OC(F)(F)F)cc2c1O[C@@H](C(F)(F)F)C(C(=O)NCCCCNC(=O)c1ccc(-c3c4nc(c(-c5cc(S(=O)(=O)[O-])ccc5F)c5ccc([nH]5)c(-c5cc(S(=O)(=O)[O-])ccc5F)c5nc(c(-c6cc(S(=O)(=O)[O-])ccc6F)c6ccc3[nH]6)C=C5)C=C4)cc1)=C2
REMARK SMILES IDX 26 1 25 2 24 3 23 4 21 5 22 6 20 8 3 9 4 10 13 11 5 12 12 13
REMARK SMILES IDX 14 14 11 15 94 16 15 17 2 18 1 19 6 20 7 21 8 22 9 23 10 24
REMARK SMILES IDX 16 25 17 26 18 27 19 28 27 29 28 30 29 31 30 33 31 34 32 35
REMARK SMILES IDX 93 36 33 37 92 38 34 39 35 40 36 41 86 42 37 43 91 44 85 45
REMARK SMILES IDX 87 46 38 47 90 48 84 49 83 50 39 52 71 53 51 54 70 55 52 56
REMARK SMILES IDX 55 57 69 58 88 59 53 60 54 61 68 63 89 64 56 65 40 66 41 67
REMARK SMILES IDX 49 68 42 69 48 70 50 71 47 72 43 73 44 74 45 75 46 76 72 77
REMARK SMILES IDX 73 78 81 79 74 80 80 81 82 82 79 83 75 84 76 85 77 86 78 87
REMARK SMILES IDX 57 88 58 89 66 90 59 91 65 92 67 93 64 94 60 95 61 96 62 97
REMARK SMILES IDX 63 98
REMARK H PARENT 23 7 28 32 87 51 55 62
REMARK Flexibility Score: inf
ROOT
ATOM      1  C   UNL A   1      37.953  20.398  25.094  1.00  0.00     0.023 C 
ENDROOT
BRANCH   1   2
ATOM      2  C   UNL A   1      37.318  21.587  24.367  1.00  0.00     0.023 C 
BRANCH   2   3
ATOM      3  C   UNL A   1      36.621  22.593  25.291  1.00  0.00     0.116 C 
BRANCH   3   4
ATOM      4  N   UNL A   1      35.749  21.897  26.220  1.00  0.00    -0.352 N 
ATOM      5  C   UNL A   1      34.528  22.202  26.729  1.00  0.00     0.251 C 
ATOM      6  O   UNL A   1      34.083  21.502  27.635  1.00  0.00    -0.270 OA
ATOM      7  H   UNL A   1      36.114  21.041  26.543  1.00  0.00     0.163 HD
BRANCH   5   8
ATOM      8  C   UNL A   1      33.681  23.302  26.194  1.00  0.00     0.067 C 
ATOM      9  C   UNL A   1      31.181  26.187  24.427  1.00  0.00    -0.002 A 
ATOM     10  C   UNL A   1      31.419  27.549  24.693  1.00  0.00     0.054 A 
ATOM     11  C   UNL A   1      32.020  25.224  25.007  1.00  0.00     0.131 A 
ATOM     12  C   UNL A   1      32.472  27.943  25.523  1.00  0.00     0.130 A 
ATOM     13  C   UNL A   1      33.049  25.607  25.863  1.00  0.00     0.021 A 
ATOM     14  O   UNL A   1      31.848  23.923  24.634  1.00  0.00    -0.475 OA
ATOM     15  C   UNL A   1      33.271  26.965  26.118  1.00  0.00     0.058 A 
ATOM     16  C   UNL A   1      33.934  24.598  26.424  1.00  0.00     0.025 C 
ATOM     17  C   UNL A   1      32.387  22.886  25.505  1.00  0.00     0.314 C 
BRANCH   9  18
ATOM     18  C   UNL A   1      30.045  25.792  23.510  1.00  0.00     0.036 C 
ATOM     19  C   UNL A   1      28.717  26.442  23.886  1.00  0.00     0.009 C 
ENDBRANCH   9  18
BRANCH  12  20
ATOM     20  O   UNL A   1      32.835  29.222  25.829  1.00  0.00    -0.406 OA
BRANCH  20  21
ATOM     21  C   UNL A   1      32.339  29.785  27.030  1.00  0.00     0.573 C 
ATOM     22  F   UNL A   1      33.333  30.014  27.916  1.00  0.00    -0.132 F 
ATOM     23  F   UNL A   1      31.678  30.937  26.787  1.00  0.00    -0.132 F 
ATOM     24  F   UNL A   1      31.471  28.915  27.592  1.00  0.00    -0.132 F 
ENDBRANCH  20  21
ENDBRANCH  12  20
BRANCH  17  25
ATOM     25  C   UNL A   1      32.421  21.583  24.672  1.00  0.00     0.429 C 
ATOM     26  F   UNL A   1      32.140  20.483  25.404  1.00  0.00    -0.167 F 
ATOM     27  F   UNL A   1      31.471  21.615  23.695  1.00  0.00    -0.167 F 
ATOM     28  F   UNL A   1      33.607  21.396  24.051  1.00  0.00    -0.167 F 
ENDBRANCH  17  25
ENDBRANCH   5   8
ENDBRANCH   3   4
ENDBRANCH   2   3
ENDBRANCH   1   2
BRANCH   1  29
ATOM     29  C   UNL A   1      39.243  20.722  25.837  1.00  0.00     0.116 C 
BRANCH  29  30
ATOM     30  N   UNL A   1      40.144  19.584  25.936  1.00  0.00    -0.352 N 
ATOM     31  C   UNL A   1      41.497  19.588  26.174  1.00  0.00     0.251 C 
ATOM     32  H   UNL A   1      39.730  18.697  25.815  1.00  0.00     0.163 HD
ATOM     33  O   UNL A   1      42.135  18.545  26.113  1.00  0.00    -0.269 OA
BRANCH  31  34
ATOM     34  C   UNL A   1      42.172  20.874  26.450  1.00  0.00     0.039 A 
ATOM     35  C   UNL A   1      42.491  21.708  25.377  1.00  0.00     0.014 A 
ATOM     36  C   UNL A   1      42.446  21.269  27.762  1.00  0.00     0.014 A 
ATOM     37  C   UNL A   1      43.024  22.975  25.626  1.00  0.00     0.010 A 
ATOM     38  C   UNL A   1      42.915  22.554  28.010  1.00  0.00     0.010 A 
ATOM     39  C   UNL A   1      43.206  23.421  26.945  1.00  0.00    -0.014 A 
BRANCH  39  40
ATOM     40  C   UNL A   1      43.699  24.790  27.234  1.00  0.00     0.031 A 
ATOM     41  C   UNL A   1      42.758  25.823  27.788  1.00  0.00     0.074 A 
ATOM     42  C   UNL A   1      44.969  25.119  26.925  1.00  0.00     0.049 A 
ATOM     43  N   UNL A   1      42.966  27.093  28.022  1.00  0.00    -0.248 NA
ATOM     44  C   UNL A   1      41.391  25.371  28.085  1.00  0.00     0.031 C 
ATOM     45  C   UNL A   1      45.958  24.212  26.338  1.00  0.00     0.029 A 
ATOM     46  N   UNL A   1      45.642  26.308  27.049  1.00  0.00    -0.354 N 
ATOM     47  C   UNL A   1      41.753  27.597  28.477  1.00  0.00     0.074 A 
ATOM     48  C   UNL A   1      40.802  26.507  28.428  1.00  0.00     0.031 C 
ATOM     49  C   UNL A   1      47.114  24.874  26.168  1.00  0.00     0.029 A 
ATOM     50  C   UNL A   1      46.939  26.259  26.595  1.00  0.00     0.049 A 
ATOM     51  H   UNL A   1      45.234  27.121  27.426  1.00  0.00     0.167 HD
ATOM     52  C   UNL A   1      41.466  28.849  28.914  1.00  0.00     0.034 A 
ATOM     53  C   UNL A   1      47.877  27.223  26.523  1.00  0.00     0.034 A 
ATOM     54  C   UNL A   1      42.433  29.918  28.971  1.00  0.00     0.049 A 
ATOM     55  C   UNL A   1      47.537  28.606  27.016  1.00  0.00     0.074 A 
ATOM     56  C   UNL A   1      42.270  31.206  29.449  1.00  0.00     0.029 A 
ATOM     57  N   UNL A   1      43.747  29.824  28.526  1.00  0.00    -0.354 N 
ATOM     58  N   UNL A   1      46.400  29.055  27.493  1.00  0.00    -0.248 NA
ATOM     59  C   UNL A   1      48.612  29.607  26.973  1.00  0.00     0.031 C 
ATOM     60  C   UNL A   1      43.465  31.906  29.243  1.00  0.00     0.029 A 
ATOM     61  C   UNL A   1      44.396  31.037  28.698  1.00  0.00     0.049 A 
ATOM     62  H   UNL A   1      44.157  29.014  28.145  1.00  0.00     0.167 HD
ATOM     63  C   UNL A   1      46.632  30.384  27.835  1.00  0.00     0.074 A 
ATOM     64  C   UNL A   1      48.020  30.658  27.519  1.00  0.00     0.031 C 
ATOM     65  C   UNL A   1      45.778  31.295  28.369  1.00  0.00     0.034 A 
BRANCH  52  66
ATOM     66  C   UNL A   1      40.043  29.122  29.340  1.00  0.00     0.023 A 
ATOM     67  C   UNL A   1      39.672  29.150  30.697  1.00  0.00     0.031 A 
ATOM     68  C   UNL A   1      39.037  29.317  28.380  1.00  0.00     0.131 A 
ATOM     69  C   UNL A   1      38.321  29.281  31.051  1.00  0.00     0.055 A 
ATOM     70  C   UNL A   1      37.705  29.532  28.742  1.00  0.00     0.041 A 
ATOM     71  F   UNL A   1      39.326  29.283  27.069  1.00  0.00    -0.206 F 
ATOM     72  C   UNL A   1      37.338  29.498  30.084  1.00  0.00     0.022 A 
BRANCH  69  73
ATOM     73  S   UNL A   1      37.851  29.010  32.782  1.00  0.00     0.124 S 
ATOM     74  O   UNL A   1      36.588  29.742  32.862  1.00  0.00    -0.237 OA
ATOM     75  O   UNL A   1      37.753  27.557  32.858  1.00  0.00    -0.237 OA
ATOM     76  O   UNL A   1      38.955  29.603  33.533  1.00  0.00    -0.744 OA
ENDBRANCH  69  73
ENDBRANCH  52  66
BRANCH  53  77
ATOM     77  C   UNL A   1      49.224  26.922  25.962  1.00  0.00     0.023 A 
ATOM     78  C   UNL A   1      49.563  27.300  24.653  1.00  0.00     0.031 A 
ATOM     79  C   UNL A   1      50.182  26.224  26.718  1.00  0.00     0.131 A 
ATOM     80  C   UNL A   1      50.812  26.941  24.123  1.00  0.00     0.055 A 
ATOM     81  C   UNL A   1      51.441  25.909  26.202  1.00  0.00     0.041 A 
ATOM     82  F   UNL A   1      49.912  25.850  27.978  1.00  0.00    -0.206 F 
ATOM     83  C   UNL A   1      51.757  26.258  24.891  1.00  0.00     0.022 A 
BRANCH  80  84
ATOM     84  S   UNL A   1      51.157  27.320  22.384  1.00  0.00     0.124 S 
ATOM     85  O   UNL A   1      50.032  26.683  21.711  1.00  0.00    -0.237 OA
ATOM     86  O   UNL A   1      51.160  28.779  22.388  1.00  0.00    -0.237 OA
ATOM     87  O   UNL A   1      52.459  26.699  22.152  1.00  0.00    -0.744 OA
ENDBRANCH  80  84
ENDBRANCH  53  77
BRANCH  65  88
ATOM     88  C   UNL A   1      46.344  32.656  28.687  1.00  0.00     0.023 A 
ATOM     89  C   UNL A   1      46.296  33.713  27.763  1.00  0.00     0.031 A 
ATOM     90  C   UNL A   1      46.948  32.891  29.935  1.00  0.00     0.131 A 
ATOM     91  C   UNL A   1      46.887  34.944  28.081  1.00  0.00     0.055 A 
ATOM     92  C   UNL A   1      47.487  34.134  30.266  1.00  0.00     0.041 A 
ATOM     93  F   UNL A   1      47.022  31.915  30.854  1.00  0.00    -0.206 F 
ATOM     94  C   UNL A   1      47.470  35.166  29.332  1.00  0.00     0.022 A 
BRANCH  91  95
ATOM     95  S   UNL A   1      46.958  36.233  26.805  1.00  0.00     0.124 S 
ATOM     96  O   UNL A   1      48.373  36.592  26.815  1.00  0.00    -0.237 OA
ATOM     97  O   UNL A   1      46.489  35.524  25.619  1.00  0.00    -0.237 OA
ATOM     98  O   UNL A   1      46.052  37.264  27.309  1.00  0.00    -0.744 OA
ENDBRANCH  91  95
ENDBRANCH  65  88
ENDBRANCH  39  40
ENDBRANCH  31  34
ENDBRANCH  29  30
ENDBRANCH   1  29
TORSDOF 18
ENDMDL
MODEL 2
REMARK VINA RESULT:     -12.0      3.043      8.337
REMARK SMILES CCc1cc(OC(F)(F)F)cc2c1O[C@@H](C(F)(F)F)C(C(=O)NCCCCNC(=O)c1ccc(-c3c4nc(c(-c5cc(S(=O)(=O)[O-])ccc5F)c5ccc([nH]5)c(-c5cc(S(=O)(=O)[O-])ccc5F)c5nc(c(-c6cc(S(=O)(=O)[O-])ccc6F)c6ccc3[nH]6)C=C5)C=C4)cc1)=C2
REMARK SMILES IDX 26 1 25 2 24 3 23 4 21 5 22 6 20 8 3 9 4 10 13 11 5 12 12 13
REMARK SMILES IDX 14 14 11 15 94 16 15 17 2 18 1 19 6 20 7 21 8 22 9 23 10 24
REMARK SMILES IDX 16 25 17 26 18 27 19 28 27 29 28 30 29 31 30 33 31 34 32 35
REMARK SMILES IDX 93 36 33 37 92 38 34 39 35 40 36 41 86 42 37 43 91 44 85 45
REMARK SMILES IDX 87 46 38 47 90 48 84 49 83 50 39 52 71 53 51 54 70 55 52 56
REMARK SMILES IDX 55 57 69 58 88 59 53 60 54 61 68 63 89 64 56 65 40 66 41 67
REMARK SMILES IDX 49 68 42 69 48 70 50 71 47 72 43 73 44 74 45 75 46 76 72 77
REMARK SMILES IDX 73 78 81 79 74 80 80 81 82 82 79 83 75 84 76 85 77 86 78 87
REMARK SMILES IDX 57 88 58 89 66 90 59 91 65 92 67 93 64 94 60 95 61 96 62 97
REMARK SMILES IDX 63 98
REMARK H PARENT 23 7 28 32 87 51 55 62
REMARK Flexibility Score: inf
ROOT
ATOM      1  C   UNL A   1      35.858  23.140  26.128  1.00  0.00     0.023 C 
ENDROOT
BRANCH   1   2
ATOM      2  C   UNL A   1      35.215  21.780  26.417  1.00  0.00     0.023 C 
BRANCH   2   3
ATOM      3  C   UNL A   1      34.052  21.831  27.415  1.00  0.00     0.116 C 
BRANCH   3   4
ATOM      4  N   UNL A   1      32.806  21.499  26.747  1.00  0.00    -0.352 N 
ATOM      5  C   UNL A   1      31.947  22.236  25.997  1.00  0.00     0.251 C 
ATOM      6  O   UNL A   1      30.869  21.738  25.686  1.00  0.00    -0.270 OA
ATOM      7  H   UNL A   1      32.531  20.560  26.860  1.00  0.00     0.163 HD
BRANCH   5   8
ATOM      8  C   UNL A   1      32.283  23.592  25.484  1.00  0.00     0.067 C 
ATOM      9  C   UNL A   1      33.376  27.266  23.751  1.00  0.00    -0.002 A 
ATOM     10  C   UNL A   1      33.470  28.406  24.574  1.00  0.00     0.054 A 
ATOM     11  C   UNL A   1      33.021  26.038  24.330  1.00  0.00     0.131 A 
ATOM     12  C   UNL A   1      33.213  28.323  25.945  1.00  0.00     0.130 A 
ATOM     13  C   UNL A   1      32.730  25.955  25.688  1.00  0.00     0.021 A 
ATOM     14  O   UNL A   1      33.061  24.928  23.537  1.00  0.00    -0.475 OA
ATOM     15  C   UNL A   1      32.827  27.097  26.491  1.00  0.00     0.058 A 
ATOM     16  C   UNL A   1      32.403  24.666  26.278  1.00  0.00     0.025 C 
ATOM     17  C   UNL A   1      32.312  23.755  23.969  1.00  0.00     0.314 C 
BRANCH   9  18
ATOM     18  C   UNL A   1      33.677  27.384  22.274  1.00  0.00     0.036 C 
ATOM     19  C   UNL A   1      32.899  26.388  21.421  1.00  0.00     0.009 C 
ENDBRANCH   9  18
BRANCH  12  20
ATOM     20  O   UNL A   1      33.308  29.334  26.856  1.00  0.00    -0.406 OA
BRANCH  20  21
ATOM     21  C   UNL A   1      34.589  29.645  27.374  1.00  0.00     0.573 C 
ATOM     22  F   UNL A   1      35.053  30.812  26.877  1.00  0.00    -0.132 F 
ATOM     23  F   UNL A   1      34.562  29.708  28.723  1.00  0.00    -0.132 F 
ATOM     24  F   UNL A   1      35.451  28.667  27.018  1.00  0.00    -0.132 F 
ENDBRANCH  20  21
ENDBRANCH  12  20
BRANCH  17  25
ATOM     25  C   UNL A   1      32.847  22.561  23.144  1.00  0.00     0.429 C 
ATOM     26  F   UNL A   1      31.902  21.627  22.895  1.00  0.00    -0.167 F 
ATOM     27  F   UNL A   1      33.270  22.978  21.918  1.00  0.00    -0.167 F 
ATOM     28  F   UNL A   1      33.903  21.957  23.733  1.00  0.00    -0.167 F 
ENDBRANCH  17  25
ENDBRANCH   5   8
ENDBRANCH   3   4
ENDBRANCH   2   3
ENDBRANCH   1   2
BRANCH   1  29
ATOM     29  C   UNL A   1      37.152  23.072  25.325  1.00  0.00     0.116 C 
BRANCH  29  30
ATOM     30  N   UNL A   1      38.135  22.171  25.906  1.00  0.00    -0.352 N 
ATOM     31  C   UNL A   1      39.253  22.490  26.639  1.00  0.00     0.251 C 
ATOM     32  H   UNL A   1      37.980  21.210  25.752  1.00  0.00     0.163 HD
ATOM     33  O   UNL A   1      40.046  21.614  26.961  1.00  0.00    -0.269 OA
BRANCH  31  34
ATOM     34  C   UNL A   1      39.506  23.904  26.983  1.00  0.00     0.039 A 
ATOM     35  C   UNL A   1      39.265  24.330  28.290  1.00  0.00     0.014 A 
ATOM     36  C   UNL A   1      40.020  24.789  26.032  1.00  0.00     0.014 A 
ATOM     37  C   UNL A   1      39.606  25.632  28.663  1.00  0.00     0.010 A 
ATOM     38  C   UNL A   1      40.420  26.063  26.421  1.00  0.00     0.010 A 
ATOM     39  C   UNL A   1      40.219  26.496  27.742  1.00  0.00    -0.014 A 
BRANCH  39  40
ATOM     40  C   UNL A   1      40.659  27.857  28.136  1.00  0.00     0.031 A 
ATOM     41  C   UNL A   1      42.118  28.215  28.089  1.00  0.00     0.074 A 
ATOM     42  C   UNL A   1      39.755  28.738  28.607  1.00  0.00     0.049 A 
ATOM     43  N   UNL A   1      42.715  29.313  28.476  1.00  0.00    -0.248 NA
ATOM     44  C   UNL A   1      43.029  27.185  27.568  1.00  0.00     0.031 C 
ATOM     45  C   UNL A   1      38.318  28.484  28.744  1.00  0.00     0.029 A 
ATOM     46  N   UNL A   1      39.910  30.019  29.072  1.00  0.00    -0.354 N 
ATOM     47  C   UNL A   1      44.072  29.101  28.262  1.00  0.00     0.074 A 
ATOM     48  C   UNL A   1      44.211  27.747  27.767  1.00  0.00     0.031 C 
ATOM     49  C   UNL A   1      37.724  29.580  29.243  1.00  0.00     0.029 A 
ATOM     50  C   UNL A   1      38.738  30.599  29.498  1.00  0.00     0.049 A 
ATOM     51  H   UNL A   1      40.779  30.481  29.099  1.00  0.00     0.167 HD
ATOM     52  C   UNL A   1      45.104  29.963  28.443  1.00  0.00     0.034 A 
ATOM     53  C   UNL A   1      38.509  31.810  30.042  1.00  0.00     0.034 A 
ATOM     54  C   UNL A   1      44.942  31.314  28.922  1.00  0.00     0.049 A 
ATOM     55  C   UNL A   1      39.669  32.753  30.232  1.00  0.00     0.074 A 
ATOM     56  C   UNL A   1      45.906  32.292  29.088  1.00  0.00     0.029 A 
ATOM     57  N   UNL A   1      43.735  31.876  29.320  1.00  0.00    -0.354 N 
ATOM     58  N   UNL A   1      40.941  32.557  29.976  1.00  0.00    -0.248 NA
ATOM     59  C   UNL A   1      39.359  34.083  30.772  1.00  0.00     0.031 C 
ATOM     60  C   UNL A   1      45.293  33.425  29.638  1.00  0.00     0.029 A 
ATOM     61  C   UNL A   1      43.935  33.178  29.752  1.00  0.00     0.049 A 
ATOM     62  H   UNL A   1      42.865  31.416  29.298  1.00  0.00     0.167 HD
ATOM     63  C   UNL A   1      41.579  33.752  30.295  1.00  0.00     0.074 A 
ATOM     64  C   UNL A   1      40.550  34.664  30.752  1.00  0.00     0.031 C 
ATOM     65  C   UNL A   1      42.897  34.070  30.212  1.00  0.00     0.034 A 
BRANCH  52  66
ATOM     66  C   UNL A   1      46.492  29.452  28.141  1.00  0.00     0.023 A 
ATOM     67  C   UNL A   1      46.869  29.063  26.842  1.00  0.00     0.031 A 
ATOM     68  C   UNL A   1      47.440  29.311  29.169  1.00  0.00     0.131 A 
ATOM     69  C   UNL A   1      48.123  28.476  26.622  1.00  0.00     0.055 A 
ATOM     70  C   UNL A   1      48.718  28.803  28.928  1.00  0.00     0.041 A 
ATOM     71  F   UNL A   1      47.133  29.647  30.432  1.00  0.00    -0.206 F 
ATOM     72  C   UNL A   1      49.060  28.366  27.651  1.00  0.00     0.022 A 
BRANCH  69  73
ATOM     73  S   UNL A   1      48.451  27.718  25.008  1.00  0.00     0.124 S 
ATOM     74  O   UNL A   1      47.381  28.290  24.192  1.00  0.00    -0.237 OA
ATOM     75  O   UNL A   1      49.800  28.183  24.708  1.00  0.00    -0.237 OA
ATOM     76  O   UNL A   1      48.327  26.286  25.269  1.00  0.00    -0.744 OA
ENDBRANCH  69  73
ENDBRANCH  52  66
BRANCH  53  77
ATOM     77  C   UNL A   1      37.130  32.204  30.449  1.00  0.00     0.023 A 
ATOM     78  C   UNL A   1      36.249  32.800  29.533  1.00  0.00     0.031 A 
ATOM     79  C   UNL A   1      36.686  32.018  31.770  1.00  0.00     0.131 A 
ATOM     80  C   UNL A   1      34.982  33.228  29.959  1.00  0.00     0.055 A 
ATOM     81  C   UNL A   1      35.408  32.405  32.178  1.00  0.00     0.041 A 
ATOM     82  F   UNL A   1      37.487  31.444  32.681  1.00  0.00    -0.206 F 
ATOM     83  C   UNL A   1      34.552  33.025  31.272  1.00  0.00     0.022 A 
BRANCH  80  84
ATOM     84  S   UNL A   1      33.929  34.122  28.785  1.00  0.00     0.124 S 
ATOM     85  O   UNL A   1      32.874  34.626  29.655  1.00  0.00    -0.237 OA
ATOM     86  O   UNL A   1      34.851  35.118  28.249  1.00  0.00    -0.237 OA
ATOM     87  O   UNL A   1      33.519  33.086  27.840  1.00  0.00    -0.744 OA
ENDBRANCH  80  84
ENDBRANCH  53  77
BRANCH  65  88
ATOM     88  C   UNL A   1      43.282  35.481  30.580  1.00  0.00     0.023 A 
ATOM     89  C   UNL A   1      43.314  36.513  29.627  1.00  0.00     0.031 A 
ATOM     90  C   UNL A   1      43.630  35.791  31.907  1.00  0.00     0.131 A 
ATOM     91  C   UNL A   1      43.735  37.797  30.003  1.00  0.00     0.055 A 
ATOM     92  C   UNL A   1      43.997  37.082  32.286  1.00  0.00     0.041 A 
ATOM     93  F   UNL A   1      43.618  34.842  32.857  1.00  0.00    -0.206 F 
ATOM     94  C   UNL A   1      44.063  38.092  31.329  1.00  0.00     0.022 A 
BRANCH  91  95
ATOM     95  S   UNL A   1      43.927  39.063  28.718  1.00  0.00     0.124 S 
ATOM     96  O   UNL A   1      43.457  40.263  29.402  1.00  0.00    -0.237 OA
ATOM     97  O   UNL A   1      45.358  39.008  28.438  1.00  0.00    -0.237 OA
ATOM     98  O   UNL A   1      43.066  38.587  27.636  1.00  0.00    -0.744 OA
ENDBRANCH  91  95
ENDBRANCH  65  88
ENDBRANCH  39  40
ENDBRANCH  31  34
ENDBRANCH  29  30
ENDBRANCH   1  29
TORSDOF 18
ENDMDL
MODEL 3
REMARK VINA RESULT:     -11.9      5.912     11.150
REMARK SMILES CCc1cc(OC(F)(F)F)cc2c1O[C@@H](C(F)(F)F)C(C(=O)NCCCCNC(=O)c1ccc(-c3c4nc(c(-c5cc(S(=O)(=O)[O-])ccc5F)c5ccc([nH]5)c(-c5cc(S(=O)(=O)[O-])ccc5F)c5nc(c(-c6cc(S(=O)(=O)[O-])ccc6F)c6ccc3[nH]6)C=C5)C=C4)cc1)=C2
REMARK SMILES IDX 26 1 25 2 24 3 23 4 21 5 22 6 20 8 3 9 4 10 13 11 5 12 12 13
REMARK SMILES IDX 14 14 11 15 94 16 15 17 2 18 1 19 6 20 7 21 8 22 9 23 10 24
REMARK SMILES IDX 16 25 17 26 18 27 19 28 27 29 28 30 29 31 30 33 31 34 32 35
REMARK SMILES IDX 93 36 33 37 92 38 34 39 35 40 36 41 86 42 37 43 91 44 85 45
REMARK SMILES IDX 87 46 38 47 90 48 84 49 83 50 39 52 71 53 51 54 70 55 52 56
REMARK SMILES IDX 55 57 69 58 88 59 53 60 54 61 68 63 89 64 56 65 40 66 41 67
REMARK SMILES IDX 49 68 42 69 48 70 50 71 47 72 43 73 44 74 45 75 46 76 72 77
REMARK SMILES IDX 73 78 81 79 74 80 80 81 82 82 79 83 75 84 76 85 77 86 78 87
REMARK SMILES IDX 57 88 58 89 66 90 59 91 65 92 67 93 64 94 60 95 61 96 62 97
REMARK SMILES IDX 63 98
REMARK H PARENT 23 7 28 32 87 51 55 62
REMARK Flexibility Score: inf
ROOT
ATOM      1  C   UNL A   1      31.144  31.617  26.404  1.00  0.00     0.023 C 
ENDROOT
BRANCH   1   2
ATOM      2  C   UNL A   1      31.268  30.779  25.128  1.00  0.00     0.023 C 
BRANCH   2   3
ATOM      3  C   UNL A   1      32.183  29.555  25.262  1.00  0.00     0.116 C 
BRANCH   3   4
ATOM      4  N   UNL A   1      31.832  28.798  26.450  1.00  0.00    -0.352 N 
ATOM      5  C   UNL A   1      31.826  27.466  26.715  1.00  0.00     0.251 C 
ATOM      6  O   UNL A   1      31.321  27.083  27.767  1.00  0.00    -0.270 OA
ATOM      7  H   UNL A   1      31.543  29.356  27.208  1.00  0.00     0.163 HD
BRANCH   5   8
ATOM      8  C   UNL A   1      32.460  26.461  25.820  1.00  0.00     0.067 C 
ATOM      9  C   UNL A   1      33.928  23.537  23.176  1.00  0.00    -0.002 A 
ATOM     10  C   UNL A   1      35.214  23.005  23.395  1.00  0.00     0.054 A 
ATOM     11  C   UNL A   1      33.433  24.505  24.063  1.00  0.00     0.131 A 
ATOM     12  C   UNL A   1      35.991  23.431  24.474  1.00  0.00     0.130 A 
ATOM     13  C   UNL A   1      34.216  24.960  25.120  1.00  0.00     0.021 A 
ATOM     14  O   UNL A   1      32.140  24.910  23.904  1.00  0.00    -0.475 OA
ATOM     15  C   UNL A   1      35.491  24.422  25.322  1.00  0.00     0.058 A 
ATOM     16  C   UNL A   1      33.671  25.934  26.052  1.00  0.00     0.025 C 
ATOM     17  C   UNL A   1      31.743  26.177  24.506  1.00  0.00     0.314 C 
BRANCH   9  18
ATOM     18  C   UNL A   1      33.103  23.041  22.009  1.00  0.00     0.036 C 
ATOM     19  C   UNL A   1      32.305  21.782  22.330  1.00  0.00     0.009 C 
ENDBRANCH   9  18
BRANCH  12  20
ATOM     20  O   UNL A   1      37.228  22.971  24.821  1.00  0.00    -0.406 OA
BRANCH  20  21
ATOM     21  C   UNL A   1      37.345  21.618  25.224  1.00  0.00     0.573 C 
ATOM     22  F   UNL A   1      37.403  20.789  24.160  1.00  0.00    -0.132 F 
ATOM     23  F   UNL A   1      38.437  21.437  25.997  1.00  0.00    -0.132 F 
ATOM     24  F   UNL A   1      36.256  21.286  25.954  1.00  0.00    -0.132 F 
ENDBRANCH  20  21
ENDBRANCH  12  20
BRANCH  17  25
ATOM     25  C   UNL A   1      30.197  26.188  24.532  1.00  0.00     0.429 C 
ATOM     26  F   UNL A   1      29.648  25.415  23.570  1.00  0.00    -0.167 F 
ATOM     27  F   UNL A   1      29.735  25.677  25.708  1.00  0.00    -0.167 F 
ATOM     28  F   UNL A   1      29.686  27.435  24.425  1.00  0.00    -0.167 F 
ENDBRANCH  17  25
ENDBRANCH   5   8
ENDBRANCH   3   4
ENDBRANCH   2   3
ENDBRANCH   1   2
BRANCH   1  29
ATOM     29  C   UNL A   1      32.453  32.222  26.896  1.00  0.00     0.116 C 
BRANCH  29  30
ATOM     30  N   UNL A   1      32.307  33.595  27.354  1.00  0.00    -0.352 N 
ATOM     31  C   UNL A   1      33.081  34.275  28.265  1.00  0.00     0.251 C 
ATOM     32  H   UNL A   1      31.558  34.101  26.963  1.00  0.00     0.163 HD
ATOM     33  O   UNL A   1      32.756  35.397  28.630  1.00  0.00    -0.269 OA
BRANCH  31  34
ATOM     34  C   UNL A   1      34.274  33.610  28.830  1.00  0.00     0.039 A 
ATOM     35  C   UNL A   1      35.521  34.215  28.664  1.00  0.00     0.014 A 
ATOM     36  C   UNL A   1      34.153  32.423  29.557  1.00  0.00     0.014 A 
ATOM     37  C   UNL A   1      36.642  33.663  29.287  1.00  0.00     0.010 A 
ATOM     38  C   UNL A   1      35.256  31.912  30.230  1.00  0.00     0.010 A 
ATOM     39  C   UNL A   1      36.511  32.529  30.105  1.00  0.00    -0.014 A 
BRANCH  39  40
ATOM     40  C   UNL A   1      37.674  31.970  30.838  1.00  0.00     0.031 A 
ATOM     41  C   UNL A   1      38.546  30.936  30.181  1.00  0.00     0.074 A 
ATOM     42  C   UNL A   1      37.895  32.337  32.115  1.00  0.00     0.049 A 
ATOM     43  N   UNL A   1      39.549  30.261  30.680  1.00  0.00    -0.248 NA
ATOM     44  C   UNL A   1      38.222  30.594  28.788  1.00  0.00     0.031 C 
ATOM     45  C   UNL A   1      37.085  33.296  32.871  1.00  0.00     0.029 A 
ATOM     46  N   UNL A   1      38.856  31.938  33.009  1.00  0.00    -0.354 N 
ATOM     47  C   UNL A   1      39.965  29.401  29.669  1.00  0.00     0.074 A 
ATOM     48  C   UNL A   1      39.067  29.603  28.552  1.00  0.00     0.031 C 
ATOM     49  C   UNL A   1      37.594  33.421  34.108  1.00  0.00     0.029 A 
ATOM     50  C   UNL A   1      38.738  32.526  34.247  1.00  0.00     0.049 A 
ATOM     51  H   UNL A   1      39.563  31.291  32.786  1.00  0.00     0.167 HD
ATOM     52  C   UNL A   1      41.014  28.540  29.667  1.00  0.00     0.034 A 
ATOM     53  C   UNL A   1      39.465  32.355  35.368  1.00  0.00     0.034 A 
ATOM     54  C   UNL A   1      41.908  28.366  30.785  1.00  0.00     0.049 A 
ATOM     55  C   UNL A   1      40.626  31.394  35.343  1.00  0.00     0.074 A 
ATOM     56  C   UNL A   1      43.035  27.567  30.874  1.00  0.00     0.029 A 
ATOM     57  N   UNL A   1      41.773  28.999  32.016  1.00  0.00    -0.354 N 
ATOM     58  N   UNL A   1      41.040  30.627  34.363  1.00  0.00    -0.248 NA
ATOM     59  C   UNL A   1      41.423  31.289  36.572  1.00  0.00     0.031 C 
ATOM     60  C   UNL A   1      43.547  27.673  32.173  1.00  0.00     0.029 A 
ATOM     61  C   UNL A   1      42.781  28.589  32.875  1.00  0.00     0.049 A 
ATOM     62  H   UNL A   1      41.065  29.643  32.243  1.00  0.00     0.167 HD
ATOM     63  C   UNL A   1      42.166  29.969  34.848  1.00  0.00     0.074 A 
ATOM     64  C   UNL A   1      42.371  30.439  36.203  1.00  0.00     0.031 C 
ATOM     65  C   UNL A   1      42.965  29.063  34.227  1.00  0.00     0.034 A 
BRANCH  52  66
ATOM     66  C   UNL A   1      41.224  27.711  28.423  1.00  0.00     0.023 A 
ATOM     67  C   UNL A   1      40.870  26.349  28.375  1.00  0.00     0.031 A 
ATOM     68  C   UNL A   1      41.822  28.273  27.283  1.00  0.00     0.131 A 
ATOM     69  C   UNL A   1      41.194  25.580  27.248  1.00  0.00     0.055 A 
ATOM     70  C   UNL A   1      42.066  27.521  26.132  1.00  0.00     0.041 A 
ATOM     71  F   UNL A   1      42.200  29.562  27.274  1.00  0.00    -0.206 F 
ATOM     72  C   UNL A   1      41.767  26.162  26.116  1.00  0.00     0.022 A 
BRANCH  69  73
ATOM     73  S   UNL A   1      40.996  23.780  27.346  1.00  0.00     0.124 S 
ATOM     74  O   UNL A   1      41.659  23.344  26.117  1.00  0.00    -0.237 OA
ATOM     75  O   UNL A   1      41.682  23.454  28.591  1.00  0.00    -0.237 OA
ATOM     76  O   UNL A   1      39.547  23.594  27.363  1.00  0.00    -0.744 OA
ENDBRANCH  69  73
ENDBRANCH  52  66
BRANCH  53  77
ATOM     77  C   UNL A   1      39.120  33.104  36.610  1.00  0.00     0.023 A 
ATOM     78  C   UNL A   1      39.658  34.375  36.860  1.00  0.00     0.031 A 
ATOM     79  C   UNL A   1      38.270  32.542  37.579  1.00  0.00     0.131 A 
ATOM     80  C   UNL A   1      39.376  35.028  38.070  1.00  0.00     0.055 A 
ATOM     81  C   UNL A   1      37.955  33.215  38.761  1.00  0.00     0.041 A 
ATOM     82  F   UNL A   1      37.720  31.333  37.383  1.00  0.00    -0.206 F 
ATOM     83  C   UNL A   1      38.520  34.462  39.017  1.00  0.00     0.022 A 
BRANCH  80  84
ATOM     84  S   UNL A   1      40.204  36.603  38.419  1.00  0.00     0.124 S 
ATOM     85  O   UNL A   1      39.090  37.434  38.860  1.00  0.00    -0.237 OA
ATOM     86  O   UNL A   1      41.164  36.218  39.448  1.00  0.00    -0.237 OA
ATOM     87  O   UNL A   1      40.789  36.972  37.132  1.00  0.00    -0.744 OA
ENDBRANCH  80  84
ENDBRANCH  53  77
BRANCH  65  88
ATOM     88  C   UNL A   1      44.159  28.564  35.000  1.00  0.00     0.023 A 
ATOM     89  C   UNL A   1      44.053  27.519  35.934  1.00  0.00     0.031 A 
ATOM     90  C   UNL A   1      45.420  29.153  34.802  1.00  0.00     0.131 A 
ATOM     91  C   UNL A   1      45.180  27.128  36.672  1.00  0.00     0.055 A 
ATOM     92  C   UNL A   1      46.548  28.722  35.500  1.00  0.00     0.041 A 
ATOM     93  F   UNL A   1      45.577  30.156  33.923  1.00  0.00    -0.206 F 
ATOM     94  C   UNL A   1      46.430  27.713  36.451  1.00  0.00     0.022 A 
BRANCH  91  95
ATOM     95  S   UNL A   1      44.975  25.894  37.987  1.00  0.00     0.124 S 
ATOM     96  O   UNL A   1      44.488  24.737  37.244  1.00  0.00    -0.237 OA
ATOM     97  O   UNL A   1      46.327  25.784  38.524  1.00  0.00    -0.237 OA
ATOM     98  O   UNL A   1      44.001  26.510  38.886  1.00  0.00    -0.744 OA
ENDBRANCH  91  95
ENDBRANCH  65  88
ENDBRANCH  39  40
ENDBRANCH  31  34
ENDBRANCH  29  30
ENDBRANCH   1  29
TORSDOF 18
ENDMDL
