MODEL 1
REMARK VINA RESULT:     -13.2      0.000      0.000
REMARK SMILES COc1cc([C@@H]2CC(=O)Nc3c(C(=O)NCCCCNC(=O)c4ccc(-c5c6nc(c(-c7cc(S(=O)(=O)[O-])ccc7F)c7ccc([nH]7)c(-c7cc(S(=O)(=O)[O-])ccc7F)c7nc(c(-c8cc(S(=O)(=O)[O-])ccc8F)c8ccc5[nH]8)C=C7)C=C6)cc4)cn(-c4ccc(F)cc4)c32)c(OC)c2c1OCO2
REMARK SMILES IDX 18 1 17 2 16 3 15 4 13 5 14 6 12 8 6 9 7 10 95 11 8 12 11 13
REMARK SMILES IDX 87 14 9 15 10 16 86 17 5 19 3 20 4 21 100 22 99 23 101 24
REMARK SMILES IDX 96 25 103 26 102 27 2 28 1 29 97 30 98 31 88 32 89 33 94 34
REMARK SMILES IDX 90 35 93 36 91 37 92 38 19 39 20 40 21 41 22 43 23 44 24 45
REMARK SMILES IDX 85 46 25 47 84 48 26 49 27 50 28 51 78 52 29 53 83 54 77 55
REMARK SMILES IDX 79 56 30 57 82 58 76 59 75 60 31 62 63 63 43 64 62 65 44 66
REMARK SMILES IDX 47 67 61 68 80 69 45 70 46 71 60 73 81 74 48 75 32 76 33 77
REMARK SMILES IDX 41 78 34 79 40 80 42 81 39 82 35 83 36 84 37 85 38 86 64 87
REMARK SMILES IDX 65 88 73 89 66 90 72 91 74 92 71 93 67 94 68 95 69 96 70 97
REMARK SMILES IDX 49 98 50 99 58 100 51 101 57 102 59 103 56 104 52 105 53 106
REMARK SMILES IDX 54 107 55 108
REMARK H PARENT 15 7 10 18 20 42 79 61 47 72
REMARK Flexibility Score: inf
ROOT
ATOM      1  C   UNL A   1      33.316  28.992  27.041  1.00  0.00     0.023 C 
ENDROOT
BRANCH   1   2
ATOM      2  C   UNL A   1      32.938  30.002  25.949  1.00  0.00     0.023 C 
BRANCH   2   3
ATOM      3  C   UNL A   1      31.429  30.163  25.717  1.00  0.00     0.116 C 
BRANCH   3   4
ATOM      4  N   UNL A   1      31.116  30.185  24.308  1.00  0.00    -0.352 N 
ATOM      5  C   UNL A   1      30.999  29.228  23.338  1.00  0.00     0.254 C 
ATOM      6  O   UNL A   1      30.677  29.672  22.230  1.00  0.00    -0.269 OA
ATOM      7  H   UNL A   1      30.949  31.094  23.969  1.00  0.00     0.163 HD
BRANCH   5   8
ATOM      8  C   UNL A   1      31.215  27.781  23.510  1.00  0.00     0.081 A 
ATOM      9  C   UNL A   1      32.017  24.146  23.040  1.00  0.00     0.082 C 
ATOM     10  C   UNL A   1      32.133  24.136  21.513  1.00  0.00     0.115 C 
ATOM     11  C   UNL A   1      31.649  25.523  23.528  1.00  0.00     0.055 A 
ATOM     12  C   UNL A   1      32.688  25.412  20.926  1.00  0.00     0.225 C 
ATOM     13  C   UNL A   1      31.784  26.686  22.785  1.00  0.00     0.076 A 
ATOM     14  N   UNL A   1      30.963  25.831  24.682  1.00  0.00    -0.317 N 
ATOM     15  O   UNL A   1      33.270  25.424  19.841  1.00  0.00    -0.275 OA
ATOM     16  N   UNL A   1      32.373  26.591  21.547  1.00  0.00    -0.324 N 
ATOM     17  C   UNL A   1      30.671  27.170  24.644  1.00  0.00     0.107 A 
ATOM     18  H   UNL A   1      32.584  27.428  21.075  1.00  0.00     0.170 HD
BRANCH   9  19
ATOM     19  C   UNL A   1      33.235  23.488  23.693  1.00  0.00     0.012 A 
ATOM     20  C   UNL A   1      34.213  21.367  24.465  1.00  0.00     0.165 A 
ATOM     21  C   UNL A   1      33.201  22.071  23.818  1.00  0.00     0.059 A 
ATOM     22  C   UNL A   1      35.316  22.077  24.889  1.00  0.00     0.211 A 
ATOM     23  C   UNL A   1      35.397  23.449  24.731  1.00  0.00     0.211 A 
ATOM     24  O   UNL A   1      36.427  21.552  25.476  1.00  0.00    -0.449 OA
ATOM     25  C   UNL A   1      34.372  24.190  24.151  1.00  0.00     0.168 A 
ATOM     26  O   UNL A   1      36.581  23.926  25.216  1.00  0.00    -0.449 OA
ATOM     27  C   UNL A   1      37.254  22.720  25.602  1.00  0.00     0.468 C 
BRANCH  20  28
ATOM     28  O   UNL A   1      34.035  20.021  24.596  1.00  0.00    -0.493 OA
ATOM     29  C   UNL A   1      32.659  19.642  24.577  1.00  0.00     0.278 C 
ENDBRANCH  20  28
BRANCH  25  30
ATOM     30  O   UNL A   1      34.352  25.542  23.976  1.00  0.00    -0.492 OA
ATOM     31  C   UNL A   1      34.375  26.383  25.123  1.00  0.00     0.278 C 
ENDBRANCH  25  30
ENDBRANCH   9  19
BRANCH  14  32
ATOM     32  C   UNL A   1      30.483  24.928  25.658  1.00  0.00     0.046 A 
ATOM     33  C   UNL A   1      31.263  23.835  26.043  1.00  0.00     0.029 A 
ATOM     34  C   UNL A   1      29.196  25.102  26.181  1.00  0.00     0.029 A 
ATOM     35  C   UNL A   1      30.719  22.851  26.868  1.00  0.00     0.041 A 
ATOM     36  C   UNL A   1      28.656  24.113  27.007  1.00  0.00     0.041 A 
ATOM     37  C   UNL A   1      29.414  22.988  27.324  1.00  0.00     0.123 A 
ATOM     38  F   UNL A   1      28.875  22.021  28.078  1.00  0.00    -0.207 F 
ENDBRANCH  14  32
ENDBRANCH   5   8
ENDBRANCH   3   4
ENDBRANCH   2   3
ENDBRANCH   1   2
BRANCH   1  39
ATOM     39  C   UNL A   1      34.784  29.055  27.461  1.00  0.00     0.116 C 
BRANCH  39  40
ATOM     40  N   UNL A   1      35.071  30.193  28.330  1.00  0.00    -0.352 N 
ATOM     41  C   UNL A   1      36.136  30.351  29.197  1.00  0.00     0.251 C 
ATOM     42  H   UNL A   1      34.428  30.938  28.293  1.00  0.00     0.163 HD
ATOM     43  O   UNL A   1      36.055  31.105  30.153  1.00  0.00    -0.269 OA
BRANCH  41  44
ATOM     44  C   UNL A   1      37.372  29.589  28.936  1.00  0.00     0.039 A 
ATOM     45  C   UNL A   1      38.136  29.838  27.794  1.00  0.00     0.014 A 
ATOM     46  C   UNL A   1      37.781  28.652  29.884  1.00  0.00     0.014 A 
ATOM     47  C   UNL A   1      39.371  29.206  27.657  1.00  0.00     0.010 A 
ATOM     48  C   UNL A   1      39.037  28.092  29.790  1.00  0.00     0.010 A 
ATOM     49  C   UNL A   1      39.835  28.355  28.673  1.00  0.00    -0.014 A 
BRANCH  49  50
ATOM     50  C   UNL A   1      41.234  27.907  28.684  1.00  0.00     0.031 A 
ATOM     51  C   UNL A   1      41.474  26.660  27.899  1.00  0.00     0.074 A 
ATOM     52  C   UNL A   1      42.258  28.684  29.106  1.00  0.00     0.049 A 
ATOM     53  N   UNL A   1      41.873  25.506  28.325  1.00  0.00    -0.248 NA
ATOM     54  C   UNL A   1      41.068  26.649  26.482  1.00  0.00     0.031 C 
ATOM     55  C   UNL A   1      42.159  30.059  29.609  1.00  0.00     0.029 A 
ATOM     56  N   UNL A   1      43.610  28.480  29.053  1.00  0.00    -0.354 N 
ATOM     57  C   UNL A   1      42.029  24.712  27.188  1.00  0.00     0.074 A 
ATOM     58  C   UNL A   1      41.300  25.379  26.148  1.00  0.00     0.031 C 
ATOM     59  C   UNL A   1      43.375  30.644  29.578  1.00  0.00     0.029 A 
ATOM     60  C   UNL A   1      44.365  29.643  29.223  1.00  0.00     0.049 A 
ATOM     61  H   UNL A   1      44.013  27.595  28.907  1.00  0.00     0.167 HD
ATOM     62  C   UNL A   1      43.000  23.755  27.137  1.00  0.00     0.034 A 
ATOM     63  C   UNL A   1      45.708  29.797  29.082  1.00  0.00     0.034 A 
ATOM     64  C   UNL A   1      43.512  23.499  28.465  1.00  0.00     0.049 A 
ATOM     65  C   UNL A   1      46.320  28.463  29.250  1.00  0.00     0.074 A 
ATOM     66  C   UNL A   1      43.050  22.919  29.626  1.00  0.00     0.029 A 
ATOM     67  N   UNL A   1      44.618  24.243  28.800  1.00  0.00    -0.354 N 
ATOM     68  N   UNL A   1      46.264  27.795  30.368  1.00  0.00    -0.248 NA
ATOM     69  C   UNL A   1      46.681  27.677  28.078  1.00  0.00     0.031 C 
ATOM     70  C   UNL A   1      43.748  23.568  30.688  1.00  0.00     0.029 A 
ATOM     71  C   UNL A   1      44.653  24.480  30.147  1.00  0.00     0.049 A 
ATOM     72  H   UNL A   1      45.294  24.560  28.157  1.00  0.00     0.167 HD
ATOM     73  C   UNL A   1      46.131  26.477  29.979  1.00  0.00     0.074 A 
ATOM     74  C   UNL A   1      46.583  26.447  28.593  1.00  0.00     0.031 C 
ATOM     75  C   UNL A   1      45.369  25.612  30.709  1.00  0.00     0.034 A 
BRANCH  62  76
ATOM     76  C   UNL A   1      43.859  23.429  25.911  1.00  0.00     0.023 A 
ATOM     77  C   UNL A   1      43.881  22.076  25.499  1.00  0.00     0.031 A 
ATOM     78  C   UNL A   1      44.865  24.242  25.346  1.00  0.00     0.131 A 
ATOM     79  C   UNL A   1      44.934  21.564  24.721  1.00  0.00     0.055 A 
ATOM     80  C   UNL A   1      45.887  23.736  24.532  1.00  0.00     0.041 A 
ATOM     81  F   UNL A   1      44.970  25.552  25.588  1.00  0.00    -0.206 F 
ATOM     82  C   UNL A   1      45.950  22.385  24.248  1.00  0.00     0.022 A 
BRANCH  79  83
ATOM     83  S   UNL A   1      45.051  19.769  24.499  1.00  0.00     0.124 S 
ATOM     84  O   UNL A   1      44.628  19.618  23.111  1.00  0.00    -0.237 OA
ATOM     85  O   UNL A   1      46.463  19.526  24.777  1.00  0.00    -0.237 OA
ATOM     86  O   UNL A   1      44.121  19.244  25.496  1.00  0.00    -0.744 OA
ENDBRANCH  79  83
ENDBRANCH  62  76
BRANCH  63  87
ATOM     87  C   UNL A   1      46.463  30.988  28.604  1.00  0.00     0.023 A 
ATOM     88  C   UNL A   1      46.035  31.789  27.523  1.00  0.00     0.031 A 
ATOM     89  C   UNL A   1      47.512  31.502  29.397  1.00  0.00     0.131 A 
ATOM     90  C   UNL A   1      46.638  33.048  27.285  1.00  0.00     0.055 A 
ATOM     91  C   UNL A   1      48.102  32.745  29.160  1.00  0.00     0.041 A 
ATOM     92  F   UNL A   1      47.940  30.845  30.488  1.00  0.00    -0.206 F 
ATOM     93  C   UNL A   1      47.658  33.531  28.108  1.00  0.00     0.022 A 
BRANCH  90  94
ATOM     94  S   UNL A   1      46.035  34.130  25.946  1.00  0.00     0.124 S 
ATOM     95  O   UNL A   1      45.172  33.233  25.186  1.00  0.00    -0.237 OA
ATOM     96  O   UNL A   1      45.373  35.201  26.681  1.00  0.00    -0.237 OA
ATOM     97  O   UNL A   1      47.260  34.533  25.254  1.00  0.00    -0.744 OA
ENDBRANCH  90  94
ENDBRANCH  63  87
BRANCH  75  98
ATOM     98  C   UNL A   1      45.149  25.939  32.166  1.00  0.00     0.023 A 
ATOM     99  C   UNL A   1      44.000  26.560  32.702  1.00  0.00     0.031 A 
ATOM    100  C   UNL A   1      46.160  25.546  33.058  1.00  0.00     0.131 A 
ATOM    101  C   UNL A   1      43.905  26.777  34.090  1.00  0.00     0.055 A 
ATOM    102  C   UNL A   1      46.054  25.741  34.433  1.00  0.00     0.041 A 
ATOM    103  F   UNL A   1      47.269  24.937  32.606  1.00  0.00    -0.206 F 
ATOM    104  C   UNL A   1      44.926  26.364  34.954  1.00  0.00     0.022 A 
BRANCH 101 105
ATOM    105  S   UNL A   1      42.460  27.628  34.803  1.00  0.00     0.124 S 
ATOM    106  O   UNL A   1      41.400  26.630  34.725  1.00  0.00    -0.237 OA
ATOM    107  O   UNL A   1      42.924  27.963  36.147  1.00  0.00    -0.237 OA
ATOM    108  O   UNL A   1      42.276  28.782  33.921  1.00  0.00    -0.744 OA
ENDBRANCH 101 105
ENDBRANCH  75  98
ENDBRANCH  49  50
ENDBRANCH  41  44
ENDBRANCH  39  40
ENDBRANCH   1  39
TORSDOF 18
ENDMDL
MODEL 2
REMARK VINA RESULT:     -13.0      3.509      8.827
REMARK SMILES COc1cc([C@@H]2CC(=O)Nc3c(C(=O)NCCCCNC(=O)c4ccc(-c5c6nc(c(-c7cc(S(=O)(=O)[O-])ccc7F)c7ccc([nH]7)c(-c7cc(S(=O)(=O)[O-])ccc7F)c7nc(c(-c8cc(S(=O)(=O)[O-])ccc8F)c8ccc5[nH]8)C=C7)C=C6)cc4)cn(-c4ccc(F)cc4)c32)c(OC)c2c1OCO2
REMARK SMILES IDX 18 1 17 2 16 3 15 4 13 5 14 6 12 8 6 9 7 10 95 11 8 12 11 13
REMARK SMILES IDX 87 14 9 15 10 16 86 17 5 19 3 20 4 21 100 22 99 23 101 24
REMARK SMILES IDX 96 25 103 26 102 27 2 28 1 29 97 30 98 31 88 32 89 33 94 34
REMARK SMILES IDX 90 35 93 36 91 37 92 38 19 39 20 40 21 41 22 43 23 44 24 45
REMARK SMILES IDX 85 46 25 47 84 48 26 49 27 50 28 51 78 52 29 53 83 54 77 55
REMARK SMILES IDX 79 56 30 57 82 58 76 59 75 60 31 62 63 63 43 64 62 65 44 66
REMARK SMILES IDX 47 67 61 68 80 69 45 70 46 71 60 73 81 74 48 75 32 76 33 77
REMARK SMILES IDX 41 78 34 79 40 80 42 81 39 82 35 83 36 84 37 85 38 86 64 87
REMARK SMILES IDX 65 88 73 89 66 90 72 91 74 92 71 93 67 94 68 95 69 96 70 97
REMARK SMILES IDX 49 98 50 99 58 100 51 101 57 102 59 103 56 104 52 105 53 106
REMARK SMILES IDX 54 107 55 108
REMARK H PARENT 15 7 10 18 20 42 79 61 47 72
REMARK Flexibility Score: inf
ROOT
ATOM      1  C   UNL A   1      38.364  24.078  26.143  1.00  0.00     0.023 C 
ENDROOT
BRANCH   1   2
ATOM      2  C   UNL A   1      37.796  22.814  25.483  1.00  0.00     0.023 C 
BRANCH   2   3
ATOM      3  C   UNL A   1      36.604  23.059  24.545  1.00  0.00     0.116 C 
BRANCH   3   4
ATOM      4  N   UNL A   1      35.383  22.530  25.103  1.00  0.00    -0.352 N 
ATOM      5  C   UNL A   1      34.113  23.014  25.262  1.00  0.00     0.254 C 
ATOM      6  O   UNL A   1      33.328  22.209  25.775  1.00  0.00    -0.269 OA
ATOM      7  H   UNL A   1      35.486  21.613  25.446  1.00  0.00     0.163 HD
BRANCH   5   8
ATOM      8  C   UNL A   1      33.639  24.358  24.885  1.00  0.00     0.081 A 
ATOM      9  C   UNL A   1      32.546  27.441  23.050  1.00  0.00     0.082 C 
ATOM     10  C   UNL A   1      33.005  27.043  21.644  1.00  0.00     0.115 C 
ATOM     11  C   UNL A   1      32.904  26.366  24.042  1.00  0.00     0.055 A 
ATOM     12  C   UNL A   1      32.902  25.564  21.355  1.00  0.00     0.225 C 
ATOM     13  C   UNL A   1      33.226  25.060  23.709  1.00  0.00     0.076 A 
ATOM     14  N   UNL A   1      33.149  26.536  25.387  1.00  0.00    -0.317 N 
ATOM     15  O   UNL A   1      32.773  25.138  20.207  1.00  0.00    -0.275 OA
ATOM     16  N   UNL A   1      33.132  24.694  22.387  1.00  0.00    -0.324 N 
ATOM     17  C   UNL A   1      33.627  25.346  25.873  1.00  0.00     0.107 A 
ATOM     18  H   UNL A   1      33.237  23.741  22.167  1.00  0.00     0.170 HD
BRANCH   9  19
ATOM     19  C   UNL A   1      31.091  27.915  23.043  1.00  0.00     0.012 A 
ATOM     20  C   UNL A   1      29.575  29.778  22.513  1.00  0.00     0.165 A 
ATOM     21  C   UNL A   1      30.845  29.206  22.500  1.00  0.00     0.059 A 
ATOM     22  C   UNL A   1      28.530  29.005  22.970  1.00  0.00     0.211 A 
ATOM     23  C   UNL A   1      28.734  27.725  23.453  1.00  0.00     0.211 A 
ATOM     24  O   UNL A   1      27.217  29.368  22.992  1.00  0.00    -0.449 OA
ATOM     25  C   UNL A   1      30.001  27.152  23.520  1.00  0.00     0.168 A 
ATOM     26  O   UNL A   1      27.555  27.155  23.838  1.00  0.00    -0.449 OA
ATOM     27  C   UNL A   1      26.602  28.159  23.466  1.00  0.00     0.468 C 
BRANCH  20  28
ATOM     28  O   UNL A   1      29.473  31.053  22.038  1.00  0.00    -0.493 OA
ATOM     29  C   UNL A   1      28.911  31.953  22.992  1.00  0.00     0.278 C 
ENDBRANCH  20  28
BRANCH  25  30
ATOM     30  O   UNL A   1      30.302  25.913  24.001  1.00  0.00    -0.492 OA
ATOM     31  C   UNL A   1      29.795  25.529  25.273  1.00  0.00     0.278 C 
ENDBRANCH  25  30
ENDBRANCH   9  19
BRANCH  14  32
ATOM     32  C   UNL A   1      33.094  27.744  26.120  1.00  0.00     0.046 A 
ATOM     33  C   UNL A   1      31.873  28.203  26.620  1.00  0.00     0.029 A 
ATOM     34  C   UNL A   1      34.259  28.504  26.278  1.00  0.00     0.029 A 
ATOM     35  C   UNL A   1      31.791  29.475  27.184  1.00  0.00     0.041 A 
ATOM     36  C   UNL A   1      34.169  29.778  26.844  1.00  0.00     0.041 A 
ATOM     37  C   UNL A   1      32.934  30.260  27.270  1.00  0.00     0.123 A 
ATOM     38  F   UNL A   1      32.846  31.500  27.770  1.00  0.00    -0.207 F 
ENDBRANCH  14  32
ENDBRANCH   5   8
ENDBRANCH   3   4
ENDBRANCH   2   3
ENDBRANCH   1   2
BRANCH   1  39
ATOM     39  C   UNL A   1      39.286  23.795  27.328  1.00  0.00     0.116 C 
BRANCH  39  40
ATOM     40  N   UNL A   1      40.552  23.190  26.921  1.00  0.00    -0.352 N 
ATOM     41  C   UNL A   1      41.709  23.832  26.520  1.00  0.00     0.251 C 
ATOM     42  H   UNL A   1      40.586  22.206  26.935  1.00  0.00     0.163 HD
ATOM     43  O   UNL A   1      42.526  23.262  25.817  1.00  0.00    -0.269 OA
BRANCH  41  44
ATOM     44  C   UNL A   1      41.932  25.220  26.967  1.00  0.00     0.039 A 
ATOM     45  C   UNL A   1      41.341  26.291  26.292  1.00  0.00     0.014 A 
ATOM     46  C   UNL A   1      42.707  25.429  28.107  1.00  0.00     0.014 A 
ATOM     47  C   UNL A   1      41.452  27.572  26.831  1.00  0.00     0.010 A 
ATOM     48  C   UNL A   1      42.747  26.681  28.683  1.00  0.00     0.010 A 
ATOM     49  C   UNL A   1      42.131  27.761  28.045  1.00  0.00    -0.014 A 
BRANCH  49  50
ATOM     50  C   UNL A   1      42.021  29.037  28.766  1.00  0.00     0.031 A 
ATOM     51  C   UNL A   1      43.032  30.054  28.351  1.00  0.00     0.074 A 
ATOM     52  C   UNL A   1      40.945  29.375  29.514  1.00  0.00     0.049 A 
ATOM     53  N   UNL A   1      43.977  30.582  29.058  1.00  0.00    -0.248 NA
ATOM     54  C   UNL A   1      43.103  30.412  26.923  1.00  0.00     0.031 C 
ATOM     55  C   UNL A   1      39.744  28.561  29.731  1.00  0.00     0.029 A 
ATOM     56  N   UNL A   1      40.622  30.556  30.125  1.00  0.00    -0.354 N 
ATOM     57  C   UNL A   1      44.578  31.538  28.238  1.00  0.00     0.074 A 
ATOM     58  C   UNL A   1      44.168  31.214  26.902  1.00  0.00     0.031 C 
ATOM     59  C   UNL A   1      38.744  29.339  30.197  1.00  0.00     0.029 A 
ATOM     60  C   UNL A   1      39.275  30.661  30.478  1.00  0.00     0.049 A 
ATOM     61  H   UNL A   1      41.280  31.266  30.300  1.00  0.00     0.167 HD
ATOM     62  C   UNL A   1      45.096  32.684  28.769  1.00  0.00     0.034 A 
ATOM     63  C   UNL A   1      38.619  31.749  30.962  1.00  0.00     0.034 A 
ATOM     64  C   UNL A   1      45.226  32.548  30.203  1.00  0.00     0.049 A 
ATOM     65  C   UNL A   1      39.633  32.636  31.566  1.00  0.00     0.074 A 
ATOM     66  C   UNL A   1      46.012  31.829  31.077  1.00  0.00     0.029 A 
ATOM     67  N   UNL A   1      44.145  33.005  30.917  1.00  0.00    -0.354 N 
ATOM     68  N   UNL A   1      40.345  32.295  32.603  1.00  0.00    -0.248 NA
ATOM     69  C   UNL A   1      40.149  33.770  30.810  1.00  0.00     0.031 C 
ATOM     70  C   UNL A   1      45.219  31.645  32.250  1.00  0.00     0.029 A 
ATOM     71  C   UNL A   1      44.000  32.302  32.082  1.00  0.00     0.049 A 
ATOM     72  H   UNL A   1      43.556  33.740  30.630  1.00  0.00     0.167 HD
ATOM     73  C   UNL A   1      41.588  32.849  32.369  1.00  0.00     0.074 A 
ATOM     74  C   UNL A   1      41.355  33.886  31.372  1.00  0.00     0.031 C 
ATOM     75  C   UNL A   1      42.721  32.199  32.763  1.00  0.00     0.034 A 
BRANCH  62  76
ATOM     76  C   UNL A   1      44.994  34.076  28.140  1.00  0.00     0.023 A 
ATOM     77  C   UNL A   1      46.214  34.694  27.778  1.00  0.00     0.031 A 
ATOM     78  C   UNL A   1      43.875  34.936  28.170  1.00  0.00     0.131 A 
ATOM     79  C   UNL A   1      46.314  36.088  27.631  1.00  0.00     0.055 A 
ATOM     80  C   UNL A   1      43.972  36.320  27.976  1.00  0.00     0.041 A 
ATOM     81  F   UNL A   1      42.637  34.517  28.449  1.00  0.00    -0.206 F 
ATOM     82  C   UNL A   1      45.200  36.910  27.745  1.00  0.00     0.022 A 
BRANCH  79  83
ATOM     83  S   UNL A   1      47.963  36.825  27.474  1.00  0.00     0.124 S 
ATOM     84  O   UNL A   1      48.494  36.110  26.319  1.00  0.00    -0.237 OA
ATOM     85  O   UNL A   1      47.641  38.234  27.273  1.00  0.00    -0.237 OA
ATOM     86  O   UNL A   1      48.597  36.507  28.752  1.00  0.00    -0.744 OA
ENDBRANCH  79  83
ENDBRANCH  62  76
BRANCH  63  87
ATOM     87  C   UNL A   1      37.203  32.155  30.744  1.00  0.00     0.023 A 
ATOM     88  C   UNL A   1      36.397  32.718  31.757  1.00  0.00     0.031 A 
ATOM     89  C   UNL A   1      36.703  32.221  29.425  1.00  0.00     0.131 A 
ATOM     90  C   UNL A   1      35.162  33.327  31.429  1.00  0.00     0.055 A 
ATOM     91  C   UNL A   1      35.484  32.824  29.107  1.00  0.00     0.041 A 
ATOM     92  F   UNL A   1      37.428  31.775  28.386  1.00  0.00    -0.206 F 
ATOM     93  C   UNL A   1      34.713  33.393  30.108  1.00  0.00     0.022 A 
BRANCH  90  94
ATOM     94  S   UNL A   1      34.153  34.135  32.716  1.00  0.00     0.124 S 
ATOM     95  O   UNL A   1      33.246  33.066  33.118  1.00  0.00    -0.237 OA
ATOM     96  O   UNL A   1      35.155  34.540  33.695  1.00  0.00    -0.237 OA
ATOM     97  O   UNL A   1      33.514  35.243  32.004  1.00  0.00    -0.744 OA
ENDBRANCH  90  94
ENDBRANCH  63  87
BRANCH  75  98
ATOM     98  C   UNL A   1      42.597  31.205  33.893  1.00  0.00     0.023 A 
ATOM     99  C   UNL A   1      42.462  29.808  33.744  1.00  0.00     0.031 A 
ATOM    100  C   UNL A   1      42.668  31.724  35.197  1.00  0.00     0.131 A 
ATOM    101  C   UNL A   1      42.390  28.987  34.886  1.00  0.00     0.055 A 
ATOM    102  C   UNL A   1      42.621  30.908  36.323  1.00  0.00     0.041 A 
ATOM    103  F   UNL A   1      42.812  33.044  35.398  1.00  0.00    -0.206 F 
ATOM    104  C   UNL A   1      42.475  29.534  36.172  1.00  0.00     0.022 A 
BRANCH 101 105
ATOM    105  S   UNL A   1      42.157  27.187  34.726  1.00  0.00     0.124 S 
ATOM    106  O   UNL A   1      40.730  27.047  34.462  1.00  0.00    -0.237 OA
ATOM    107  O   UNL A   1      43.048  26.851  33.618  1.00  0.00    -0.237 OA
ATOM    108  O   UNL A   1      42.589  26.671  36.027  1.00  0.00    -0.744 OA
ENDBRANCH 101 105
ENDBRANCH  75  98
ENDBRANCH  49  50
ENDBRANCH  41  44
ENDBRANCH  39  40
ENDBRANCH   1  39
TORSDOF 18
ENDMDL
MODEL 3
REMARK VINA RESULT:     -12.9      5.344     11.726
REMARK SMILES COc1cc([C@@H]2CC(=O)Nc3c(C(=O)NCCCCNC(=O)c4ccc(-c5c6nc(c(-c7cc(S(=O)(=O)[O-])ccc7F)c7ccc([nH]7)c(-c7cc(S(=O)(=O)[O-])ccc7F)c7nc(c(-c8cc(S(=O)(=O)[O-])ccc8F)c8ccc5[nH]8)C=C7)C=C6)cc4)cn(-c4ccc(F)cc4)c32)c(OC)c2c1OCO2
REMARK SMILES IDX 18 1 17 2 16 3 15 4 13 5 14 6 12 8 6 9 7 10 95 11 8 12 11 13
REMARK SMILES IDX 87 14 9 15 10 16 86 17 5 19 3 20 4 21 100 22 99 23 101 24
REMARK SMILES IDX 96 25 103 26 102 27 2 28 1 29 97 30 98 31 88 32 89 33 94 34
REMARK SMILES IDX 90 35 93 36 91 37 92 38 19 39 20 40 21 41 22 43 23 44 24 45
REMARK SMILES IDX 85 46 25 47 84 48 26 49 27 50 28 51 78 52 29 53 83 54 77 55
REMARK SMILES IDX 79 56 30 57 82 58 76 59 75 60 31 62 63 63 43 64 62 65 44 66
REMARK SMILES IDX 47 67 61 68 80 69 45 70 46 71 60 73 81 74 48 75 32 76 33 77
REMARK SMILES IDX 41 78 34 79 40 80 42 81 39 82 35 83 36 84 37 85 38 86 64 87
REMARK SMILES IDX 65 88 73 89 66 90 72 91 74 92 71 93 67 94 68 95 69 96 70 97
REMARK SMILES IDX 49 98 50 99 58 100 51 101 57 102 59 103 56 104 52 105 53 106
REMARK SMILES IDX 54 107 55 108
REMARK H PARENT 15 7 10 18 20 42 79 61 47 72
REMARK Flexibility Score: inf
ROOT
ATOM      1  C   UNL A   1      35.174  34.134  30.861  1.00  0.00     0.023 C 
ENDROOT
BRANCH   1   2
ATOM      2  C   UNL A   1      34.472  34.926  31.971  1.00  0.00     0.023 C 
BRANCH   2   3
ATOM      3  C   UNL A   1      35.383  35.354  33.131  1.00  0.00     0.116 C 
BRANCH   3   4
ATOM      4  N   UNL A   1      35.595  34.268  34.058  1.00  0.00    -0.352 N 
ATOM      5  C   UNL A   1      36.701  33.662  34.587  1.00  0.00     0.254 C 
ATOM      6  O   UNL A   1      36.444  32.761  35.393  1.00  0.00    -0.269 OA
ATOM      7  H   UNL A   1      34.753  33.875  34.383  1.00  0.00     0.163 HD
BRANCH   5   8
ATOM      8  C   UNL A   1      38.105  33.991  34.282  1.00  0.00     0.081 A 
ATOM      9  C   UNL A   1      41.583  35.398  34.252  1.00  0.00     0.082 C 
ATOM     10  C   UNL A   1      41.372  36.543  35.247  1.00  0.00     0.115 C 
ATOM     11  C   UNL A   1      40.292  34.653  34.030  1.00  0.00     0.055 A 
ATOM     12  C   UNL A   1      40.379  36.235  36.344  1.00  0.00     0.225 C 
ATOM     13  C   UNL A   1      39.191  34.714  34.870  1.00  0.00     0.076 A 
ATOM     14  N   UNL A   1      39.927  33.959  32.897  1.00  0.00    -0.317 N 
ATOM     15  O   UNL A   1      40.429  36.800  37.436  1.00  0.00    -0.275 OA
ATOM     16  N   UNL A   1      39.311  35.438  36.032  1.00  0.00    -0.324 N 
ATOM     17  C   UNL A   1      38.610  33.603  33.037  1.00  0.00     0.107 A 
ATOM     18  H   UNL A   1      38.579  35.377  36.687  1.00  0.00     0.170 HD
BRANCH   9  19
ATOM     19  C   UNL A   1      42.806  34.558  34.624  1.00  0.00     0.012 A 
ATOM     20  C   UNL A   1      43.702  32.868  36.170  1.00  0.00     0.165 A 
ATOM     21  C   UNL A   1      42.641  33.630  35.689  1.00  0.00     0.059 A 
ATOM     22  C   UNL A   1      44.906  32.958  35.506  1.00  0.00     0.211 A 
ATOM     23  C   UNL A   1      45.079  33.813  34.433  1.00  0.00     0.211 A 
ATOM     24  O   UNL A   1      46.030  32.241  35.789  1.00  0.00    -0.449 OA
ATOM     25  C   UNL A   1      44.058  34.639  33.972  1.00  0.00     0.168 A 
ATOM     26  O   UNL A   1      46.347  33.720  33.935  1.00  0.00    -0.449 OA
ATOM     27  C   UNL A   1      46.907  32.672  34.736  1.00  0.00     0.468 C 
BRANCH  20  28
ATOM     28  O   UNL A   1      43.445  32.071  37.248  1.00  0.00    -0.493 OA
ATOM     29  C   UNL A   1      42.728  30.888  36.898  1.00  0.00     0.278 C 
ENDBRANCH  20  28
BRANCH  25  30
ATOM     30  O   UNL A   1      44.140  35.528  32.942  1.00  0.00    -0.492 OA
ATOM     31  C   UNL A   1      44.807  36.766  33.157  1.00  0.00     0.278 C 
ENDBRANCH  25  30
ENDBRANCH   9  19
BRANCH  14  32
ATOM     32  C   UNL A   1      40.691  33.780  31.721  1.00  0.00     0.046 A 
ATOM     33  C   UNL A   1      41.671  32.786  31.669  1.00  0.00     0.029 A 
ATOM     34  C   UNL A   1      40.502  34.650  30.641  1.00  0.00     0.029 A 
ATOM     35  C   UNL A   1      42.540  32.727  30.580  1.00  0.00     0.041 A 
ATOM     36  C   UNL A   1      41.376  34.586  29.553  1.00  0.00     0.041 A 
ATOM     37  C   UNL A   1      42.399  33.642  29.544  1.00  0.00     0.123 A 
ATOM     38  F   UNL A   1      43.263  33.615  28.520  1.00  0.00    -0.207 F 
ENDBRANCH  14  32
ENDBRANCH   5   8
ENDBRANCH   3   4
ENDBRANCH   2   3
ENDBRANCH   1   2
BRANCH   1  39
ATOM     39  C   UNL A   1      34.752  32.668  30.785  1.00  0.00     0.116 C 
BRANCH  39  40
ATOM     40  N   UNL A   1      34.548  32.213  29.413  1.00  0.00    -0.352 N 
ATOM     41  C   UNL A   1      35.475  31.635  28.564  1.00  0.00     0.251 C 
ATOM     42  H   UNL A   1      33.641  32.330  29.047  1.00  0.00     0.163 HD
ATOM     43  O   UNL A   1      35.331  31.690  27.354  1.00  0.00    -0.269 OA
BRANCH  41  44
ATOM     44  C   UNL A   1      36.639  30.949  29.157  1.00  0.00     0.039 A 
ATOM     45  C   UNL A   1      36.581  29.590  29.472  1.00  0.00     0.014 A 
ATOM     46  C   UNL A   1      37.809  31.683  29.348  1.00  0.00     0.014 A 
ATOM     47  C   UNL A   1      37.745  28.945  29.890  1.00  0.00     0.010 A 
ATOM     48  C   UNL A   1      38.976  31.028  29.681  1.00  0.00     0.010 A 
ATOM     49  C   UNL A   1      38.950  29.660  29.965  1.00  0.00    -0.014 A 
BRANCH  49  50
ATOM     50  C   UNL A   1      40.226  28.949  30.128  1.00  0.00     0.031 A 
ATOM     51  C   UNL A   1      40.608  28.714  31.552  1.00  0.00     0.074 A 
ATOM     52  C   UNL A   1      40.853  28.310  29.113  1.00  0.00     0.049 A 
ATOM     53  N   UNL A   1      41.629  29.176  32.196  1.00  0.00    -0.248 NA
ATOM     54  C   UNL A   1      39.647  28.003  32.415  1.00  0.00     0.031 C 
ATOM     55  C   UNL A   1      40.389  28.215  27.724  1.00  0.00     0.029 A 
ATOM     56  N   UNL A   1      41.951  27.495  29.119  1.00  0.00    -0.354 N 
ATOM     57  C   UNL A   1      41.581  28.587  33.461  1.00  0.00     0.074 A 
ATOM     58  C   UNL A   1      40.242  28.091  33.604  1.00  0.00     0.031 C 
ATOM     59  C   UNL A   1      41.040  27.215  27.094  1.00  0.00     0.029 A 
ATOM     60  C   UNL A   1      42.083  26.712  27.970  1.00  0.00     0.049 A 
ATOM     61  H   UNL A   1      42.592  27.464  29.866  1.00  0.00     0.167 HD
ATOM     62  C   UNL A   1      42.730  28.289  34.133  1.00  0.00     0.034 A 
ATOM     63  C   UNL A   1      42.974  25.713  27.735  1.00  0.00     0.034 A 
ATOM     64  C   UNL A   1      43.850  28.970  33.522  1.00  0.00     0.049 A 
ATOM     65  C   UNL A   1      44.120  25.929  28.641  1.00  0.00     0.074 A 
ATOM     66  C   UNL A   1      44.296  30.268  33.408  1.00  0.00     0.029 A 
ATOM     67  N   UNL A   1      44.515  28.231  32.573  1.00  0.00    -0.354 N 
ATOM     68  N   UNL A   1      44.895  26.974  28.565  1.00  0.00    -0.248 NA
ATOM     69  C   UNL A   1      44.208  25.185  29.891  1.00  0.00     0.031 C 
ATOM     70  C   UNL A   1      45.028  30.320  32.183  1.00  0.00     0.029 A 
ATOM     71  C   UNL A   1      45.057  29.046  31.617  1.00  0.00     0.049 A 
ATOM     72  H   UNL A   1      44.590  27.249  32.581  1.00  0.00     0.167 HD
ATOM     73  C   UNL A   1      45.208  27.271  29.877  1.00  0.00     0.074 A 
ATOM     74  C   UNL A   1      44.926  26.047  30.617  1.00  0.00     0.031 C 
ATOM     75  C   UNL A   1      45.354  28.567  30.278  1.00  0.00     0.034 A 
BRANCH  62  76
ATOM     76  C   UNL A   1      42.966  27.026  34.967  1.00  0.00     0.023 A 
ATOM     77  C   UNL A   1      43.805  26.042  34.394  1.00  0.00     0.031 A 
ATOM     78  C   UNL A   1      42.209  26.593  36.076  1.00  0.00     0.131 A 
ATOM     79  C   UNL A   1      43.745  24.699  34.805  1.00  0.00     0.055 A 
ATOM     80  C   UNL A   1      42.188  25.262  36.513  1.00  0.00     0.041 A 
ATOM     81  F   UNL A   1      41.397  27.399  36.768  1.00  0.00    -0.206 F 
ATOM     82  C   UNL A   1      42.926  24.298  35.853  1.00  0.00     0.022 A 
BRANCH  79  83
ATOM     83  S   UNL A   1      44.617  23.453  33.818  1.00  0.00     0.124 S 
ATOM     84  O   UNL A   1      43.686  23.250  32.714  1.00  0.00    -0.237 OA
ATOM     85  O   UNL A   1      45.862  24.145  33.499  1.00  0.00    -0.237 OA
ATOM     86  O   UNL A   1      44.750  22.326  34.739  1.00  0.00    -0.744 OA
ENDBRANCH  79  83
ENDBRANCH  62  76
BRANCH  63  87
ATOM     87  C   UNL A   1      42.792  24.476  26.928  1.00  0.00     0.023 A 
ATOM     88  C   UNL A   1      43.791  23.957  26.075  1.00  0.00     0.031 A 
ATOM     89  C   UNL A   1      41.688  23.636  27.195  1.00  0.00     0.131 A 
ATOM     90  C   UNL A   1      43.668  22.650  25.545  1.00  0.00     0.055 A 
ATOM     91  C   UNL A   1      41.573  22.347  26.671  1.00  0.00     0.041 A 
ATOM     92  F   UNL A   1      40.723  24.014  28.049  1.00  0.00    -0.206 F 
ATOM     93  C   UNL A   1      42.571  21.842  25.853  1.00  0.00     0.022 A 
BRANCH  90  94
ATOM     94  S   UNL A   1      44.993  21.936  24.513  1.00  0.00     0.124 S 
ATOM     95  O   UNL A   1      46.079  21.771  25.472  1.00  0.00    -0.237 OA
ATOM     96  O   UNL A   1      44.377  20.714  24.011  1.00  0.00    -0.237 OA
ATOM     97  O   UNL A   1      45.225  22.964  23.497  1.00  0.00    -0.744 OA
ENDBRANCH  90  94
ENDBRANCH  63  87
BRANCH  75  98
ATOM     98  C   UNL A   1      45.711  29.586  29.223  1.00  0.00     0.023 A 
ATOM     99  C   UNL A   1      47.018  29.882  28.779  1.00  0.00     0.031 A 
ATOM    100  C   UNL A   1      44.640  30.255  28.607  1.00  0.00     0.131 A 
ATOM    101  C   UNL A   1      47.212  30.833  27.758  1.00  0.00     0.055 A 
ATOM    102  C   UNL A   1      44.833  31.177  27.582  1.00  0.00     0.041 A 
ATOM    103  F   UNL A   1      43.374  30.002  28.978  1.00  0.00    -0.206 F 
ATOM    104  C   UNL A   1      46.122  31.475  27.158  1.00  0.00     0.022 A 
BRANCH 101 105
ATOM    105  S   UNL A   1      48.890  31.278  27.206  1.00  0.00     0.124 S 
ATOM    106  O   UNL A   1      48.680  32.469  26.392  1.00  0.00    -0.237 OA
ATOM    107  O   UNL A   1      49.593  31.484  28.470  1.00  0.00    -0.237 OA
ATOM    108  O   UNL A   1      49.326  30.097  26.457  1.00  0.00    -0.744 OA
ENDBRANCH 101 105
ENDBRANCH  75  98
ENDBRANCH  49  50
ENDBRANCH  41  44
ENDBRANCH  39  40
ENDBRANCH   1  39
TORSDOF 18
ENDMDL
