MODEL 1
REMARK VINA RESULT:      -9.9      0.000      0.000
REMARK SMILES CCCCCC[C@H](C)[C@@](C)(O)C(=O)NCCCCNC(=O)c1ccc(-c2c3nc(c(-c4cc(S(=O)(=O)[O-])ccc4F)c4ccc([nH]4)c(-c4cc(S(=O)(=O)[O-])ccc4F)c4nc(c(-c5cc(S(=O)(=O)[O-])ccc5F)c5ccc2[nH]5)C=C4)C=C3)cc1
REMARK SMILES IDX 15 1 14 2 12 3 13 4 9 6 10 7 7 8 8 9 6 10 5 11 4 12 3 13
REMARK SMILES IDX 2 14 1 15 11 16 16 18 17 19 18 20 19 21 20 22 21 24 22 25
REMARK SMILES IDX 23 26 84 27 24 28 83 29 25 30 26 31 27 32 77 33 28 34 82 35
REMARK SMILES IDX 76 36 78 37 29 38 81 39 75 40 74 41 30 43 62 44 42 45 61 46
REMARK SMILES IDX 43 47 46 48 60 49 79 50 44 51 45 52 59 54 80 55 47 56 31 57
REMARK SMILES IDX 32 58 40 59 33 60 39 61 41 62 38 63 34 64 35 65 36 66 37 67
REMARK SMILES IDX 63 68 64 69 72 70 65 71 71 72 73 73 70 74 66 75 67 76 68 77
REMARK SMILES IDX 69 78 48 79 49 80 57 81 50 82 56 83 58 84 55 85 51 86 52 87
REMARK SMILES IDX 53 88 54 89
REMARK H PARENT 14 5 11 17 19 23 78 42 46 53
REMARK Flexibility Score: inf
ROOT
ATOM      1  C   UNL A   1      31.758  29.724  25.473  1.00  0.00     0.116 C 
ENDROOT
BRANCH   1   2
ATOM      2  N   UNL A   1      32.946  29.522  24.668  1.00  0.00    -0.354 N 
ATOM      3  C   UNL A   1      33.371  28.427  23.973  1.00  0.00     0.251 C 
ATOM      4  O   UNL A   1      34.408  28.565  23.319  1.00  0.00    -0.272 OA
ATOM      5  H   UNL A   1      33.544  30.303  24.613  1.00  0.00     0.163 HD
BRANCH   3   6
ATOM      6  C   UNL A   1      32.544  27.100  23.970  1.00  0.00     0.142 C 
ATOM      7  C   UNL A   1      31.967  26.857  25.378  1.00  0.00     0.053 C 
BRANCH   6   8
ATOM      8  C   UNL A   1      31.385  27.128  22.901  1.00  0.00     0.027 C 
ATOM      9  C   UNL A   1      31.695  26.285  21.659  1.00  0.00     0.011 C 
BRANCH   8  10
ATOM     10  C   UNL A   1      29.999  26.820  23.539  1.00  0.00     0.007 C 
BRANCH  10  11
ATOM     11  C   UNL A   1      28.874  27.841  23.301  1.00  0.00     0.000 C 
BRANCH  11  12
ATOM     12  C   UNL A   1      29.267  29.268  22.895  1.00  0.00     0.000 C 
BRANCH  12  13
ATOM     13  C   UNL A   1      28.121  30.191  22.471  1.00  0.00    -0.000 C 
BRANCH  13  14
ATOM     14  C   UNL A   1      28.234  30.744  21.051  1.00  0.00    -0.003 C 
ATOM     15  C   UNL A   1      27.857  32.215  20.961  1.00  0.00     0.004 C 
ENDBRANCH  13  14
ENDBRANCH  12  13
ENDBRANCH  11  12
ENDBRANCH  10  11
ENDBRANCH   8  10
ENDBRANCH   6   8
BRANCH   6  16
ATOM     16  O   UNL A   1      33.389  25.981  23.662  1.00  0.00    -0.380 OA
ATOM     17  H   UNL A   1      33.534  25.940  22.704  1.00  0.00     0.212 HD
ENDBRANCH   6  16
ENDBRANCH   3   6
ENDBRANCH   1   2
BRANCH   1  18
ATOM     18  C   UNL A   1      32.063  30.346  26.831  1.00  0.00     0.023 C 
BRANCH  18  19
ATOM     19  C   UNL A   1      31.866  31.859  26.924  1.00  0.00     0.023 C 
BRANCH  19  20
ATOM     20  C   UNL A   1      33.064  32.654  27.433  1.00  0.00     0.116 C 
BRANCH  20  21
ATOM     21  N   UNL A   1      32.729  34.020  27.802  1.00  0.00    -0.352 N 
ATOM     22  C   UNL A   1      33.279  34.823  28.774  1.00  0.00     0.251 C 
ATOM     23  H   UNL A   1      32.001  34.429  27.281  1.00  0.00     0.163 HD
ATOM     24  O   UNL A   1      32.774  35.916  29.016  1.00  0.00    -0.269 OA
BRANCH  22  25
ATOM     25  C   UNL A   1      34.448  34.351  29.546  1.00  0.00     0.039 A 
ATOM     26  C   UNL A   1      34.232  33.679  30.752  1.00  0.00     0.014 A 
ATOM     27  C   UNL A   1      35.750  34.546  29.075  1.00  0.00     0.014 A 
ATOM     28  C   UNL A   1      35.316  33.133  31.445  1.00  0.00     0.010 A 
ATOM     29  C   UNL A   1      36.819  33.936  29.727  1.00  0.00     0.010 A 
ATOM     30  C   UNL A   1      36.614  33.220  30.916  1.00  0.00    -0.014 A 
BRANCH  30  31
ATOM     31  C   UNL A   1      37.767  32.564  31.589  1.00  0.00     0.031 A 
ATOM     32  C   UNL A   1      38.466  31.406  30.930  1.00  0.00     0.074 A 
ATOM     33  C   UNL A   1      38.140  32.966  32.821  1.00  0.00     0.049 A 
ATOM     34  N   UNL A   1      39.429  30.648  31.389  1.00  0.00    -0.248 NA
ATOM     35  C   UNL A   1      37.995  31.032  29.588  1.00  0.00     0.031 C 
ATOM     36  C   UNL A   1      37.513  34.051  33.581  1.00  0.00     0.029 A 
ATOM     37  N   UNL A   1      39.127  32.507  33.656  1.00  0.00    -0.354 N 
ATOM     38  C   UNL A   1      39.671  29.702  30.400  1.00  0.00     0.074 A 
ATOM     39  C   UNL A   1      38.710  29.945  29.345  1.00  0.00     0.031 C 
ATOM     40  C   UNL A   1      38.145  34.185  34.758  1.00  0.00     0.029 A 
ATOM     41  C   UNL A   1      39.189  33.171  34.861  1.00  0.00     0.049 A 
ATOM     42  H   UNL A   1      39.736  31.771  33.417  1.00  0.00     0.167 HD
ATOM     43  C   UNL A   1      40.621  28.734  30.365  1.00  0.00     0.034 A 
ATOM     44  C   UNL A   1      39.985  32.975  35.931  1.00  0.00     0.034 A 
ATOM     45  C   UNL A   1      41.580  28.513  31.420  1.00  0.00     0.049 A 
ATOM     46  C   UNL A   1      41.021  31.879  35.878  1.00  0.00     0.074 A 
ATOM     47  C   UNL A   1      42.618  27.599  31.464  1.00  0.00     0.029 A 
ATOM     48  N   UNL A   1      41.615  29.210  32.622  1.00  0.00    -0.354 N 
ATOM     49  N   UNL A   1      41.269  31.023  34.913  1.00  0.00    -0.248 NA
ATOM     50  C   UNL A   1      41.888  31.730  37.052  1.00  0.00     0.031 C 
ATOM     51  C   UNL A   1      43.238  27.696  32.715  1.00  0.00     0.029 A 
ATOM     52  C   UNL A   1      42.638  28.724  33.424  1.00  0.00     0.049 A 
ATOM     53  H   UNL A   1      41.005  29.940  32.869  1.00  0.00     0.167 HD
ATOM     54  C   UNL A   1      42.344  30.256  35.355  1.00  0.00     0.074 A 
ATOM     55  C   UNL A   1      42.704  30.761  36.664  1.00  0.00     0.031 C 
ATOM     56  C   UNL A   1      42.980  29.232  34.733  1.00  0.00     0.034 A 
BRANCH  43  57
ATOM     57  C   UNL A   1      40.648  27.830  29.155  1.00  0.00     0.023 A 
ATOM     58  C   UNL A   1      41.585  28.008  28.121  1.00  0.00     0.031 A 
ATOM     59  C   UNL A   1      39.708  26.794  29.016  1.00  0.00     0.131 A 
ATOM     60  C   UNL A   1      41.514  27.218  26.964  1.00  0.00     0.055 A 
ATOM     61  C   UNL A   1      39.695  25.955  27.899  1.00  0.00     0.041 A 
ATOM     62  F   UNL A   1      38.776  26.587  29.959  1.00  0.00    -0.206 F 
ATOM     63  C   UNL A   1      40.591  26.175  26.857  1.00  0.00     0.022 A 
BRANCH  60  64
ATOM     64  S   UNL A   1      42.546  27.667  25.542  1.00  0.00     0.124 S 
ATOM     65  O   UNL A   1      42.416  26.481  24.698  1.00  0.00    -0.237 OA
ATOM     66  O   UNL A   1      41.897  28.876  25.051  1.00  0.00    -0.237 OA
ATOM     67  O   UNL A   1      43.871  27.862  26.128  1.00  0.00    -0.744 OA
ENDBRANCH  60  64
ENDBRANCH  43  57
BRANCH  44  68
ATOM     68  C   UNL A   1      39.836  33.821  37.150  1.00  0.00     0.023 A 
ATOM     69  C   UNL A   1      40.782  34.809  37.465  1.00  0.00     0.031 A 
ATOM     70  C   UNL A   1      38.771  33.620  38.046  1.00  0.00     0.131 A 
ATOM     71  C   UNL A   1      40.673  35.526  38.668  1.00  0.00     0.055 A 
ATOM     72  C   UNL A   1      38.636  34.372  39.214  1.00  0.00     0.041 A 
ATOM     73  F   UNL A   1      37.835  32.691  37.792  1.00  0.00    -0.206 F 
ATOM     74  C   UNL A   1      39.600  35.323  39.538  1.00  0.00     0.022 A 
BRANCH  71  75
ATOM     75  S   UNL A   1      42.008  36.667  39.122  1.00  0.00     0.124 S 
ATOM     76  O   UNL A   1      42.136  37.471  37.913  1.00  0.00    -0.237 OA
ATOM     77  O   UNL A   1      41.443  37.344  40.285  1.00  0.00    -0.237 OA
ATOM     78  O   UNL A   1      43.133  35.778  39.405  1.00  0.00    -0.744 OA
ENDBRANCH  71  75
ENDBRANCH  44  68
BRANCH  56  79
ATOM     79  C   UNL A   1      44.163  28.624  35.447  1.00  0.00     0.023 A 
ATOM     80  C   UNL A   1      44.012  27.585  36.381  1.00  0.00     0.031 A 
ATOM     81  C   UNL A   1      45.461  29.104  35.195  1.00  0.00     0.131 A 
ATOM     82  C   UNL A   1      45.132  27.097  37.071  1.00  0.00     0.055 A 
ATOM     83  C   UNL A   1      46.579  28.572  35.839  1.00  0.00     0.041 A 
ATOM     84  F   UNL A   1      45.663  30.097  34.314  1.00  0.00    -0.206 F 
ATOM     85  C   UNL A   1      46.417  27.572  36.794  1.00  0.00     0.022 A 
BRANCH  82  86
ATOM     86  S   UNL A   1      44.879  25.892  38.403  1.00  0.00     0.124 S 
ATOM     87  O   UNL A   1      44.258  26.711  39.439  1.00  0.00    -0.237 OA
ATOM     88  O   UNL A   1      44.016  24.901  37.770  1.00  0.00    -0.237 OA
ATOM     89  O   UNL A   1      46.232  25.430  38.709  1.00  0.00    -0.744 OA
ENDBRANCH  82  86
ENDBRANCH  56  79
ENDBRANCH  30  31
ENDBRANCH  22  25
ENDBRANCH  20  21
ENDBRANCH  19  20
ENDBRANCH  18  19
ENDBRANCH   1  18
TORSDOF 21
ENDMDL
MODEL 2
REMARK VINA RESULT:      -9.7      6.130      9.263
REMARK SMILES CCCCCC[C@H](C)[C@@](C)(O)C(=O)NCCCCNC(=O)c1ccc(-c2c3nc(c(-c4cc(S(=O)(=O)[O-])ccc4F)c4ccc([nH]4)c(-c4cc(S(=O)(=O)[O-])ccc4F)c4nc(c(-c5cc(S(=O)(=O)[O-])ccc5F)c5ccc2[nH]5)C=C4)C=C3)cc1
REMARK SMILES IDX 15 1 14 2 12 3 13 4 9 6 10 7 7 8 8 9 6 10 5 11 4 12 3 13
REMARK SMILES IDX 2 14 1 15 11 16 16 18 17 19 18 20 19 21 20 22 21 24 22 25
REMARK SMILES IDX 23 26 84 27 24 28 83 29 25 30 26 31 27 32 77 33 28 34 82 35
REMARK SMILES IDX 76 36 78 37 29 38 81 39 75 40 74 41 30 43 62 44 42 45 61 46
REMARK SMILES IDX 43 47 46 48 60 49 79 50 44 51 45 52 59 54 80 55 47 56 31 57
REMARK SMILES IDX 32 58 40 59 33 60 39 61 41 62 38 63 34 64 35 65 36 66 37 67
REMARK SMILES IDX 63 68 64 69 72 70 65 71 71 72 73 73 70 74 66 75 67 76 68 77
REMARK SMILES IDX 69 78 48 79 49 80 57 81 50 82 56 83 58 84 55 85 51 86 52 87
REMARK SMILES IDX 53 88 54 89
REMARK H PARENT 14 5 11 17 19 23 78 42 46 53
REMARK Flexibility Score: inf
ROOT
ATOM      1  C   UNL A   1      33.608  20.395  25.551  1.00  0.00     0.116 C 
ENDROOT
BRANCH   1   2
ATOM      2  N   UNL A   1      33.513  21.078  26.825  1.00  0.00    -0.354 N 
ATOM      3  C   UNL A   1      32.826  22.204  27.178  1.00  0.00     0.251 C 
ATOM      4  O   UNL A   1      32.882  22.526  28.368  1.00  0.00    -0.272 OA
ATOM      5  H   UNL A   1      34.027  20.663  27.555  1.00  0.00     0.163 HD
BRANCH   3   6
ATOM      6  C   UNL A   1      31.972  22.992  26.132  1.00  0.00     0.142 C 
ATOM      7  C   UNL A   1      30.477  22.734  26.397  1.00  0.00     0.053 C 
BRANCH   6   8
ATOM      8  C   UNL A   1      32.275  24.539  26.167  1.00  0.00     0.027 C 
ATOM      9  C   UNL A   1      33.641  24.895  25.568  1.00  0.00     0.011 C 
BRANCH   8  10
ATOM     10  C   UNL A   1      31.098  25.375  25.586  1.00  0.00     0.007 C 
BRANCH  10  11
ATOM     11  C   UNL A   1      31.120  26.891  25.841  1.00  0.00     0.000 C 
BRANCH  11  12
ATOM     12  C   UNL A   1      31.622  27.386  27.204  1.00  0.00     0.000 C 
BRANCH  12  13
ATOM     13  C   UNL A   1      31.807  28.900  27.347  1.00  0.00    -0.000 C 
BRANCH  13  14
ATOM     14  C   UNL A   1      32.948  29.488  26.517  1.00  0.00    -0.003 C 
ATOM     15  C   UNL A   1      34.150  28.560  26.429  1.00  0.00     0.004 C 
ENDBRANCH  13  14
ENDBRANCH  12  13
ENDBRANCH  11  12
ENDBRANCH  10  11
ENDBRANCH   8  10
ENDBRANCH   6   8
BRANCH   6  16
ATOM     16  O   UNL A   1      32.251  22.527  24.802  1.00  0.00    -0.380 OA
ATOM     17  H   UNL A   1      33.080  22.920  24.489  1.00  0.00     0.212 HD
ENDBRANCH   6  16
ENDBRANCH   3   6
ENDBRANCH   1   2
BRANCH   1  18
ATOM     18  C   UNL A   1      35.035  20.331  25.019  1.00  0.00     0.023 C 
BRANCH  18  19
ATOM     19  C   UNL A   1      35.755  21.674  24.899  1.00  0.00     0.023 C 
BRANCH  19  20
ATOM     20  C   UNL A   1      37.231  21.604  24.523  1.00  0.00     0.116 C 
BRANCH  20  21
ATOM     21  N   UNL A   1      37.976  20.630  25.305  1.00  0.00    -0.352 N 
ATOM     22  C   UNL A   1      39.127  20.794  26.039  1.00  0.00     0.251 C 
ATOM     23  H   UNL A   1      37.601  19.720  25.309  1.00  0.00     0.163 HD
ATOM     24  O   UNL A   1      39.676  19.814  26.536  1.00  0.00    -0.269 OA
BRANCH  22  25
ATOM     25  C   UNL A   1      39.720  22.140  26.191  1.00  0.00     0.039 A 
ATOM     26  C   UNL A   1      38.869  23.244  26.289  1.00  0.00     0.014 A 
ATOM     27  C   UNL A   1      41.105  22.314  26.263  1.00  0.00     0.014 A 
ATOM     28  C   UNL A   1      39.403  24.510  26.539  1.00  0.00     0.010 A 
ATOM     29  C   UNL A   1      41.629  23.563  26.587  1.00  0.00     0.010 A 
ATOM     30  C   UNL A   1      40.784  24.673  26.733  1.00  0.00    -0.014 A 
BRANCH  30  31
ATOM     31  C   UNL A   1      41.362  25.996  27.094  1.00  0.00     0.031 A 
ATOM     32  C   UNL A   1      42.745  26.366  26.631  1.00  0.00     0.074 A 
ATOM     33  C   UNL A   1      40.669  26.834  27.892  1.00  0.00     0.049 A 
ATOM     34  N   UNL A   1      43.456  27.428  26.911  1.00  0.00    -0.248 NA
ATOM     35  C   UNL A   1      43.429  25.396  25.764  1.00  0.00     0.031 C 
ATOM     36  C   UNL A   1      39.336  26.569  28.440  1.00  0.00     0.029 A 
ATOM     37  N   UNL A   1      40.991  28.070  28.393  1.00  0.00    -0.354 N 
ATOM     38  C   UNL A   1      44.675  27.249  26.265  1.00  0.00     0.074 A 
ATOM     39  C   UNL A   1      44.625  25.947  25.634  1.00  0.00     0.031 C 
ATOM     40  C   UNL A   1      38.948  27.620  29.180  1.00  0.00     0.029 A 
ATOM     41  C   UNL A   1      40.018  28.613  29.202  1.00  0.00     0.049 A 
ATOM     42  H   UNL A   1      41.840  28.527  28.193  1.00  0.00     0.167 HD
ATOM     43  C   UNL A   1      45.728  28.100  26.188  1.00  0.00     0.034 A 
ATOM     44  C   UNL A   1      39.996  29.769  29.894  1.00  0.00     0.034 A 
ATOM     45  C   UNL A   1      45.756  29.400  26.813  1.00  0.00     0.049 A 
ATOM     46  C   UNL A   1      41.187  30.691  29.810  1.00  0.00     0.074 A 
ATOM     47  C   UNL A   1      46.748  30.364  26.755  1.00  0.00     0.029 A 
ATOM     48  N   UNL A   1      44.749  29.918  27.620  1.00  0.00    -0.354 N 
ATOM     49  N   UNL A   1      42.314  30.527  29.154  1.00  0.00    -0.248 NA
ATOM     50  C   UNL A   1      41.100  31.955  30.551  1.00  0.00     0.031 C 
ATOM     51  C   UNL A   1      46.372  31.434  27.575  1.00  0.00     0.029 A 
ATOM     52  C   UNL A   1      45.110  31.173  28.086  1.00  0.00     0.049 A 
ATOM     53  H   UNL A   1      43.903  29.461  27.829  1.00  0.00     0.167 HD
ATOM     54  C   UNL A   1      43.054  31.685  29.380  1.00  0.00     0.074 A 
ATOM     55  C   UNL A   1      42.240  32.542  30.218  1.00  0.00     0.031 C 
ATOM     56  C   UNL A   1      44.292  32.013  28.930  1.00  0.00     0.034 A 
BRANCH  43  57
ATOM     57  C   UNL A   1      46.942  27.635  25.419  1.00  0.00     0.023 A 
ATOM     58  C   UNL A   1      47.156  28.011  24.080  1.00  0.00     0.031 A 
ATOM     59  C   UNL A   1      47.886  26.784  26.020  1.00  0.00     0.131 A 
ATOM     60  C   UNL A   1      48.237  27.475  23.365  1.00  0.00     0.055 A 
ATOM     61  C   UNL A   1      49.007  26.321  25.328  1.00  0.00     0.041 A 
ATOM     62  F   UNL A   1      47.727  26.375  27.288  1.00  0.00    -0.206 F 
ATOM     63  C   UNL A   1      49.179  26.653  23.987  1.00  0.00     0.022 A 
BRANCH  60  64
ATOM     64  S   UNL A   1      48.313  27.751  21.574  1.00  0.00     0.124 S 
ATOM     65  O   UNL A   1      49.377  28.748  21.475  1.00  0.00    -0.237 OA
ATOM     66  O   UNL A   1      48.633  26.423  21.064  1.00  0.00    -0.237 OA
ATOM     67  O   UNL A   1      46.977  28.242  21.245  1.00  0.00    -0.744 OA
ENDBRANCH  60  64
ENDBRANCH  43  57
BRANCH  44  68
ATOM     68  C   UNL A   1      38.818  30.126  30.736  1.00  0.00     0.023 A 
ATOM     69  C   UNL A   1      37.831  31.004  30.263  1.00  0.00     0.031 A 
ATOM     70  C   UNL A   1      38.687  29.631  32.046  1.00  0.00     0.131 A 
ATOM     71  C   UNL A   1      36.782  31.400  31.110  1.00  0.00     0.055 A 
ATOM     72  C   UNL A   1      37.614  29.985  32.865  1.00  0.00     0.041 A 
ATOM     73  F   UNL A   1      39.601  28.784  32.546  1.00  0.00    -0.206 F 
ATOM     74  C   UNL A   1      36.660  30.887  32.403  1.00  0.00     0.022 A 
BRANCH  71  75
ATOM     75  S   UNL A   1      35.627  32.670  30.524  1.00  0.00     0.124 S 
ATOM     76  O   UNL A   1      34.449  32.401  31.341  1.00  0.00    -0.237 OA
ATOM     77  O   UNL A   1      36.350  33.900  30.828  1.00  0.00    -0.237 OA
ATOM     78  O   UNL A   1      35.483  32.369  29.101  1.00  0.00    -0.744 OA
ENDBRANCH  71  75
ENDBRANCH  44  68
BRANCH  56  79
ATOM     79  C   UNL A   1      44.816  33.380  29.300  1.00  0.00     0.023 A 
ATOM     80  C   UNL A   1      44.581  34.507  28.495  1.00  0.00     0.031 A 
ATOM     81  C   UNL A   1      45.575  33.550  30.472  1.00  0.00     0.131 A 
ATOM     82  C   UNL A   1      45.145  35.744  28.843  1.00  0.00     0.055 A 
ATOM     83  C   UNL A   1      46.082  34.796  30.845  1.00  0.00     0.041 A 
ATOM     84  F   UNL A   1      45.833  32.506  31.277  1.00  0.00    -0.206 F 
ATOM     85  C   UNL A   1      45.879  35.899  30.021  1.00  0.00     0.022 A 
BRANCH  82  86
ATOM     86  S   UNL A   1      44.981  37.133  27.687  1.00  0.00     0.124 S 
ATOM     87  O   UNL A   1      46.186  36.996  26.876  1.00  0.00    -0.237 OA
ATOM     88  O   UNL A   1      43.721  36.834  27.015  1.00  0.00    -0.237 OA
ATOM     89  O   UNL A   1      44.953  38.305  28.562  1.00  0.00    -0.744 OA
ENDBRANCH  82  86
ENDBRANCH  56  79
ENDBRANCH  30  31
ENDBRANCH  22  25
ENDBRANCH  20  21
ENDBRANCH  19  20
ENDBRANCH  18  19
ENDBRANCH   1  18
TORSDOF 21
ENDMDL
MODEL 3
REMARK VINA RESULT:      -9.7      5.968     11.272
REMARK SMILES CCCCCC[C@H](C)[C@@](C)(O)C(=O)NCCCCNC(=O)c1ccc(-c2c3nc(c(-c4cc(S(=O)(=O)[O-])ccc4F)c4ccc([nH]4)c(-c4cc(S(=O)(=O)[O-])ccc4F)c4nc(c(-c5cc(S(=O)(=O)[O-])ccc5F)c5ccc2[nH]5)C=C4)C=C3)cc1
REMARK SMILES IDX 15 1 14 2 12 3 13 4 9 6 10 7 7 8 8 9 6 10 5 11 4 12 3 13
REMARK SMILES IDX 2 14 1 15 11 16 16 18 17 19 18 20 19 21 20 22 21 24 22 25
REMARK SMILES IDX 23 26 84 27 24 28 83 29 25 30 26 31 27 32 77 33 28 34 82 35
REMARK SMILES IDX 76 36 78 37 29 38 81 39 75 40 74 41 30 43 62 44 42 45 61 46
REMARK SMILES IDX 43 47 46 48 60 49 79 50 44 51 45 52 59 54 80 55 47 56 31 57
REMARK SMILES IDX 32 58 40 59 33 60 39 61 41 62 38 63 34 64 35 65 36 66 37 67
REMARK SMILES IDX 63 68 64 69 72 70 65 71 71 72 73 73 70 74 66 75 67 76 68 77
REMARK SMILES IDX 69 78 48 79 49 80 57 81 50 82 56 83 58 84 55 85 51 86 52 87
REMARK SMILES IDX 53 88 54 89
REMARK H PARENT 14 5 11 17 19 23 78 42 46 53
REMARK Flexibility Score: inf
ROOT
ATOM      1  C   UNL A   1      36.227  21.467  25.252  1.00  0.00     0.116 C 
ENDROOT
BRANCH   1   2
ATOM      2  N   UNL A   1      35.495  21.575  26.497  1.00  0.00    -0.354 N 
ATOM      3  C   UNL A   1      34.276  22.129  26.764  1.00  0.00     0.251 C 
ATOM      4  O   UNL A   1      33.870  22.021  27.924  1.00  0.00    -0.272 OA
ATOM      5  H   UNL A   1      35.950  21.184  27.278  1.00  0.00     0.163 HD
BRANCH   3   6
ATOM      6  C   UNL A   1      33.430  22.805  25.636  1.00  0.00     0.142 C 
ATOM      7  C   UNL A   1      32.009  23.082  26.162  1.00  0.00     0.053 C 
BRANCH   6   8
ATOM      8  C   UNL A   1      34.093  24.139  25.118  1.00  0.00     0.027 C 
ATOM      9  C   UNL A   1      34.056  24.273  23.591  1.00  0.00     0.011 C 
BRANCH   8  10
ATOM     10  C   UNL A   1      33.549  25.387  25.871  1.00  0.00     0.007 C 
BRANCH  10  11
ATOM     11  C   UNL A   1      33.853  26.765  25.259  1.00  0.00     0.000 C 
BRANCH  11  12
ATOM     12  C   UNL A   1      32.675  27.599  24.738  1.00  0.00     0.000 C 
BRANCH  12  13
ATOM     13  C   UNL A   1      31.283  26.983  24.908  1.00  0.00    -0.000 C 
BRANCH  13  14
ATOM     14  C   UNL A   1      30.793  26.167  23.712  1.00  0.00    -0.003 C 
ATOM     15  C   UNL A   1      31.278  26.722  22.382  1.00  0.00     0.004 C 
ENDBRANCH  13  14
ENDBRANCH  12  13
ENDBRANCH  11  12
ENDBRANCH  10  11
ENDBRANCH   8  10
ENDBRANCH   6   8
BRANCH   6  16
ATOM     16  O   UNL A   1      33.298  21.923  24.510  1.00  0.00    -0.380 OA
ATOM     17  H   UNL A   1      33.166  21.015  24.823  1.00  0.00     0.212 HD
ENDBRANCH   6  16
ENDBRANCH   3   6
ENDBRANCH   1   2
BRANCH   1  18
ATOM     18  C   UNL A   1      36.693  20.044  24.962  1.00  0.00     0.023 C 
BRANCH  18  19
ATOM     19  C   UNL A   1      38.202  19.863  24.804  1.00  0.00     0.023 C 
BRANCH  19  20
ATOM     20  C   UNL A   1      39.010  19.870  26.098  1.00  0.00     0.116 C 
BRANCH  20  21
ATOM     21  N   UNL A   1      40.257  19.127  25.998  1.00  0.00    -0.352 N 
ATOM     22  C   UNL A   1      41.552  19.577  26.098  1.00  0.00     0.251 C 
ATOM     23  H   UNL A   1      40.158  18.162  25.835  1.00  0.00     0.163 HD
ATOM     24  O   UNL A   1      42.481  18.809  25.863  1.00  0.00    -0.269 OA
BRANCH  22  25
ATOM     25  C   UNL A   1      41.819  20.988  26.448  1.00  0.00     0.039 A 
ATOM     26  C   UNL A   1      42.140  21.306  27.770  1.00  0.00     0.014 A 
ATOM     27  C   UNL A   1      41.780  21.992  25.475  1.00  0.00     0.014 A 
ATOM     28  C   UNL A   1      42.498  22.615  28.101  1.00  0.00     0.010 A 
ATOM     29  C   UNL A   1      42.210  23.278  25.792  1.00  0.00     0.010 A 
ATOM     30  C   UNL A   1      42.578  23.603  27.106  1.00  0.00    -0.014 A 
BRANCH  30  31
ATOM     31  C   UNL A   1      43.049  24.979  27.420  1.00  0.00     0.031 A 
ATOM     32  C   UNL A   1      42.119  25.963  28.075  1.00  0.00     0.074 A 
ATOM     33  C   UNL A   1      44.290  25.361  27.055  1.00  0.00     0.049 A 
ATOM     34  N   UNL A   1      42.310  27.228  28.349  1.00  0.00    -0.248 NA
ATOM     35  C   UNL A   1      40.785  25.464  28.440  1.00  0.00     0.031 C 
ATOM     36  C   UNL A   1      45.271  24.509  26.376  1.00  0.00     0.029 A 
ATOM     37  N   UNL A   1      44.937  26.563  27.191  1.00  0.00    -0.354 N 
ATOM     38  C   UNL A   1      41.118  27.679  28.907  1.00  0.00     0.074 A 
ATOM     39  C   UNL A   1      40.193  26.566  28.871  1.00  0.00     0.031 C 
ATOM     40  C   UNL A   1      46.399  25.210  26.177  1.00  0.00     0.029 A 
ATOM     41  C   UNL A   1      46.210  26.572  26.668  1.00  0.00     0.049 A 
ATOM     42  H   UNL A   1      44.529  27.348  27.624  1.00  0.00     0.167 HD
ATOM     43  C   UNL A   1      40.830  28.901  29.420  1.00  0.00     0.034 A 
ATOM     44  C   UNL A   1      47.117  27.566  26.579  1.00  0.00     0.034 A 
ATOM     45  C   UNL A   1      41.768  29.996  29.459  1.00  0.00     0.049 A 
ATOM     46  C   UNL A   1      46.766  28.922  27.138  1.00  0.00     0.074 A 
ATOM     47  C   UNL A   1      41.600  31.258  30.004  1.00  0.00     0.029 A 
ATOM     48  N   UNL A   1      43.051  29.965  28.924  1.00  0.00    -0.354 N 
ATOM     49  N   UNL A   1      45.650  29.319  27.707  1.00  0.00    -0.248 NA
ATOM     50  C   UNL A   1      47.800  29.961  27.052  1.00  0.00     0.031 C 
ATOM     51  C   UNL A   1      42.752  32.008  29.743  1.00  0.00     0.029 A 
ATOM     52  C   UNL A   1      43.671  31.193  29.102  1.00  0.00     0.049 A 
ATOM     53  H   UNL A   1      43.460  29.186  28.484  1.00  0.00     0.167 HD
ATOM     54  C   UNL A   1      45.864  30.645  28.075  1.00  0.00     0.074 A 
ATOM     55  C   UNL A   1      47.217  30.973  27.677  1.00  0.00     0.031 C 
ATOM     56  C   UNL A   1      45.019  31.510  28.691  1.00  0.00     0.034 A 
BRANCH  43  57
ATOM     57  C   UNL A   1      39.435  29.117  29.957  1.00  0.00     0.023 A 
ATOM     58  C   UNL A   1      38.465  29.828  29.227  1.00  0.00     0.031 A 
ATOM     59  C   UNL A   1      39.075  28.632  31.227  1.00  0.00     0.131 A 
ATOM     60  C   UNL A   1      37.214  30.100  29.802  1.00  0.00     0.055 A 
ATOM     61  C   UNL A   1      37.800  28.833  31.759  1.00  0.00     0.041 A 
ATOM     62  F   UNL A   1      39.963  27.963  31.979  1.00  0.00    -0.206 F 
ATOM     63  C   UNL A   1      36.866  29.586  31.052  1.00  0.00     0.022 A 
BRANCH  60  64
ATOM     64  S   UNL A   1      36.105  31.259  28.955  1.00  0.00     0.124 S 
ATOM     65  O   UNL A   1      35.587  30.429  27.869  1.00  0.00    -0.237 OA
ATOM     66  O   UNL A   1      35.153  31.607  30.003  1.00  0.00    -0.237 OA
ATOM     67  O   UNL A   1      36.994  32.339  28.533  1.00  0.00    -0.744 OA
ENDBRANCH  60  64
ENDBRANCH  43  57
BRANCH  44  68
ATOM     68  C   UNL A   1      48.438  27.330  25.930  1.00  0.00     0.023 A 
ATOM     69  C   UNL A   1      48.606  27.504  24.548  1.00  0.00     0.031 A 
ATOM     70  C   UNL A   1      49.542  26.879  26.676  1.00  0.00     0.131 A 
ATOM     71  C   UNL A   1      49.833  27.182  23.945  1.00  0.00     0.055 A 
ATOM     72  C   UNL A   1      50.776  26.612  26.081  1.00  0.00     0.041 A 
ATOM     73  F   UNL A   1      49.438  26.699  28.003  1.00  0.00    -0.206 F 
ATOM     74  C   UNL A   1      50.923  26.749  24.704  1.00  0.00     0.022 A 
BRANCH  71  75
ATOM     75  S   UNL A   1      49.957  27.252  22.136  1.00  0.00     0.124 S 
ATOM     76  O   UNL A   1      51.310  26.758  21.911  1.00  0.00    -0.237 OA
ATOM     77  O   UNL A   1      48.873  26.365  21.725  1.00  0.00    -0.237 OA
ATOM     78  O   UNL A   1      49.749  28.667  21.836  1.00  0.00    -0.744 OA
ENDBRANCH  71  75
ENDBRANCH  44  68
BRANCH  56  79
ATOM     79  C   UNL A   1      45.560  32.883  29.014  1.00  0.00     0.023 A 
ATOM     80  C   UNL A   1      46.198  33.160  30.235  1.00  0.00     0.031 A 
ATOM     81  C   UNL A   1      45.419  33.931  28.087  1.00  0.00     0.131 A 
ATOM     82  C   UNL A   1      46.624  34.466  30.520  1.00  0.00     0.055 A 
ATOM     83  C   UNL A   1      45.900  35.215  28.351  1.00  0.00     0.041 A 
ATOM     84  F   UNL A   1      44.815  33.724  26.906  1.00  0.00    -0.206 F 
ATOM     85  C   UNL A   1      46.495  35.491  29.579  1.00  0.00     0.022 A 
BRANCH  82  86
ATOM     86  S   UNL A   1      47.271  34.831  32.174  1.00  0.00     0.124 S 
ATOM     87  O   UNL A   1      46.905  36.234  32.341  1.00  0.00    -0.237 OA
ATOM     88  O   UNL A   1      46.548  33.879  33.011  1.00  0.00    -0.237 OA
ATOM     89  O   UNL A   1      48.706  34.576  32.045  1.00  0.00    -0.744 OA
ENDBRANCH  82  86
ENDBRANCH  56  79
ENDBRANCH  30  31
ENDBRANCH  22  25
ENDBRANCH  20  21
ENDBRANCH  19  20
ENDBRANCH  18  19
ENDBRANCH   1  18
TORSDOF 21
ENDMDL
