MODEL 1
REMARK VINA RESULT:     -11.2      0.000      0.000
REMARK SMILES C[C@](NC(=O)[C@](C)([NH3+])C(F)(F)F)(C(=O)NCCCCNC(=O)c1ccc(-c2c3nc(c(-c4cc(S(=O)(=O)[O-])ccc4F)c4ccc([nH]4)c(-c4cc(S(=O)(=O)[O-])ccc4F)c4nc(c(-c5cc(S(=O)(=O)[O-])ccc5F)c5ccc2[nH]5)C=C4)C=C3)cc1)c1ccccc1
REMARK SMILES IDX 17 1 16 2 15 3 13 4 14 5 2 7 1 8 86 9 87 10 91 11 88 12
REMARK SMILES IDX 90 13 89 14 3 15 4 16 5 18 6 19 7 20 8 21 9 25 10 26 11 27
REMARK SMILES IDX 12 28 18 29 19 30 20 31 21 32 22 34 23 35 24 36 85 37 25 38
REMARK SMILES IDX 84 39 26 40 27 41 28 42 78 43 29 44 83 45 77 46 79 47 30 48
REMARK SMILES IDX 82 49 76 50 75 51 31 53 63 54 43 55 62 56 44 57 47 58 61 59
REMARK SMILES IDX 80 60 45 61 46 62 60 64 81 65 48 66 32 67 33 68 41 69 34 70
REMARK SMILES IDX 40 71 42 72 39 73 35 74 36 75 37 76 38 77 64 78 65 79 73 80
REMARK SMILES IDX 66 81 72 82 74 83 71 84 67 85 68 86 69 87 70 88 49 89 50 90
REMARK SMILES IDX 58 91 51 92 57 93 59 94 56 95 52 96 53 97 54 98 55 99
REMARK H PARENT 15 6 3 17 8 22 8 23 8 24 20 33 79 52 47 63
REMARK Flexibility Score: inf
ROOT
ATOM      1  C   UNL A   1      33.621  21.556  25.492  1.00  0.00     0.023 C 
ENDROOT
BRANCH   1   2
ATOM      2  C   UNL A   1      32.432  22.123  24.721  1.00  0.00     0.116 C 
BRANCH   2   3
ATOM      3  N   UNL A   1      31.425  22.681  25.613  1.00  0.00    -0.354 N 
ATOM      4  C   UNL A   1      31.139  23.933  26.074  1.00  0.00     0.250 C 
ATOM      5  O   UNL A   1      30.051  24.025  26.656  1.00  0.00    -0.272 OA
ATOM      6  H   UNL A   1      30.809  21.998  25.963  1.00  0.00     0.163 HD
BRANCH   4   7
ATOM      7  C   UNL A   1      32.078  25.186  25.835  1.00  0.00     0.142 C 
ATOM      8  C   UNL A   1      33.439  24.882  26.508  1.00  0.00     0.051 C 
BRANCH   7   9
ATOM      9  C   UNL A   1      32.217  25.422  24.313  1.00  0.00    -0.013 A 
ATOM     10  C   UNL A   1      31.077  25.493  23.496  1.00  0.00     0.007 A 
ATOM     11  C   UNL A   1      33.463  25.561  23.665  1.00  0.00     0.007 A 
ATOM     12  C   UNL A   1      31.159  25.895  22.159  1.00  0.00     0.000 A 
ATOM     13  C   UNL A   1      33.551  25.923  22.318  1.00  0.00     0.000 A 
ATOM     14  C   UNL A   1      32.397  26.138  21.577  1.00  0.00     0.000 A 
ENDBRANCH   7   9
BRANCH   7  15
ATOM     15  N   UNL A   1      31.441  26.339  26.581  1.00  0.00    -0.332 N 
ATOM     16  C   UNL A   1      31.816  27.536  27.109  1.00  0.00     0.291 C 
ATOM     17  H   UNL A   1      30.482  26.175  26.725  1.00  0.00     0.165 HD
ATOM     18  O   UNL A   1      31.301  27.796  28.210  1.00  0.00    -0.267 OA
BRANCH  16  19
ATOM     19  C   UNL A   1      32.668  28.626  26.407  1.00  0.00     0.267 C 
ATOM     20  C   UNL A   1      34.101  28.192  26.116  1.00  0.00     0.100 C 
BRANCH  19  21
ATOM     21  N   UNL A   1      32.845  29.799  27.372  1.00  0.00    -0.337 N 
ATOM     22  H   UNL A   1      32.220  30.559  27.101  1.00  0.00     0.345 HD
ATOM     23  H   UNL A   1      33.811  30.124  27.338  1.00  0.00     0.345 HD
ATOM     24  H   UNL A   1      32.621  29.496  28.319  1.00  0.00     0.345 HD
ENDBRANCH  19  21
BRANCH  19  25
ATOM     25  C   UNL A   1      31.802  29.071  25.185  1.00  0.00     0.453 C 
ATOM     26  F   UNL A   1      32.482  29.052  24.018  1.00  0.00    -0.164 F 
ATOM     27  F   UNL A   1      30.668  28.362  25.011  1.00  0.00    -0.164 F 
ATOM     28  F   UNL A   1      31.379  30.358  25.360  1.00  0.00    -0.164 F 
ENDBRANCH  19  25
ENDBRANCH  16  19
ENDBRANCH   7  15
ENDBRANCH   4   7
ENDBRANCH   2   3
ENDBRANCH   1   2
BRANCH   1  29
ATOM     29  C   UNL A   1      34.974  21.690  24.789  1.00  0.00     0.023 C 
BRANCH  29  30
ATOM     30  C   UNL A   1      36.156  21.994  25.703  1.00  0.00     0.116 C 
BRANCH  30  31
ATOM     31  N   UNL A   1      37.186  20.970  25.641  1.00  0.00    -0.352 N 
ATOM     32  C   UNL A   1      38.539  21.099  25.839  1.00  0.00     0.251 C 
ATOM     33  H   UNL A   1      36.871  20.063  25.427  1.00  0.00     0.163 HD
ATOM     34  O   UNL A   1      39.286  20.159  25.570  1.00  0.00    -0.269 OA
BRANCH  32  35
ATOM     35  C   UNL A   1      39.088  22.376  26.343  1.00  0.00     0.039 A 
ATOM     36  C   UNL A   1      40.127  22.346  27.274  1.00  0.00     0.014 A 
ATOM     37  C   UNL A   1      38.599  23.598  25.874  1.00  0.00     0.014 A 
ATOM     38  C   UNL A   1      40.721  23.541  27.685  1.00  0.00     0.010 A 
ATOM     39  C   UNL A   1      39.243  24.782  26.223  1.00  0.00     0.010 A 
ATOM     40  C   UNL A   1      40.311  24.767  27.133  1.00  0.00    -0.014 A 
BRANCH  40  41
ATOM     41  C   UNL A   1      40.989  26.040  27.498  1.00  0.00     0.031 A 
ATOM     42  C   UNL A   1      42.432  26.259  27.132  1.00  0.00     0.074 A 
ATOM     43  C   UNL A   1      40.322  26.976  28.204  1.00  0.00     0.049 A 
ATOM     44  N   UNL A   1      43.216  27.267  27.419  1.00  0.00    -0.248 NA
ATOM     45  C   UNL A   1      43.088  25.190  26.365  1.00  0.00     0.031 C 
ATOM     46  C   UNL A   1      38.931  26.863  28.651  1.00  0.00     0.029 A 
ATOM     47  N   UNL A   1      40.721  28.200  28.678  1.00  0.00    -0.354 N 
ATOM     48  C   UNL A   1      44.456  26.952  26.873  1.00  0.00     0.074 A 
ATOM     49  C   UNL A   1      44.335  25.627  26.302  1.00  0.00     0.031 C 
ATOM     50  C   UNL A   1      38.588  27.982  29.307  1.00  0.00     0.029 A 
ATOM     51  C   UNL A   1      39.743  28.870  29.379  1.00  0.00     0.049 A 
ATOM     52  H   UNL A   1      41.623  28.567  28.529  1.00  0.00     0.167 HD
ATOM     53  C   UNL A   1      45.582  27.707  26.828  1.00  0.00     0.034 A 
ATOM     54  C   UNL A   1      39.778  30.055  30.020  1.00  0.00     0.034 A 
ATOM     55  C   UNL A   1      45.684  29.027  27.403  1.00  0.00     0.049 A 
ATOM     56  C   UNL A   1      41.055  30.858  29.998  1.00  0.00     0.074 A 
ATOM     57  C   UNL A   1      46.762  29.895  27.381  1.00  0.00     0.029 A 
ATOM     58  N   UNL A   1      44.676  29.667  28.114  1.00  0.00    -0.354 N 
ATOM     59  N   UNL A   1      42.206  30.564  29.436  1.00  0.00    -0.248 NA
ATOM     60  C   UNL A   1      41.036  32.156  30.685  1.00  0.00     0.031 C 
ATOM     61  C   UNL A   1      46.435  31.021  28.142  1.00  0.00     0.029 A 
ATOM     62  C   UNL A   1      45.120  30.902  28.563  1.00  0.00     0.049 A 
ATOM     63  H   UNL A   1      43.778  29.299  28.275  1.00  0.00     0.167 HD
ATOM     64  C   UNL A   1      43.034  31.658  29.675  1.00  0.00     0.074 A 
ATOM     65  C   UNL A   1      42.245  32.622  30.416  1.00  0.00     0.031 C 
ATOM     66  C   UNL A   1      44.328  31.852  29.311  1.00  0.00     0.034 A 
BRANCH  53  67
ATOM     67  C   UNL A   1      46.795  27.109  26.155  1.00  0.00     0.023 A 
ATOM     68  C   UNL A   1      47.769  26.402  26.883  1.00  0.00     0.031 A 
ATOM     69  C   UNL A   1      46.995  27.264  24.771  1.00  0.00     0.131 A 
ATOM     70  C   UNL A   1      48.933  25.949  26.241  1.00  0.00     0.055 A 
ATOM     71  C   UNL A   1      48.112  26.733  24.123  1.00  0.00     0.041 A 
ATOM     72  F   UNL A   1      46.113  27.949  24.025  1.00  0.00    -0.206 F 
ATOM     73  C   UNL A   1      49.098  26.083  24.862  1.00  0.00     0.022 A 
BRANCH  70  74
ATOM     74  S   UNL A   1      50.293  25.322  27.264  1.00  0.00     0.124 S 
ATOM     75  O   UNL A   1      49.673  24.160  27.899  1.00  0.00    -0.237 OA
ATOM     76  O   UNL A   1      51.327  25.036  26.276  1.00  0.00    -0.237 OA
ATOM     77  O   UNL A   1      50.583  26.434  28.168  1.00  0.00    -0.744 OA
ENDBRANCH  70  74
ENDBRANCH  53  67
BRANCH  54  78
ATOM     78  C   UNL A   1      38.579  30.552  30.758  1.00  0.00     0.023 A 
ATOM     79  C   UNL A   1      37.517  31.177  30.084  1.00  0.00     0.031 A 
ATOM     80  C   UNL A   1      38.499  30.452  32.160  1.00  0.00     0.131 A 
ATOM     81  C   UNL A   1      36.450  31.723  30.814  1.00  0.00     0.055 A 
ATOM     82  C   UNL A   1      37.406  30.942  32.875  1.00  0.00     0.041 A 
ATOM     83  F   UNL A   1      39.485  29.863  32.855  1.00  0.00    -0.206 F 
ATOM     84  C   UNL A   1      36.379  31.596  32.203  1.00  0.00     0.022 A 
BRANCH  81  85
ATOM     85  S   UNL A   1      35.201  32.697  29.928  1.00  0.00     0.124 S 
ATOM     86  O   UNL A   1      34.350  33.152  31.023  1.00  0.00    -0.237 OA
ATOM     87  O   UNL A   1      36.016  33.719  29.282  1.00  0.00    -0.237 OA
ATOM     88  O   UNL A   1      34.590  31.725  29.024  1.00  0.00    -0.744 OA
ENDBRANCH  81  85
ENDBRANCH  54  78
BRANCH  66  89
ATOM     89  C   UNL A   1      44.955  33.180  29.668  1.00  0.00     0.023 A 
ATOM     90  C   UNL A   1      44.904  34.284  28.800  1.00  0.00     0.031 A 
ATOM     91  C   UNL A   1      45.622  33.336  30.897  1.00  0.00     0.131 A 
ATOM     92  C   UNL A   1      45.558  35.476  29.146  1.00  0.00     0.055 A 
ATOM     93  C   UNL A   1      46.211  34.546  31.266  1.00  0.00     0.041 A 
ATOM     94  F   UNL A   1      45.708  32.314  31.763  1.00  0.00    -0.206 F 
ATOM     95  C   UNL A   1      46.194  35.621  30.382  1.00  0.00     0.022 A 
BRANCH  92  96
ATOM     96  S   UNL A   1      45.658  36.804  27.915  1.00  0.00     0.124 S 
ATOM     97  O   UNL A   1      44.315  36.788  27.343  1.00  0.00    -0.237 OA
ATOM     98  O   UNL A   1      45.989  37.966  28.733  1.00  0.00    -0.237 OA
ATOM     99  O   UNL A   1      46.720  36.358  27.014  1.00  0.00    -0.744 OA
ENDBRANCH  92  96
ENDBRANCH  66  89
ENDBRANCH  40  41
ENDBRANCH  32  35
ENDBRANCH  30  31
ENDBRANCH  29  30
ENDBRANCH   1  29
TORSDOF 19
ENDMDL
MODEL 2
REMARK VINA RESULT:     -11.1      5.061      9.897
REMARK SMILES C[C@](NC(=O)[C@](C)([NH3+])C(F)(F)F)(C(=O)NCCCCNC(=O)c1ccc(-c2c3nc(c(-c4cc(S(=O)(=O)[O-])ccc4F)c4ccc([nH]4)c(-c4cc(S(=O)(=O)[O-])ccc4F)c4nc(c(-c5cc(S(=O)(=O)[O-])ccc5F)c5ccc2[nH]5)C=C4)C=C3)cc1)c1ccccc1
REMARK SMILES IDX 17 1 16 2 15 3 13 4 14 5 2 7 1 8 86 9 87 10 91 11 88 12
REMARK SMILES IDX 90 13 89 14 3 15 4 16 5 18 6 19 7 20 8 21 9 25 10 26 11 27
REMARK SMILES IDX 12 28 18 29 19 30 20 31 21 32 22 34 23 35 24 36 85 37 25 38
REMARK SMILES IDX 84 39 26 40 27 41 28 42 78 43 29 44 83 45 77 46 79 47 30 48
REMARK SMILES IDX 82 49 76 50 75 51 31 53 63 54 43 55 62 56 44 57 47 58 61 59
REMARK SMILES IDX 80 60 45 61 46 62 60 64 81 65 48 66 32 67 33 68 41 69 34 70
REMARK SMILES IDX 40 71 42 72 39 73 35 74 36 75 37 76 38 77 64 78 65 79 73 80
REMARK SMILES IDX 66 81 72 82 74 83 71 84 67 85 68 86 69 87 70 88 49 89 50 90
REMARK SMILES IDX 58 91 51 92 57 93 59 94 56 95 52 96 53 97 54 98 55 99
REMARK H PARENT 15 6 3 17 8 22 8 23 8 24 20 33 79 52 47 63
REMARK Flexibility Score: inf
ROOT
ATOM      1  C   UNL A   1      32.321  28.388  24.280  1.00  0.00     0.023 C 
ENDROOT
BRANCH   1   2
ATOM      2  C   UNL A   1      31.606  27.045  24.147  1.00  0.00     0.116 C 
BRANCH   2   3
ATOM      3  N   UNL A   1      32.089  26.286  23.002  1.00  0.00    -0.354 N 
ATOM      4  C   UNL A   1      32.888  25.192  22.844  1.00  0.00     0.250 C 
ATOM      5  O   UNL A   1      32.883  24.719  21.701  1.00  0.00    -0.272 OA
ATOM      6  H   UNL A   1      31.764  26.645  22.146  1.00  0.00     0.163 HD
BRANCH   4   7
ATOM      7  C   UNL A   1      33.706  24.530  24.028  1.00  0.00     0.142 C 
ATOM      8  C   UNL A   1      34.527  25.654  24.709  1.00  0.00     0.051 C 
BRANCH   7   9
ATOM      9  C   UNL A   1      32.713  23.855  25.004  1.00  0.00    -0.013 A 
ATOM     10  C   UNL A   1      32.760  24.139  26.378  1.00  0.00     0.007 A 
ATOM     11  C   UNL A   1      31.736  22.927  24.587  1.00  0.00     0.007 A 
ATOM     12  C   UNL A   1      31.761  23.698  27.251  1.00  0.00     0.000 A 
ATOM     13  C   UNL A   1      30.758  22.450  25.465  1.00  0.00     0.000 A 
ATOM     14  C   UNL A   1      30.741  22.875  26.787  1.00  0.00     0.000 A 
ENDBRANCH   7   9
BRANCH   7  15
ATOM     15  N   UNL A   1      34.683  23.571  23.383  1.00  0.00    -0.332 N 
ATOM     16  C   UNL A   1      35.906  23.038  23.647  1.00  0.00     0.291 C 
ATOM     17  H   UNL A   1      34.332  23.238  22.525  1.00  0.00     0.165 HD
ATOM     18  O   UNL A   1      36.656  22.957  22.661  1.00  0.00    -0.267 OA
BRANCH  16  19
ATOM     19  C   UNL A   1      36.363  22.404  24.987  1.00  0.00     0.267 C 
ATOM     20  C   UNL A   1      36.527  23.412  26.120  1.00  0.00     0.100 C 
BRANCH  19  21
ATOM     21  N   UNL A   1      37.777  21.850  24.804  1.00  0.00    -0.337 N 
ATOM     22  H   UNL A   1      37.724  20.900  24.434  1.00  0.00     0.345 HD
ATOM     23  H   UNL A   1      38.257  21.838  25.704  1.00  0.00     0.345 HD
ATOM     24  H   UNL A   1      38.291  22.440  24.151  1.00  0.00     0.345 HD
ENDBRANCH  19  21
BRANCH  19  25
ATOM     25  C   UNL A   1      35.361  21.229  25.225  1.00  0.00     0.453 C 
ATOM     26  F   UNL A   1      34.622  21.381  26.346  1.00  0.00    -0.164 F 
ATOM     27  F   UNL A   1      34.512  20.997  24.202  1.00  0.00    -0.164 F 
ATOM     28  F   UNL A   1      36.046  20.057  25.375  1.00  0.00    -0.164 F 
ENDBRANCH  19  25
ENDBRANCH  16  19
ENDBRANCH   7  15
ENDBRANCH   4   7
ENDBRANCH   2   3
ENDBRANCH   1   2
BRANCH   1  29
ATOM     29  C   UNL A   1      31.658  29.383  25.236  1.00  0.00     0.023 C 
BRANCH  29  30
ATOM     30  C   UNL A   1      32.521  29.828  26.412  1.00  0.00     0.116 C 
BRANCH  30  31
ATOM     31  N   UNL A   1      32.451  31.262  26.643  1.00  0.00    -0.352 N 
ATOM     32  C   UNL A   1      33.295  32.056  27.380  1.00  0.00     0.251 C 
ATOM     33  H   UNL A   1      31.697  31.725  26.214  1.00  0.00     0.163 HD
ATOM     34  O   UNL A   1      32.983  33.222  27.616  1.00  0.00    -0.269 OA
BRANCH  32  35
ATOM     35  C   UNL A   1      34.555  31.492  27.911  1.00  0.00     0.039 A 
ATOM     36  C   UNL A   1      35.678  32.315  28.005  1.00  0.00     0.014 A 
ATOM     37  C   UNL A   1      34.617  30.164  28.343  1.00  0.00     0.014 A 
ATOM     38  C   UNL A   1      36.846  31.825  28.594  1.00  0.00     0.010 A 
ATOM     39  C   UNL A   1      35.754  29.703  29.001  1.00  0.00     0.010 A 
ATOM     40  C   UNL A   1      36.882  30.528  29.134  1.00  0.00    -0.014 A 
BRANCH  40  41
ATOM     41  C   UNL A   1      38.090  30.021  29.838  1.00  0.00     0.031 A 
ATOM     42  C   UNL A   1      38.430  30.526  31.214  1.00  0.00     0.074 A 
ATOM     43  C   UNL A   1      38.908  29.146  29.219  1.00  0.00     0.049 A 
ATOM     44  N   UNL A   1      39.471  30.260  31.961  1.00  0.00    -0.248 NA
ATOM     45  C   UNL A   1      37.489  31.481  31.817  1.00  0.00     0.031 C 
ATOM     46  C   UNL A   1      38.705  28.610  27.869  1.00  0.00     0.029 A 
ATOM     47  N   UNL A   1      40.076  28.557  29.633  1.00  0.00    -0.354 N 
ATOM     48  C   UNL A   1      39.313  31.014  33.118  1.00  0.00     0.074 A 
ATOM     49  C   UNL A   1      38.112  31.803  32.939  1.00  0.00     0.031 C 
ATOM     50  C   UNL A   1      39.697  27.754  27.582  1.00  0.00     0.029 A 
ATOM     51  C   UNL A   1      40.637  27.717  28.698  1.00  0.00     0.049 A 
ATOM     52  H   UNL A   1      40.476  28.719  30.519  1.00  0.00     0.167 HD
ATOM     53  C   UNL A   1      40.081  31.028  34.235  1.00  0.00     0.034 A 
ATOM     54  C   UNL A   1      41.786  27.011  28.727  1.00  0.00     0.034 A 
ATOM     55  C   UNL A   1      41.276  30.234  34.396  1.00  0.00     0.049 A 
ATOM     56  C   UNL A   1      42.650  27.078  29.962  1.00  0.00     0.074 A 
ATOM     57  C   UNL A   1      42.106  30.142  35.500  1.00  0.00     0.029 A 
ATOM     58  N   UNL A   1      41.818  29.404  33.423  1.00  0.00    -0.354 N 
ATOM     59  N   UNL A   1      42.460  27.762  31.067  1.00  0.00    -0.248 NA
ATOM     60  C   UNL A   1      43.876  26.269  29.960  1.00  0.00     0.031 C 
ATOM     61  C   UNL A   1      43.188  29.321  35.167  1.00  0.00     0.029 A 
ATOM     62  C   UNL A   1      42.989  28.825  33.889  1.00  0.00     0.049 A 
ATOM     63  H   UNL A   1      41.428  29.250  32.533  1.00  0.00     0.167 HD
ATOM     64  C   UNL A   1      43.526  27.438  31.902  1.00  0.00     0.074 A 
ATOM     65  C   UNL A   1      44.344  26.485  31.179  1.00  0.00     0.031 C 
ATOM     66  C   UNL A   1      43.802  27.883  33.155  1.00  0.00     0.034 A 
BRANCH  53  67
ATOM     67  C   UNL A   1      39.661  31.950  35.357  1.00  0.00     0.023 A 
ATOM     68  C   UNL A   1      38.927  31.482  36.462  1.00  0.00     0.031 A 
ATOM     69  C   UNL A   1      39.976  33.321  35.313  1.00  0.00     0.131 A 
ATOM     70  C   UNL A   1      38.466  32.385  37.432  1.00  0.00     0.055 A 
ATOM     71  C   UNL A   1      39.591  34.199  36.328  1.00  0.00     0.041 A 
ATOM     72  F   UNL A   1      40.654  33.833  34.273  1.00  0.00    -0.206 F 
ATOM     73  C   UNL A   1      38.818  33.735  37.389  1.00  0.00     0.022 A 
BRANCH  70  74
ATOM     74  S   UNL A   1      37.273  31.794  38.663  1.00  0.00     0.124 S 
ATOM     75  O   UNL A   1      38.027  31.954  39.905  1.00  0.00    -0.237 OA
ATOM     76  O   UNL A   1      36.148  32.703  38.476  1.00  0.00    -0.237 OA
ATOM     77  O   UNL A   1      37.029  30.408  38.267  1.00  0.00    -0.744 OA
ENDBRANCH  70  74
ENDBRANCH  53  67
BRANCH  54  78
ATOM     78  C   UNL A   1      42.204  26.196  27.548  1.00  0.00     0.023 A 
ATOM     79  C   UNL A   1      41.803  24.857  27.410  1.00  0.00     0.031 A 
ATOM     80  C   UNL A   1      43.055  26.733  26.564  1.00  0.00     0.131 A 
ATOM     81  C   UNL A   1      42.294  24.087  26.344  1.00  0.00     0.055 A 
ATOM     82  C   UNL A   1      43.490  25.980  25.472  1.00  0.00     0.041 A 
ATOM     83  F   UNL A   1      43.469  28.007  26.645  1.00  0.00    -0.206 F 
ATOM     84  C   UNL A   1      43.120  24.642  25.366  1.00  0.00     0.022 A 
BRANCH  81  85
ATOM     85  S   UNL A   1      41.916  22.312  26.310  1.00  0.00     0.124 S 
ATOM     86  O   UNL A   1      42.421  21.878  27.608  1.00  0.00    -0.237 OA
ATOM     87  O   UNL A   1      40.466  22.315  26.153  1.00  0.00    -0.237 OA
ATOM     88  O   UNL A   1      42.666  21.827  25.153  1.00  0.00    -0.744 OA
ENDBRANCH  81  85
ENDBRANCH  54  78
BRANCH  66  89
ATOM     89  C   UNL A   1      45.017  27.302  33.842  1.00  0.00     0.023 A 
ATOM     90  C   UNL A   1      44.948  26.127  34.609  1.00  0.00     0.031 A 
ATOM     91  C   UNL A   1      46.264  27.946  33.731  1.00  0.00     0.131 A 
ATOM     92  C   UNL A   1      46.088  25.663  35.283  1.00  0.00     0.055 A 
ATOM     93  C   UNL A   1      47.409  27.441  34.347  1.00  0.00     0.041 A 
ATOM     94  F   UNL A   1      46.390  29.075  33.017  1.00  0.00    -0.206 F 
ATOM     95  C   UNL A   1      47.323  26.301  35.140  1.00  0.00     0.022 A 
BRANCH  92  96
ATOM     96  S   UNL A   1      45.913  24.272  36.434  1.00  0.00     0.124 S 
ATOM     97  O   UNL A   1      46.653  24.748  37.599  1.00  0.00    -0.237 OA
ATOM     98  O   UNL A   1      44.467  24.177  36.593  1.00  0.00    -0.237 OA
ATOM     99  O   UNL A   1      46.533  23.157  35.720  1.00  0.00    -0.744 OA
ENDBRANCH  92  96
ENDBRANCH  66  89
ENDBRANCH  40  41
ENDBRANCH  32  35
ENDBRANCH  30  31
ENDBRANCH  29  30
ENDBRANCH   1  29
TORSDOF 19
ENDMDL
MODEL 3
REMARK VINA RESULT:     -11.0      5.628      8.814
REMARK SMILES C[C@](NC(=O)[C@](C)([NH3+])C(F)(F)F)(C(=O)NCCCCNC(=O)c1ccc(-c2c3nc(c(-c4cc(S(=O)(=O)[O-])ccc4F)c4ccc([nH]4)c(-c4cc(S(=O)(=O)[O-])ccc4F)c4nc(c(-c5cc(S(=O)(=O)[O-])ccc5F)c5ccc2[nH]5)C=C4)C=C3)cc1)c1ccccc1
REMARK SMILES IDX 17 1 16 2 15 3 13 4 14 5 2 7 1 8 86 9 87 10 91 11 88 12
REMARK SMILES IDX 90 13 89 14 3 15 4 16 5 18 6 19 7 20 8 21 9 25 10 26 11 27
REMARK SMILES IDX 12 28 18 29 19 30 20 31 21 32 22 34 23 35 24 36 85 37 25 38
REMARK SMILES IDX 84 39 26 40 27 41 28 42 78 43 29 44 83 45 77 46 79 47 30 48
REMARK SMILES IDX 82 49 76 50 75 51 31 53 63 54 43 55 62 56 44 57 47 58 61 59
REMARK SMILES IDX 80 60 45 61 46 62 60 64 81 65 48 66 32 67 33 68 41 69 34 70
REMARK SMILES IDX 40 71 42 72 39 73 35 74 36 75 37 76 38 77 64 78 65 79 73 80
REMARK SMILES IDX 66 81 72 82 74 83 71 84 67 85 68 86 69 87 70 88 49 89 50 90
REMARK SMILES IDX 58 91 51 92 57 93 59 94 56 95 52 96 53 97 54 98 55 99
REMARK H PARENT 15 6 3 17 8 22 8 23 8 24 20 33 79 52 47 63
REMARK Flexibility Score: inf
ROOT
ATOM      1  C   UNL A   1      32.068  30.459  26.689  1.00  0.00     0.023 C 
ENDROOT
BRANCH   1   2
ATOM      2  C   UNL A   1      31.425  30.024  25.374  1.00  0.00     0.116 C 
BRANCH   2   3
ATOM      3  N   UNL A   1      32.421  29.633  24.387  1.00  0.00    -0.354 N 
ATOM      4  C   UNL A   1      32.439  28.770  23.330  1.00  0.00     0.250 C 
ATOM      5  O   UNL A   1      33.427  28.886  22.595  1.00  0.00    -0.272 OA
ATOM      6  H   UNL A   1      33.279  30.099  24.511  1.00  0.00     0.163 HD
BRANCH   4   7
ATOM      7  C   UNL A   1      31.268  27.749  23.019  1.00  0.00     0.142 C 
ATOM      8  C   UNL A   1      31.075  26.868  24.278  1.00  0.00     0.051 C 
BRANCH   7   9
ATOM      9  C   UNL A   1      29.993  28.546  22.659  1.00  0.00    -0.013 A 
ATOM     10  C   UNL A   1      28.736  28.126  23.120  1.00  0.00     0.007 A 
ATOM     11  C   UNL A   1      30.011  29.706  21.855  1.00  0.00     0.007 A 
ATOM     12  C   UNL A   1      27.598  28.925  22.976  1.00  0.00     0.000 A 
ATOM     13  C   UNL A   1      28.867  30.489  21.673  1.00  0.00     0.000 A 
ATOM     14  C   UNL A   1      27.671  30.124  22.276  1.00  0.00     0.000 A 
ENDBRANCH   7   9
BRANCH   7  15
ATOM     15  N   UNL A   1      31.772  26.858  21.904  1.00  0.00    -0.332 N 
ATOM     16  C   UNL A   1      32.652  25.833  21.744  1.00  0.00     0.291 C 
ATOM     17  H   UNL A   1      31.339  27.086  21.050  1.00  0.00     0.165 HD
ATOM     18  O   UNL A   1      33.327  25.891  20.703  1.00  0.00    -0.267 OA
BRANCH  16  19
ATOM     19  C   UNL A   1      32.763  24.567  22.635  1.00  0.00     0.267 C 
ATOM     20  C   UNL A   1      32.973  23.278  21.848  1.00  0.00     0.100 C 
BRANCH  19  21
ATOM     21  N   UNL A   1      31.416  24.341  23.325  1.00  0.00    -0.337 N 
ATOM     22  H   UNL A   1      31.569  24.178  24.321  1.00  0.00     0.345 HD
ATOM     23  H   UNL A   1      30.956  23.529  22.915  1.00  0.00     0.345 HD
ATOM     24  H   UNL A   1      30.829  25.165  23.202  1.00  0.00     0.345 HD
ENDBRANCH  19  21
BRANCH  19  25
ATOM     25  C   UNL A   1      33.848  24.932  23.698  1.00  0.00     0.453 C 
ATOM     26  F   UNL A   1      33.425  24.759  24.970  1.00  0.00    -0.164 F 
ATOM     27  F   UNL A   1      35.015  24.270  23.561  1.00  0.00    -0.164 F 
ATOM     28  F   UNL A   1      34.185  26.251  23.584  1.00  0.00    -0.164 F 
ENDBRANCH  19  25
ENDBRANCH  16  19
ENDBRANCH   7  15
ENDBRANCH   4   7
ENDBRANCH   2   3
ENDBRANCH   1   2
BRANCH   1  29
ATOM     29  C   UNL A   1      31.803  31.912  27.091  1.00  0.00     0.023 C 
BRANCH  29  30
ATOM     30  C   UNL A   1      33.045  32.730  27.429  1.00  0.00     0.116 C 
BRANCH  30  31
ATOM     31  N   UNL A   1      32.727  34.105  27.781  1.00  0.00    -0.352 N 
ATOM     32  C   UNL A   1      33.254  34.878  28.785  1.00  0.00     0.251 C 
ATOM     33  H   UNL A   1      32.040  34.538  27.225  1.00  0.00     0.163 HD
ATOM     34  O   UNL A   1      32.738  35.963  29.054  1.00  0.00    -0.269 OA
BRANCH  32  35
ATOM     35  C   UNL A   1      34.416  34.387  29.557  1.00  0.00     0.039 A 
ATOM     36  C   UNL A   1      34.195  33.735  30.771  1.00  0.00     0.014 A 
ATOM     37  C   UNL A   1      35.716  34.543  29.068  1.00  0.00     0.014 A 
ATOM     38  C   UNL A   1      35.274  33.181  31.463  1.00  0.00     0.010 A 
ATOM     39  C   UNL A   1      36.779  33.921  29.717  1.00  0.00     0.010 A 
ATOM     40  C   UNL A   1      36.571  33.234  30.922  1.00  0.00    -0.014 A 
BRANCH  40  41
ATOM     41  C   UNL A   1      37.717  32.576  31.606  1.00  0.00     0.031 A 
ATOM     42  C   UNL A   1      38.434  31.430  30.945  1.00  0.00     0.074 A 
ATOM     43  C   UNL A   1      38.078  32.975  32.842  1.00  0.00     0.049 A 
ATOM     44  N   UNL A   1      39.406  30.685  31.405  1.00  0.00    -0.248 NA
ATOM     45  C   UNL A   1      37.976  31.054  29.599  1.00  0.00     0.031 C 
ATOM     46  C   UNL A   1      37.436  34.051  33.602  1.00  0.00     0.029 A 
ATOM     47  N   UNL A   1      39.066  32.524  33.681  1.00  0.00    -0.354 N 
ATOM     48  C   UNL A   1      39.674  29.751  30.409  1.00  0.00     0.074 A 
ATOM     49  C   UNL A   1      38.711  29.981  29.353  1.00  0.00     0.031 C 
ATOM     50  C   UNL A   1      38.063  34.192  34.780  1.00  0.00     0.029 A 
ATOM     51  C   UNL A   1      39.114  33.186  34.887  1.00  0.00     0.049 A 
ATOM     52  H   UNL A   1      39.683  31.794  33.443  1.00  0.00     0.167 HD
ATOM     53  C   UNL A   1      40.648  28.809  30.368  1.00  0.00     0.034 A 
ATOM     54  C   UNL A   1      39.904  32.995  35.963  1.00  0.00     0.034 A 
ATOM     55  C   UNL A   1      41.600  28.594  31.431  1.00  0.00     0.049 A 
ATOM     56  C   UNL A   1      40.951  31.909  35.914  1.00  0.00     0.074 A 
ATOM     57  C   UNL A   1      42.652  27.694  31.476  1.00  0.00     0.029 A 
ATOM     58  N   UNL A   1      41.612  29.277  32.641  1.00  0.00    -0.354 N 
ATOM     59  N   UNL A   1      41.221  31.065  34.944  1.00  0.00    -0.248 NA
ATOM     60  C   UNL A   1      41.807  31.757  37.098  1.00  0.00     0.031 C 
ATOM     61  C   UNL A   1      43.248  27.779  32.739  1.00  0.00     0.029 A 
ATOM     62  C   UNL A   1      42.630  28.795  33.451  1.00  0.00     0.049 A 
ATOM     63  H   UNL A   1      40.989  29.997  32.887  1.00  0.00     0.167 HD
ATOM     64  C   UNL A   1      42.300  30.307  35.391  1.00  0.00     0.074 A 
ATOM     65  C   UNL A   1      42.640  30.805  36.708  1.00  0.00     0.031 C 
ATOM     66  C   UNL A   1      42.954  29.293  34.768  1.00  0.00     0.034 A 
BRANCH  53  67
ATOM     67  C   UNL A   1      40.712  27.927  29.142  1.00  0.00     0.023 A 
ATOM     68  C   UNL A   1      41.628  28.172  28.103  1.00  0.00     0.031 A 
ATOM     69  C   UNL A   1      39.830  26.840  28.996  1.00  0.00     0.131 A 
ATOM     70  C   UNL A   1      41.588  27.395  26.935  1.00  0.00     0.055 A 
ATOM     71  C   UNL A   1      39.857  26.015  27.870  1.00  0.00     0.041 A 
ATOM     72  F   UNL A   1      38.917  26.568  29.942  1.00  0.00    -0.206 F 
ATOM     73  C   UNL A   1      40.730  26.301  26.823  1.00  0.00     0.022 A 
BRANCH  70  74
ATOM     74  S   UNL A   1      42.567  27.934  25.507  1.00  0.00     0.124 S 
ATOM     75  O   UNL A   1      41.770  29.053  25.009  1.00  0.00    -0.237 OA
ATOM     76  O   UNL A   1      43.848  28.280  26.112  1.00  0.00    -0.237 OA
ATOM     77  O   UNL A   1      42.584  26.758  24.639  1.00  0.00    -0.744 OA
ENDBRANCH  70  74
ENDBRANCH  53  67
BRANCH  54  78
ATOM     78  C   UNL A   1      39.729  33.829  37.189  1.00  0.00     0.023 A 
ATOM     79  C   UNL A   1      40.557  34.935  37.441  1.00  0.00     0.031 A 
ATOM     80  C   UNL A   1      38.759  33.501  38.154  1.00  0.00     0.131 A 
ATOM     81  C   UNL A   1      40.436  35.639  38.649  1.00  0.00     0.055 A 
ATOM     82  C   UNL A   1      38.601  34.242  39.326  1.00  0.00     0.041 A 
ATOM     83  F   UNL A   1      37.940  32.454  37.965  1.00  0.00    -0.206 F 
ATOM     84  C   UNL A   1      39.453  35.312  39.585  1.00  0.00     0.022 A 
BRANCH  81  85
ATOM     85  S   UNL A   1      41.652  36.932  39.026  1.00  0.00     0.124 S 
ATOM     86  O   UNL A   1      40.790  38.053  39.385  1.00  0.00    -0.237 OA
ATOM     87  O   UNL A   1      42.407  36.327  40.118  1.00  0.00    -0.237 OA
ATOM     88  O   UNL A   1      42.386  37.084  37.772  1.00  0.00    -0.744 OA
ENDBRANCH  81  85
ENDBRANCH  54  78
BRANCH  66  89
ATOM     89  C   UNL A   1      44.138  28.690  35.487  1.00  0.00     0.023 A 
ATOM     90  C   UNL A   1      43.991  27.657  36.428  1.00  0.00     0.031 A 
ATOM     91  C   UNL A   1      45.437  29.166  35.228  1.00  0.00     0.131 A 
ATOM     92  C   UNL A   1      45.113  27.175  37.119  1.00  0.00     0.055 A 
ATOM     93  C   UNL A   1      46.557  28.635  35.868  1.00  0.00     0.041 A 
ATOM     94  F   UNL A   1      45.639  30.156  34.344  1.00  0.00    -0.206 F 
ATOM     95  C   UNL A   1      46.398  27.643  36.831  1.00  0.00     0.022 A 
BRANCH  92  96
ATOM     96  S   UNL A   1      44.860  25.999  38.478  1.00  0.00     0.124 S 
ATOM     97  O   UNL A   1      44.768  24.728  37.765  1.00  0.00    -0.237 OA
ATOM     98  O   UNL A   1      46.058  26.192  39.286  1.00  0.00    -0.237 OA
ATOM     99  O   UNL A   1      43.616  26.453  39.097  1.00  0.00    -0.744 OA
ENDBRANCH  92  96
ENDBRANCH  66  89
ENDBRANCH  40  41
ENDBRANCH  32  35
ENDBRANCH  30  31
ENDBRANCH  29  30
ENDBRANCH   1  29
TORSDOF 19
ENDMDL
