MODEL 1
REMARK VINA RESULT:     -13.8      0.000      0.000
REMARK SMILES O=C(NCCCCNC(=O)c1ccc(-c2c3nc(c(-c4cc(S(=O)(=O)[O-])ccc4F)c4ccc([nH]4)c(-c4cc(S(=O)(=O)[O-])ccc4F)c4nc(c(-c5cc(S(=O)(=O)[O-])ccc5F)c5ccc2[nH]5)C=C4)C=C3)cc1)C1=Cc2cc(Cl)cc(-c3ccccc3)c2O[C@@H]1C(F)(F)F
REMARK SMILES IDX 6 1 5 2 4 3 3 4 1 5 2 6 74 8 75 9 90 10 76 11 89 12 77 13
REMARK SMILES IDX 88 14 78 15 81 16 79 17 80 18 91 19 92 20 93 21 94 22 82 23
REMARK SMILES IDX 83 24 87 25 84 26 86 27 85 28 7 29 8 30 9 31 10 33 11 34
REMARK SMILES IDX 12 35 73 36 13 37 72 38 14 39 15 40 16 41 66 42 17 43 71 44
REMARK SMILES IDX 65 45 67 46 18 47 70 48 64 49 63 50 19 52 51 53 31 54 50 55
REMARK SMILES IDX 32 56 35 57 49 58 68 59 33 60 34 61 48 63 69 64 36 65 20 66
REMARK SMILES IDX 21 67 29 68 22 69 28 70 30 71 27 72 23 73 24 74 25 75 26 76
REMARK SMILES IDX 52 77 53 78 61 79 54 80 60 81 62 82 59 83 55 84 56 85 57 86
REMARK SMILES IDX 58 87 37 88 38 89 46 90 39 91 45 92 47 93 44 94 40 95 41 96
REMARK SMILES IDX 42 97 43 98
REMARK H PARENT 3 7 8 32 67 51 35 62
REMARK Flexibility Score: inf
ROOT
ATOM      1  C   UNL A   1      35.890  20.900  25.378  1.00  0.00     0.023 C 
ENDROOT
BRANCH   1   2
ATOM      2  C   UNL A   1      35.088  21.623  26.457  1.00  0.00     0.023 C 
BRANCH   2   3
ATOM      3  C   UNL A   1      33.644  21.179  26.665  1.00  0.00     0.116 C 
BRANCH   3   4
ATOM      4  N   UNL A   1      32.737  22.172  27.216  1.00  0.00    -0.352 N 
ATOM      5  O   UNL A   1      31.260  23.862  27.231  1.00  0.00    -0.270 OA
ATOM      6  C   UNL A   1      32.084  23.204  26.595  1.00  0.00     0.251 C 
ATOM      7  H   UNL A   1      32.564  22.090  28.181  1.00  0.00     0.163 HD
BRANCH   6   8
ATOM      8  C   UNL A   1      32.272  23.543  25.148  1.00  0.00     0.067 C 
ATOM      9  C   UNL A   1      31.250  23.755  24.299  1.00  0.00     0.025 C 
ATOM     10  C   UNL A   1      33.545  24.330  24.905  1.00  0.00     0.314 C 
ATOM     11  C   UNL A   1      31.048  25.214  24.077  1.00  0.00     0.019 A 
ATOM     12  O   UNL A   1      33.261  25.754  24.955  1.00  0.00    -0.475 OA
ATOM     13  C   UNL A   1      29.782  25.639  23.665  1.00  0.00     0.032 A 
ATOM     14  C   UNL A   1      32.000  26.143  24.552  1.00  0.00     0.135 A 
ATOM     15  C   UNL A   1      29.430  26.973  23.822  1.00  0.00     0.042 A 
ATOM     16  C   UNL A   1      31.630  27.485  24.751  1.00  0.00     0.026 A 
ATOM     17  Cl  UNL A   1      27.822  27.468  23.467  1.00  0.00    -0.084 Cl
ATOM     18  C   UNL A   1      30.332  27.882  24.374  1.00  0.00     0.033 A 
BRANCH  10  19
ATOM     19  C   UNL A   1      34.265  23.924  23.606  1.00  0.00     0.429 C 
ATOM     20  F   UNL A   1      33.937  24.737  22.574  1.00  0.00    -0.167 F 
ATOM     21  F   UNL A   1      35.612  23.993  23.745  1.00  0.00    -0.167 F 
ATOM     22  F   UNL A   1      33.978  22.657  23.220  1.00  0.00    -0.167 F 
ENDBRANCH  10  19
BRANCH  16  23
ATOM     23  C   UNL A   1      32.457  28.438  25.506  1.00  0.00    -0.015 A 
ATOM     24  C   UNL A   1      33.788  28.117  25.826  1.00  0.00     0.009 A 
ATOM     25  C   UNL A   1      31.916  29.620  26.026  1.00  0.00     0.009 A 
ATOM     26  C   UNL A   1      34.537  28.916  26.692  1.00  0.00     0.001 A 
ATOM     27  C   UNL A   1      32.670  30.432  26.878  1.00  0.00     0.001 A 
ATOM     28  C   UNL A   1      33.972  30.069  27.226  1.00  0.00     0.000 A 
ENDBRANCH  16  23
ENDBRANCH   6   8
ENDBRANCH   3   4
ENDBRANCH   2   3
ENDBRANCH   1   2
BRANCH   1  29
ATOM     29  C   UNL A   1      37.282  21.439  25.041  1.00  0.00     0.116 C 
BRANCH  29  30
ATOM     30  N   UNL A   1      38.393  20.525  25.263  1.00  0.00    -0.352 N 
ATOM     31  C   UNL A   1      39.533  20.732  26.023  1.00  0.00     0.251 C 
ATOM     32  H   UNL A   1      38.325  19.650  24.816  1.00  0.00     0.163 HD
ATOM     33  O   UNL A   1      40.373  19.852  26.128  1.00  0.00    -0.269 OA
BRANCH  31  34
ATOM     34  C   UNL A   1      39.757  22.061  26.646  1.00  0.00     0.039 A 
ATOM     35  C   UNL A   1      40.716  22.170  27.656  1.00  0.00     0.014 A 
ATOM     36  C   UNL A   1      39.111  23.202  26.165  1.00  0.00     0.014 A 
ATOM     37  C   UNL A   1      41.127  23.436  28.085  1.00  0.00     0.010 A 
ATOM     38  C   UNL A   1      39.569  24.465  26.546  1.00  0.00     0.010 A 
ATOM     39  C   UNL A   1      40.612  24.595  27.478  1.00  0.00    -0.014 A 
BRANCH  39  40
ATOM     40  C   UNL A   1      41.233  25.927  27.733  1.00  0.00     0.031 A 
ATOM     41  C   UNL A   1      42.597  26.265  27.201  1.00  0.00     0.074 A 
ATOM     42  C   UNL A   1      40.581  26.816  28.512  1.00  0.00     0.049 A 
ATOM     43  N   UNL A   1      43.290  27.366  27.350  1.00  0.00    -0.248 NA
ATOM     44  C   UNL A   1      43.280  25.223  26.425  1.00  0.00     0.031 C 
ATOM     45  C   UNL A   1      39.275  26.589  29.141  1.00  0.00     0.029 A 
ATOM     46  N   UNL A   1      40.920  28.085  28.912  1.00  0.00    -0.354 N 
ATOM     47  C   UNL A   1      44.491  27.155  26.683  1.00  0.00     0.074 A 
ATOM     48  C   UNL A   1      44.453  25.794  26.184  1.00  0.00     0.031 C 
ATOM     49  C   UNL A   1      38.913  27.692  29.816  1.00  0.00     0.029 A 
ATOM     50  C   UNL A   1      39.972  28.690  29.708  1.00  0.00     0.049 A 
ATOM     51  H   UNL A   1      41.764  28.523  28.655  1.00  0.00     0.167 HD
ATOM     52  C   UNL A   1      45.518  28.019  26.483  1.00  0.00     0.034 A 
ATOM     53  C   UNL A   1      39.953  29.907  30.288  1.00  0.00     0.034 A 
ATOM     54  C   UNL A   1      45.547  29.373  26.984  1.00  0.00     0.049 A 
ATOM     55  C   UNL A   1      41.117  30.839  30.074  1.00  0.00     0.074 A 
ATOM     56  C   UNL A   1      46.514  30.345  26.787  1.00  0.00     0.029 A 
ATOM     57  N   UNL A   1      44.574  29.947  27.792  1.00  0.00    -0.354 N 
ATOM     58  N   UNL A   1      42.217  30.643  29.383  1.00  0.00    -0.248 NA
ATOM     59  C   UNL A   1      41.032  32.161  30.709  1.00  0.00     0.031 C 
ATOM     60  C   UNL A   1      46.159  31.479  27.526  1.00  0.00     0.029 A 
ATOM     61  C   UNL A   1      44.934  31.245  28.127  1.00  0.00     0.049 A 
ATOM     62  H   UNL A   1      43.747  29.498  28.085  1.00  0.00     0.167 HD
ATOM     63  C   UNL A   1      42.938  31.830  29.477  1.00  0.00     0.074 A 
ATOM     64  C   UNL A   1      42.145  32.738  30.278  1.00  0.00     0.031 C 
ATOM     65  C   UNL A   1      44.145  32.141  28.940  1.00  0.00     0.034 A 
BRANCH  52  66
ATOM     66  C   UNL A   1      46.706  27.514  25.699  1.00  0.00     0.023 A 
ATOM     67  C   UNL A   1      46.956  27.949  24.386  1.00  0.00     0.031 A 
ATOM     68  C   UNL A   1      47.590  26.576  26.261  1.00  0.00     0.131 A 
ATOM     69  C   UNL A   1      48.016  27.394  23.653  1.00  0.00     0.055 A 
ATOM     70  C   UNL A   1      48.691  26.087  25.555  1.00  0.00     0.041 A 
ATOM     71  F   UNL A   1      47.392  26.111  27.504  1.00  0.00    -0.206 F 
ATOM     72  C   UNL A   1      48.901  26.484  24.237  1.00  0.00     0.022 A 
BRANCH  69  73
ATOM     73  S   UNL A   1      48.138  27.773  21.884  1.00  0.00     0.124 S 
ATOM     74  O   UNL A   1      49.286  28.677  21.856  1.00  0.00    -0.237 OA
ATOM     75  O   UNL A   1      48.346  26.458  21.292  1.00  0.00    -0.237 OA
ATOM     76  O   UNL A   1      46.854  28.401  21.579  1.00  0.00    -0.744 OA
ENDBRANCH  69  73
ENDBRANCH  52  66
BRANCH  53  77
ATOM     77  C   UNL A   1      38.797  30.324  31.132  1.00  0.00     0.023 A 
ATOM     78  C   UNL A   1      37.741  31.072  30.589  1.00  0.00     0.031 A 
ATOM     79  C   UNL A   1      38.751  30.016  32.503  1.00  0.00     0.131 A 
ATOM     80  C   UNL A   1      36.706  31.530  31.421  1.00  0.00     0.055 A 
ATOM     81  C   UNL A   1      37.696  30.430  33.317  1.00  0.00     0.041 A 
ATOM     82  F   UNL A   1      39.733  29.297  33.070  1.00  0.00    -0.206 F 
ATOM     83  C   UNL A   1      36.671  31.203  32.779  1.00  0.00     0.022 A 
BRANCH  80  84
ATOM     84  S   UNL A   1      35.446  32.627  30.717  1.00  0.00     0.124 S 
ATOM     85  O   UNL A   1      34.451  32.659  31.781  1.00  0.00    -0.237 OA
ATOM     86  O   UNL A   1      36.202  33.858  30.507  1.00  0.00    -0.237 OA
ATOM     87  O   UNL A   1      35.036  31.935  29.497  1.00  0.00    -0.744 OA
ENDBRANCH  80  84
ENDBRANCH  53  77
BRANCH  65  88
ATOM     88  C   UNL A   1      44.658  33.541  29.172  1.00  0.00     0.023 A 
ATOM     89  C   UNL A   1      44.269  34.618  28.357  1.00  0.00     0.031 A 
ATOM     90  C   UNL A   1      45.563  33.797  30.219  1.00  0.00     0.131 A 
ATOM     91  C   UNL A   1      44.821  35.891  28.568  1.00  0.00     0.055 A 
ATOM     92  C   UNL A   1      46.065  35.077  30.460  1.00  0.00     0.041 A 
ATOM     93  F   UNL A   1      45.971  32.806  31.027  1.00  0.00    -0.206 F 
ATOM     94  C   UNL A   1      45.705  36.130  29.624  1.00  0.00     0.022 A 
BRANCH  91  95
ATOM     95  S   UNL A   1      44.432  37.218  27.393  1.00  0.00     0.124 S 
ATOM     96  O   UNL A   1      45.686  37.351  26.660  1.00  0.00    -0.237 OA
ATOM     97  O   UNL A   1      43.312  36.655  26.646  1.00  0.00    -0.237 OA
ATOM     98  O   UNL A   1      44.093  38.350  28.254  1.00  0.00    -0.744 OA
ENDBRANCH  91  95
ENDBRANCH  65  88
ENDBRANCH  39  40
ENDBRANCH  31  34
ENDBRANCH  29  30
ENDBRANCH   1  29
TORSDOF 16
ENDMDL
MODEL 2
REMARK VINA RESULT:     -13.7      0.602      7.322
REMARK SMILES O=C(NCCCCNC(=O)c1ccc(-c2c3nc(c(-c4cc(S(=O)(=O)[O-])ccc4F)c4ccc([nH]4)c(-c4cc(S(=O)(=O)[O-])ccc4F)c4nc(c(-c5cc(S(=O)(=O)[O-])ccc5F)c5ccc2[nH]5)C=C4)C=C3)cc1)C1=Cc2cc(Cl)cc(-c3ccccc3)c2O[C@@H]1C(F)(F)F
REMARK SMILES IDX 6 1 5 2 4 3 3 4 1 5 2 6 74 8 75 9 90 10 76 11 89 12 77 13
REMARK SMILES IDX 88 14 78 15 81 16 79 17 80 18 91 19 92 20 93 21 94 22 82 23
REMARK SMILES IDX 83 24 87 25 84 26 86 27 85 28 7 29 8 30 9 31 10 33 11 34
REMARK SMILES IDX 12 35 73 36 13 37 72 38 14 39 15 40 16 41 66 42 17 43 71 44
REMARK SMILES IDX 65 45 67 46 18 47 70 48 64 49 63 50 19 52 51 53 31 54 50 55
REMARK SMILES IDX 32 56 35 57 49 58 68 59 33 60 34 61 48 63 69 64 36 65 20 66
REMARK SMILES IDX 21 67 29 68 22 69 28 70 30 71 27 72 23 73 24 74 25 75 26 76
REMARK SMILES IDX 52 77 53 78 61 79 54 80 60 81 62 82 59 83 55 84 56 85 57 86
REMARK SMILES IDX 58 87 37 88 38 89 46 90 39 91 45 92 47 93 44 94 40 95 41 96
REMARK SMILES IDX 42 97 43 98
REMARK H PARENT 3 7 8 32 67 51 35 62
REMARK Flexibility Score: inf
ROOT
ATOM      1  C   UNL A   1      35.635  20.979  25.361  1.00  0.00     0.023 C 
ENDROOT
BRANCH   1   2
ATOM      2  C   UNL A   1      34.774  21.454  26.529  1.00  0.00     0.023 C 
BRANCH   2   3
ATOM      3  C   UNL A   1      33.275  21.187  26.442  1.00  0.00     0.116 C 
BRANCH   3   4
ATOM      4  N   UNL A   1      32.405  22.208  27.002  1.00  0.00    -0.352 N 
ATOM      5  O   UNL A   1      31.087  24.024  27.045  1.00  0.00    -0.270 OA
ATOM      6  C   UNL A   1      31.913  23.350  26.428  1.00  0.00     0.251 C 
ATOM      7  H   UNL A   1      32.126  22.055  27.933  1.00  0.00     0.163 HD
BRANCH   6   8
ATOM      8  C   UNL A   1      32.280  23.801  25.047  1.00  0.00     0.067 C 
ATOM      9  C   UNL A   1      31.372  24.142  24.115  1.00  0.00     0.025 C 
ATOM     10  C   UNL A   1      33.607  24.532  25.017  1.00  0.00     0.314 C 
ATOM     11  C   UNL A   1      31.265  25.625  24.007  1.00  0.00     0.019 A 
ATOM     12  O   UNL A   1      33.388  25.961  25.166  1.00  0.00    -0.475 OA
ATOM     13  C   UNL A   1      30.076  26.155  23.500  1.00  0.00     0.032 A 
ATOM     14  C   UNL A   1      32.200  26.454  24.666  1.00  0.00     0.135 A 
ATOM     15  C   UNL A   1      29.771  27.489  23.740  1.00  0.00     0.042 A 
ATOM     16  C   UNL A   1      31.873  27.792  24.946  1.00  0.00     0.026 A 
ATOM     17  Cl  UNL A   1      28.239  28.103  23.259  1.00  0.00    -0.084 Cl
ATOM     18  C   UNL A   1      30.646  28.294  24.468  1.00  0.00     0.033 A 
BRANCH  10  19
ATOM     19  C   UNL A   1      34.450  24.198  23.773  1.00  0.00     0.429 C 
ATOM     20  F   UNL A   1      34.264  25.103  22.782  1.00  0.00    -0.167 F 
ATOM     21  F   UNL A   1      35.776  24.199  24.058  1.00  0.00    -0.167 F 
ATOM     22  F   UNL A   1      34.164  22.978  23.256  1.00  0.00    -0.167 F 
ENDBRANCH  10  19
BRANCH  16  23
ATOM     23  C   UNL A   1      32.653  28.629  25.870  1.00  0.00    -0.015 A 
ATOM     24  C   UNL A   1      32.106  29.825  26.369  1.00  0.00     0.009 A 
ATOM     25  C   UNL A   1      33.986  28.330  26.177  1.00  0.00     0.009 A 
ATOM     26  C   UNL A   1      32.884  30.726  27.099  1.00  0.00     0.001 A 
ATOM     27  C   UNL A   1      34.761  29.222  26.923  1.00  0.00     0.001 A 
ATOM     28  C   UNL A   1      34.216  30.428  27.365  1.00  0.00     0.000 A 
ENDBRANCH  16  23
ENDBRANCH   6   8
ENDBRANCH   3   4
ENDBRANCH   2   3
ENDBRANCH   1   2
BRANCH   1  29
ATOM     29  C   UNL A   1      37.040  21.568  25.221  1.00  0.00     0.116 C 
BRANCH  29  30
ATOM     30  N   UNL A   1      38.143  20.627  25.348  1.00  0.00    -0.352 N 
ATOM     31  C   UNL A   1      39.345  20.803  26.017  1.00  0.00     0.251 C 
ATOM     32  H   UNL A   1      38.020  19.757  24.904  1.00  0.00     0.163 HD
ATOM     33  O   UNL A   1      40.170  19.903  26.049  1.00  0.00    -0.269 OA
BRANCH  31  34
ATOM     34  C   UNL A   1      39.649  22.122  26.627  1.00  0.00     0.039 A 
ATOM     35  C   UNL A   1      40.637  22.188  27.613  1.00  0.00     0.014 A 
ATOM     36  C   UNL A   1      39.048  23.292  26.156  1.00  0.00     0.014 A 
ATOM     37  C   UNL A   1      41.119  23.435  28.025  1.00  0.00     0.010 A 
ATOM     38  C   UNL A   1      39.575  24.532  26.520  1.00  0.00     0.010 A 
ATOM     39  C   UNL A   1      40.646  24.614  27.425  1.00  0.00    -0.014 A 
BRANCH  39  40
ATOM     40  C   UNL A   1      41.337  25.915  27.658  1.00  0.00     0.031 A 
ATOM     41  C   UNL A   1      40.675  27.023  28.428  1.00  0.00     0.074 A 
ATOM     42  C   UNL A   1      42.554  26.119  27.109  1.00  0.00     0.049 A 
ATOM     43  N   UNL A   1      41.126  28.221  28.700  1.00  0.00    -0.248 NA
ATOM     44  C   UNL A   1      39.322  26.759  28.932  1.00  0.00     0.031 C 
ATOM     45  C   UNL A   1      43.284  25.146  26.289  1.00  0.00     0.029 A 
ATOM     46  N   UNL A   1      43.393  27.205  27.152  1.00  0.00    -0.354 N 
ATOM     47  C   UNL A   1      40.116  28.857  29.413  1.00  0.00     0.074 A 
ATOM     48  C   UNL A   1      39.004  27.927  29.472  1.00  0.00     0.031 C 
ATOM     49  C   UNL A   1      44.470  25.668  25.937  1.00  0.00     0.029 A 
ATOM     50  C   UNL A   1      44.574  27.023  26.466  1.00  0.00     0.049 A 
ATOM     51  H   UNL A   1      43.172  28.038  27.628  1.00  0.00     0.167 HD
ATOM     52  C   UNL A   1      40.121  30.087  29.985  1.00  0.00     0.034 A 
ATOM     53  C   UNL A   1      45.623  27.851  26.280  1.00  0.00     0.034 A 
ATOM     54  C   UNL A   1      41.233  31.006  29.920  1.00  0.00     0.049 A 
ATOM     55  C   UNL A   1      45.594  29.222  26.902  1.00  0.00     0.074 A 
ATOM     56  C   UNL A   1      41.359  32.251  30.515  1.00  0.00     0.029 A 
ATOM     57  N   UNL A   1      42.407  30.791  29.211  1.00  0.00    -0.354 N 
ATOM     58  N   UNL A   1      44.654  29.779  27.629  1.00  0.00    -0.248 NA
ATOM     59  C   UNL A   1      46.774  30.071  26.687  1.00  0.00     0.031 C 
ATOM     60  C   UNL A   1      42.575  32.813  30.112  1.00  0.00     0.029 A 
ATOM     61  C   UNL A   1      43.245  31.891  29.326  1.00  0.00     0.049 A 
ATOM     62  H   UNL A   1      42.616  29.975  28.699  1.00  0.00     0.167 HD
ATOM     63  C   UNL A   1      45.145  31.033  27.983  1.00  0.00     0.074 A 
ATOM     64  C   UNL A   1      46.466  31.144  27.401  1.00  0.00     0.031 C 
ATOM     65  C   UNL A   1      44.556  32.002  28.730  1.00  0.00     0.034 A 
BRANCH  52  66
ATOM     66  C   UNL A   1      38.872  30.515  30.719  1.00  0.00     0.023 A 
ATOM     67  C   UNL A   1      37.898  31.320  30.103  1.00  0.00     0.031 A 
ATOM     68  C   UNL A   1      38.658  30.130  32.054  1.00  0.00     0.131 A 
ATOM     69  C   UNL A   1      36.794  31.774  30.839  1.00  0.00     0.055 A 
ATOM     70  C   UNL A   1      37.516  30.519  32.759  1.00  0.00     0.041 A 
ATOM     71  F   UNL A   1      39.560  29.377  32.702  1.00  0.00    -0.206 F 
ATOM     72  C   UNL A   1      36.583  31.359  32.156  1.00  0.00     0.022 A 
BRANCH  69  73
ATOM     73  S   UNL A   1      35.713  33.026  30.096  1.00  0.00     0.124 S 
ATOM     74  O   UNL A   1      34.394  32.429  30.293  1.00  0.00    -0.237 OA
ATOM     75  O   UNL A   1      36.005  34.210  30.894  1.00  0.00    -0.237 OA
ATOM     76  O   UNL A   1      36.161  33.083  28.706  1.00  0.00    -0.744 OA
ENDBRANCH  69  73
ENDBRANCH  52  66
BRANCH  53  77
ATOM     77  C   UNL A   1      46.794  27.414  25.467  1.00  0.00     0.023 A 
ATOM     78  C   UNL A   1      46.960  27.857  24.145  1.00  0.00     0.031 A 
ATOM     79  C   UNL A   1      47.741  26.513  25.986  1.00  0.00     0.131 A 
ATOM     80  C   UNL A   1      48.022  27.363  23.370  1.00  0.00     0.055 A 
ATOM     81  C   UNL A   1      48.823  26.063  25.227  1.00  0.00     0.041 A 
ATOM     82  F   UNL A   1      47.632  26.064  27.246  1.00  0.00    -0.206 F 
ATOM     83  C   UNL A   1      48.961  26.479  23.906  1.00  0.00     0.022 A 
BRANCH  80  84
ATOM     84  S   UNL A   1      48.111  27.833  21.620  1.00  0.00     0.124 S 
ATOM     85  O   UNL A   1      48.401  26.555  20.983  1.00  0.00    -0.237 OA
ATOM     86  O   UNL A   1      46.778  28.380  21.386  1.00  0.00    -0.237 OA
ATOM     87  O   UNL A   1      49.197  28.810  21.586  1.00  0.00    -0.744 OA
ENDBRANCH  80  84
ENDBRANCH  53  77
BRANCH  65  88
ATOM     88  C   UNL A   1      45.362  33.250  28.992  1.00  0.00     0.023 A 
ATOM     89  C   UNL A   1      45.207  34.410  28.213  1.00  0.00     0.031 A 
ATOM     90  C   UNL A   1      46.310  33.273  30.031  1.00  0.00     0.131 A 
ATOM     91  C   UNL A   1      46.024  35.527  28.451  1.00  0.00     0.055 A 
ATOM     92  C   UNL A   1      47.080  34.407  30.299  1.00  0.00     0.041 A 
ATOM     93  F   UNL A   1      46.502  32.193  30.806  1.00  0.00    -0.206 F 
ATOM     94  C   UNL A   1      46.948  35.538  29.499  1.00  0.00     0.022 A 
BRANCH  91  95
ATOM     95  S   UNL A   1      45.919  36.942  27.319  1.00  0.00     0.124 S 
ATOM     96  O   UNL A   1      44.537  36.861  26.859  1.00  0.00    -0.237 OA
ATOM     97  O   UNL A   1      46.235  38.066  28.195  1.00  0.00    -0.237 OA
ATOM     98  O   UNL A   1      46.929  36.645  26.305  1.00  0.00    -0.744 OA
ENDBRANCH  91  95
ENDBRANCH  65  88
ENDBRANCH  39  40
ENDBRANCH  31  34
ENDBRANCH  29  30
ENDBRANCH   1  29
TORSDOF 16
ENDMDL
MODEL 3
REMARK VINA RESULT:     -13.7      1.632      2.491
REMARK SMILES O=C(NCCCCNC(=O)c1ccc(-c2c3nc(c(-c4cc(S(=O)(=O)[O-])ccc4F)c4ccc([nH]4)c(-c4cc(S(=O)(=O)[O-])ccc4F)c4nc(c(-c5cc(S(=O)(=O)[O-])ccc5F)c5ccc2[nH]5)C=C4)C=C3)cc1)C1=Cc2cc(Cl)cc(-c3ccccc3)c2O[C@@H]1C(F)(F)F
REMARK SMILES IDX 6 1 5 2 4 3 3 4 1 5 2 6 74 8 75 9 90 10 76 11 89 12 77 13
REMARK SMILES IDX 88 14 78 15 81 16 79 17 80 18 91 19 92 20 93 21 94 22 82 23
REMARK SMILES IDX 83 24 87 25 84 26 86 27 85 28 7 29 8 30 9 31 10 33 11 34
REMARK SMILES IDX 12 35 73 36 13 37 72 38 14 39 15 40 16 41 66 42 17 43 71 44
REMARK SMILES IDX 65 45 67 46 18 47 70 48 64 49 63 50 19 52 51 53 31 54 50 55
REMARK SMILES IDX 32 56 35 57 49 58 68 59 33 60 34 61 48 63 69 64 36 65 20 66
REMARK SMILES IDX 21 67 29 68 22 69 28 70 30 71 27 72 23 73 24 74 25 75 26 76
REMARK SMILES IDX 52 77 53 78 61 79 54 80 60 81 62 82 59 83 55 84 56 85 57 86
REMARK SMILES IDX 58 87 37 88 38 89 46 90 39 91 45 92 47 93 44 94 40 95 41 96
REMARK SMILES IDX 42 97 43 98
REMARK H PARENT 3 7 8 32 67 51 35 62
REMARK Flexibility Score: inf
ROOT
ATOM      1  C   UNL A   1      35.599  21.171  25.659  1.00  0.00     0.023 C 
ENDROOT
BRANCH   1   2
ATOM      2  C   UNL A   1      34.368  22.073  25.630  1.00  0.00     0.023 C 
BRANCH   2   3
ATOM      3  C   UNL A   1      34.114  22.944  26.856  1.00  0.00     0.116 C 
BRANCH   3   4
ATOM      4  N   UNL A   1      32.778  23.501  26.986  1.00  0.00    -0.352 N 
ATOM      5  O   UNL A   1      31.088  24.948  26.689  1.00  0.00    -0.270 OA
ATOM      6  C   UNL A   1      32.294  24.719  26.588  1.00  0.00     0.251 C 
ATOM      7  H   UNL A   1      32.122  22.915  27.426  1.00  0.00     0.163 HD
BRANCH   6   8
ATOM      8  C   UNL A   1      33.150  25.783  25.970  1.00  0.00     0.067 C 
ATOM      9  C   UNL A   1      33.862  25.596  24.844  1.00  0.00     0.025 C 
ATOM     10  C   UNL A   1      32.602  27.174  26.218  1.00  0.00     0.314 C 
ATOM     11  C   UNL A   1      33.167  26.210  23.678  1.00  0.00     0.019 A 
ATOM     12  O   UNL A   1      31.737  27.567  25.118  1.00  0.00    -0.475 OA
ATOM     13  C   UNL A   1      33.462  25.706  22.408  1.00  0.00     0.032 A 
ATOM     14  C   UNL A   1      32.046  27.046  23.878  1.00  0.00     0.135 A 
ATOM     15  C   UNL A   1      32.584  25.952  21.360  1.00  0.00     0.042 A 
ATOM     16  C   UNL A   1      31.136  27.260  22.829  1.00  0.00     0.026 A 
ATOM     17  Cl  UNL A   1      32.857  25.202  19.837  1.00  0.00    -0.084 Cl
ATOM     18  C   UNL A   1      31.427  26.703  21.568  1.00  0.00     0.033 A 
BRANCH  10  19
ATOM     19  C   UNL A   1      33.704  28.214  26.493  1.00  0.00     0.429 C 
ATOM     20  F   UNL A   1      33.478  28.893  27.643  1.00  0.00    -0.167 F 
ATOM     21  F   UNL A   1      34.919  27.626  26.619  1.00  0.00    -0.167 F 
ATOM     22  F   UNL A   1      33.818  29.134  25.505  1.00  0.00    -0.167 F 
ENDBRANCH  10  19
BRANCH  16  23
ATOM     23  C   UNL A   1      29.811  27.867  23.031  1.00  0.00    -0.015 A 
ATOM     24  C   UNL A   1      28.751  27.092  23.534  1.00  0.00     0.009 A 
ATOM     25  C   UNL A   1      29.539  29.177  22.620  1.00  0.00     0.009 A 
ATOM     26  C   UNL A   1      27.445  27.586  23.565  1.00  0.00     0.001 A 
ATOM     27  C   UNL A   1      28.236  29.681  22.668  1.00  0.00     0.001 A 
ATOM     28  C   UNL A   1      27.188  28.878  23.121  1.00  0.00     0.000 A 
ENDBRANCH  16  23
ENDBRANCH   6   8
ENDBRANCH   3   4
ENDBRANCH   2   3
ENDBRANCH   1   2
BRANCH   1  29
ATOM     29  C   UNL A   1      36.928  21.759  25.181  1.00  0.00     0.116 C 
BRANCH  29  30
ATOM     30  N   UNL A   1      38.086  20.881  25.274  1.00  0.00    -0.352 N 
ATOM     31  C   UNL A   1      39.277  21.105  25.947  1.00  0.00     0.251 C 
ATOM     32  H   UNL A   1      38.014  20.022  24.799  1.00  0.00     0.163 HD
ATOM     33  O   UNL A   1      40.154  20.255  25.947  1.00  0.00    -0.269 OA
BRANCH  31  34
ATOM     34  C   UNL A   1      39.503  22.417  26.604  1.00  0.00     0.039 A 
ATOM     35  C   UNL A   1      40.453  22.496  27.626  1.00  0.00     0.014 A 
ATOM     36  C   UNL A   1      38.869  23.574  26.145  1.00  0.00     0.014 A 
ATOM     37  C   UNL A   1      40.867  23.749  28.089  1.00  0.00     0.010 A 
ATOM     38  C   UNL A   1      39.331  24.824  26.560  1.00  0.00     0.010 A 
ATOM     39  C   UNL A   1      40.366  24.925  27.505  1.00  0.00    -0.014 A 
BRANCH  39  40
ATOM     40  C   UNL A   1      40.992  26.246  27.798  1.00  0.00     0.031 A 
ATOM     41  C   UNL A   1      42.417  26.534  27.418  1.00  0.00     0.074 A 
ATOM     42  C   UNL A   1      40.282  27.173  28.475  1.00  0.00     0.049 A 
ATOM     43  N   UNL A   1      43.121  27.620  27.619  1.00  0.00    -0.248 NA
ATOM     44  C   UNL A   1      43.154  25.454  26.750  1.00  0.00     0.031 C 
ATOM     45  C   UNL A   1      38.907  26.998  28.955  1.00  0.00     0.029 A 
ATOM     46  N   UNL A   1      40.610  28.443  28.881  1.00  0.00    -0.354 N 
ATOM     47  C   UNL A   1      44.383  27.359  27.099  1.00  0.00     0.074 A 
ATOM     48  C   UNL A   1      44.363  25.986  26.632  1.00  0.00     0.031 C 
ATOM     49  C   UNL A   1      38.503  28.128  29.558  1.00  0.00     0.029 A 
ATOM     50  C   UNL A   1      39.596  29.094  29.548  1.00  0.00     0.049 A 
ATOM     51  H   UNL A   1      41.491  28.851  28.713  1.00  0.00     0.167 HD
ATOM     52  C   UNL A   1      45.451  28.190  26.998  1.00  0.00     0.034 A 
ATOM     53  C   UNL A   1      39.547  30.327  30.094  1.00  0.00     0.034 A 
ATOM     54  C   UNL A   1      45.463  29.556  27.467  1.00  0.00     0.049 A 
ATOM     55  C   UNL A   1      40.755  31.221  29.992  1.00  0.00     0.074 A 
ATOM     56  C   UNL A   1      46.474  30.497  27.359  1.00  0.00     0.029 A 
ATOM     57  N   UNL A   1      44.421  30.177  28.144  1.00  0.00    -0.354 N 
ATOM     58  N   UNL A   1      41.919  30.977  29.437  1.00  0.00    -0.248 NA
ATOM     59  C   UNL A   1      40.637  32.562  30.581  1.00  0.00     0.031 C 
ATOM     60  C   UNL A   1      46.071  31.659  28.026  1.00  0.00     0.029 A 
ATOM     61  C   UNL A   1      44.778  31.473  28.487  1.00  0.00     0.049 A 
ATOM     62  H   UNL A   1      43.554  29.758  28.351  1.00  0.00     0.167 HD
ATOM     63  C   UNL A   1      42.660  32.147  29.585  1.00  0.00     0.074 A 
ATOM     64  C   UNL A   1      41.808  33.097  30.268  1.00  0.00     0.031 C 
ATOM     65  C   UNL A   1      43.929  32.411  29.183  1.00  0.00     0.034 A 
BRANCH  52  66
ATOM     66  C   UNL A   1      46.705  27.633  26.367  1.00  0.00     0.023 A 
ATOM     67  C   UNL A   1      47.038  27.908  25.030  1.00  0.00     0.031 A 
ATOM     68  C   UNL A   1      47.571  26.805  27.104  1.00  0.00     0.131 A 
ATOM     69  C   UNL A   1      48.163  27.303  24.448  1.00  0.00     0.055 A 
ATOM     70  C   UNL A   1      48.733  26.270  26.543  1.00  0.00     0.041 A 
ATOM     71  F   UNL A   1      47.297  26.492  28.380  1.00  0.00    -0.206 F 
ATOM     72  C   UNL A   1      49.027  26.506  25.202  1.00  0.00     0.022 A 
BRANCH  69  73
ATOM     73  S   UNL A   1      48.401  27.461  22.657  1.00  0.00     0.124 S 
ATOM     74  O   UNL A   1      47.202  28.200  22.266  1.00  0.00    -0.237 OA
ATOM     75  O   UNL A   1      49.659  28.192  22.570  1.00  0.00    -0.237 OA
ATOM     76  O   UNL A   1      48.449  26.076  22.194  1.00  0.00    -0.744 OA
ENDBRANCH  69  73
ENDBRANCH  52  66
BRANCH  53  77
ATOM     77  C   UNL A   1      38.315  30.796  30.789  1.00  0.00     0.023 A 
ATOM     78  C   UNL A   1      37.297  31.459  30.084  1.00  0.00     0.031 A 
ATOM     79  C   UNL A   1      38.155  30.627  32.176  1.00  0.00     0.131 A 
ATOM     80  C   UNL A   1      36.186  31.971  30.775  1.00  0.00     0.055 A 
ATOM     81  C   UNL A   1      37.026  31.094  32.850  1.00  0.00     0.041 A 
ATOM     82  F   UNL A   1      39.096  29.995  32.895  1.00  0.00    -0.206 F 
ATOM     83  C   UNL A   1      36.039  31.782  32.151  1.00  0.00     0.022 A 
BRANCH  80  84
ATOM     84  S   UNL A   1      34.974  32.959  29.857  1.00  0.00     0.124 S 
ATOM     85  O   UNL A   1      34.355  31.953  29.003  1.00  0.00    -0.237 OA
ATOM     86  O   UNL A   1      34.141  33.489  30.933  1.00  0.00    -0.237 OA
ATOM     87  O   UNL A   1      35.796  33.949  29.164  1.00  0.00    -0.744 OA
ENDBRANCH  80  84
ENDBRANCH  53  77
BRANCH  65  88
ATOM     88  C   UNL A   1      44.453  33.803  29.439  1.00  0.00     0.023 A 
ATOM     89  C   UNL A   1      44.212  34.862  28.546  1.00  0.00     0.031 A 
ATOM     90  C   UNL A   1      45.218  34.070  30.590  1.00  0.00     0.131 A 
ATOM     91  C   UNL A   1      44.774  36.125  28.791  1.00  0.00     0.055 A 
ATOM     92  C   UNL A   1      45.726  35.342  30.856  1.00  0.00     0.041 A 
ATOM     93  F   UNL A   1      45.481  33.095  31.475  1.00  0.00    -0.206 F 
ATOM     94  C   UNL A   1      45.516  36.375  29.948  1.00  0.00     0.022 A 
BRANCH  91  95
ATOM     95  S   UNL A   1      44.589  37.421  27.534  1.00  0.00     0.124 S 
ATOM     96  O   UNL A   1      44.597  38.634  28.346  1.00  0.00    -0.237 OA
ATOM     97  O   UNL A   1      45.763  37.210  26.693  1.00  0.00    -0.237 OA
ATOM     98  O   UNL A   1      43.309  37.106  26.902  1.00  0.00    -0.744 OA
ENDBRANCH  91  95
ENDBRANCH  65  88
ENDBRANCH  39  40
ENDBRANCH  31  34
ENDBRANCH  29  30
ENDBRANCH   1  29
TORSDOF 16
ENDMDL
