MODEL 1
REMARK VINA RESULT:     -11.8      0.000      0.000
REMARK SMILES COc1ccccc1N1CC[NH+]([C@@H](C(=O)NCCCCNC(=O)c2ccc(-c3c4nc(c(-c5cc(S(=O)(=O)[O-])ccc5F)c5ccc([nH]5)c(-c5cc(S(=O)(=O)[O-])ccc5F)c5nc(c(-c6cc(S(=O)(=O)[O-])ccc6F)c6ccc3[nH]6)C=C5)C=C4)cc2)c2c[nH]c3ccc(OCC#N)cc23)CC1
REMARK SMILES IDX 18 1 17 2 16 3 14 4 15 5 13 7 12 8 9 9 10 10 101 11 11 12
REMARK SMILES IDX 100 13 8 15 3 16 4 17 5 18 7 19 6 20 2 21 1 22 87 23 88 24
REMARK SMILES IDX 99 25 89 26 90 27 98 28 91 30 93 31 92 32 94 33 95 34 96 35
REMARK SMILES IDX 97 36 19 37 20 38 21 39 22 40 23 42 24 43 25 44 86 45 26 46
REMARK SMILES IDX 85 47 27 48 28 49 29 50 79 51 30 52 84 53 78 54 80 55 31 56
REMARK SMILES IDX 83 57 77 58 76 59 32 61 64 62 44 63 63 64 45 65 48 66 62 67
REMARK SMILES IDX 81 68 46 69 47 70 61 72 82 73 49 74 33 75 34 76 42 77 35 78
REMARK SMILES IDX 41 79 43 80 40 81 36 82 37 83 38 84 39 85 65 86 66 87 74 88
REMARK SMILES IDX 67 89 73 90 75 91 72 92 68 93 69 94 70 95 71 96 50 97 51 98
REMARK SMILES IDX 59 99 52 100 58 101 60 102 57 103 53 104 54 105 55 106
REMARK SMILES IDX 56 107
REMARK H PARENT 16 6 12 14 89 29 21 41 80 60 48 71
REMARK Flexibility Score: inf
ROOT
ATOM      1  C   UNL A   1      31.792  27.716  26.329  1.00  0.00     0.023 C 
ENDROOT
BRANCH   1   2
ATOM      2  C   UNL A   1      30.652  26.778  26.861  1.00  0.00     0.116 C 
BRANCH   2   3
ATOM      3  N   UNL A   1      30.662  25.338  26.473  1.00  0.00    -0.351 N 
ATOM      4  C   UNL A   1      31.196  24.453  25.544  1.00  0.00     0.283 C 
ATOM      5  O   UNL A   1      30.989  23.267  25.849  1.00  0.00    -0.268 OA
ATOM      6  H   UNL A   1      30.088  24.837  27.096  1.00  0.00     0.163 HD
BRANCH   4   7
ATOM      7  C   UNL A   1      32.051  24.784  24.250  1.00  0.00     0.307 C 
BRANCH   7   8
ATOM      8  N   UNL A   1      33.508  25.212  24.393  1.00  0.00    -0.318 N 
ATOM      9  N   UNL A   1      35.295  22.891  24.693  1.00  0.00    -0.357 N 
ATOM     10  C   UNL A   1      34.521  23.388  25.837  1.00  0.00     0.178 C 
ATOM     11  C   UNL A   1      34.729  23.236  23.389  1.00  0.00     0.178 C 
ATOM     12  C   UNL A   1      34.275  24.887  25.612  1.00  0.00     0.284 C 
ATOM     13  C   UNL A   1      34.390  24.749  23.318  1.00  0.00     0.284 C 
ATOM     14  H   UNL A   1      33.305  26.212  24.395  1.00  0.00     0.349 HD
BRANCH   9  15
ATOM     15  C   UNL A   1      35.780  21.583  24.751  1.00  0.00     0.080 A 
ATOM     16  C   UNL A   1      34.941  20.468  24.947  1.00  0.00     0.142 A 
ATOM     17  C   UNL A   1      35.512  19.186  25.002  1.00  0.00     0.048 A 
ATOM     18  C   UNL A   1      36.889  18.993  24.889  1.00  0.00     0.004 A 
ATOM     19  C   UNL A   1      37.174  21.364  24.666  1.00  0.00     0.030 A 
ATOM     20  C   UNL A   1      37.724  20.087  24.731  1.00  0.00     0.002 A 
BRANCH  16  21
ATOM     21  O   UNL A   1      33.576  20.416  25.074  1.00  0.00    -0.495 OA
ATOM     22  C   UNL A   1      32.742  20.405  23.929  1.00  0.00     0.278 C 
ENDBRANCH  16  21
ENDBRANCH   9  15
ENDBRANCH   7   8
BRANCH   7  23
ATOM     23  C   UNL A   1      31.272  25.601  23.064  1.00  0.00     0.044 A 
ATOM     24  C   UNL A   1      31.787  25.584  21.764  1.00  0.00     0.094 A 
ATOM     25  C   UNL A   1      30.635  26.937  22.989  1.00  0.00     0.013 A 
ATOM     26  N   UNL A   1      32.395  26.813  21.654  1.00  0.00    -0.361 N 
ATOM     27  C   UNL A   1      31.574  27.713  22.300  1.00  0.00     0.046 A 
ATOM     28  C   UNL A   1      29.353  27.585  23.144  1.00  0.00     0.057 A 
ATOM     29  H   UNL A   1      33.247  27.011  21.203  1.00  0.00     0.166 HD
ATOM     30  C   UNL A   1      31.569  29.106  22.309  1.00  0.00     0.030 A 
ATOM     31  C   UNL A   1      29.210  28.981  22.825  1.00  0.00     0.121 A 
ATOM     32  C   UNL A   1      30.361  29.732  22.614  1.00  0.00     0.048 A 
BRANCH  31  33
ATOM     33  O   UNL A   1      27.948  29.567  22.706  1.00  0.00    -0.479 OA
BRANCH  33  34
ATOM     34  C   UNL A   1      27.638  30.824  23.498  1.00  0.00     0.349 C 
BRANCH  34  35
ATOM     35  C   UNL A   1      27.851  32.047  22.620  1.00  0.00     0.104 C 
ATOM     36  N   UNL A   1      28.027  33.060  21.892  1.00  0.00    -0.195 NA
ENDBRANCH  34  35
ENDBRANCH  33  34
ENDBRANCH  31  33
ENDBRANCH   7  23
ENDBRANCH   4   7
ENDBRANCH   2   3
ENDBRANCH   1   2
BRANCH   1  37
ATOM     37  C   UNL A   1      31.421  29.156  25.947  1.00  0.00     0.023 C 
BRANCH  37  38
ATOM     38  C   UNL A   1      32.593  30.119  25.877  1.00  0.00     0.116 C 
BRANCH  38  39
ATOM     39  N   UNL A   1      32.227  31.482  26.241  1.00  0.00    -0.352 N 
ATOM     40  C   UNL A   1      32.810  32.319  27.173  1.00  0.00     0.251 C 
ATOM     41  H   UNL A   1      31.458  31.858  25.754  1.00  0.00     0.163 HD
ATOM     42  O   UNL A   1      32.272  33.378  27.455  1.00  0.00    -0.269 OA
BRANCH  40  43
ATOM     43  C   UNL A   1      34.068  31.908  27.848  1.00  0.00     0.039 A 
ATOM     44  C   UNL A   1      35.099  32.840  28.003  1.00  0.00     0.014 A 
ATOM     45  C   UNL A   1      34.229  30.609  28.333  1.00  0.00     0.014 A 
ATOM     46  C   UNL A   1      36.260  32.481  28.695  1.00  0.00     0.010 A 
ATOM     47  C   UNL A   1      35.330  30.289  29.116  1.00  0.00     0.010 A 
ATOM     48  C   UNL A   1      36.371  31.212  29.285  1.00  0.00    -0.014 A 
BRANCH  48  49
ATOM     49  C   UNL A   1      37.583  30.798  30.036  1.00  0.00     0.031 A 
ATOM     50  C   UNL A   1      38.524  29.793  29.422  1.00  0.00     0.074 A 
ATOM     51  C   UNL A   1      37.797  31.269  31.280  1.00  0.00     0.049 A 
ATOM     52  N   UNL A   1      39.580  29.221  29.939  1.00  0.00    -0.248 NA
ATOM     53  C   UNL A   1      38.207  29.339  28.058  1.00  0.00     0.031 C 
ATOM     54  C   UNL A   1      36.927  32.210  31.988  1.00  0.00     0.029 A 
ATOM     55  N   UNL A   1      38.807  31.018  32.173  1.00  0.00    -0.354 N 
ATOM     56  C   UNL A   1      40.040  28.331  28.973  1.00  0.00     0.074 A 
ATOM     57  C   UNL A   1      39.101  28.380  27.875  1.00  0.00     0.031 C 
ATOM     58  C   UNL A   1      37.459  32.484  33.190  1.00  0.00     0.029 A 
ATOM     59  C   UNL A   1      38.678  31.700  33.362  1.00  0.00     0.049 A 
ATOM     60  H   UNL A   1      39.555  30.407  31.982  1.00  0.00     0.167 HD
ATOM     61  C   UNL A   1      41.159  27.566  28.987  1.00  0.00     0.034 A 
ATOM     62  C   UNL A   1      39.451  31.685  34.466  1.00  0.00     0.034 A 
ATOM     63  C   UNL A   1      42.091  27.552  30.086  1.00  0.00     0.049 A 
ATOM     64  C   UNL A   1      40.682  30.813  34.467  1.00  0.00     0.074 A 
ATOM     65  C   UNL A   1      43.285  26.863  30.196  1.00  0.00     0.029 A 
ATOM     66  N   UNL A   1      41.931  28.262  31.272  1.00  0.00    -0.354 N 
ATOM     67  N   UNL A   1      41.131  30.015  33.523  1.00  0.00    -0.248 NA
ATOM     68  C   UNL A   1      41.517  30.848  35.672  1.00  0.00     0.031 C 
ATOM     69  C   UNL A   1      43.809  27.097  31.472  1.00  0.00     0.029 A 
ATOM     70  C   UNL A   1      42.988  28.001  32.128  1.00  0.00     0.049 A 
ATOM     71  H   UNL A   1      41.177  28.861  31.472  1.00  0.00     0.167 HD
ATOM     72  C   UNL A   1      42.319  29.479  34.013  1.00  0.00     0.074 A 
ATOM     73  C   UNL A   1      42.524  30.061  35.325  1.00  0.00     0.031 C 
ATOM     74  C   UNL A   1      43.167  28.589  33.436  1.00  0.00     0.034 A 
BRANCH  61  75
ATOM     75  C   UNL A   1      41.415  26.679  27.791  1.00  0.00     0.023 A 
ATOM     76  C   UNL A   1      41.038  25.324  27.780  1.00  0.00     0.031 A 
ATOM     77  C   UNL A   1      42.073  27.185  26.655  1.00  0.00     0.131 A 
ATOM     78  C   UNL A   1      41.394  24.504  26.698  1.00  0.00     0.055 A 
ATOM     79  C   UNL A   1      42.344  26.385  25.544  1.00  0.00     0.041 A 
ATOM     80  F   UNL A   1      42.480  28.464  26.613  1.00  0.00    -0.206 F 
ATOM     81  C   UNL A   1      42.019  25.031  25.567  1.00  0.00     0.022 A 
BRANCH  78  82
ATOM     82  S   UNL A   1      41.163  22.712  26.857  1.00  0.00     0.124 S 
ATOM     83  O   UNL A   1      39.706  22.602  26.851  1.00  0.00    -0.237 OA
ATOM     84  O   UNL A   1      41.847  22.199  25.677  1.00  0.00    -0.237 OA
ATOM     85  O   UNL A   1      41.799  22.396  28.135  1.00  0.00    -0.744 OA
ENDBRANCH  78  82
ENDBRANCH  61  75
BRANCH  62  86
ATOM     86  C   UNL A   1      39.094  32.509  35.657  1.00  0.00     0.023 A 
ATOM     87  C   UNL A   1      39.567  33.825  35.796  1.00  0.00     0.031 A 
ATOM     88  C   UNL A   1      38.312  31.981  36.701  1.00  0.00     0.131 A 
ATOM     89  C   UNL A   1      39.301  34.546  36.969  1.00  0.00     0.055 A 
ATOM     90  C   UNL A   1      37.999  32.725  37.840  1.00  0.00     0.041 A 
ATOM     91  F   UNL A   1      37.832  30.729  36.623  1.00  0.00    -0.206 F 
ATOM     92  C   UNL A   1      38.508  34.012  37.986  1.00  0.00     0.022 A 
BRANCH  89  93
ATOM     93  S   UNL A   1      40.095  36.163  37.194  1.00  0.00     0.124 S 
ATOM     94  O   UNL A   1      39.279  36.749  38.252  1.00  0.00    -0.237 OA
ATOM     95  O   UNL A   1      41.453  35.784  37.564  1.00  0.00    -0.237 OA
ATOM     96  O   UNL A   1      39.960  36.792  35.882  1.00  0.00    -0.744 OA
ENDBRANCH  89  93
ENDBRANCH  62  86
BRANCH  74  97
ATOM     97  C   UNL A   1      44.414  28.232  34.206  1.00  0.00     0.023 A 
ATOM     98  C   UNL A   1      44.457  27.125  35.071  1.00  0.00     0.031 A 
ATOM     99  C   UNL A   1      45.572  29.019  34.078  1.00  0.00     0.131 A 
ATOM    100  C   UNL A   1      45.616  26.871  35.820  1.00  0.00     0.055 A 
ATOM    101  C   UNL A   1      46.744  28.720  34.772  1.00  0.00     0.041 A 
ATOM    102  F   UNL A   1      45.586  30.090  33.268  1.00  0.00    -0.206 F 
ATOM    103  C   UNL A   1      46.766  27.649  35.661  1.00  0.00     0.022 A 
BRANCH 100 104
ATOM    104  S   UNL A   1      45.564  25.571  37.083  1.00  0.00     0.124 S 
ATOM    105  O   UNL A   1      46.422  26.127  38.124  1.00  0.00    -0.237 OA
ATOM    106  O   UNL A   1      44.141  25.500  37.400  1.00  0.00    -0.237 OA
ATOM    107  O   UNL A   1      46.104  24.402  36.393  1.00  0.00    -0.744 OA
ENDBRANCH 100 104
ENDBRANCH  74  97
ENDBRANCH  48  49
ENDBRANCH  40  43
ENDBRANCH  38  39
ENDBRANCH  37  38
ENDBRANCH   1  37
TORSDOF 21
ENDMDL
MODEL 2
REMARK VINA RESULT:     -11.8      2.010      7.701
REMARK SMILES COc1ccccc1N1CC[NH+]([C@@H](C(=O)NCCCCNC(=O)c2ccc(-c3c4nc(c(-c5cc(S(=O)(=O)[O-])ccc5F)c5ccc([nH]5)c(-c5cc(S(=O)(=O)[O-])ccc5F)c5nc(c(-c6cc(S(=O)(=O)[O-])ccc6F)c6ccc3[nH]6)C=C5)C=C4)cc2)c2c[nH]c3ccc(OCC#N)cc23)CC1
REMARK SMILES IDX 18 1 17 2 16 3 14 4 15 5 13 7 12 8 9 9 10 10 101 11 11 12
REMARK SMILES IDX 100 13 8 15 3 16 4 17 5 18 7 19 6 20 2 21 1 22 87 23 88 24
REMARK SMILES IDX 99 25 89 26 90 27 98 28 91 30 93 31 92 32 94 33 95 34 96 35
REMARK SMILES IDX 97 36 19 37 20 38 21 39 22 40 23 42 24 43 25 44 86 45 26 46
REMARK SMILES IDX 85 47 27 48 28 49 29 50 79 51 30 52 84 53 78 54 80 55 31 56
REMARK SMILES IDX 83 57 77 58 76 59 32 61 64 62 44 63 63 64 45 65 48 66 62 67
REMARK SMILES IDX 81 68 46 69 47 70 61 72 82 73 49 74 33 75 34 76 42 77 35 78
REMARK SMILES IDX 41 79 43 80 40 81 36 82 37 83 38 84 39 85 65 86 66 87 74 88
REMARK SMILES IDX 67 89 73 90 75 91 72 92 68 93 69 94 70 95 71 96 50 97 51 98
REMARK SMILES IDX 59 99 52 100 58 101 60 102 57 103 53 104 54 105 55 106
REMARK SMILES IDX 56 107
REMARK H PARENT 16 6 12 14 89 29 21 41 80 60 48 71
REMARK Flexibility Score: inf
ROOT
ATOM      1  C   UNL A   1      31.884  27.753  26.172  1.00  0.00     0.023 C 
ENDROOT
BRANCH   1   2
ATOM      2  C   UNL A   1      31.002  26.825  27.081  1.00  0.00     0.116 C 
BRANCH   2   3
ATOM      3  N   UNL A   1      30.694  25.442  26.616  1.00  0.00    -0.351 N 
ATOM      4  C   UNL A   1      31.008  24.519  25.626  1.00  0.00     0.283 C 
ATOM      5  O   UNL A   1      30.554  23.390  25.873  1.00  0.00    -0.268 OA
ATOM      6  H   UNL A   1      30.036  25.041  27.228  1.00  0.00     0.163 HD
BRANCH   4   7
ATOM      7  C   UNL A   1      31.891  24.734  24.326  1.00  0.00     0.307 C 
BRANCH   7   8
ATOM      8  N   UNL A   1      33.390  24.981  24.461  1.00  0.00    -0.318 N 
ATOM      9  N   UNL A   1      34.888  22.456  24.685  1.00  0.00    -0.357 N 
ATOM     10  C   UNL A   1      34.190  23.014  25.849  1.00  0.00     0.178 C 
ATOM     11  C   UNL A   1      34.355  22.898  23.396  1.00  0.00     0.178 C 
ATOM     12  C   UNL A   1      34.124  24.536  25.663  1.00  0.00     0.284 C 
ATOM     13  C   UNL A   1      34.199  24.442  23.364  1.00  0.00     0.284 C 
ATOM     14  H   UNL A   1      33.309  25.997  24.489  1.00  0.00     0.349 HD
BRANCH   9  15
ATOM     15  C   UNL A   1      35.213  21.098  24.706  1.00  0.00     0.080 A 
ATOM     16  C   UNL A   1      34.244  20.081  24.589  1.00  0.00     0.142 A 
ATOM     17  C   UNL A   1      34.657  18.740  24.629  1.00  0.00     0.048 A 
ATOM     18  C   UNL A   1      35.995  18.389  24.804  1.00  0.00     0.004 A 
ATOM     19  C   UNL A   1      36.560  20.718  24.909  1.00  0.00     0.030 A 
ATOM     20  C   UNL A   1      36.949  19.382  24.955  1.00  0.00     0.002 A 
BRANCH  16  21
ATOM     21  O   UNL A   1      32.889  20.186  24.404  1.00  0.00    -0.495 OA
ATOM     22  C   UNL A   1      32.284  19.733  23.206  1.00  0.00     0.278 C 
ENDBRANCH  16  21
ENDBRANCH   9  15
ENDBRANCH   7   8
BRANCH   7  23
ATOM     23  C   UNL A   1      31.213  25.632  23.137  1.00  0.00     0.044 A 
ATOM     24  C   UNL A   1      31.822  25.682  21.880  1.00  0.00     0.094 A 
ATOM     25  C   UNL A   1      30.600  26.981  23.095  1.00  0.00     0.013 A 
ATOM     26  N   UNL A   1      32.453  26.905  21.887  1.00  0.00    -0.361 N 
ATOM     27  C   UNL A   1      31.598  27.780  22.524  1.00  0.00     0.046 A 
ATOM     28  C   UNL A   1      29.319  27.641  23.194  1.00  0.00     0.057 A 
ATOM     29  H   UNL A   1      33.339  27.114  21.513  1.00  0.00     0.166 HD
ATOM     30  C   UNL A   1      31.611  29.170  22.615  1.00  0.00     0.030 A 
ATOM     31  C   UNL A   1      29.219  29.056  22.949  1.00  0.00     0.121 A 
ATOM     32  C   UNL A   1      30.392  29.798  22.868  1.00  0.00     0.048 A 
BRANCH  31  33
ATOM     33  O   UNL A   1      27.977  29.670  22.774  1.00  0.00    -0.479 OA
BRANCH  33  34
ATOM     34  C   UNL A   1      27.679  30.962  23.511  1.00  0.00     0.349 C 
BRANCH  34  35
ATOM     35  C   UNL A   1      27.876  32.143  22.573  1.00  0.00     0.104 C 
ATOM     36  N   UNL A   1      28.038  33.122  21.796  1.00  0.00    -0.195 NA
ENDBRANCH  34  35
ENDBRANCH  33  34
ENDBRANCH  31  33
ENDBRANCH   7  23
ENDBRANCH   4   7
ENDBRANCH   2   3
ENDBRANCH   1   2
BRANCH   1  37
ATOM     37  C   UNL A   1      33.352  27.964  26.567  1.00  0.00     0.023 C 
BRANCH  37  38
ATOM     38  C   UNL A   1      34.028  29.148  25.899  1.00  0.00     0.116 C 
BRANCH  38  39
ATOM     39  N   UNL A   1      33.786  30.405  26.598  1.00  0.00    -0.352 N 
ATOM     40  C   UNL A   1      34.479  30.956  27.659  1.00  0.00     0.251 C 
ATOM     41  H   UNL A   1      33.025  30.934  26.267  1.00  0.00     0.163 HD
ATOM     42  O   UNL A   1      34.039  31.948  28.218  1.00  0.00    -0.269 OA
BRANCH  40  43
ATOM     43  C   UNL A   1      35.734  30.317  28.131  1.00  0.00     0.039 A 
ATOM     44  C   UNL A   1      36.895  30.431  27.359  1.00  0.00     0.014 A 
ATOM     45  C   UNL A   1      35.770  29.614  29.336  1.00  0.00     0.014 A 
ATOM     46  C   UNL A   1      38.096  29.889  27.827  1.00  0.00     0.010 A 
ATOM     47  C   UNL A   1      36.983  29.177  29.852  1.00  0.00     0.010 A 
ATOM     48  C   UNL A   1      38.156  29.286  29.093  1.00  0.00    -0.014 A 
BRANCH  48  49
ATOM     49  C   UNL A   1      39.415  28.709  29.629  1.00  0.00     0.031 A 
ATOM     50  C   UNL A   1      40.035  29.310  30.865  1.00  0.00     0.074 A 
ATOM     51  C   UNL A   1      40.025  27.703  28.974  1.00  0.00     0.049 A 
ATOM     52  N   UNL A   1      41.174  29.029  31.442  1.00  0.00    -0.248 NA
ATOM     53  C   UNL A   1      39.291  30.404  31.511  1.00  0.00     0.031 C 
ATOM     54  C   UNL A   1      39.537  27.077  27.744  1.00  0.00     0.029 A 
ATOM     55  N   UNL A   1      41.191  27.033  29.244  1.00  0.00    -0.354 N 
ATOM     56  C   UNL A   1      41.290  29.922  32.504  1.00  0.00     0.074 A 
ATOM     57  C   UNL A   1      40.145  30.803  32.440  1.00  0.00     0.031 C 
ATOM     58  C   UNL A   1      40.377  26.091  27.387  1.00  0.00     0.029 A 
ATOM     59  C   UNL A   1      41.490  26.049  28.329  1.00  0.00     0.049 A 
ATOM     60  H   UNL A   1      41.761  27.236  30.021  1.00  0.00     0.167 HD
ATOM     61  C   UNL A   1      42.246  29.980  33.463  1.00  0.00     0.034 A 
ATOM     62  C   UNL A   1      42.547  25.215  28.257  1.00  0.00     0.034 A 
ATOM     63  C   UNL A   1      43.366  29.074  33.518  1.00  0.00     0.049 A 
ATOM     64  C   UNL A   1      43.609  25.310  29.325  1.00  0.00     0.074 A 
ATOM     65  C   UNL A   1      44.368  28.998  34.466  1.00  0.00     0.029 A 
ATOM     66  N   UNL A   1      43.632  28.085  32.577  1.00  0.00    -0.354 N 
ATOM     67  N   UNL A   1      43.677  26.127  30.353  1.00  0.00    -0.248 NA
ATOM     68  C   UNL A   1      44.727  24.365  29.231  1.00  0.00     0.031 C 
ATOM     69  C   UNL A   1      45.278  28.015  34.063  1.00  0.00     0.029 A 
ATOM     70  C   UNL A   1      44.799  27.416  32.907  1.00  0.00     0.049 A 
ATOM     71  H   UNL A   1      43.073  27.889  31.791  1.00  0.00     0.167 HD
ATOM     72  C   UNL A   1      44.831  25.769  31.045  1.00  0.00     0.074 A 
ATOM     73  C   UNL A   1      45.413  24.652  30.328  1.00  0.00     0.031 C 
ATOM     74  C   UNL A   1      45.364  26.309  32.172  1.00  0.00     0.034 A 
BRANCH  61  75
ATOM     75  C   UNL A   1      42.124  31.066  34.507  1.00  0.00     0.023 A 
ATOM     76  C   UNL A   1      42.742  32.319  34.348  1.00  0.00     0.031 A 
ATOM     77  C   UNL A   1      41.405  30.837  35.694  1.00  0.00     0.131 A 
ATOM     78  C   UNL A   1      42.701  33.260  35.389  1.00  0.00     0.055 A 
ATOM     79  C   UNL A   1      41.292  31.811  36.688  1.00  0.00     0.041 A 
ATOM     80  F   UNL A   1      40.812  29.653  35.917  1.00  0.00    -0.206 F 
ATOM     81  C   UNL A   1      41.957  33.026  36.546  1.00  0.00     0.022 A 
BRANCH  78  82
ATOM     82  S   UNL A   1      43.759  34.729  35.270  1.00  0.00     0.124 S 
ATOM     83  O   UNL A   1      42.785  35.806  35.431  1.00  0.00    -0.237 OA
ATOM     84  O   UNL A   1      44.690  34.539  36.375  1.00  0.00    -0.237 OA
ATOM     85  O   UNL A   1      44.344  34.623  33.934  1.00  0.00    -0.744 OA
ENDBRANCH  78  82
ENDBRANCH  61  75
BRANCH  62  86
ATOM     86  C   UNL A   1      42.664  24.228  27.145  1.00  0.00     0.023 A 
ATOM     87  C   UNL A   1      42.018  22.982  27.212  1.00  0.00     0.031 A 
ATOM     88  C   UNL A   1      43.461  24.493  26.015  1.00  0.00     0.131 A 
ATOM     89  C   UNL A   1      42.222  22.031  26.201  1.00  0.00     0.055 A 
ATOM     90  C   UNL A   1      43.610  23.565  24.983  1.00  0.00     0.041 A 
ATOM     91  F   UNL A   1      44.100  25.667  25.896  1.00  0.00    -0.206 F 
ATOM     92  C   UNL A   1      43.001  22.318  25.079  1.00  0.00     0.022 A 
BRANCH  89  93
ATOM     93  S   UNL A   1      41.533  20.366  26.424  1.00  0.00     0.124 S 
ATOM     94  O   UNL A   1      41.937  20.059  27.792  1.00  0.00    -0.237 OA
ATOM     95  O   UNL A   1      40.109  20.597  26.211  1.00  0.00    -0.237 OA
ATOM     96  O   UNL A   1      42.199  19.581  25.386  1.00  0.00    -0.744 OA
ENDBRANCH  89  93
ENDBRANCH  62  86
BRANCH  74  97
ATOM     97  C   UNL A   1      46.614  25.664  32.715  1.00  0.00     0.023 A 
ATOM     98  C   UNL A   1      46.561  24.646  33.682  1.00  0.00     0.031 A 
ATOM     99  C   UNL A   1      47.878  26.082  32.262  1.00  0.00     0.131 A 
ATOM    100  C   UNL A   1      47.751  24.123  34.210  1.00  0.00     0.055 A 
ATOM    101  C   UNL A   1      49.056  25.509  32.740  1.00  0.00     0.041 A 
ATOM    102  F   UNL A   1      47.988  27.053  31.342  1.00  0.00    -0.206 F 
ATOM    103  C   UNL A   1      48.997  24.533  33.731  1.00  0.00     0.022 A 
BRANCH 100 104
ATOM    104  S   UNL A   1      47.648  22.972  35.608  1.00  0.00     0.124 S 
ATOM    105  O   UNL A   1      46.214  22.950  35.877  1.00  0.00    -0.237 OA
ATOM    106  O   UNL A   1      48.209  21.747  35.046  1.00  0.00    -0.237 OA
ATOM    107  O   UNL A   1      48.464  23.611  36.638  1.00  0.00    -0.744 OA
ENDBRANCH 100 104
ENDBRANCH  74  97
ENDBRANCH  48  49
ENDBRANCH  40  43
ENDBRANCH  38  39
ENDBRANCH  37  38
ENDBRANCH   1  37
TORSDOF 21
ENDMDL
MODEL 3
REMARK VINA RESULT:     -11.7      1.823      7.486
REMARK SMILES COc1ccccc1N1CC[NH+]([C@@H](C(=O)NCCCCNC(=O)c2ccc(-c3c4nc(c(-c5cc(S(=O)(=O)[O-])ccc5F)c5ccc([nH]5)c(-c5cc(S(=O)(=O)[O-])ccc5F)c5nc(c(-c6cc(S(=O)(=O)[O-])ccc6F)c6ccc3[nH]6)C=C5)C=C4)cc2)c2c[nH]c3ccc(OCC#N)cc23)CC1
REMARK SMILES IDX 18 1 17 2 16 3 14 4 15 5 13 7 12 8 9 9 10 10 101 11 11 12
REMARK SMILES IDX 100 13 8 15 3 16 4 17 5 18 7 19 6 20 2 21 1 22 87 23 88 24
REMARK SMILES IDX 99 25 89 26 90 27 98 28 91 30 93 31 92 32 94 33 95 34 96 35
REMARK SMILES IDX 97 36 19 37 20 38 21 39 22 40 23 42 24 43 25 44 86 45 26 46
REMARK SMILES IDX 85 47 27 48 28 49 29 50 79 51 30 52 84 53 78 54 80 55 31 56
REMARK SMILES IDX 83 57 77 58 76 59 32 61 64 62 44 63 63 64 45 65 48 66 62 67
REMARK SMILES IDX 81 68 46 69 47 70 61 72 82 73 49 74 33 75 34 76 42 77 35 78
REMARK SMILES IDX 41 79 43 80 40 81 36 82 37 83 38 84 39 85 65 86 66 87 74 88
REMARK SMILES IDX 67 89 73 90 75 91 72 92 68 93 69 94 70 95 71 96 50 97 51 98
REMARK SMILES IDX 59 99 52 100 58 101 60 102 57 103 53 104 54 105 55 106
REMARK SMILES IDX 56 107
REMARK H PARENT 16 6 12 14 89 29 21 41 80 60 48 71
REMARK Flexibility Score: inf
ROOT
ATOM      1  C   UNL A   1      32.300  27.369  26.483  1.00  0.00     0.023 C 
ENDROOT
BRANCH   1   2
ATOM      2  C   UNL A   1      30.831  26.877  26.734  1.00  0.00     0.116 C 
BRANCH   2   3
ATOM      3  N   UNL A   1      30.500  25.442  26.496  1.00  0.00    -0.351 N 
ATOM      4  C   UNL A   1      30.775  24.376  25.649  1.00  0.00     0.283 C 
ATOM      5  O   UNL A   1      30.324  23.302  26.080  1.00  0.00    -0.268 OA
ATOM      6  H   UNL A   1      29.860  25.147  27.183  1.00  0.00     0.163 HD
BRANCH   4   7
ATOM      7  C   UNL A   1      31.617  24.380  24.305  1.00  0.00     0.307 C 
BRANCH   7   8
ATOM      8  N   UNL A   1      33.133  24.223  24.359  1.00  0.00    -0.318 N 
ATOM      9  N   UNL A   1      33.921  21.398  24.616  1.00  0.00    -0.357 N 
ATOM     10  C   UNL A   1      33.461  22.152  25.788  1.00  0.00     0.178 C 
ATOM     11  C   UNL A   1      33.452  21.930  23.336  1.00  0.00     0.178 C 
ATOM     12  C   UNL A   1      33.789  23.631  25.543  1.00  0.00     0.284 C 
ATOM     13  C   UNL A   1      33.709  23.459  23.249  1.00  0.00     0.284 C 
ATOM     14  H   UNL A   1      33.325  25.225  24.349  1.00  0.00     0.349 HD
BRANCH   9  15
ATOM     15  C   UNL A   1      33.876  20.003  24.677  1.00  0.00     0.080 A 
ATOM     16  C   UNL A   1      35.036  19.203  24.677  1.00  0.00     0.142 A 
ATOM     17  C   UNL A   1      34.900  17.806  24.732  1.00  0.00     0.048 A 
ATOM     18  C   UNL A   1      33.648  17.193  24.761  1.00  0.00     0.004 A 
ATOM     19  C   UNL A   1      32.618  19.358  24.681  1.00  0.00     0.030 A 
ATOM     20  C   UNL A   1      32.502  17.971  24.725  1.00  0.00     0.002 A 
BRANCH  16  21
ATOM     21  O   UNL A   1      36.355  19.580  24.662  1.00  0.00    -0.495 OA
ATOM     22  C   UNL A   1      36.775  20.770  25.305  1.00  0.00     0.278 C 
ENDBRANCH  16  21
ENDBRANCH   9  15
ENDBRANCH   7   8
BRANCH   7  23
ATOM     23  C   UNL A   1      31.139  25.451  23.162  1.00  0.00     0.044 A 
ATOM     24  C   UNL A   1      31.894  25.592  21.993  1.00  0.00     0.094 A 
ATOM     25  C   UNL A   1      30.619  26.838  23.211  1.00  0.00     0.013 A 
ATOM     26  N   UNL A   1      32.593  26.757  22.213  1.00  0.00    -0.361 N 
ATOM     27  C   UNL A   1      31.724  27.618  22.850  1.00  0.00     0.046 A 
ATOM     28  C   UNL A   1      29.378  27.576  23.245  1.00  0.00     0.057 A 
ATOM     29  H   UNL A   1      33.528  26.939  21.965  1.00  0.00     0.166 HD
ATOM     30  C   UNL A   1      31.812  28.985  23.103  1.00  0.00     0.030 A 
ATOM     31  C   UNL A   1      29.395  29.013  23.158  1.00  0.00     0.121 A 
ATOM     32  C   UNL A   1      30.612  29.670  23.293  1.00  0.00     0.048 A 
BRANCH  31  33
ATOM     33  O   UNL A   1      28.221  29.733  22.919  1.00  0.00    -0.479 OA
BRANCH  33  34
ATOM     34  C   UNL A   1      28.057  30.464  21.601  1.00  0.00     0.349 C 
BRANCH  34  35
ATOM     35  C   UNL A   1      28.078  31.966  21.842  1.00  0.00     0.104 C 
ATOM     36  N   UNL A   1      28.095  33.210  22.042  1.00  0.00    -0.195 NA
ENDBRANCH  34  35
ENDBRANCH  33  34
ENDBRANCH  31  33
ENDBRANCH   7  23
ENDBRANCH   4   7
ENDBRANCH   2   3
ENDBRANCH   1   2
BRANCH   1  37
ATOM     37  C   UNL A   1      32.774  28.631  27.216  1.00  0.00     0.023 C 
BRANCH  37  38
ATOM     38  C   UNL A   1      33.605  29.584  26.375  1.00  0.00     0.116 C 
BRANCH  38  39
ATOM     39  N   UNL A   1      33.464  30.974  26.790  1.00  0.00    -0.352 N 
ATOM     40  C   UNL A   1      34.256  31.709  27.651  1.00  0.00     0.251 C 
ATOM     41  H   UNL A   1      32.697  31.456  26.403  1.00  0.00     0.163 HD
ATOM     42  O   UNL A   1      33.897  32.821  28.003  1.00  0.00    -0.269 OA
BRANCH  40  43
ATOM     43  C   UNL A   1      35.522  31.126  28.166  1.00  0.00     0.039 A 
ATOM     44  C   UNL A   1      36.679  31.911  28.192  1.00  0.00     0.014 A 
ATOM     45  C   UNL A   1      35.567  29.810  28.631  1.00  0.00     0.014 A 
ATOM     46  C   UNL A   1      37.858  31.392  28.735  1.00  0.00     0.010 A 
ATOM     47  C   UNL A   1      36.704  29.336  29.273  1.00  0.00     0.010 A 
ATOM     48  C   UNL A   1      37.871  30.111  29.310  1.00  0.00    -0.014 A 
BRANCH  48  49
ATOM     49  C   UNL A   1      39.100  29.530  29.906  1.00  0.00     0.031 A 
ATOM     50  C   UNL A   1      39.596  30.052  31.230  1.00  0.00     0.074 A 
ATOM     51  C   UNL A   1      39.796  28.594  29.233  1.00  0.00     0.049 A 
ATOM     52  N   UNL A   1      40.693  29.760  31.880  1.00  0.00    -0.248 NA
ATOM     53  C   UNL A   1      38.765  31.072  31.891  1.00  0.00     0.031 C 
ATOM     54  C   UNL A   1      39.432  28.050  27.923  1.00  0.00     0.029 A 
ATOM     55  N   UNL A   1      40.958  27.938  29.550  1.00  0.00    -0.354 N 
ATOM     56  C   UNL A   1      40.691  30.572  33.011  1.00  0.00     0.074 A 
ATOM     57  C   UNL A   1      39.526  31.423  32.915  1.00  0.00     0.031 C 
ATOM     58  C   UNL A   1      40.332  27.118  27.566  1.00  0.00     0.029 A 
ATOM     59  C   UNL A   1      41.364  27.035  28.594  1.00  0.00     0.049 A 
ATOM     60  H   UNL A   1      41.455  28.096  30.385  1.00  0.00     0.167 HD
ATOM     61  C   UNL A   1      41.562  30.583  34.048  1.00  0.00     0.034 A 
ATOM     62  C   UNL A   1      42.451  26.239  28.550  1.00  0.00     0.034 A 
ATOM     63  C   UNL A   1      42.704  29.707  34.130  1.00  0.00     0.049 A 
ATOM     64  C   UNL A   1      43.418  26.281  29.707  1.00  0.00     0.074 A 
ATOM     65  C   UNL A   1      43.627  29.586  35.152  1.00  0.00     0.029 A 
ATOM     66  N   UNL A   1      43.080  28.800  33.145  1.00  0.00    -0.354 N 
ATOM     67  N   UNL A   1      43.374  27.019  30.795  1.00  0.00    -0.248 NA
ATOM     68  C   UNL A   1      44.571  25.378  29.639  1.00  0.00     0.031 C 
ATOM     69  C   UNL A   1      44.600  28.663  34.756  1.00  0.00     0.029 A 
ATOM     70  C   UNL A   1      44.238  28.141  33.523  1.00  0.00     0.049 A 
ATOM     71  H   UNL A   1      42.594  28.649  32.303  1.00  0.00     0.167 HD
ATOM     72  C   UNL A   1      44.478  26.641  31.554  1.00  0.00     0.074 A 
ATOM     73  C   UNL A   1      45.155  25.599  30.808  1.00  0.00     0.031 C 
ATOM     74  C   UNL A   1      44.898  27.108  32.758  1.00  0.00     0.034 A 
BRANCH  61  75
ATOM     75  C   UNL A   1      41.318  31.583  35.155  1.00  0.00     0.023 A 
ATOM     76  C   UNL A   1      40.204  31.485  36.008  1.00  0.00     0.031 A 
ATOM     77  C   UNL A   1      42.194  32.667  35.343  1.00  0.00     0.131 A 
ATOM     78  C   UNL A   1      39.950  32.495  36.949  1.00  0.00     0.055 A 
ATOM     79  C   UNL A   1      41.984  33.620  36.342  1.00  0.00     0.041 A 
ATOM     80  F   UNL A   1      43.263  32.830  34.547  1.00  0.00    -0.206 F 
ATOM     81  C   UNL A   1      40.847  33.546  37.142  1.00  0.00     0.022 A 
BRANCH  78  82
ATOM     82  S   UNL A   1      38.353  32.493  37.811  1.00  0.00     0.124 S 
ATOM     83  O   UNL A   1      37.952  33.893  37.689  1.00  0.00    -0.237 OA
ATOM     84  O   UNL A   1      37.575  31.536  37.034  1.00  0.00    -0.237 OA
ATOM     85  O   UNL A   1      38.696  32.067  39.167  1.00  0.00    -0.744 OA
ENDBRANCH  78  82
ENDBRANCH  61  75
BRANCH  62  86
ATOM     86  C   UNL A   1      42.692  25.343  27.382  1.00  0.00     0.023 A 
ATOM     87  C   UNL A   1      42.170  24.039  27.349  1.00  0.00     0.031 A 
ATOM     88  C   UNL A   1      43.488  25.756  26.297  1.00  0.00     0.131 A 
ATOM     89  C   UNL A   1      42.491  23.180  26.288  1.00  0.00     0.055 A 
ATOM     90  C   UNL A   1      43.754  24.917  25.213  1.00  0.00     0.041 A 
ATOM     91  F   UNL A   1      44.013  26.992  26.273  1.00  0.00    -0.206 F 
ATOM     92  C   UNL A   1      43.267  23.614  25.212  1.00  0.00     0.022 A 
BRANCH  89  93
ATOM     93  S   UNL A   1      41.963  21.446  26.383  1.00  0.00     0.124 S 
ATOM     94  O   UNL A   1      42.843  20.814  25.406  1.00  0.00    -0.237 OA
ATOM     95  O   UNL A   1      42.222  21.127  27.782  1.00  0.00    -0.237 OA
ATOM     96  O   UNL A   1      40.552  21.500  26.008  1.00  0.00    -0.744 OA
ENDBRANCH  89  93
ENDBRANCH  62  86
BRANCH  74  97
ATOM     97  C   UNL A   1      46.121  26.458  33.356  1.00  0.00     0.023 A 
ATOM     98  C   UNL A   1      46.043  25.249  34.067  1.00  0.00     0.031 A 
ATOM     99  C   UNL A   1      47.382  27.066  33.218  1.00  0.00     0.131 A 
ATOM    100  C   UNL A   1      47.195  24.717  34.665  1.00  0.00     0.055 A 
ATOM    101  C   UNL A   1      48.535  26.495  33.755  1.00  0.00     0.041 A 
ATOM    102  F   UNL A   1      47.514  28.223  32.551  1.00  0.00    -0.206 F 
ATOM    103  C   UNL A   1      48.443  25.321  34.497  1.00  0.00     0.022 A 
BRANCH 100 104
ATOM    104  S   UNL A   1      47.020  23.278  35.756  1.00  0.00     0.124 S 
ATOM    105  O   UNL A   1      45.948  23.703  36.648  1.00  0.00    -0.237 OA
ATOM    106  O   UNL A   1      46.683  22.213  34.816  1.00  0.00    -0.237 OA
ATOM    107  O   UNL A   1      48.337  23.160  36.379  1.00  0.00    -0.744 OA
ENDBRANCH 100 104
ENDBRANCH  74  97
ENDBRANCH  48  49
ENDBRANCH  40  43
ENDBRANCH  38  39
ENDBRANCH  37  38
ENDBRANCH   1  37
TORSDOF 21
ENDMDL
