MODEL 1
REMARK VINA RESULT:     -11.8      0.000      0.000
REMARK SMILES C[C@@H]1CN(C(=O)NC[C@@H]2CC[C@H](C(=O)NCCCCNC(=O)c3ccc(-c4c5nc(c(-c6cc(S(=O)(=O)[O-])ccc6F)c6ccc([nH]6)c(-c6cc(S(=O)(=O)[O-])ccc6F)c6nc(c(-c7cc(S(=O)(=O)[O-])ccc7F)c7ccc4[nH]7)C=C6)C=C5)cc3)O2)CC(C)(C)O1
REMARK SMILES IDX 17 1 16 2 15 3 13 4 14 5 12 7 9 8 10 9 86 10 11 11 8 12 7 13
REMARK SMILES IDX 5 14 6 15 4 17 1 18 2 19 3 20 91 21 88 22 87 23 89 24 90 25
REMARK SMILES IDX 18 26 19 27 20 28 21 29 22 31 23 32 24 33 85 34 25 35 84 36
REMARK SMILES IDX 26 37 27 38 28 39 78 40 29 41 83 42 77 43 79 44 30 45 82 46
REMARK SMILES IDX 76 47 75 48 31 50 63 51 43 52 62 53 44 54 47 55 61 56 80 57
REMARK SMILES IDX 45 58 46 59 60 61 81 62 48 63 32 64 33 65 41 66 34 67 40 68
REMARK SMILES IDX 42 69 39 70 35 71 36 72 37 73 38 74 64 75 65 76 73 77 66 78
REMARK SMILES IDX 72 79 74 80 71 81 67 82 68 83 69 84 70 85 49 86 50 87 58 88
REMARK SMILES IDX 51 89 57 90 59 91 56 92 52 93 53 94 54 95 55 96
REMARK H PARENT 15 6 7 16 20 30 79 49 47 60
REMARK Flexibility Score: inf
ROOT
ATOM      1  C   UNL A   1      31.468  31.262  26.078  1.00  0.00     0.023 C 
ENDROOT
BRANCH   1   2
ATOM      2  C   UNL A   1      32.594  30.381  26.609  1.00  0.00     0.116 C 
BRANCH   2   3
ATOM      3  N   UNL A   1      33.262  29.648  25.558  1.00  0.00    -0.354 N 
ATOM      4  C   UNL A   1      32.793  28.644  24.760  1.00  0.00     0.249 C 
ATOM      5  O   UNL A   1      33.559  28.179  23.910  1.00  0.00    -0.272 OA
ATOM      6  H   UNL A   1      34.196  29.914  25.391  1.00  0.00     0.163 HD
BRANCH   4   7
ATOM      7  C   UNL A   1      31.378  28.054  24.943  1.00  0.00     0.207 C 
ATOM      8  C   UNL A   1      30.286  26.029  24.483  1.00  0.00     0.138 C 
ATOM      9  C   UNL A   1      30.002  26.943  23.302  1.00  0.00     0.037 C 
ATOM     10  O   UNL A   1      31.347  26.661  25.227  1.00  0.00    -0.363 OA
ATOM     11  C   UNL A   1      30.456  28.311  23.763  1.00  0.00     0.045 C 
BRANCH   8  12
ATOM     12  C   UNL A   1      30.730  24.614  24.065  1.00  0.00     0.149 C 
BRANCH  12  13
ATOM     13  N   UNL A   1      32.007  24.675  23.367  1.00  0.00    -0.335 N 
ATOM     14  C   UNL A   1      33.315  24.520  23.561  1.00  0.00     0.317 C 
ATOM     15  O   UNL A   1      34.005  24.709  22.553  1.00  0.00    -0.249 OA
ATOM     16  H   UNL A   1      31.848  24.914  22.425  1.00  0.00     0.165 HD
BRANCH  14  17
ATOM     17  N   UNL A   1      33.874  24.168  24.742  1.00  0.00    -0.319 N 
ATOM     18  C   UNL A   1      33.957  21.056  24.608  1.00  0.00     0.040 C 
ATOM     19  C   UNL A   1      34.254  21.989  25.778  1.00  0.00     0.135 C 
ATOM     20  C   UNL A   1      33.404  23.266  25.778  1.00  0.00     0.153 C 
ATOM     21  O   UNL A   1      35.657  22.285  25.903  1.00  0.00    -0.369 OA
ATOM     22  C   UNL A   1      36.190  23.339  25.064  1.00  0.00     0.081 C 
ATOM     23  C   UNL A   1      35.258  24.575  24.989  1.00  0.00     0.156 C 
ATOM     24  C   UNL A   1      36.540  22.804  23.669  1.00  0.00     0.044 C 
ATOM     25  C   UNL A   1      37.498  23.766  25.748  1.00  0.00     0.044 C 
ENDBRANCH  14  17
ENDBRANCH  12  13
ENDBRANCH   8  12
ENDBRANCH   4   7
ENDBRANCH   2   3
ENDBRANCH   1   2
BRANCH   1  26
ATOM     26  C   UNL A   1      31.367  32.615  26.779  1.00  0.00     0.023 C 
BRANCH  26  27
ATOM     27  C   UNL A   1      32.689  33.168  27.307  1.00  0.00     0.116 C 
BRANCH  27  28
ATOM     28  N   UNL A   1      32.561  34.440  28.004  1.00  0.00    -0.352 N 
ATOM     29  C   UNL A   1      33.366  34.934  29.010  1.00  0.00     0.251 C 
ATOM     30  H   UNL A   1      31.812  35.016  27.726  1.00  0.00     0.163 HD
ATOM     31  O   UNL A   1      33.093  35.988  29.566  1.00  0.00    -0.269 OA
BRANCH  29  32
ATOM     32  C   UNL A   1      34.532  34.126  29.432  1.00  0.00     0.039 A 
ATOM     33  C   UNL A   1      35.796  34.458  28.944  1.00  0.00     0.014 A 
ATOM     34  C   UNL A   1      34.379  33.126  30.394  1.00  0.00     0.014 A 
ATOM     35  C   UNL A   1      36.926  33.847  29.495  1.00  0.00     0.010 A 
ATOM     36  C   UNL A   1      35.507  32.571  30.989  1.00  0.00     0.010 A 
ATOM     37  C   UNL A   1      36.792  32.939  30.557  1.00  0.00    -0.014 A 
BRANCH  37  38
ATOM     38  C   UNL A   1      37.977  32.369  31.250  1.00  0.00     0.031 A 
ATOM     39  C   UNL A   1      38.711  31.209  30.638  1.00  0.00     0.074 A 
ATOM     40  C   UNL A   1      38.329  32.829  32.467  1.00  0.00     0.049 A 
ATOM     41  N   UNL A   1      39.674  30.481  31.140  1.00  0.00    -0.248 NA
ATOM     42  C   UNL A   1      38.273  30.791  29.298  1.00  0.00     0.031 C 
ATOM     43  C   UNL A   1      37.665  33.920  33.186  1.00  0.00     0.029 A 
ATOM     44  N   UNL A   1      39.318  32.423  33.328  1.00  0.00    -0.354 N 
ATOM     45  C   UNL A   1      39.943  29.503  30.187  1.00  0.00     0.074 A 
ATOM     46  C   UNL A   1      39.002  29.703  29.106  1.00  0.00     0.031 C 
ATOM     47  C   UNL A   1      38.274  34.104  34.369  1.00  0.00     0.029 A 
ATOM     48  C   UNL A   1      39.340  33.118  34.516  1.00  0.00     0.049 A 
ATOM     49  H   UNL A   1      39.954  31.702  33.115  1.00  0.00     0.167 HD
ATOM     50  C   UNL A   1      40.899  28.541  30.205  1.00  0.00     0.034 A 
ATOM     51  C   UNL A   1      40.117  32.966  35.607  1.00  0.00     0.034 A 
ATOM     52  C   UNL A   1      41.843  28.370  31.282  1.00  0.00     0.049 A 
ATOM     53  C   UNL A   1      41.170  31.887  35.607  1.00  0.00     0.074 A 
ATOM     54  C   UNL A   1      42.893  27.473  31.374  1.00  0.00     0.029 A 
ATOM     55  N   UNL A   1      41.850  29.110  32.457  1.00  0.00    -0.354 N 
ATOM     56  N   UNL A   1      41.443  31.000  34.678  1.00  0.00    -0.248 NA
ATOM     57  C   UNL A   1      42.024  31.794  36.799  1.00  0.00     0.031 C 
ATOM     58  C   UNL A   1      43.499  27.632  32.625  1.00  0.00     0.029 A 
ATOM     59  C   UNL A   1      42.869  28.672  33.289  1.00  0.00     0.049 A 
ATOM     60  H   UNL A   1      41.223  29.838  32.669  1.00  0.00     0.167 HD
ATOM     61  C   UNL A   1      42.520  30.264  35.163  1.00  0.00     0.074 A 
ATOM     62  C   UNL A   1      42.851  30.814  36.461  1.00  0.00     0.031 C 
ATOM     63  C   UNL A   1      43.182  29.230  34.584  1.00  0.00     0.034 A 
BRANCH  50  64
ATOM     64  C   UNL A   1      40.945  27.592  29.033  1.00  0.00     0.023 A 
ATOM     65  C   UNL A   1      41.883  27.746  27.998  1.00  0.00     0.031 A 
ATOM     66  C   UNL A   1      40.014  26.544  28.928  1.00  0.00     0.131 A 
ATOM     67  C   UNL A   1      41.816  26.922  26.864  1.00  0.00     0.055 A 
ATOM     68  C   UNL A   1      40.006  25.674  27.836  1.00  0.00     0.041 A 
ATOM     69  F   UNL A   1      39.083  26.359  29.877  1.00  0.00    -0.206 F 
ATOM     70  C   UNL A   1      40.901  25.871  26.786  1.00  0.00     0.022 A 
BRANCH  67  71
ATOM     71  S   UNL A   1      42.848  27.339  25.432  1.00  0.00     0.124 S 
ATOM     72  O   UNL A   1      42.819  26.090  24.675  1.00  0.00    -0.237 OA
ATOM     73  O   UNL A   1      42.128  28.461  24.840  1.00  0.00    -0.237 OA
ATOM     74  O   UNL A   1      44.141  27.670  26.025  1.00  0.00    -0.744 OA
ENDBRANCH  67  71
ENDBRANCH  50  64
BRANCH  51  75
ATOM     75  C   UNL A   1      39.926  33.841  36.798  1.00  0.00     0.023 A 
ATOM     76  C   UNL A   1      39.285  33.359  37.950  1.00  0.00     0.031 A 
ATOM     77  C   UNL A   1      40.347  35.182  36.787  1.00  0.00     0.131 A 
ATOM     78  C   UNL A   1      39.046  34.224  39.030  1.00  0.00     0.055 A 
ATOM     79  C   UNL A   1      40.147  36.026  37.881  1.00  0.00     0.041 A 
ATOM     80  F   UNL A   1      40.971  35.689  35.712  1.00  0.00    -0.206 F 
ATOM     81  C   UNL A   1      39.481  35.551  39.007  1.00  0.00     0.022 A 
BRANCH  78  82
ATOM     82  S   UNL A   1      38.089  33.606  40.442  1.00  0.00     0.124 S 
ATOM     83  O   UNL A   1      36.922  33.030  39.782  1.00  0.00    -0.237 OA
ATOM     84  O   UNL A   1      39.019  32.659  41.046  1.00  0.00    -0.237 OA
ATOM     85  O   UNL A   1      37.829  34.809  41.229  1.00  0.00    -0.744 OA
ENDBRANCH  78  82
ENDBRANCH  51  75
BRANCH  63  86
ATOM     86  C   UNL A   1      44.361  28.666  35.333  1.00  0.00     0.023 A 
ATOM     87  C   UNL A   1      44.202  27.722  36.362  1.00  0.00     0.031 A 
ATOM     88  C   UNL A   1      45.664  29.081  35.005  1.00  0.00     0.131 A 
ATOM     89  C   UNL A   1      45.328  27.253  37.057  1.00  0.00     0.055 A 
ATOM     90  C   UNL A   1      46.783  28.574  35.667  1.00  0.00     0.041 A 
ATOM     91  F   UNL A   1      45.869  29.981  34.031  1.00  0.00    -0.206 F 
ATOM     92  C   UNL A   1      46.617  27.662  36.706  1.00  0.00     0.022 A 
BRANCH  89  93
ATOM     93  S   UNL A   1      45.081  26.148  38.473  1.00  0.00     0.124 S 
ATOM     94  O   UNL A   1      45.192  24.831  37.854  1.00  0.00    -0.237 OA
ATOM     95  O   UNL A   1      46.173  26.529  39.363  1.00  0.00    -0.237 OA
ATOM     96  O   UNL A   1      43.745  26.498  38.952  1.00  0.00    -0.744 OA
ENDBRANCH  89  93
ENDBRANCH  63  86
ENDBRANCH  37  38
ENDBRANCH  29  32
ENDBRANCH  27  28
ENDBRANCH  26  27
ENDBRANCH   1  26
TORSDOF 17
ENDMDL
MODEL 2
REMARK VINA RESULT:     -11.4      5.594     11.419
REMARK SMILES C[C@@H]1CN(C(=O)NC[C@@H]2CC[C@H](C(=O)NCCCCNC(=O)c3ccc(-c4c5nc(c(-c6cc(S(=O)(=O)[O-])ccc6F)c6ccc([nH]6)c(-c6cc(S(=O)(=O)[O-])ccc6F)c6nc(c(-c7cc(S(=O)(=O)[O-])ccc7F)c7ccc4[nH]7)C=C6)C=C5)cc3)O2)CC(C)(C)O1
REMARK SMILES IDX 17 1 16 2 15 3 13 4 14 5 12 7 9 8 10 9 86 10 11 11 8 12 7 13
REMARK SMILES IDX 5 14 6 15 4 17 1 18 2 19 3 20 91 21 88 22 87 23 89 24 90 25
REMARK SMILES IDX 18 26 19 27 20 28 21 29 22 31 23 32 24 33 85 34 25 35 84 36
REMARK SMILES IDX 26 37 27 38 28 39 78 40 29 41 83 42 77 43 79 44 30 45 82 46
REMARK SMILES IDX 76 47 75 48 31 50 63 51 43 52 62 53 44 54 47 55 61 56 80 57
REMARK SMILES IDX 45 58 46 59 60 61 81 62 48 63 32 64 33 65 41 66 34 67 40 68
REMARK SMILES IDX 42 69 39 70 35 71 36 72 37 73 38 74 64 75 65 76 73 77 66 78
REMARK SMILES IDX 72 79 74 80 71 81 67 82 68 83 69 84 70 85 49 86 50 87 58 88
REMARK SMILES IDX 51 89 57 90 59 91 56 92 52 93 53 94 54 95 55 96
REMARK H PARENT 15 6 7 16 20 30 79 49 47 60
REMARK Flexibility Score: inf
ROOT
ATOM      1  C   UNL A   1      38.479  23.255  26.127  1.00  0.00     0.023 C 
ENDROOT
BRANCH   1   2
ATOM      2  C   UNL A   1      37.077  23.635  25.662  1.00  0.00     0.116 C 
BRANCH   2   3
ATOM      3  N   UNL A   1      36.059  23.258  26.618  1.00  0.00    -0.354 N 
ATOM      4  C   UNL A   1      34.933  22.506  26.442  1.00  0.00     0.249 C 
ATOM      5  O   UNL A   1      34.216  22.305  27.427  1.00  0.00    -0.272 OA
ATOM      6  H   UNL A   1      36.200  23.593  27.533  1.00  0.00     0.163 HD
BRANCH   4   7
ATOM      7  C   UNL A   1      34.521  21.970  25.053  1.00  0.00     0.207 C 
ATOM      8  C   UNL A   1      32.709  22.214  23.584  1.00  0.00     0.138 C 
ATOM      9  C   UNL A   1      32.426  20.966  24.405  1.00  0.00     0.037 C 
ATOM     10  O   UNL A   1      33.791  22.892  24.254  1.00  0.00    -0.363 OA
ATOM     11  C   UNL A   1      33.730  20.674  25.113  1.00  0.00     0.045 C 
BRANCH   8  12
ATOM     12  C   UNL A   1      31.499  23.164  23.483  1.00  0.00     0.149 C 
BRANCH  12  13
ATOM     13  N   UNL A   1      31.234  23.776  24.777  1.00  0.00    -0.335 N 
ATOM     14  C   UNL A   1      31.558  24.830  25.523  1.00  0.00     0.317 C 
ATOM     15  O   UNL A   1      31.002  24.862  26.627  1.00  0.00    -0.249 OA
ATOM     16  H   UNL A   1      30.592  23.217  25.272  1.00  0.00     0.165 HD
BRANCH  14  17
ATOM     17  N   UNL A   1      32.404  25.810  25.131  1.00  0.00    -0.319 N 
ATOM     18  C   UNL A   1      30.493  28.084  24.187  1.00  0.00     0.040 C 
ATOM     19  C   UNL A   1      32.010  27.967  24.054  1.00  0.00     0.135 C 
ATOM     20  C   UNL A   1      32.502  26.526  23.871  1.00  0.00     0.153 C 
ATOM     21  O   UNL A   1      32.707  28.635  25.121  1.00  0.00    -0.369 OA
ATOM     22  C   UNL A   1      32.865  27.912  26.367  1.00  0.00     0.081 C 
ATOM     23  C   UNL A   1      33.253  26.427  26.151  1.00  0.00     0.156 C 
ATOM     24  C   UNL A   1      31.615  28.053  27.244  1.00  0.00     0.044 C 
ATOM     25  C   UNL A   1      34.030  28.611  27.086  1.00  0.00     0.044 C 
ENDBRANCH  14  17
ENDBRANCH  12  13
ENDBRANCH   8  12
ENDBRANCH   4   7
ENDBRANCH   2   3
ENDBRANCH   1   2
BRANCH   1  26
ATOM     26  C   UNL A   1      38.895  21.841  25.725  1.00  0.00     0.023 C 
BRANCH  26  27
ATOM     27  C   UNL A   1      39.681  21.075  26.787  1.00  0.00     0.116 C 
BRANCH  27  28
ATOM     28  N   UNL A   1      40.487  19.986  26.253  1.00  0.00    -0.352 N 
ATOM     29  C   UNL A   1      41.836  20.003  25.962  1.00  0.00     0.251 C 
ATOM     30  H   UNL A   1      40.016  19.140  26.079  1.00  0.00     0.163 HD
ATOM     31  O   UNL A   1      42.372  19.036  25.438  1.00  0.00    -0.269 OA
BRANCH  29  32
ATOM     32  C   UNL A   1      42.598  21.237  26.249  1.00  0.00     0.039 A 
ATOM     33  C   UNL A   1      42.801  22.162  25.224  1.00  0.00     0.014 A 
ATOM     34  C   UNL A   1      43.003  21.521  27.556  1.00  0.00     0.014 A 
ATOM     35  C   UNL A   1      43.327  23.420  25.529  1.00  0.00     0.010 A 
ATOM     36  C   UNL A   1      43.461  22.797  27.868  1.00  0.00     0.010 A 
ATOM     37  C   UNL A   1      43.611  23.765  26.860  1.00  0.00    -0.014 A 
BRANCH  37  38
ATOM     38  C   UNL A   1      44.050  25.134  27.234  1.00  0.00     0.031 A 
ATOM     39  C   UNL A   1      43.049  26.118  27.769  1.00  0.00     0.074 A 
ATOM     40  C   UNL A   1      45.322  25.518  27.001  1.00  0.00     0.049 A 
ATOM     41  N   UNL A   1      43.193  27.393  28.021  1.00  0.00    -0.248 NA
ATOM     42  C   UNL A   1      41.693  25.604  28.014  1.00  0.00     0.031 C 
ATOM     43  C   UNL A   1      46.375  24.668  26.442  1.00  0.00     0.029 A 
ATOM     44  N   UNL A   1      45.940  26.730  27.183  1.00  0.00    -0.354 N 
ATOM     45  C   UNL A   1      41.941  27.840  28.433  1.00  0.00     0.074 A 
ATOM     46  C   UNL A   1      41.042  26.709  28.341  1.00  0.00     0.031 C 
ATOM     47  C   UNL A   1      47.510  25.380  26.341  1.00  0.00     0.029 A 
ATOM     48  C   UNL A   1      47.257  26.747  26.783  1.00  0.00     0.049 A 
ATOM     49  H   UNL A   1      45.484  27.515  27.566  1.00  0.00     0.167 HD
ATOM     50  C   UNL A   1      41.581  29.074  28.865  1.00  0.00     0.034 A 
ATOM     51  C   UNL A   1      48.152  27.755  26.756  1.00  0.00     0.034 A 
ATOM     52  C   UNL A   1      42.495  30.185  28.970  1.00  0.00     0.049 A 
ATOM     53  C   UNL A   1      47.729  29.120  27.237  1.00  0.00     0.074 A 
ATOM     54  C   UNL A   1      42.254  31.457  29.457  1.00  0.00     0.029 A 
ATOM     55  N   UNL A   1      43.827  30.156  28.579  1.00  0.00    -0.354 N 
ATOM     56  N   UNL A   1      46.553  29.515  27.668  1.00  0.00    -0.248 NA
ATOM     57  C   UNL A   1      48.755  30.171  27.235  1.00  0.00     0.031 C 
ATOM     58  C   UNL A   1      43.422  32.214  29.310  1.00  0.00     0.029 A 
ATOM     59  C   UNL A   1      44.412  31.395  28.791  1.00  0.00     0.049 A 
ATOM     60  H   UNL A   1      44.290  29.372  28.206  1.00  0.00     0.167 HD
ATOM     61  C   UNL A   1      46.708  30.853  28.015  1.00  0.00     0.074 A 
ATOM     62  C   UNL A   1      48.091  31.195  27.751  1.00  0.00     0.031 C 
ATOM     63  C   UNL A   1      45.792  31.721  28.516  1.00  0.00     0.034 A 
BRANCH  50  64
ATOM     64  C   UNL A   1      40.132  29.282  29.230  1.00  0.00     0.023 A 
ATOM     65  C   UNL A   1      39.714  29.362  30.569  1.00  0.00     0.031 A 
ATOM     66  C   UNL A   1      39.149  29.361  28.227  1.00  0.00     0.131 A 
ATOM     67  C   UNL A   1      38.346  29.429  30.873  1.00  0.00     0.055 A 
ATOM     68  C   UNL A   1      37.796  29.513  28.534  1.00  0.00     0.041 A 
ATOM     69  F   UNL A   1      39.486  29.273  26.930  1.00  0.00    -0.206 F 
ATOM     70  C   UNL A   1      37.385  29.531  29.865  1.00  0.00     0.022 A 
BRANCH  67  71
ATOM     71  S   UNL A   1      37.835  29.235  32.602  1.00  0.00     0.124 S 
ATOM     72  O   UNL A   1      36.585  29.992  32.626  1.00  0.00    -0.237 OA
ATOM     73  O   UNL A   1      37.708  27.788  32.733  1.00  0.00    -0.237 OA
ATOM     74  O   UNL A   1      38.934  29.836  33.354  1.00  0.00    -0.744 OA
ENDBRANCH  67  71
ENDBRANCH  50  64
BRANCH  51  75
ATOM     75  C   UNL A   1      49.532  27.524  26.245  1.00  0.00     0.023 A 
ATOM     76  C   UNL A   1      49.837  27.702  24.886  1.00  0.00     0.031 A 
ATOM     77  C   UNL A   1      50.559  27.086  27.100  1.00  0.00     0.131 A 
ATOM     78  C   UNL A   1      51.124  27.403  24.413  1.00  0.00     0.055 A 
ATOM     79  C   UNL A   1      51.850  26.833  26.632  1.00  0.00     0.041 A 
ATOM     80  F   UNL A   1      50.321  26.908  28.409  1.00  0.00    -0.206 F 
ATOM     81  C   UNL A   1      52.135  26.980  25.278  1.00  0.00     0.022 A 
BRANCH  78  82
ATOM     82  S   UNL A   1      51.439  27.507  22.629  1.00  0.00     0.124 S 
ATOM     83  O   UNL A   1      52.629  26.675  22.488  1.00  0.00    -0.237 OA
ATOM     84  O   UNL A   1      50.206  26.963  22.072  1.00  0.00    -0.237 OA
ATOM     85  O   UNL A   1      51.646  28.936  22.403  1.00  0.00    -0.744 OA
ENDBRANCH  78  82
ENDBRANCH  51  75
BRANCH  63  86
ATOM     86  C   UNL A   1      46.275  33.106  28.857  1.00  0.00     0.023 A 
ATOM     87  C   UNL A   1      46.203  34.164  27.934  1.00  0.00     0.031 A 
ATOM     88  C   UNL A   1      46.813  33.369  30.129  1.00  0.00     0.131 A 
ATOM     89  C   UNL A   1      46.700  35.429  28.283  1.00  0.00     0.055 A 
ATOM     90  C   UNL A   1      47.261  34.641  30.488  1.00  0.00     0.041 A 
ATOM     91  F   UNL A   1      46.906  32.393  31.046  1.00  0.00    -0.206 F 
ATOM     92  C   UNL A   1      47.215  35.676  29.559  1.00  0.00     0.022 A 
BRANCH  89  93
ATOM     93  S   UNL A   1      46.726  36.734  27.025  1.00  0.00     0.124 S 
ATOM     94  O   UNL A   1      47.667  37.690  27.599  1.00  0.00    -0.237 OA
ATOM     95  O   UNL A   1      47.187  36.018  25.840  1.00  0.00    -0.237 OA
ATOM     96  O   UNL A   1      45.337  37.186  26.971  1.00  0.00    -0.744 OA
ENDBRANCH  89  93
ENDBRANCH  63  86
ENDBRANCH  37  38
ENDBRANCH  29  32
ENDBRANCH  27  28
ENDBRANCH  26  27
ENDBRANCH   1  26
TORSDOF 17
ENDMDL
MODEL 3
REMARK VINA RESULT:     -11.3      1.613      2.123
REMARK SMILES C[C@@H]1CN(C(=O)NC[C@@H]2CC[C@H](C(=O)NCCCCNC(=O)c3ccc(-c4c5nc(c(-c6cc(S(=O)(=O)[O-])ccc6F)c6ccc([nH]6)c(-c6cc(S(=O)(=O)[O-])ccc6F)c6nc(c(-c7cc(S(=O)(=O)[O-])ccc7F)c7ccc4[nH]7)C=C6)C=C5)cc3)O2)CC(C)(C)O1
REMARK SMILES IDX 17 1 16 2 15 3 13 4 14 5 12 7 9 8 10 9 86 10 11 11 8 12 7 13
REMARK SMILES IDX 5 14 6 15 4 17 1 18 2 19 3 20 91 21 88 22 87 23 89 24 90 25
REMARK SMILES IDX 18 26 19 27 20 28 21 29 22 31 23 32 24 33 85 34 25 35 84 36
REMARK SMILES IDX 26 37 27 38 28 39 78 40 29 41 83 42 77 43 79 44 30 45 82 46
REMARK SMILES IDX 76 47 75 48 31 50 63 51 43 52 62 53 44 54 47 55 61 56 80 57
REMARK SMILES IDX 45 58 46 59 60 61 81 62 48 63 32 64 33 65 41 66 34 67 40 68
REMARK SMILES IDX 42 69 39 70 35 71 36 72 37 73 38 74 64 75 65 76 73 77 66 78
REMARK SMILES IDX 72 79 74 80 71 81 67 82 68 83 69 84 70 85 49 86 50 87 58 88
REMARK SMILES IDX 51 89 57 90 59 91 56 92 52 93 53 94 54 95 55 96
REMARK H PARENT 15 6 7 16 20 30 79 49 47 60
REMARK Flexibility Score: inf
ROOT
ATOM      1  C   UNL A   1      34.167  29.659  27.615  1.00  0.00     0.023 C 
ENDROOT
BRANCH   1   2
ATOM      2  C   UNL A   1      33.868  28.491  26.681  1.00  0.00     0.116 C 
BRANCH   2   3
ATOM      3  N   UNL A   1      33.932  28.870  25.288  1.00  0.00    -0.354 N 
ATOM      4  C   UNL A   1      32.932  28.964  24.363  1.00  0.00     0.249 C 
ATOM      5  O   UNL A   1      33.234  29.329  23.223  1.00  0.00    -0.272 OA
ATOM      6  H   UNL A   1      34.831  29.096  24.956  1.00  0.00     0.163 HD
BRANCH   4   7
ATOM      7  C   UNL A   1      31.476  28.569  24.696  1.00  0.00     0.207 C 
ATOM      8  C   UNL A   1      30.006  26.820  24.167  1.00  0.00     0.138 C 
ATOM      9  C   UNL A   1      29.719  27.931  23.171  1.00  0.00     0.037 C 
ATOM     10  O   UNL A   1      31.250  27.169  24.805  1.00  0.00    -0.363 OA
ATOM     11  C   UNL A   1      30.456  29.132  23.720  1.00  0.00     0.045 C 
BRANCH   8  12
ATOM     12  C   UNL A   1      30.142  25.432  23.511  1.00  0.00     0.149 C 
BRANCH  12  13
ATOM     13  N   UNL A   1      30.301  24.407  24.534  1.00  0.00    -0.335 N 
ATOM     14  C   UNL A   1      31.028  23.335  24.838  1.00  0.00     0.317 C 
ATOM     15  O   UNL A   1      30.718  22.796  25.907  1.00  0.00    -0.249 OA
ATOM     16  H   UNL A   1      29.641  24.562  25.248  1.00  0.00     0.165 HD
BRANCH  14  17
ATOM     17  N   UNL A   1      32.040  22.859  24.076  1.00  0.00    -0.319 N 
ATOM     18  C   UNL A   1      34.069  25.223  24.006  1.00  0.00     0.040 C 
ATOM     19  C   UNL A   1      34.066  23.918  23.215  1.00  0.00     0.135 C 
ATOM     20  C   UNL A   1      32.659  23.404  22.881  1.00  0.00     0.153 C 
ATOM     21  O   UNL A   1      34.871  22.898  23.835  1.00  0.00    -0.369 OA
ATOM     22  C   UNL A   1      34.264  22.130  24.903  1.00  0.00     0.081 C 
ATOM     23  C   UNL A   1      32.802  21.720  24.588  1.00  0.00     0.156 C 
ATOM     24  C   UNL A   1      34.371  22.873  26.240  1.00  0.00     0.044 C 
ATOM     25  C   UNL A   1      35.110  20.851  25.002  1.00  0.00     0.044 C 
ENDBRANCH  14  17
ENDBRANCH  12  13
ENDBRANCH   8  12
ENDBRANCH   4   7
ENDBRANCH   2   3
ENDBRANCH   1   2
BRANCH   1  26
ATOM     26  C   UNL A   1      33.217  30.842  27.439  1.00  0.00     0.023 C 
BRANCH  26  27
ATOM     27  C   UNL A   1      33.900  32.185  27.192  1.00  0.00     0.116 C 
BRANCH  27  28
ATOM     28  N   UNL A   1      33.119  33.333  27.629  1.00  0.00    -0.352 N 
ATOM     29  C   UNL A   1      33.320  34.109  28.753  1.00  0.00     0.251 C 
ATOM     30  H   UNL A   1      32.359  33.586  27.058  1.00  0.00     0.163 HD
ATOM     31  O   UNL A   1      32.533  34.999  29.044  1.00  0.00    -0.269 OA
BRANCH  29  32
ATOM     32  C   UNL A   1      34.477  33.798  29.619  1.00  0.00     0.039 A 
ATOM     33  C   UNL A   1      34.299  32.938  30.703  1.00  0.00     0.014 A 
ATOM     34  C   UNL A   1      35.750  34.267  29.282  1.00  0.00     0.014 A 
ATOM     35  C   UNL A   1      35.418  32.468  31.397  1.00  0.00     0.010 A 
ATOM     36  C   UNL A   1      36.864  33.744  29.929  1.00  0.00     0.010 A 
ATOM     37  C   UNL A   1      36.711  32.826  30.981  1.00  0.00    -0.014 A 
BRANCH  37  38
ATOM     38  C   UNL A   1      37.922  32.245  31.616  1.00  0.00     0.031 A 
ATOM     39  C   UNL A   1      38.652  31.120  30.937  1.00  0.00     0.074 A 
ATOM     40  C   UNL A   1      38.304  32.660  32.840  1.00  0.00     0.049 A 
ATOM     41  N   UNL A   1      39.638  30.385  31.380  1.00  0.00    -0.248 NA
ATOM     42  C   UNL A   1      38.180  30.751  29.594  1.00  0.00     0.031 C 
ATOM     43  C   UNL A   1      37.648  33.712  33.621  1.00  0.00     0.029 A 
ATOM     44  N   UNL A   1      39.323  32.233  33.655  1.00  0.00    -0.354 N 
ATOM     45  C   UNL A   1      39.891  29.451  30.381  1.00  0.00     0.074 A 
ATOM     46  C   UNL A   1      38.916  29.681  29.336  1.00  0.00     0.031 C 
ATOM     47  C   UNL A   1      38.289  33.856  34.793  1.00  0.00     0.029 A 
ATOM     48  C   UNL A   1      39.371  32.880  34.869  1.00  0.00     0.049 A 
ATOM     49  H   UNL A   1      39.961  31.530  33.395  1.00  0.00     0.167 HD
ATOM     50  C   UNL A   1      40.858  28.501  30.333  1.00  0.00     0.034 A 
ATOM     51  C   UNL A   1      40.182  32.694  35.930  1.00  0.00     0.034 A 
ATOM     52  C   UNL A   1      41.835  28.299  31.374  1.00  0.00     0.049 A 
ATOM     53  C   UNL A   1      41.247  31.630  35.856  1.00  0.00     0.074 A 
ATOM     54  C   UNL A   1      42.899  27.413  31.399  1.00  0.00     0.029 A 
ATOM     55  N   UNL A   1      41.868  28.991  32.577  1.00  0.00    -0.354 N 
ATOM     56  N   UNL A   1      41.504  30.785  34.884  1.00  0.00    -0.248 NA
ATOM     57  C   UNL A   1      42.137  31.501  37.018  1.00  0.00     0.031 C 
ATOM     58  C   UNL A   1      43.539  27.530  32.638  1.00  0.00     0.029 A 
ATOM     59  C   UNL A   1      42.917  28.534  33.361  1.00  0.00     0.049 A 
ATOM     60  H   UNL A   1      41.239  29.702  32.837  1.00  0.00     0.167 HD
ATOM     61  C   UNL A   1      42.603  30.044  35.307  1.00  0.00     0.074 A 
ATOM     62  C   UNL A   1      42.965  30.546  36.617  1.00  0.00     0.031 C 
ATOM     63  C   UNL A   1      43.260  29.043  34.668  1.00  0.00     0.034 A 
BRANCH  50  64
ATOM     64  C   UNL A   1      40.882  27.601  29.122  1.00  0.00     0.023 A 
ATOM     65  C   UNL A   1      41.824  27.774  28.094  1.00  0.00     0.031 A 
ATOM     66  C   UNL A   1      39.924  26.582  28.974  1.00  0.00     0.131 A 
ATOM     67  C   UNL A   1      41.737  27.000  26.927  1.00  0.00     0.055 A 
ATOM     68  C   UNL A   1      39.896  25.758  27.846  1.00  0.00     0.041 A 
ATOM     69  F   UNL A   1      38.988  26.380  29.915  1.00  0.00    -0.206 F 
ATOM     70  C   UNL A   1      40.796  25.976  26.806  1.00  0.00     0.022 A 
BRANCH  67  71
ATOM     71  S   UNL A   1      42.780  27.450  25.513  1.00  0.00     0.124 S 
ATOM     72  O   UNL A   1      44.086  27.607  26.149  1.00  0.00    -0.237 OA
ATOM     73  O   UNL A   1      42.633  26.298  24.632  1.00  0.00    -0.237 OA
ATOM     74  O   UNL A   1      42.180  28.690  25.025  1.00  0.00    -0.744 OA
ENDBRANCH  67  71
ENDBRANCH  50  64
BRANCH  51  75
ATOM     75  C   UNL A   1      40.015  33.518  37.160  1.00  0.00     0.023 A 
ATOM     76  C   UNL A   1      39.212  33.073  38.222  1.00  0.00     0.031 A 
ATOM     77  C   UNL A   1      40.625  34.779  37.277  1.00  0.00     0.131 A 
ATOM     78  C   UNL A   1      39.005  33.900  39.337  1.00  0.00     0.055 A 
ATOM     79  C   UNL A   1      40.454  35.579  38.408  1.00  0.00     0.041 A 
ATOM     80  F   UNL A   1      41.410  35.246  36.293  1.00  0.00    -0.206 F 
ATOM     81  C   UNL A   1      39.630  35.145  39.442  1.00  0.00     0.022 A 
BRANCH  78  82
ATOM     82  S   UNL A   1      37.848  33.353  40.622  1.00  0.00     0.124 S 
ATOM     83  O   UNL A   1      36.740  32.837  39.825  1.00  0.00    -0.237 OA
ATOM     84  O   UNL A   1      38.639  32.361  41.341  1.00  0.00    -0.237 OA
ATOM     85  O   UNL A   1      37.562  34.578  41.367  1.00  0.00    -0.744 OA
ENDBRANCH  78  82
ENDBRANCH  51  75
BRANCH  63  86
ATOM     86  C   UNL A   1      44.467  28.465  35.359  1.00  0.00     0.023 A 
ATOM     87  C   UNL A   1      45.753  29.001  35.174  1.00  0.00     0.031 A 
ATOM     88  C   UNL A   1      44.323  27.363  36.219  1.00  0.00     0.131 A 
ATOM     89  C   UNL A   1      46.854  28.405  35.809  1.00  0.00     0.055 A 
ATOM     90  C   UNL A   1      45.414  26.806  36.887  1.00  0.00     0.041 A 
ATOM     91  F   UNL A   1      43.116  26.814  36.430  1.00  0.00    -0.206 F 
ATOM     92  C   UNL A   1      46.690  27.321  36.676  1.00  0.00     0.022 A 
BRANCH  89  93
ATOM     93  S   UNL A   1      48.517  29.026  35.438  1.00  0.00     0.124 S 
ATOM     94  O   UNL A   1      49.073  27.943  34.632  1.00  0.00    -0.237 OA
ATOM     95  O   UNL A   1      48.236  30.270  34.729  1.00  0.00    -0.237 OA
ATOM     96  O   UNL A   1      49.123  29.191  36.758  1.00  0.00    -0.744 OA
ENDBRANCH  89  93
ENDBRANCH  63  86
ENDBRANCH  37  38
ENDBRANCH  29  32
ENDBRANCH  27  28
ENDBRANCH  26  27
ENDBRANCH   1  26
TORSDOF 17
ENDMDL
