MODEL 1
REMARK VINA RESULT:     -12.1      0.000      0.000
REMARK SMILES C[C@@H]([NH2+]C[C@H]1CCC[C@@H]1C(=O)NCCCCNC(=O)c1ccc(-c2c3nc(c(-c4cc(S(=O)(=O)[O-])ccc4F)c4ccc([nH]4)c(-c4cc(S(=O)(=O)[O-])ccc4F)c4nc(c(-c5cc(S(=O)(=O)[O-])ccc5F)c5ccc2[nH]5)C=C4)C=C3)cc1)c1cc(F)ccc1O
REMARK SMILES IDX 13 1 12 2 10 3 11 4 9 6 5 7 6 8 7 9 8 10 4 11 3 12 2 15 1 16
REMARK SMILES IDX 83 17 84 18 89 19 85 20 88 21 86 22 87 23 90 24 14 26 15 27
REMARK SMILES IDX 16 28 17 29 18 30 19 32 20 33 21 34 82 35 22 36 81 37 23 38
REMARK SMILES IDX 24 39 25 40 75 41 26 42 80 43 74 44 76 45 27 46 79 47 73 48
REMARK SMILES IDX 72 49 28 51 60 52 40 53 59 54 41 55 44 56 58 57 77 58 42 59
REMARK SMILES IDX 43 60 57 62 78 63 45 64 29 65 30 66 38 67 31 68 37 69 39 70
REMARK SMILES IDX 36 71 32 72 33 73 34 74 35 75 61 76 62 77 70 78 63 79 69 80
REMARK SMILES IDX 71 81 68 82 64 83 65 84 66 85 67 86 46 87 47 88 55 89 48 90
REMARK SMILES IDX 54 91 56 92 53 93 49 94 50 95 51 96 52 97
REMARK H PARENT 12 5 3 13 3 14 90 25 17 31 76 50 44 61
REMARK Flexibility Score: inf
ROOT
ATOM      1  C   UNL A   1      35.174  24.157  25.212  1.00  0.00     0.116 C 
ENDROOT
BRANCH   1   2
ATOM      2  N   UNL A   1      34.778  25.549  25.095  1.00  0.00    -0.356 N 
ATOM      3  C   UNL A   1      33.595  26.149  25.409  1.00  0.00     0.223 C 
ATOM      4  O   UNL A   1      33.523  27.375  25.323  1.00  0.00    -0.275 OA
ATOM      5  H   UNL A   1      35.468  26.151  24.734  1.00  0.00     0.163 HD
BRANCH   3   6
ATOM      6  C   UNL A   1      32.401  25.286  25.804  1.00  0.00     0.087 C 
ATOM      7  C   UNL A   1      31.861  24.517  24.579  1.00  0.00     0.057 C 
ATOM      8  C   UNL A   1      30.927  25.550  23.937  1.00  0.00     0.010 C 
ATOM      9  C   UNL A   1      30.252  26.257  25.100  1.00  0.00     0.001 C 
ATOM     10  C   UNL A   1      31.212  26.136  26.282  1.00  0.00     0.014 C 
BRANCH   7  11
ATOM     11  C   UNL A   1      31.172  23.211  25.028  1.00  0.00     0.265 C 
BRANCH  11  12
ATOM     12  N   UNL A   1      31.611  21.955  24.399  1.00  0.00    -0.340 N 
ATOM     13  H   UNL A   1      30.834  21.586  23.851  1.00  0.00     0.346 HD
ATOM     14  H   UNL A   1      32.427  22.188  23.833  1.00  0.00     0.346 HD
BRANCH  12  15
ATOM     15  C   UNL A   1      32.046  20.906  25.345  1.00  0.00     0.214 C 
ATOM     16  C   UNL A   1      33.267  21.439  26.109  1.00  0.00     0.081 C 
BRANCH  15  17
ATOM     17  C   UNL A   1      32.408  19.593  24.675  1.00  0.00     0.054 A 
ATOM     18  C   UNL A   1      32.329  19.506  23.274  1.00  0.00     0.053 A 
ATOM     19  C   UNL A   1      32.751  18.428  25.382  1.00  0.00     0.124 A 
ATOM     20  C   UNL A   1      32.593  18.303  22.626  1.00  0.00     0.123 A 
ATOM     21  C   UNL A   1      33.019  17.226  24.728  1.00  0.00     0.050 A 
ATOM     22  F   UNL A   1      32.497  18.242  21.291  1.00  0.00    -0.207 F 
ATOM     23  C   UNL A   1      32.940  17.163  23.339  1.00  0.00     0.043 A 
BRANCH  19  24
ATOM     24  O   UNL A   1      32.847  18.421  26.747  1.00  0.00    -0.507 OA
ATOM     25  H   UNL A   1      32.949  17.610  27.204  1.00  0.00     0.293 HD
ENDBRANCH  19  24
ENDBRANCH  15  17
ENDBRANCH  12  15
ENDBRANCH  11  12
ENDBRANCH   7  11
ENDBRANCH   3   6
ENDBRANCH   1   2
BRANCH   1  26
ATOM     26  C   UNL A   1      35.754  23.598  23.915  1.00  0.00     0.023 C 
BRANCH  26  27
ATOM     27  C   UNL A   1      36.584  22.319  24.055  1.00  0.00     0.023 C 
BRANCH  27  28
ATOM     28  C   UNL A   1      36.839  21.839  25.481  1.00  0.00     0.116 C 
BRANCH  28  29
ATOM     29  N   UNL A   1      37.876  20.823  25.565  1.00  0.00    -0.352 N 
ATOM     30  C   UNL A   1      39.179  20.930  25.997  1.00  0.00     0.251 C 
ATOM     31  H   UNL A   1      37.606  19.923  25.268  1.00  0.00     0.163 HD
ATOM     32  O   UNL A   1      39.939  19.973  25.868  1.00  0.00    -0.269 OA
BRANCH  30  33
ATOM     33  C   UNL A   1      39.673  22.200  26.575  1.00  0.00     0.039 A 
ATOM     34  C   UNL A   1      40.671  22.152  27.553  1.00  0.00     0.014 A 
ATOM     35  C   UNL A   1      39.173  23.433  26.148  1.00  0.00     0.014 A 
ATOM     36  C   UNL A   1      41.237  23.339  28.029  1.00  0.00     0.010 A 
ATOM     37  C   UNL A   1      39.779  24.613  26.580  1.00  0.00     0.010 A 
ATOM     38  C   UNL A   1      40.832  24.578  27.507  1.00  0.00    -0.014 A 
BRANCH  38  39
ATOM     39  C   UNL A   1      41.529  25.841  27.870  1.00  0.00     0.031 A 
ATOM     40  C   UNL A   1      40.804  26.921  28.625  1.00  0.00     0.074 A 
ATOM     41  C   UNL A   1      42.789  26.051  27.435  1.00  0.00     0.049 A 
ATOM     42  N   UNL A   1      41.197  28.136  28.913  1.00  0.00    -0.248 NA
ATOM     43  C   UNL A   1      39.450  26.599  29.096  1.00  0.00     0.031 C 
ATOM     44  C   UNL A   1      43.593  25.091  26.676  1.00  0.00     0.029 A 
ATOM     45  N   UNL A   1      43.610  27.147  27.552  1.00  0.00    -0.354 N 
ATOM     46  C   UNL A   1      40.133  28.733  29.580  1.00  0.00     0.074 A 
ATOM     47  C   UNL A   1      39.065  27.755  29.622  1.00  0.00     0.031 C 
ATOM     48  C   UNL A   1      44.791  25.632  26.406  1.00  0.00     0.029 A 
ATOM     49  C   UNL A   1      44.826  26.996  26.922  1.00  0.00     0.049 A 
ATOM     50  H   UNL A   1      43.354  27.961  28.040  1.00  0.00     0.167 HD
ATOM     51  C   UNL A   1      40.059  29.976  30.116  1.00  0.00     0.034 A 
ATOM     52  C   UNL A   1      45.842  27.867  26.753  1.00  0.00     0.034 A 
ATOM     53  C   UNL A   1      41.139  30.935  30.083  1.00  0.00     0.049 A 
ATOM     54  C   UNL A   1      45.713  29.259  27.319  1.00  0.00     0.074 A 
ATOM     55  C   UNL A   1      41.194  32.189  30.668  1.00  0.00     0.029 A 
ATOM     56  N   UNL A   1      42.346  30.754  29.422  1.00  0.00    -0.354 N 
ATOM     57  N   UNL A   1      44.718  29.789  27.994  1.00  0.00    -0.248 NA
ATOM     58  C   UNL A   1      46.844  30.170  27.100  1.00  0.00     0.031 C 
ATOM     59  C   UNL A   1      42.400  32.794  30.300  1.00  0.00     0.029 A 
ATOM     60  C   UNL A   1      43.133  31.890  29.547  1.00  0.00     0.049 A 
ATOM     61  H   UNL A   1      42.606  29.940  28.935  1.00  0.00     0.167 HD
ATOM     62  C   UNL A   1      45.121  31.085  28.305  1.00  0.00     0.074 A 
ATOM     63  C   UNL A   1      46.451  31.250  27.758  1.00  0.00     0.031 C 
ATOM     64  C   UNL A   1      44.453  32.050  28.984  1.00  0.00     0.034 A 
BRANCH  51  65
ATOM     65  C   UNL A   1      38.755  30.388  30.755  1.00  0.00     0.023 A 
ATOM     66  C   UNL A   1      37.739  31.029  30.026  1.00  0.00     0.031 A 
ATOM     67  C   UNL A   1      38.526  30.131  32.119  1.00  0.00     0.131 A 
ATOM     68  C   UNL A   1      36.568  31.444  30.675  1.00  0.00     0.055 A 
ATOM     69  C   UNL A   1      37.328  30.482  32.743  1.00  0.00     0.041 A 
ATOM     70  F   UNL A   1      39.467  29.538  32.871  1.00  0.00    -0.206 F 
ATOM     71  C   UNL A   1      36.344  31.154  32.024  1.00  0.00     0.022 A 
BRANCH  68  72
ATOM     72  S   UNL A   1      35.386  32.474  29.763  1.00  0.00     0.124 S 
ATOM     73  O   UNL A   1      36.203  33.640  29.434  1.00  0.00    -0.237 OA
ATOM     74  O   UNL A   1      35.018  31.615  28.643  1.00  0.00    -0.237 OA
ATOM     75  O   UNL A   1      34.324  32.722  30.734  1.00  0.00    -0.744 OA
ENDBRANCH  68  72
ENDBRANCH  51  65
BRANCH  52  76
ATOM     76  C   UNL A   1      47.063  27.475  25.993  1.00  0.00     0.023 A 
ATOM     77  C   UNL A   1      47.211  27.823  24.641  1.00  0.00     0.031 A 
ATOM     78  C   UNL A   1      48.070  26.691  26.585  1.00  0.00     0.131 A 
ATOM     79  C   UNL A   1      48.309  27.345  23.911  1.00  0.00     0.055 A 
ATOM     80  C   UNL A   1      49.189  26.264  25.869  1.00  0.00     0.041 A 
ATOM     81  F   UNL A   1      47.979  26.330  27.875  1.00  0.00    -0.206 F 
ATOM     82  C   UNL A   1      49.306  26.578  24.518  1.00  0.00     0.022 A 
BRANCH  79  83
ATOM     83  S   UNL A   1      48.364  27.657  22.125  1.00  0.00     0.124 S 
ATOM     84  O   UNL A   1      49.512  28.549  22.014  1.00  0.00    -0.237 OA
ATOM     85  O   UNL A   1      48.544  26.312  21.589  1.00  0.00    -0.237 OA
ATOM     86  O   UNL A   1      47.067  28.268  21.846  1.00  0.00    -0.744 OA
ENDBRANCH  79  83
ENDBRANCH  52  76
BRANCH  64  87
ATOM     87  C   UNL A   1      45.177  33.355  29.206  1.00  0.00     0.023 A 
ATOM     88  C   UNL A   1      45.153  34.384  28.249  1.00  0.00     0.031 A 
ATOM     89  C   UNL A   1      45.917  33.562  30.383  1.00  0.00     0.131 A 
ATOM     90  C   UNL A   1      45.901  35.553  28.461  1.00  0.00     0.055 A 
ATOM     91  C   UNL A   1      46.611  34.750  30.615  1.00  0.00     0.041 A 
ATOM     92  F   UNL A   1      45.977  32.611  31.329  1.00  0.00    -0.206 F 
ATOM     93  C   UNL A   1      46.617  35.749  29.646  1.00  0.00     0.022 A 
BRANCH  90  94
ATOM     94  S   UNL A   1      45.996  36.781  27.130  1.00  0.00     0.124 S 
ATOM     95  O   UNL A   1      46.235  35.942  25.960  1.00  0.00    -0.237 OA
ATOM     96  O   UNL A   1      44.687  37.421  27.199  1.00  0.00    -0.237 OA
ATOM     97  O   UNL A   1      47.120  37.629  27.524  1.00  0.00    -0.744 OA
ENDBRANCH  90  94
ENDBRANCH  64  87
ENDBRANCH  38  39
ENDBRANCH  30  33
ENDBRANCH  28  29
ENDBRANCH  27  28
ENDBRANCH  26  27
ENDBRANCH   1  26
TORSDOF 19
ENDMDL
MODEL 2
REMARK VINA RESULT:     -11.9      2.050      2.392
REMARK SMILES C[C@@H]([NH2+]C[C@H]1CCC[C@@H]1C(=O)NCCCCNC(=O)c1ccc(-c2c3nc(c(-c4cc(S(=O)(=O)[O-])ccc4F)c4ccc([nH]4)c(-c4cc(S(=O)(=O)[O-])ccc4F)c4nc(c(-c5cc(S(=O)(=O)[O-])ccc5F)c5ccc2[nH]5)C=C4)C=C3)cc1)c1cc(F)ccc1O
REMARK SMILES IDX 13 1 12 2 10 3 11 4 9 6 5 7 6 8 7 9 8 10 4 11 3 12 2 15 1 16
REMARK SMILES IDX 83 17 84 18 89 19 85 20 88 21 86 22 87 23 90 24 14 26 15 27
REMARK SMILES IDX 16 28 17 29 18 30 19 32 20 33 21 34 82 35 22 36 81 37 23 38
REMARK SMILES IDX 24 39 25 40 75 41 26 42 80 43 74 44 76 45 27 46 79 47 73 48
REMARK SMILES IDX 72 49 28 51 60 52 40 53 59 54 41 55 44 56 58 57 77 58 42 59
REMARK SMILES IDX 43 60 57 62 78 63 45 64 29 65 30 66 38 67 31 68 37 69 39 70
REMARK SMILES IDX 36 71 32 72 33 73 34 74 35 75 61 76 62 77 70 78 63 79 69 80
REMARK SMILES IDX 71 81 68 82 64 83 65 84 66 85 67 86 46 87 47 88 55 89 48 90
REMARK SMILES IDX 54 91 56 92 53 93 49 94 50 95 51 96 52 97
REMARK H PARENT 12 5 3 13 3 14 90 25 17 31 76 50 44 61
REMARK Flexibility Score: inf
ROOT
ATOM      1  C   UNL A   1      34.244  23.661  23.169  1.00  0.00     0.116 C 
ENDROOT
BRANCH   1   2
ATOM      2  N   UNL A   1      34.005  25.074  22.938  1.00  0.00    -0.356 N 
ATOM      3  C   UNL A   1      33.700  26.064  23.825  1.00  0.00     0.223 C 
ATOM      4  O   UNL A   1      33.644  27.222  23.409  1.00  0.00    -0.275 OA
ATOM      5  H   UNL A   1      34.072  25.362  21.999  1.00  0.00     0.163 HD
BRANCH   3   6
ATOM      6  C   UNL A   1      33.393  25.701  25.274  1.00  0.00     0.087 C 
ATOM      7  C   UNL A   1      31.960  25.142  25.399  1.00  0.00     0.057 C 
ATOM      8  C   UNL A   1      31.124  26.421  25.522  1.00  0.00     0.010 C 
ATOM      9  C   UNL A   1      31.952  27.359  26.384  1.00  0.00     0.001 C 
ATOM     10  C   UNL A   1      33.407  26.937  26.190  1.00  0.00     0.014 C 
BRANCH   7  11
ATOM     11  C   UNL A   1      31.862  24.186  26.606  1.00  0.00     0.265 C 
BRANCH  11  12
ATOM     12  N   UNL A   1      31.331  22.834  26.368  1.00  0.00    -0.340 N 
ATOM     13  H   UNL A   1      30.533  22.693  26.988  1.00  0.00     0.346 HD
ATOM     14  H   UNL A   1      31.084  22.794  25.379  1.00  0.00     0.346 HD
BRANCH  12  15
ATOM     15  C   UNL A   1      32.294  21.737  26.602  1.00  0.00     0.214 C 
ATOM     16  C   UNL A   1      33.656  22.369  26.923  1.00  0.00     0.081 C 
BRANCH  15  17
ATOM     17  C   UNL A   1      32.444  20.796  25.421  1.00  0.00     0.054 A 
ATOM     18  C   UNL A   1      32.202  21.292  24.128  1.00  0.00     0.053 A 
ATOM     19  C   UNL A   1      32.744  19.429  25.550  1.00  0.00     0.124 A 
ATOM     20  C   UNL A   1      32.268  20.447  23.024  1.00  0.00     0.123 A 
ATOM     21  C   UNL A   1      32.814  18.587  24.440  1.00  0.00     0.050 A 
ATOM     22  F   UNL A   1      32.020  20.940  21.804  1.00  0.00    -0.207 F 
ATOM     23  C   UNL A   1      32.576  19.100  23.167  1.00  0.00     0.043 A 
BRANCH  19  24
ATOM     24  O   UNL A   1      32.989  18.861  26.769  1.00  0.00    -0.507 OA
ATOM     25  H   UNL A   1      32.315  18.840  27.420  1.00  0.00     0.293 HD
ENDBRANCH  19  24
ENDBRANCH  15  17
ENDBRANCH  12  15
ENDBRANCH  11  12
ENDBRANCH   7  11
ENDBRANCH   3   6
ENDBRANCH   1   2
BRANCH   1  26
ATOM     26  C   UNL A   1      35.698  23.359  23.522  1.00  0.00     0.023 C 
BRANCH  26  27
ATOM     27  C   UNL A   1      35.982  21.932  23.999  1.00  0.00     0.023 C 
BRANCH  27  28
ATOM     28  C   UNL A   1      36.632  21.801  25.374  1.00  0.00     0.116 C 
BRANCH  28  29
ATOM     29  N   UNL A   1      37.640  20.755  25.432  1.00  0.00    -0.352 N 
ATOM     30  C   UNL A   1      38.943  20.814  25.870  1.00  0.00     0.251 C 
ATOM     31  H   UNL A   1      37.346  19.872  25.111  1.00  0.00     0.163 HD
ATOM     32  O   UNL A   1      39.678  19.841  25.718  1.00  0.00    -0.269 OA
BRANCH  30  33
ATOM     33  C   UNL A   1      39.471  22.054  26.483  1.00  0.00     0.039 A 
ATOM     34  C   UNL A   1      40.484  21.954  27.443  1.00  0.00     0.014 A 
ATOM     35  C   UNL A   1      38.987  23.311  26.107  1.00  0.00     0.014 A 
ATOM     36  C   UNL A   1      41.079  23.114  27.949  1.00  0.00     0.010 A 
ATOM     37  C   UNL A   1      39.622  24.463  26.570  1.00  0.00     0.010 A 
ATOM     38  C   UNL A   1      40.689  24.377  27.478  1.00  0.00    -0.014 A 
BRANCH  38  39
ATOM     39  C   UNL A   1      41.416  25.614  27.872  1.00  0.00     0.031 A 
ATOM     40  C   UNL A   1      40.711  26.700  28.638  1.00  0.00     0.074 A 
ATOM     41  C   UNL A   1      42.686  25.798  27.456  1.00  0.00     0.049 A 
ATOM     42  N   UNL A   1      41.133  27.898  28.954  1.00  0.00    -0.248 NA
ATOM     43  C   UNL A   1      39.343  26.406  29.088  1.00  0.00     0.031 C 
ATOM     44  C   UNL A   1      43.472  24.830  26.688  1.00  0.00     0.029 A 
ATOM     45  N   UNL A   1      43.535  26.868  27.602  1.00  0.00    -0.354 N 
ATOM     46  C   UNL A   1      40.077  28.511  29.620  1.00  0.00     0.074 A 
ATOM     47  C   UNL A   1      38.983  27.562  29.631  1.00  0.00     0.031 C 
ATOM     48  C   UNL A   1      44.688  25.344  26.442  1.00  0.00     0.029 A 
ATOM     49  C   UNL A   1      44.753  26.697  26.984  1.00  0.00     0.049 A 
ATOM     50  H   UNL A   1      43.295  27.680  28.103  1.00  0.00     0.167 HD
ATOM     51  C   UNL A   1      40.031  29.746  30.178  1.00  0.00     0.034 A 
ATOM     52  C   UNL A   1      45.794  27.542  26.843  1.00  0.00     0.034 A 
ATOM     53  C   UNL A   1      41.136  30.675  30.176  1.00  0.00     0.049 A 
ATOM     54  C   UNL A   1      45.696  28.927  27.433  1.00  0.00     0.074 A 
ATOM     55  C   UNL A   1      41.218  31.916  30.784  1.00  0.00     0.029 A 
ATOM     56  N   UNL A   1      42.346  30.474  29.525  1.00  0.00    -0.354 N 
ATOM     57  N   UNL A   1      44.708  29.471  28.106  1.00  0.00    -0.248 NA
ATOM     58  C   UNL A   1      46.854  29.810  27.245  1.00  0.00     0.031 C 
ATOM     59  C   UNL A   1      42.444  32.495  30.441  1.00  0.00     0.029 A 
ATOM     60  C   UNL A   1      43.161  31.586  29.680  1.00  0.00     0.049 A 
ATOM     61  H   UNL A   1      42.589  29.662  29.026  1.00  0.00     0.167 HD
ATOM     62  C   UNL A   1      45.142  30.749  28.446  1.00  0.00     0.074 A 
ATOM     63  C   UNL A   1      46.483  30.888  27.918  1.00  0.00     0.031 C 
ATOM     64  C   UNL A   1      44.491  31.720  29.136  1.00  0.00     0.034 A 
BRANCH  51  65
ATOM     65  C   UNL A   1      38.730  30.181  30.810  1.00  0.00     0.023 A 
ATOM     66  C   UNL A   1      37.741  30.862  30.081  1.00  0.00     0.031 A 
ATOM     67  C   UNL A   1      38.478  29.904  32.166  1.00  0.00     0.131 A 
ATOM     68  C   UNL A   1      36.573  31.298  30.725  1.00  0.00     0.055 A 
ATOM     69  C   UNL A   1      37.282  30.276  32.782  1.00  0.00     0.041 A 
ATOM     70  F   UNL A   1      39.394  29.272  32.917  1.00  0.00    -0.206 F 
ATOM     71  C   UNL A   1      36.326  30.988  32.065  1.00  0.00     0.022 A 
BRANCH  68  72
ATOM     72  S   UNL A   1      35.431  32.376  29.818  1.00  0.00     0.124 S 
ATOM     73  O   UNL A   1      34.415  32.647  30.833  1.00  0.00    -0.237 OA
ATOM     74  O   UNL A   1      36.284  33.500  29.450  1.00  0.00    -0.237 OA
ATOM     75  O   UNL A   1      34.982  31.543  28.705  1.00  0.00    -0.744 OA
ENDBRANCH  68  72
ENDBRANCH  51  65
BRANCH  52  76
ATOM     76  C   UNL A   1      47.014  27.131  26.089  1.00  0.00     0.023 A 
ATOM     77  C   UNL A   1      48.069  26.468  26.736  1.00  0.00     0.031 A 
ATOM     78  C   UNL A   1      47.172  27.452  24.729  1.00  0.00     0.131 A 
ATOM     79  C   UNL A   1      49.256  26.196  26.040  1.00  0.00     0.055 A 
ATOM     80  C   UNL A   1      48.334  27.129  24.026  1.00  0.00     0.041 A 
ATOM     81  F   UNL A   1      46.194  28.085  24.062  1.00  0.00    -0.206 F 
ATOM     82  C   UNL A   1      49.391  26.511  24.686  1.00  0.00     0.022 A 
BRANCH  79  83
ATOM     83  S   UNL A   1      50.662  25.513  26.959  1.00  0.00     0.124 S 
ATOM     84  O   UNL A   1      50.059  24.357  27.611  1.00  0.00    -0.237 OA
ATOM     85  O   UNL A   1      51.611  25.223  25.888  1.00  0.00    -0.237 OA
ATOM     86  O   UNL A   1      51.048  26.604  27.851  1.00  0.00    -0.744 OA
ENDBRANCH  79  83
ENDBRANCH  52  76
BRANCH  64  87
ATOM     87  C   UNL A   1      45.248  33.001  29.390  1.00  0.00     0.023 A 
ATOM     88  C   UNL A   1      46.017  33.185  30.552  1.00  0.00     0.031 A 
ATOM     89  C   UNL A   1      45.181  34.057  28.465  1.00  0.00     0.131 A 
ATOM     90  C   UNL A   1      46.645  34.419  30.785  1.00  0.00     0.055 A 
ATOM     91  C   UNL A   1      45.856  35.260  28.674  1.00  0.00     0.041 A 
ATOM     92  F   UNL A   1      44.458  33.936  27.340  1.00  0.00    -0.206 F 
ATOM     93  C   UNL A   1      46.582  35.452  29.846  1.00  0.00     0.022 A 
BRANCH  90  94
ATOM     94  S   UNL A   1      47.476  34.687  32.375  1.00  0.00     0.124 S 
ATOM     95  O   UNL A   1      48.802  35.128  31.955  1.00  0.00    -0.237 OA
ATOM     96  O   UNL A   1      46.635  35.702  33.001  1.00  0.00    -0.237 OA
ATOM     97  O   UNL A   1      47.433  33.371  33.011  1.00  0.00    -0.744 OA
ENDBRANCH  90  94
ENDBRANCH  64  87
ENDBRANCH  38  39
ENDBRANCH  30  33
ENDBRANCH  28  29
ENDBRANCH  27  28
ENDBRANCH  26  27
ENDBRANCH   1  26
TORSDOF 19
ENDMDL
MODEL 3
REMARK VINA RESULT:     -11.8      5.007      9.830
REMARK SMILES C[C@@H]([NH2+]C[C@H]1CCC[C@@H]1C(=O)NCCCCNC(=O)c1ccc(-c2c3nc(c(-c4cc(S(=O)(=O)[O-])ccc4F)c4ccc([nH]4)c(-c4cc(S(=O)(=O)[O-])ccc4F)c4nc(c(-c5cc(S(=O)(=O)[O-])ccc5F)c5ccc2[nH]5)C=C4)C=C3)cc1)c1cc(F)ccc1O
REMARK SMILES IDX 13 1 12 2 10 3 11 4 9 6 5 7 6 8 7 9 8 10 4 11 3 12 2 15 1 16
REMARK SMILES IDX 83 17 84 18 89 19 85 20 88 21 86 22 87 23 90 24 14 26 15 27
REMARK SMILES IDX 16 28 17 29 18 30 19 32 20 33 21 34 82 35 22 36 81 37 23 38
REMARK SMILES IDX 24 39 25 40 75 41 26 42 80 43 74 44 76 45 27 46 79 47 73 48
REMARK SMILES IDX 72 49 28 51 60 52 40 53 59 54 41 55 44 56 58 57 77 58 42 59
REMARK SMILES IDX 43 60 57 62 78 63 45 64 29 65 30 66 38 67 31 68 37 69 39 70
REMARK SMILES IDX 36 71 32 72 33 73 34 74 35 75 61 76 62 77 70 78 63 79 69 80
REMARK SMILES IDX 71 81 68 82 64 83 65 84 66 85 67 86 46 87 47 88 55 89 48 90
REMARK SMILES IDX 54 91 56 92 53 93 49 94 50 95 51 96 52 97
REMARK H PARENT 12 5 3 13 3 14 90 25 17 31 76 50 44 61
REMARK Flexibility Score: inf
ROOT
ATOM      1  C   UNL A   1      33.274  27.459  26.082  1.00  0.00     0.116 C 
ENDROOT
BRANCH   1   2
ATOM      2  N   UNL A   1      31.899  27.063  26.327  1.00  0.00    -0.356 N 
ATOM      3  C   UNL A   1      31.286  25.864  26.117  1.00  0.00     0.223 C 
ATOM      4  O   UNL A   1      30.124  25.728  26.502  1.00  0.00    -0.275 OA
ATOM      5  H   UNL A   1      31.322  27.767  26.700  1.00  0.00     0.163 HD
BRANCH   3   6
ATOM      6  C   UNL A   1      32.035  24.760  25.377  1.00  0.00     0.087 C 
ATOM      7  C   UNL A   1      32.520  25.266  24.001  1.00  0.00     0.057 C 
ATOM      8  C   UNL A   1      31.284  25.043  23.122  1.00  0.00     0.010 C 
ATOM      9  C   UNL A   1      30.688  23.728  23.595  1.00  0.00     0.001 C 
ATOM     10  C   UNL A   1      31.122  23.567  25.050  1.00  0.00     0.014 C 
BRANCH   7  11
ATOM     11  C   UNL A   1      33.778  24.489  23.559  1.00  0.00     0.265 C 
BRANCH  11  12
ATOM     12  N   UNL A   1      34.923  24.456  24.484  1.00  0.00    -0.340 N 
ATOM     13  H   UNL A   1      35.635  25.095  24.130  1.00  0.00     0.346 HD
ATOM     14  H   UNL A   1      34.560  24.725  25.399  1.00  0.00     0.346 HD
BRANCH  12  15
ATOM     15  C   UNL A   1      35.544  23.126  24.658  1.00  0.00     0.214 C 
ATOM     16  C   UNL A   1      36.430  22.858  23.433  1.00  0.00     0.081 C 
BRANCH  15  17
ATOM     17  C   UNL A   1      34.539  21.998  24.806  1.00  0.00     0.054 A 
ATOM     18  C   UNL A   1      33.808  21.595  23.675  1.00  0.00     0.053 A 
ATOM     19  C   UNL A   1      34.242  21.377  26.030  1.00  0.00     0.124 A 
ATOM     20  C   UNL A   1      32.833  20.607  23.781  1.00  0.00     0.123 A 
ATOM     21  C   UNL A   1      33.267  20.385  26.131  1.00  0.00     0.050 A 
ATOM     22  F   UNL A   1      32.140  20.249  22.692  1.00  0.00    -0.207 F 
ATOM     23  C   UNL A   1      32.558  19.996  24.997  1.00  0.00     0.043 A 
BRANCH  19  24
ATOM     24  O   UNL A   1      34.900  21.712  27.181  1.00  0.00    -0.507 OA
ATOM     25  H   UNL A   1      35.803  21.959  27.149  1.00  0.00     0.293 HD
ENDBRANCH  19  24
ENDBRANCH  15  17
ENDBRANCH  12  15
ENDBRANCH  11  12
ENDBRANCH   7  11
ENDBRANCH   3   6
ENDBRANCH   1   2
BRANCH   1  26
ATOM     26  C   UNL A   1      33.382  28.744  25.266  1.00  0.00     0.023 C 
BRANCH  26  27
ATOM     27  C   UNL A   1      32.214  29.724  25.413  1.00  0.00     0.023 C 
BRANCH  27  28
ATOM     28  C   UNL A   1      31.958  30.254  26.822  1.00  0.00     0.116 C 
BRANCH  28  29
ATOM     29  N   UNL A   1      31.903  31.706  26.885  1.00  0.00    -0.352 N 
ATOM     30  C   UNL A   1      32.823  32.599  27.385  1.00  0.00     0.251 C 
ATOM     31  H   UNL A   1      31.085  32.111  26.514  1.00  0.00     0.163 HD
ATOM     32  O   UNL A   1      32.531  33.790  27.462  1.00  0.00    -0.269 OA
BRANCH  30  33
ATOM     33  C   UNL A   1      34.141  32.125  27.867  1.00  0.00     0.039 A 
ATOM     34  C   UNL A   1      35.182  33.049  27.999  1.00  0.00     0.014 A 
ATOM     35  C   UNL A   1      34.350  30.784  28.202  1.00  0.00     0.014 A 
ATOM     36  C   UNL A   1      36.399  32.649  28.562  1.00  0.00     0.010 A 
ATOM     37  C   UNL A   1      35.542  30.402  28.816  1.00  0.00     0.010 A 
ATOM     38  C   UNL A   1      36.571  31.335  29.024  1.00  0.00    -0.014 A 
BRANCH  38  39
ATOM     39  C   UNL A   1      37.788  30.926  29.775  1.00  0.00     0.031 A 
ATOM     40  C   UNL A   1      38.741  29.919  29.192  1.00  0.00     0.074 A 
ATOM     41  C   UNL A   1      37.984  31.395  31.025  1.00  0.00     0.049 A 
ATOM     42  N   UNL A   1      39.776  29.341  29.746  1.00  0.00    -0.248 NA
ATOM     43  C   UNL A   1      38.479  29.488  27.811  1.00  0.00     0.031 C 
ATOM     44  C   UNL A   1      37.121  32.359  31.711  1.00  0.00     0.029 A 
ATOM     45  N   UNL A   1      38.959  31.110  31.950  1.00  0.00    -0.354 N 
ATOM     46  C   UNL A   1      40.279  28.462  28.792  1.00  0.00     0.074 A 
ATOM     47  C   UNL A   1      39.410  28.560  27.637  1.00  0.00     0.031 C 
ATOM     48  C   UNL A   1      37.610  32.595  32.939  1.00  0.00     0.029 A 
ATOM     49  C   UNL A   1      38.788  31.761  33.152  1.00  0.00     0.049 A 
ATOM     50  H   UNL A   1      39.710  30.501  31.770  1.00  0.00     0.167 HD
ATOM     51  C   UNL A   1      41.368  27.659  28.872  1.00  0.00     0.034 A 
ATOM     52  C   UNL A   1      39.482  31.674  34.305  1.00  0.00     0.034 A 
ATOM     53  C   UNL A   1      42.235  27.586  30.023  1.00  0.00     0.049 A 
ATOM     54  C   UNL A   1      40.661  30.736  34.380  1.00  0.00     0.074 A 
ATOM     55  C   UNL A   1      43.409  26.866  30.173  1.00  0.00     0.029 A 
ATOM     56  N   UNL A   1      42.020  28.243  31.227  1.00  0.00    -0.354 N 
ATOM     57  N   UNL A   1      41.153  29.950  33.449  1.00  0.00    -0.248 NA
ATOM     58  C   UNL A   1      41.377  30.673  35.660  1.00  0.00     0.031 C 
ATOM     59  C   UNL A   1      43.862  27.030  31.486  1.00  0.00     0.029 A 
ATOM     60  C   UNL A   1      43.014  27.911  32.137  1.00  0.00     0.049 A 
ATOM     61  H   UNL A   1      41.272  28.856  31.409  1.00  0.00     0.167 HD
ATOM     62  C   UNL A   1      42.255  29.325  34.026  1.00  0.00     0.074 A 
ATOM     63  C   UNL A   1      42.363  29.835  35.376  1.00  0.00     0.031 C 
ATOM     64  C   UNL A   1      43.103  28.414  33.487  1.00  0.00     0.034 A 
BRANCH  51  65
ATOM     65  C   UNL A   1      41.666  26.765  27.692  1.00  0.00     0.023 A 
ATOM     66  C   UNL A   1      41.293  25.410  27.673  1.00  0.00     0.031 A 
ATOM     67  C   UNL A   1      42.334  27.281  26.567  1.00  0.00     0.131 A 
ATOM     68  C   UNL A   1      41.642  24.604  26.580  1.00  0.00     0.055 A 
ATOM     69  C   UNL A   1      42.615  26.491  25.451  1.00  0.00     0.041 A 
ATOM     70  F   UNL A   1      42.731  28.563  26.536  1.00  0.00    -0.206 F 
ATOM     71  C   UNL A   1      42.279  25.141  25.457  1.00  0.00     0.022 A 
BRANCH  68  72
ATOM     72  S   UNL A   1      41.357  22.816  26.691  1.00  0.00     0.124 S 
ATOM     73  O   UNL A   1      39.897  22.754  26.738  1.00  0.00    -0.237 OA
ATOM     74  O   UNL A   1      41.978  22.321  25.468  1.00  0.00    -0.237 OA
ATOM     75  O   UNL A   1      42.029  22.437  27.931  1.00  0.00    -0.744 OA
ENDBRANCH  68  72
ENDBRANCH  51  65
BRANCH  52  76
ATOM     76  C   UNL A   1      39.076  32.467  35.501  1.00  0.00     0.023 A 
ATOM     77  C   UNL A   1      39.543  33.778  35.686  1.00  0.00     0.031 A 
ATOM     78  C   UNL A   1      38.270  31.906  36.508  1.00  0.00     0.131 A 
ATOM     79  C   UNL A   1      39.248  34.465  36.873  1.00  0.00     0.055 A 
ATOM     80  C   UNL A   1      37.933  32.614  37.663  1.00  0.00     0.041 A 
ATOM     81  F   UNL A   1      37.796  30.656  36.381  1.00  0.00    -0.206 F 
ATOM     82  C   UNL A   1      38.436  33.897  37.857  1.00  0.00     0.022 A 
BRANCH  79  83
ATOM     83  S   UNL A   1      40.027  36.078  37.157  1.00  0.00     0.124 S 
ATOM     84  O   UNL A   1      39.257  36.585  38.286  1.00  0.00    -0.237 OA
ATOM     85  O   UNL A   1      41.408  35.701  37.440  1.00  0.00    -0.237 OA
ATOM     86  O   UNL A   1      39.821  36.782  35.893  1.00  0.00    -0.744 OA
ENDBRANCH  79  83
ENDBRANCH  52  76
BRANCH  64  87
ATOM     87  C   UNL A   1      44.246  27.948  34.355  1.00  0.00     0.023 A 
ATOM     88  C   UNL A   1      44.161  26.772  35.119  1.00  0.00     0.031 A 
ATOM     89  C   UNL A   1      45.429  28.704  34.432  1.00  0.00     0.131 A 
ATOM     90  C   UNL A   1      45.218  26.414  35.971  1.00  0.00     0.055 A 
ATOM     91  C   UNL A   1      46.501  28.311  35.235  1.00  0.00     0.041 A 
ATOM     92  F   UNL A   1      45.564  29.838  33.725  1.00  0.00    -0.206 F 
ATOM     93  C   UNL A   1      46.394  27.167  36.021  1.00  0.00     0.022 A 
BRANCH  90  94
ATOM     94  S   UNL A   1      45.002  24.994  37.078  1.00  0.00     0.124 S 
ATOM     95  O   UNL A   1      44.183  25.562  38.144  1.00  0.00    -0.237 OA
ATOM     96  O   UNL A   1      44.340  24.021  36.216  1.00  0.00    -0.237 OA
ATOM     97  O   UNL A   1      46.370  24.648  37.465  1.00  0.00    -0.744 OA
ENDBRANCH  90  94
ENDBRANCH  64  87
ENDBRANCH  38  39
ENDBRANCH  30  33
ENDBRANCH  28  29
ENDBRANCH  27  28
ENDBRANCH  26  27
ENDBRANCH   1  26
TORSDOF 19
ENDMDL
