MODEL 1
REMARK VINA RESULT:     -12.3      0.000      0.000
REMARK SMILES Cc1cc(C)c2c(=O)n(CCCC(=O)NCCCCNC(=O)c3ccc(-c4c5nc(c(-c6cc(S(=O)(=O)[O-])ccc6F)c6ccc([nH]6)c(-c6cc(S(=O)(=O)[O-])ccc6F)c6nc(c(-c7cc(S(=O)(=O)[O-])ccc7F)c7ccc4[nH]7)C=C6)C=C5)cc3)sc2n1
REMARK SMILES IDX 17 1 16 2 15 3 13 4 14 5 12 7 11 8 10 9 9 10 1 11 2 12 3 13
REMARK SMILES IDX 88 14 4 15 87 16 5 17 6 18 86 19 7 20 8 21 18 22 19 23 20 24
REMARK SMILES IDX 21 25 22 27 23 28 24 29 85 30 25 31 84 32 26 33 27 34 28 35
REMARK SMILES IDX 78 36 29 37 83 38 77 39 79 40 30 41 82 42 76 43 75 44 31 46
REMARK SMILES IDX 63 47 43 48 62 49 44 50 47 51 61 52 80 53 45 54 46 55 60 57
REMARK SMILES IDX 81 58 48 59 32 60 33 61 41 62 34 63 40 64 42 65 39 66 35 67
REMARK SMILES IDX 36 68 37 69 38 70 64 71 65 72 73 73 66 74 72 75 74 76 71 77
REMARK SMILES IDX 67 78 68 79 69 80 70 81 49 82 50 83 58 84 51 85 57 86 59 87
REMARK SMILES IDX 56 88 52 89 53 90 54 91 55 92
REMARK H PARENT 15 6 20 26 79 45 47 56
REMARK Flexibility Score: inf
ROOT
ATOM      1  C   UNL A   1      33.257  30.932  27.373  1.00  0.00     0.023 C 
ENDROOT
BRANCH   1   2
ATOM      2  C   UNL A   1      32.390  30.212  26.329  1.00  0.00     0.116 C 
BRANCH   2   3
ATOM      3  N   UNL A   1      31.706  29.081  26.921  1.00  0.00    -0.356 N 
ATOM      4  C   UNL A   1      31.748  27.756  26.628  1.00  0.00     0.220 C 
ATOM      5  O   UNL A   1      30.957  27.016  27.221  1.00  0.00    -0.275 OA
ATOM      6  H   UNL A   1      31.106  29.314  27.666  1.00  0.00     0.163 HD
BRANCH   4   7
ATOM      7  C   UNL A   1      32.787  27.165  25.693  1.00  0.00     0.102 C 
BRANCH   7   8
ATOM      8  C   UNL A   1      32.617  25.738  25.160  1.00  0.00     0.033 C 
BRANCH   8   9
ATOM      9  C   UNL A   1      31.434  25.352  24.261  1.00  0.00     0.139 C 
BRANCH   9  10
ATOM     10  N   UNL A   1      30.700  26.347  23.495  1.00  0.00    -0.262 N 
ATOM     11  C   UNL A   1      28.802  31.724  21.275  1.00  0.00     0.067 C 
ATOM     12  C   UNL A   1      28.833  30.363  21.905  1.00  0.00     0.039 A 
ATOM     13  C   UNL A   1      27.691  29.840  22.528  1.00  0.00     0.027 A 
ATOM     14  N   UNL A   1      29.990  29.668  21.803  1.00  0.00    -0.241 NA
ATOM     15  C   UNL A   1      27.740  28.577  23.144  1.00  0.00    -0.033 A 
ATOM     16  C   UNL A   1      30.010  28.477  22.421  1.00  0.00     0.146 A 
ATOM     17  C   UNL A   1      26.514  27.973  23.755  1.00  0.00     0.045 C 
ATOM     18  C   UNL A   1      28.965  27.924  23.136  1.00  0.00     0.081 A 
ATOM     19  S   UNL A   1      31.400  27.385  22.337  1.00  0.00    -0.035 S 
ATOM     20  C   UNL A   1      29.381  26.681  23.829  1.00  0.00     0.270 A 
ATOM     21  O   UNL A   1      28.678  26.098  24.629  1.00  0.00    -0.268 OA
ENDBRANCH   9  10
ENDBRANCH   8   9
ENDBRANCH   7   8
ENDBRANCH   4   7
ENDBRANCH   2   3
ENDBRANCH   1   2
BRANCH   1  22
ATOM     22  C   UNL A   1      34.772  30.754  27.221  1.00  0.00     0.023 C 
BRANCH  22  23
ATOM     23  C   UNL A   1      35.357  29.630  28.061  1.00  0.00     0.116 C 
BRANCH  23  24
ATOM     24  N   UNL A   1      35.567  30.002  29.462  1.00  0.00    -0.352 N 
ATOM     25  C   UNL A   1      36.561  29.537  30.308  1.00  0.00     0.251 C 
ATOM     26  H   UNL A   1      34.934  30.653  29.843  1.00  0.00     0.163 HD
ATOM     27  O   UNL A   1      36.414  29.562  31.523  1.00  0.00    -0.269 OA
BRANCH  25  28
ATOM     28  C   UNL A   1      37.799  29.020  29.697  1.00  0.00     0.039 A 
ATOM     29  C   UNL A   1      38.395  29.630  28.591  1.00  0.00     0.014 A 
ATOM     30  C   UNL A   1      38.399  27.928  30.320  1.00  0.00     0.014 A 
ATOM     31  C   UNL A   1      39.650  29.181  28.182  1.00  0.00     0.010 A 
ATOM     32  C   UNL A   1      39.699  27.607  30.028  1.00  0.00     0.010 A 
ATOM     33  C   UNL A   1      40.312  28.186  28.926  1.00  0.00    -0.014 A 
BRANCH  33  34
ATOM     34  C   UNL A   1      41.705  27.835  28.660  1.00  0.00     0.031 A 
ATOM     35  C   UNL A   1      41.868  26.582  27.880  1.00  0.00     0.074 A 
ATOM     36  C   UNL A   1      42.753  28.651  28.918  1.00  0.00     0.049 A 
ATOM     37  N   UNL A   1      42.237  25.432  28.334  1.00  0.00    -0.248 NA
ATOM     38  C   UNL A   1      41.394  26.541  26.487  1.00  0.00     0.031 C 
ATOM     39  C   UNL A   1      42.741  30.023  29.441  1.00  0.00     0.029 A 
ATOM     40  N   UNL A   1      44.077  28.443  28.683  1.00  0.00    -0.354 N 
ATOM     41  C   UNL A   1      42.310  24.591  27.232  1.00  0.00     0.074 A 
ATOM     42  C   UNL A   1      41.568  25.250  26.190  1.00  0.00     0.031 C 
ATOM     43  C   UNL A   1      43.958  30.589  29.280  1.00  0.00     0.029 A 
ATOM     44  C   UNL A   1      44.885  29.575  28.809  1.00  0.00     0.049 A 
ATOM     45  H   UNL A   1      44.440  27.560  28.442  1.00  0.00     0.167 HD
ATOM     46  C   UNL A   1      43.204  23.563  27.205  1.00  0.00     0.034 A 
ATOM     47  C   UNL A   1      46.224  29.666  28.578  1.00  0.00     0.034 A 
ATOM     48  C   UNL A   1      43.715  23.293  28.534  1.00  0.00     0.049 A 
ATOM     49  C   UNL A   1      46.755  28.293  28.758  1.00  0.00     0.074 A 
ATOM     50  C   UNL A   1      43.137  22.954  29.743  1.00  0.00     0.029 A 
ATOM     51  N   UNL A   1      44.963  23.781  28.850  1.00  0.00    -0.354 N 
ATOM     52  N   UNL A   1      46.714  27.658  29.900  1.00  0.00    -0.248 NA
ATOM     53  C   UNL A   1      46.861  27.450  27.579  1.00  0.00     0.031 C 
ATOM     54  C   UNL A   1      43.839  23.729  30.714  1.00  0.00     0.029 A 
ATOM     55  C   UNL A   1      44.865  24.418  30.064  1.00  0.00     0.049 A 
ATOM     56  H   UNL A   1      45.779  23.690  28.306  1.00  0.00     0.167 HD
ATOM     57  C   UNL A   1      46.341  26.364  29.570  1.00  0.00     0.074 A 
ATOM     58  C   UNL A   1      46.532  26.274  28.122  1.00  0.00     0.031 C 
ATOM     59  C   UNL A   1      45.649  25.578  30.448  1.00  0.00     0.034 A 
BRANCH  46  60
ATOM     60  C   UNL A   1      43.915  23.069  25.963  1.00  0.00     0.023 A 
ATOM     61  C   UNL A   1      43.757  21.710  25.630  1.00  0.00     0.031 A 
ATOM     62  C   UNL A   1      44.940  23.753  25.272  1.00  0.00     0.131 A 
ATOM     63  C   UNL A   1      44.644  21.072  24.745  1.00  0.00     0.055 A 
ATOM     64  C   UNL A   1      45.783  23.129  24.348  1.00  0.00     0.041 A 
ATOM     65  F   UNL A   1      45.249  25.033  25.511  1.00  0.00    -0.206 F 
ATOM     66  C   UNL A   1      45.661  21.774  24.104  1.00  0.00     0.022 A 
BRANCH  63  67
ATOM     67  S   UNL A   1      44.538  19.274  24.567  1.00  0.00     0.124 S 
ATOM     68  O   UNL A   1      45.521  18.825  25.548  1.00  0.00    -0.237 OA
ATOM     69  O   UNL A   1      43.140  19.022  24.894  1.00  0.00    -0.237 OA
ATOM     70  O   UNL A   1      44.901  19.050  23.170  1.00  0.00    -0.744 OA
ENDBRANCH  63  67
ENDBRANCH  46  60
BRANCH  47  71
ATOM     71  C   UNL A   1      46.982  30.754  27.887  1.00  0.00     0.023 A 
ATOM     72  C   UNL A   1      46.343  31.753  27.112  1.00  0.00     0.031 A 
ATOM     73  C   UNL A   1      48.337  30.988  28.211  1.00  0.00     0.131 A 
ATOM     74  C   UNL A   1      47.045  32.919  26.716  1.00  0.00     0.055 A 
ATOM     75  C   UNL A   1      49.024  32.144  27.822  1.00  0.00     0.041 A 
ATOM     76  F   UNL A   1      49.021  30.142  28.996  1.00  0.00    -0.206 F 
ATOM     77  C   UNL A   1      48.377  33.122  27.085  1.00  0.00     0.022 A 
BRANCH  74  78
ATOM     78  S   UNL A   1      46.203  34.263  25.810  1.00  0.00     0.124 S 
ATOM     79  O   UNL A   1      47.247  34.718  24.898  1.00  0.00    -0.237 OA
ATOM     80  O   UNL A   1      45.068  33.577  25.203  1.00  0.00    -0.237 OA
ATOM     81  O   UNL A   1      45.849  35.215  26.864  1.00  0.00    -0.744 OA
ENDBRANCH  74  78
ENDBRANCH  47  71
BRANCH  59  82
ATOM     82  C   UNL A   1      45.536  26.021  31.894  1.00  0.00     0.023 A 
ATOM     83  C   UNL A   1      44.434  26.703  32.462  1.00  0.00     0.031 A 
ATOM     84  C   UNL A   1      46.545  25.573  32.764  1.00  0.00     0.131 A 
ATOM     85  C   UNL A   1      44.376  26.905  33.859  1.00  0.00     0.055 A 
ATOM     86  C   UNL A   1      46.474  25.754  34.143  1.00  0.00     0.041 A 
ATOM     87  F   UNL A   1      47.602  24.895  32.285  1.00  0.00    -0.206 F 
ATOM     88  C   UNL A   1      45.387  26.421  34.697  1.00  0.00     0.022 A 
BRANCH  85  89
ATOM     89  S   UNL A   1      42.962  27.771  34.626  1.00  0.00     0.124 S 
ATOM     90  O   UNL A   1      41.861  27.490  33.713  1.00  0.00    -0.237 OA
ATOM     91  O   UNL A   1      42.875  27.149  35.945  1.00  0.00    -0.237 OA
ATOM     92  O   UNL A   1      43.388  29.173  34.649  1.00  0.00    -0.744 OA
ENDBRANCH  85  89
ENDBRANCH  59  82
ENDBRANCH  33  34
ENDBRANCH  25  28
ENDBRANCH  23  24
ENDBRANCH  22  23
ENDBRANCH   1  22
TORSDOF 17
ENDMDL
MODEL 2
REMARK VINA RESULT:     -12.2      2.348      3.909
REMARK SMILES Cc1cc(C)c2c(=O)n(CCCC(=O)NCCCCNC(=O)c3ccc(-c4c5nc(c(-c6cc(S(=O)(=O)[O-])ccc6F)c6ccc([nH]6)c(-c6cc(S(=O)(=O)[O-])ccc6F)c6nc(c(-c7cc(S(=O)(=O)[O-])ccc7F)c7ccc4[nH]7)C=C6)C=C5)cc3)sc2n1
REMARK SMILES IDX 17 1 16 2 15 3 13 4 14 5 12 7 11 8 10 9 9 10 1 11 2 12 3 13
REMARK SMILES IDX 88 14 4 15 87 16 5 17 6 18 86 19 7 20 8 21 18 22 19 23 20 24
REMARK SMILES IDX 21 25 22 27 23 28 24 29 85 30 25 31 84 32 26 33 27 34 28 35
REMARK SMILES IDX 78 36 29 37 83 38 77 39 79 40 30 41 82 42 76 43 75 44 31 46
REMARK SMILES IDX 63 47 43 48 62 49 44 50 47 51 61 52 80 53 45 54 46 55 60 57
REMARK SMILES IDX 81 58 48 59 32 60 33 61 41 62 34 63 40 64 42 65 39 66 35 67
REMARK SMILES IDX 36 68 37 69 38 70 64 71 65 72 73 73 66 74 72 75 74 76 71 77
REMARK SMILES IDX 67 78 68 79 69 80 70 81 49 82 50 83 58 84 51 85 57 86 59 87
REMARK SMILES IDX 56 88 52 89 53 90 54 91 55 92
REMARK H PARENT 15 6 20 26 79 45 47 56
REMARK Flexibility Score: inf
ROOT
ATOM      1  C   UNL A   1      32.708  29.141  27.323  1.00  0.00     0.023 C 
ENDROOT
BRANCH   1   2
ATOM      2  C   UNL A   1      31.740  28.445  26.355  1.00  0.00     0.116 C 
BRANCH   2   3
ATOM      3  N   UNL A   1      31.499  27.077  26.764  1.00  0.00    -0.356 N 
ATOM      4  C   UNL A   1      30.898  26.043  26.121  1.00  0.00     0.220 C 
ATOM      5  O   UNL A   1      30.716  25.003  26.761  1.00  0.00    -0.275 OA
ATOM      6  H   UNL A   1      31.829  26.858  27.665  1.00  0.00     0.163 HD
BRANCH   4   7
ATOM      7  C   UNL A   1      30.550  26.098  24.645  1.00  0.00     0.102 C 
BRANCH   7   8
ATOM      8  C   UNL A   1      30.634  24.830  23.788  1.00  0.00     0.033 C 
BRANCH   8   9
ATOM      9  C   UNL A   1      31.956  24.381  23.148  1.00  0.00     0.139 C 
BRANCH   9  10
ATOM     10  N   UNL A   1      33.011  23.758  23.930  1.00  0.00    -0.262 N 
ATOM     11  C   UNL A   1      38.534  21.856  25.753  1.00  0.00     0.067 C 
ATOM     12  C   UNL A   1      37.088  21.890  25.355  1.00  0.00     0.039 A 
ATOM     13  C   UNL A   1      36.372  20.698  25.169  1.00  0.00     0.027 A 
ATOM     14  N   UNL A   1      36.517  23.110  25.228  1.00  0.00    -0.241 NA
ATOM     15  C   UNL A   1      35.027  20.740  24.764  1.00  0.00    -0.033 A 
ATOM     16  C   UNL A   1      35.239  23.115  24.819  1.00  0.00     0.146 A 
ATOM     17  C   UNL A   1      34.227  19.483  24.626  1.00  0.00     0.045 C 
ATOM     18  C   UNL A   1      34.485  21.996  24.523  1.00  0.00     0.081 A 
ATOM     19  S   UNL A   1      34.294  24.603  24.669  1.00  0.00    -0.035 S 
ATOM     20  C   UNL A   1      33.174  22.366  23.938  1.00  0.00     0.270 A 
ATOM     21  O   UNL A   1      32.401  21.555  23.468  1.00  0.00    -0.268 OA
ENDBRANCH   9  10
ENDBRANCH   8   9
ENDBRANCH   7   8
ENDBRANCH   4   7
ENDBRANCH   2   3
ENDBRANCH   1   2
BRANCH   1  22
ATOM     22  C   UNL A   1      34.039  29.604  26.721  1.00  0.00     0.023 C 
BRANCH  22  23
ATOM     23  C   UNL A   1      35.269  29.098  27.458  1.00  0.00     0.116 C 
BRANCH  23  24
ATOM     24  N   UNL A   1      35.495  29.770  28.739  1.00  0.00    -0.352 N 
ATOM     25  C   UNL A   1      36.530  29.539  29.631  1.00  0.00     0.251 C 
ATOM     26  H   UNL A   1      34.841  30.461  28.994  1.00  0.00     0.163 HD
ATOM     27  O   UNL A   1      36.412  29.818  30.817  1.00  0.00    -0.269 OA
BRANCH  25  28
ATOM     28  C   UNL A   1      37.777  28.954  29.103  1.00  0.00     0.039 A 
ATOM     29  C   UNL A   1      38.424  29.472  27.978  1.00  0.00     0.014 A 
ATOM     30  C   UNL A   1      38.330  27.898  29.822  1.00  0.00     0.014 A 
ATOM     31  C   UNL A   1      39.682  28.969  27.647  1.00  0.00     0.010 A 
ATOM     32  C   UNL A   1      39.631  27.531  29.600  1.00  0.00     0.010 A 
ATOM     33  C   UNL A   1      40.294  28.017  28.483  1.00  0.00    -0.014 A 
BRANCH  33  34
ATOM     34  C   UNL A   1      41.687  27.620  28.292  1.00  0.00     0.031 A 
ATOM     35  C   UNL A   1      41.851  26.372  27.505  1.00  0.00     0.074 A 
ATOM     36  C   UNL A   1      42.746  28.395  28.621  1.00  0.00     0.049 A 
ATOM     37  N   UNL A   1      42.153  25.203  27.964  1.00  0.00    -0.248 NA
ATOM     38  C   UNL A   1      41.457  26.364  26.087  1.00  0.00     0.031 C 
ATOM     39  C   UNL A   1      42.752  29.760  29.162  1.00  0.00     0.029 A 
ATOM     40  N   UNL A   1      44.074  28.143  28.460  1.00  0.00    -0.354 N 
ATOM     41  C   UNL A   1      42.260  24.374  26.856  1.00  0.00     0.074 A 
ATOM     42  C   UNL A   1      41.603  25.071  25.783  1.00  0.00     0.031 C 
ATOM     43  C   UNL A   1      43.996  30.284  29.079  1.00  0.00     0.029 A 
ATOM     44  C   UNL A   1      44.912  29.243  28.648  1.00  0.00     0.049 A 
ATOM     45  H   UNL A   1      44.419  27.250  28.228  1.00  0.00     0.167 HD
ATOM     46  C   UNL A   1      43.118  23.315  26.865  1.00  0.00     0.034 A 
ATOM     47  C   UNL A   1      46.265  29.289  28.495  1.00  0.00     0.034 A 
ATOM     48  C   UNL A   1      43.541  23.011  28.218  1.00  0.00     0.049 A 
ATOM     49  C   UNL A   1      46.736  27.896  28.686  1.00  0.00     0.074 A 
ATOM     50  C   UNL A   1      42.883  22.678  29.387  1.00  0.00     0.029 A 
ATOM     51  N   UNL A   1      44.786  23.450  28.612  1.00  0.00    -0.354 N 
ATOM     52  N   UNL A   1      46.607  27.249  29.815  1.00  0.00    -0.248 NA
ATOM     53  C   UNL A   1      46.880  27.064  27.504  1.00  0.00     0.031 C 
ATOM     54  C   UNL A   1      43.555  23.416  30.408  1.00  0.00     0.029 A 
ATOM     55  C   UNL A   1      44.640  24.076  29.827  1.00  0.00     0.049 A 
ATOM     56  H   UNL A   1      45.627  23.337  28.115  1.00  0.00     0.167 HD
ATOM     57  C   UNL A   1      46.209  25.974  29.446  1.00  0.00     0.074 A 
ATOM     58  C   UNL A   1      46.480  25.894  28.010  1.00  0.00     0.031 C 
ATOM     59  C   UNL A   1      45.440  25.202  30.271  1.00  0.00     0.034 A 
BRANCH  46  60
ATOM     60  C   UNL A   1      43.881  22.811  25.660  1.00  0.00     0.023 A 
ATOM     61  C   UNL A   1      43.915  21.417  25.457  1.00  0.00     0.031 A 
ATOM     62  C   UNL A   1      44.794  23.564  24.887  1.00  0.00     0.131 A 
ATOM     63  C   UNL A   1      44.876  20.830  24.616  1.00  0.00     0.055 A 
ATOM     64  C   UNL A   1      45.709  22.980  24.007  1.00  0.00     0.041 A 
ATOM     65  F   UNL A   1      44.921  24.890  25.001  1.00  0.00    -0.206 F 
ATOM     66  C   UNL A   1      45.778  21.604  23.891  1.00  0.00     0.022 A 
BRANCH  63  67
ATOM     67  S   UNL A   1      45.025  19.026  24.606  1.00  0.00     0.124 S 
ATOM     68  O   UNL A   1      46.344  18.838  25.201  1.00  0.00    -0.237 OA
ATOM     69  O   UNL A   1      43.886  18.627  25.426  1.00  0.00    -0.237 OA
ATOM     70  O   UNL A   1      44.922  18.685  23.189  1.00  0.00    -0.744 OA
ENDBRANCH  63  67
ENDBRANCH  46  60
BRANCH  47  71
ATOM     71  C   UNL A   1      47.099  30.358  27.864  1.00  0.00     0.023 A 
ATOM     72  C   UNL A   1      46.532  31.470  27.194  1.00  0.00     0.031 A 
ATOM     73  C   UNL A   1      48.479  30.442  28.154  1.00  0.00     0.131 A 
ATOM     74  C   UNL A   1      47.327  32.597  26.866  1.00  0.00     0.055 A 
ATOM     75  C   UNL A   1      49.258  31.559  27.832  1.00  0.00     0.041 A 
ATOM     76  F   UNL A   1      49.105  29.477  28.844  1.00  0.00    -0.206 F 
ATOM     77  C   UNL A   1      48.682  32.649  27.199  1.00  0.00     0.022 A 
BRANCH  74  78
ATOM     78  S   UNL A   1      46.586  34.081  26.100  1.00  0.00     0.124 S 
ATOM     79  O   UNL A   1      46.262  34.896  27.265  1.00  0.00    -0.237 OA
ATOM     80  O   UNL A   1      47.662  34.570  25.246  1.00  0.00    -0.237 OA
ATOM     81  O   UNL A   1      45.427  33.549  25.379  1.00  0.00    -0.744 OA
ENDBRANCH  74  78
ENDBRANCH  47  71
BRANCH  59  82
ATOM     82  C   UNL A   1      45.260  25.632  31.715  1.00  0.00     0.023 A 
ATOM     83  C   UNL A   1      46.190  25.417  32.760  1.00  0.00     0.031 A 
ATOM     84  C   UNL A   1      44.146  26.445  31.988  1.00  0.00     0.131 A 
ATOM     85  C   UNL A   1      45.981  26.020  34.021  1.00  0.00     0.055 A 
ATOM     86  C   UNL A   1      43.956  27.055  33.226  1.00  0.00     0.041 A 
ATOM     87  F   UNL A   1      43.245  26.706  31.027  1.00  0.00    -0.206 F 
ATOM     88  C   UNL A   1      44.875  26.845  34.248  1.00  0.00     0.022 A 
BRANCH  85  89
ATOM     89  S   UNL A   1      47.168  25.773  35.388  1.00  0.00     0.124 S 
ATOM     90  O   UNL A   1      46.866  24.425  35.855  1.00  0.00    -0.237 OA
ATOM     91  O   UNL A   1      48.461  25.950  34.733  1.00  0.00    -0.237 OA
ATOM     92  O   UNL A   1      46.825  26.835  36.338  1.00  0.00    -0.744 OA
ENDBRANCH  85  89
ENDBRANCH  59  82
ENDBRANCH  33  34
ENDBRANCH  25  28
ENDBRANCH  23  24
ENDBRANCH  22  23
ENDBRANCH   1  22
TORSDOF 17
ENDMDL
MODEL 3
REMARK VINA RESULT:     -12.2      5.051      9.739
REMARK SMILES Cc1cc(C)c2c(=O)n(CCCC(=O)NCCCCNC(=O)c3ccc(-c4c5nc(c(-c6cc(S(=O)(=O)[O-])ccc6F)c6ccc([nH]6)c(-c6cc(S(=O)(=O)[O-])ccc6F)c6nc(c(-c7cc(S(=O)(=O)[O-])ccc7F)c7ccc4[nH]7)C=C6)C=C5)cc3)sc2n1
REMARK SMILES IDX 17 1 16 2 15 3 13 4 14 5 12 7 11 8 10 9 9 10 1 11 2 12 3 13
REMARK SMILES IDX 88 14 4 15 87 16 5 17 6 18 86 19 7 20 8 21 18 22 19 23 20 24
REMARK SMILES IDX 21 25 22 27 23 28 24 29 85 30 25 31 84 32 26 33 27 34 28 35
REMARK SMILES IDX 78 36 29 37 83 38 77 39 79 40 30 41 82 42 76 43 75 44 31 46
REMARK SMILES IDX 63 47 43 48 62 49 44 50 47 51 61 52 80 53 45 54 46 55 60 57
REMARK SMILES IDX 81 58 48 59 32 60 33 61 41 62 34 63 40 64 42 65 39 66 35 67
REMARK SMILES IDX 36 68 37 69 38 70 64 71 65 72 73 73 66 74 72 75 74 76 71 77
REMARK SMILES IDX 67 78 68 79 69 80 70 81 49 82 50 83 58 84 51 85 57 86 59 87
REMARK SMILES IDX 56 88 52 89 53 90 54 91 55 92
REMARK H PARENT 15 6 20 26 79 45 47 56
REMARK Flexibility Score: inf
ROOT
ATOM      1  C   UNL A   1      41.677  27.250  34.552  1.00  0.00     0.023 C 
ENDROOT
BRANCH   1   2
ATOM      2  C   UNL A   1      41.855  28.584  35.294  1.00  0.00     0.116 C 
BRANCH   2   3
ATOM      3  N   UNL A   1      40.633  28.961  35.974  1.00  0.00    -0.356 N 
ATOM      4  C   UNL A   1      39.727  29.937  35.709  1.00  0.00     0.220 C 
ATOM      5  O   UNL A   1      38.828  30.118  36.536  1.00  0.00    -0.275 OA
ATOM      6  H   UNL A   1      40.424  28.416  36.766  1.00  0.00     0.163 HD
BRANCH   4   7
ATOM      7  C   UNL A   1      39.730  30.715  34.406  1.00  0.00     0.102 C 
BRANCH   7   8
ATOM      8  C   UNL A   1      38.407  31.053  33.711  1.00  0.00     0.033 C 
BRANCH   8   9
ATOM      9  C   UNL A   1      37.607  32.313  34.076  1.00  0.00     0.139 C 
BRANCH   9  10
ATOM     10  N   UNL A   1      36.459  32.743  33.295  1.00  0.00    -0.262 N 
ATOM     11  C   UNL A   1      33.005  34.629  28.608  1.00  0.00     0.067 C 
ATOM     12  C   UNL A   1      33.676  34.528  29.947  1.00  0.00     0.039 A 
ATOM     13  C   UNL A   1      33.575  35.575  30.875  1.00  0.00     0.027 A 
ATOM     14  N   UNL A   1      34.333  33.377  30.216  1.00  0.00    -0.241 NA
ATOM     15  C   UNL A   1      34.234  35.484  32.113  1.00  0.00    -0.033 A 
ATOM     16  C   UNL A   1      34.969  33.331  31.397  1.00  0.00     0.146 A 
ATOM     17  C   UNL A   1      34.083  36.560  33.143  1.00  0.00     0.045 C 
ATOM     18  C   UNL A   1      35.002  34.348  32.331  1.00  0.00     0.081 A 
ATOM     19  S   UNL A   1      35.818  31.887  31.967  1.00  0.00    -0.035 S 
ATOM     20  C   UNL A   1      35.933  34.034  33.442  1.00  0.00     0.270 A 
ATOM     21  O   UNL A   1      36.237  34.834  34.304  1.00  0.00    -0.268 OA
ENDBRANCH   9  10
ENDBRANCH   8   9
ENDBRANCH   7   8
ENDBRANCH   4   7
ENDBRANCH   2   3
ENDBRANCH   1   2
BRANCH   1  22
ATOM     22  C   UNL A   1      41.253  26.057  35.415  1.00  0.00     0.023 C 
BRANCH  22  23
ATOM     23  C   UNL A   1      42.347  25.023  35.634  1.00  0.00     0.116 C 
BRANCH  23  24
ATOM     24  N   UNL A   1      43.461  25.521  36.444  1.00  0.00    -0.352 N 
ATOM     25  C   UNL A   1      44.808  25.493  36.117  1.00  0.00     0.251 C 
ATOM     26  H   UNL A   1      43.228  25.919  37.314  1.00  0.00     0.163 HD
ATOM     27  O   UNL A   1      45.667  25.529  36.988  1.00  0.00    -0.269 OA
BRANCH  25  28
ATOM     28  C   UNL A   1      45.168  25.426  34.689  1.00  0.00     0.039 A 
ATOM     29  C   UNL A   1      45.403  24.213  34.036  1.00  0.00     0.014 A 
ATOM     30  C   UNL A   1      45.192  26.630  33.990  1.00  0.00     0.014 A 
ATOM     31  C   UNL A   1      45.570  24.228  32.651  1.00  0.00     0.010 A 
ATOM     32  C   UNL A   1      45.181  26.621  32.619  1.00  0.00     0.010 A 
ATOM     33  C   UNL A   1      45.427  25.435  31.944  1.00  0.00    -0.014 A 
BRANCH  33  34
ATOM     34  C   UNL A   1      45.386  25.463  30.484  1.00  0.00     0.031 A 
ATOM     35  C   UNL A   1      46.520  26.197  29.867  1.00  0.00     0.074 A 
ATOM     36  C   UNL A   1      44.522  24.737  29.738  1.00  0.00     0.049 A 
ATOM     37  N   UNL A   1      46.485  27.376  29.344  1.00  0.00    -0.248 NA
ATOM     38  C   UNL A   1      47.882  25.657  30.007  1.00  0.00     0.031 C 
ATOM     39  C   UNL A   1      43.518  23.764  30.184  1.00  0.00     0.029 A 
ATOM     40  N   UNL A   1      44.416  24.661  28.383  1.00  0.00    -0.354 N 
ATOM     41  C   UNL A   1      47.757  27.610  28.841  1.00  0.00     0.074 A 
ATOM     42  C   UNL A   1      48.610  26.642  29.475  1.00  0.00     0.031 C 
ATOM     43  C   UNL A   1      43.066  23.050  29.128  1.00  0.00     0.029 A 
ATOM     44  C   UNL A   1      43.610  23.624  27.910  1.00  0.00     0.049 A 
ATOM     45  H   UNL A   1      44.876  25.289  27.780  1.00  0.00     0.167 HD
ATOM     46  C   UNL A   1      47.932  28.403  27.746  1.00  0.00     0.034 A 
ATOM     47  C   UNL A   1      43.375  23.283  26.612  1.00  0.00     0.034 A 
ATOM     48  C   UNL A   1      46.741  29.185  27.484  1.00  0.00     0.049 A 
ATOM     49  C   UNL A   1      43.619  24.517  25.825  1.00  0.00     0.074 A 
ATOM     50  C   UNL A   1      46.003  30.101  28.212  1.00  0.00     0.029 A 
ATOM     51  N   UNL A   1      45.898  28.753  26.483  1.00  0.00    -0.354 N 
ATOM     52  N   UNL A   1      42.901  25.601  25.961  1.00  0.00    -0.248 NA
ATOM     53  C   UNL A   1      44.949  24.715  25.273  1.00  0.00     0.031 C 
ATOM     54  C   UNL A   1      44.641  29.775  27.937  1.00  0.00     0.029 A 
ATOM     55  C   UNL A   1      44.620  28.752  26.987  1.00  0.00     0.049 A 
ATOM     56  H   UNL A   1      46.164  28.492  25.572  1.00  0.00     0.167 HD
ATOM     57  C   UNL A   1      43.820  26.637  25.939  1.00  0.00     0.074 A 
ATOM     58  C   UNL A   1      45.053  26.038  25.426  1.00  0.00     0.031 C 
ATOM     59  C   UNL A   1      43.586  27.811  26.599  1.00  0.00     0.034 A 
BRANCH  46  60
ATOM     60  C   UNL A   1      48.995  28.194  26.689  1.00  0.00     0.023 A 
ATOM     61  C   UNL A   1      48.555  27.927  25.379  1.00  0.00     0.031 A 
ATOM     62  C   UNL A   1      50.367  27.956  26.935  1.00  0.00     0.131 A 
ATOM     63  C   UNL A   1      49.418  27.360  24.425  1.00  0.00     0.055 A 
ATOM     64  C   UNL A   1      51.236  27.447  25.966  1.00  0.00     0.041 A 
ATOM     65  F   UNL A   1      50.927  28.111  28.139  1.00  0.00    -0.206 F 
ATOM     66  C   UNL A   1      50.758  27.114  24.712  1.00  0.00     0.022 A 
BRANCH  63  67
ATOM     67  S   UNL A   1      48.718  26.808  22.850  1.00  0.00     0.124 S 
ATOM     68  O   UNL A   1      48.155  25.513  23.218  1.00  0.00    -0.237 OA
ATOM     69  O   UNL A   1      47.759  27.868  22.560  1.00  0.00    -0.237 OA
ATOM     70  O   UNL A   1      49.877  26.757  21.963  1.00  0.00    -0.744 OA
ENDBRANCH  63  67
ENDBRANCH  46  60
BRANCH  47  71
ATOM     71  C   UNL A   1      43.307  21.920  26.001  1.00  0.00     0.023 A 
ATOM     72  C   UNL A   1      44.440  21.279  25.442  1.00  0.00     0.031 A 
ATOM     73  C   UNL A   1      42.171  21.107  26.209  1.00  0.00     0.131 A 
ATOM     74  C   UNL A   1      44.410  19.895  25.139  1.00  0.00     0.055 A 
ATOM     75  C   UNL A   1      42.148  19.740  25.913  1.00  0.00     0.041 A 
ATOM     76  F   UNL A   1      41.065  21.594  26.794  1.00  0.00    -0.206 F 
ATOM     77  C   UNL A   1      43.273  19.124  25.389  1.00  0.00     0.022 A 
BRANCH  74  78
ATOM     78  S   UNL A   1      45.897  19.034  24.519  1.00  0.00     0.124 S 
ATOM     79  O   UNL A   1      45.959  17.866  25.390  1.00  0.00    -0.237 OA
ATOM     80  O   UNL A   1      45.562  18.784  23.122  1.00  0.00    -0.237 OA
ATOM     81  O   UNL A   1      46.967  20.012  24.725  1.00  0.00    -0.744 OA
ENDBRANCH  74  78
ENDBRANCH  47  71
BRANCH  59  82
ATOM     82  C   UNL A   1      42.189  28.088  27.121  1.00  0.00     0.023 A 
ATOM     83  C   UNL A   1      41.770  27.948  28.465  1.00  0.00     0.031 A 
ATOM     84  C   UNL A   1      41.292  28.683  26.216  1.00  0.00     0.131 A 
ATOM     85  C   UNL A   1      40.491  28.405  28.854  1.00  0.00     0.055 A 
ATOM     86  C   UNL A   1      40.041  29.152  26.608  1.00  0.00     0.041 A 
ATOM     87  F   UNL A   1      41.646  28.867  24.933  1.00  0.00    -0.206 F 
ATOM     88  C   UNL A   1      39.635  29.016  27.931  1.00  0.00     0.022 A 
BRANCH  85  89
ATOM     89  S   UNL A   1      39.923  28.250  30.583  1.00  0.00     0.124 S 
ATOM     90  O   UNL A   1      39.296  29.540  30.848  1.00  0.00    -0.237 OA
ATOM     91  O   UNL A   1      39.024  27.100  30.530  1.00  0.00    -0.237 OA
ATOM     92  O   UNL A   1      41.159  28.012  31.332  1.00  0.00    -0.744 OA
ENDBRANCH  85  89
ENDBRANCH  59  82
ENDBRANCH  33  34
ENDBRANCH  25  28
ENDBRANCH  23  24
ENDBRANCH  22  23
ENDBRANCH   1  22
TORSDOF 17
ENDMDL
