MODEL 1
REMARK VINA RESULT:     -12.0      0.000      0.000
REMARK SMILES O=C(C[C@H]([NH2+]Cc1ccco1)C(=O)NCCCCNC(=O)c1ccc(-c2c3nc(c(-c4cc(S(=O)(=O)[O-])ccc4F)c4ccc([nH]4)c(-c4cc(S(=O)(=O)[O-])ccc4F)c4nc(c(-c5cc(S(=O)(=O)[O-])ccc5F)c5ccc2[nH]5)C=C4)C=C3)cc1)Nc1ccc(O)cc1
REMARK SMILES IDX 16 1 15 2 14 3 12 4 13 5 4 7 3 8 2 9 1 10 85 11 86 13 87 14
REMARK SMILES IDX 92 15 88 16 91 17 89 18 90 19 5 21 6 24 7 25 8 26 11 27 9 28
REMARK SMILES IDX 10 29 17 30 18 31 19 32 20 33 21 35 22 36 23 37 84 38 24 39
REMARK SMILES IDX 83 40 25 41 26 42 27 43 77 44 28 45 82 46 76 47 78 48 29 49
REMARK SMILES IDX 81 50 75 51 74 52 30 54 62 55 42 56 61 57 43 58 46 59 60 60
REMARK SMILES IDX 79 61 44 62 45 63 59 65 80 66 47 67 31 68 32 69 40 70 33 71
REMARK SMILES IDX 39 72 41 73 38 74 34 75 35 76 36 77 37 78 63 79 64 80 72 81
REMARK SMILES IDX 65 82 71 83 73 84 70 85 66 86 67 87 68 88 69 89 48 90 49 91
REMARK SMILES IDX 57 92 50 93 56 94 58 95 55 96 51 97 52 98 53 99 54 100
REMARK H PARENT 14 6 85 12 90 20 5 22 5 23 19 34 78 53 46 64
REMARK Flexibility Score: inf
ROOT
ATOM      1  C   UNL A   1      32.110  28.449  27.387  1.00  0.00     0.023 C 
ENDROOT
BRANCH   1   2
ATOM      2  C   UNL A   1      32.069  27.239  26.468  1.00  0.00     0.116 C 
BRANCH   2   3
ATOM      3  N   UNL A   1      31.144  26.202  26.856  1.00  0.00    -0.351 N 
ATOM      4  C   UNL A   1      30.442  25.325  26.079  1.00  0.00     0.278 C 
ATOM      5  O   UNL A   1      29.882  24.383  26.654  1.00  0.00    -0.268 OA
ATOM      6  H   UNL A   1      30.997  26.114  27.826  1.00  0.00     0.163 HD
BRANCH   4   7
ATOM      7  C   UNL A   1      30.314  25.465  24.536  1.00  0.00     0.282 C 
BRANCH   7   8
ATOM      8  C   UNL A   1      29.075  26.248  24.068  1.00  0.00     0.175 C 
BRANCH   8   9
ATOM      9  C   UNL A   1      29.277  27.648  23.533  1.00  0.00     0.230 C 
ATOM     10  O   UNL A   1      30.396  28.153  23.540  1.00  0.00    -0.274 OA
ATOM     11  N   UNL A   1      28.114  28.263  23.097  1.00  0.00    -0.326 N 
ATOM     12  H   UNL A   1      27.293  27.721  23.089  1.00  0.00     0.169 HD
BRANCH  11  13
ATOM     13  C   UNL A   1      28.010  29.604  22.662  1.00  0.00     0.041 A 
ATOM     14  C   UNL A   1      27.633  30.565  23.613  1.00  0.00     0.030 A 
ATOM     15  C   UNL A   1      28.307  30.014  21.359  1.00  0.00     0.030 A 
ATOM     16  C   UNL A   1      27.600  31.920  23.272  1.00  0.00     0.048 A 
ATOM     17  C   UNL A   1      28.243  31.366  21.009  1.00  0.00     0.048 A 
ATOM     18  C   UNL A   1      27.904  32.301  21.974  1.00  0.00     0.115 A 
BRANCH  18  19
ATOM     19  O   UNL A   1      27.938  33.626  21.663  1.00  0.00    -0.508 OA
ATOM     20  H   UNL A   1      27.809  34.267  22.334  1.00  0.00     0.293 HD
ENDBRANCH  18  19
ENDBRANCH  11  13
ENDBRANCH   8   9
ENDBRANCH   7   8
BRANCH   7  21
ATOM     21  N   UNL A   1      30.655  24.198  23.859  1.00  0.00    -0.329 N 
ATOM     22  H   UNL A   1      29.899  23.967  23.214  1.00  0.00     0.347 HD
ATOM     23  H   UNL A   1      30.777  23.498  24.592  1.00  0.00     0.347 HD
BRANCH  21  24
ATOM     24  C   UNL A   1      31.902  24.239  23.107  1.00  0.00     0.337 C 
BRANCH  24  25
ATOM     25  C   UNL A   1      33.054  24.247  24.046  1.00  0.00     0.157 A 
ATOM     26  C   UNL A   1      34.176  25.041  24.167  1.00  0.00     0.052 A 
ATOM     27  O   UNL A   1      33.040  23.306  25.034  1.00  0.00    -0.463 OA
ATOM     28  C   UNL A   1      34.894  24.548  25.282  1.00  0.00     0.042 A 
ATOM     29  C   UNL A   1      34.165  23.491  25.772  1.00  0.00     0.195 A 
ENDBRANCH  24  25
ENDBRANCH  21  24
ENDBRANCH   7  21
ENDBRANCH   4   7
ENDBRANCH   2   3
ENDBRANCH   1   2
BRANCH   1  30
ATOM     30  C   UNL A   1      31.467  29.712  26.832  1.00  0.00     0.023 C 
BRANCH  30  31
ATOM     31  C   UNL A   1      32.424  30.770  26.284  1.00  0.00     0.116 C 
BRANCH  31  32
ATOM     32  N   UNL A   1      32.280  32.093  26.889  1.00  0.00    -0.352 N 
ATOM     33  C   UNL A   1      33.188  32.808  27.643  1.00  0.00     0.251 C 
ATOM     34  H   UNL A   1      31.414  32.536  26.738  1.00  0.00     0.163 HD
ATOM     35  O   UNL A   1      32.885  33.882  28.153  1.00  0.00    -0.269 OA
BRANCH  33  36
ATOM     36  C   UNL A   1      34.528  32.246  27.892  1.00  0.00     0.039 A 
ATOM     37  C   UNL A   1      35.616  33.121  27.927  1.00  0.00     0.014 A 
ATOM     38  C   UNL A   1      34.692  30.889  28.178  1.00  0.00     0.014 A 
ATOM     39  C   UNL A   1      36.844  32.663  28.398  1.00  0.00     0.010 A 
ATOM     40  C   UNL A   1      35.889  30.457  28.731  1.00  0.00     0.010 A 
ATOM     41  C   UNL A   1      36.959  31.352  28.884  1.00  0.00    -0.014 A 
BRANCH  41  42
ATOM     42  C   UNL A   1      38.153  30.922  29.647  1.00  0.00     0.031 A 
ATOM     43  C   UNL A   1      39.087  29.905  29.065  1.00  0.00     0.074 A 
ATOM     44  C   UNL A   1      38.316  31.378  30.905  1.00  0.00     0.049 A 
ATOM     45  N   UNL A   1      40.102  29.302  29.624  1.00  0.00    -0.248 NA
ATOM     46  C   UNL A   1      38.822  29.489  27.680  1.00  0.00     0.031 C 
ATOM     47  C   UNL A   1      37.430  32.335  31.579  1.00  0.00     0.029 A 
ATOM     48  N   UNL A   1      39.264  31.091  31.854  1.00  0.00    -0.354 N 
ATOM     49  C   UNL A   1      40.590  28.422  28.666  1.00  0.00     0.074 A 
ATOM     50  C   UNL A   1      39.724  28.534  27.511  1.00  0.00     0.031 C 
ATOM     51  C   UNL A   1      37.889  32.568  32.818  1.00  0.00     0.029 A 
ATOM     52  C   UNL A   1      39.063  31.737  33.052  1.00  0.00     0.049 A 
ATOM     53  H   UNL A   1      40.019  30.479  31.692  1.00  0.00     0.167 HD
ATOM     54  C   UNL A   1      41.673  27.610  28.744  1.00  0.00     0.034 A 
ATOM     55  C   UNL A   1      39.733  31.647  34.216  1.00  0.00     0.034 A 
ATOM     56  C   UNL A   1      42.516  27.525  29.910  1.00  0.00     0.049 A 
ATOM     57  C   UNL A   1      40.909  30.709  34.290  1.00  0.00     0.074 A 
ATOM     58  C   UNL A   1      43.675  26.792  30.087  1.00  0.00     0.029 A 
ATOM     59  N   UNL A   1      42.280  28.189  31.109  1.00  0.00    -0.354 N 
ATOM     60  N   UNL A   1      41.396  29.926  33.354  1.00  0.00    -0.248 NA
ATOM     61  C   UNL A   1      41.621  30.637  35.571  1.00  0.00     0.031 C 
ATOM     62  C   UNL A   1      44.102  26.959  31.409  1.00  0.00     0.029 A 
ATOM     63  C   UNL A   1      43.248  27.850  32.041  1.00  0.00     0.049 A 
ATOM     64  H   UNL A   1      41.534  28.810  31.272  1.00  0.00     0.167 HD
ATOM     65  C   UNL A   1      42.481  29.276  33.932  1.00  0.00     0.074 A 
ATOM     66  C   UNL A   1      42.590  29.779  35.288  1.00  0.00     0.031 C 
ATOM     67  C   UNL A   1      43.312  28.347  33.396  1.00  0.00     0.034 A 
BRANCH  54  68
ATOM     68  C   UNL A   1      41.973  26.740  27.548  1.00  0.00     0.023 A 
ATOM     69  C   UNL A   1      41.562  25.396  27.491  1.00  0.00     0.031 A 
ATOM     70  C   UNL A   1      42.716  27.245  26.466  1.00  0.00     0.131 A 
ATOM     71  C   UNL A   1      41.962  24.583  26.421  1.00  0.00     0.055 A 
ATOM     72  C   UNL A   1      43.042  26.452  25.363  1.00  0.00     0.041 A 
ATOM     73  F   UNL A   1      43.154  28.513  26.470  1.00  0.00    -0.206 F 
ATOM     74  C   UNL A   1      42.680  25.109  25.344  1.00  0.00     0.022 A 
BRANCH  71  75
ATOM     75  S   UNL A   1      41.656  22.799  26.528  1.00  0.00     0.124 S 
ATOM     76  O   UNL A   1      42.370  22.306  25.352  1.00  0.00    -0.237 OA
ATOM     77  O   UNL A   1      42.239  22.455  27.820  1.00  0.00    -0.237 OA
ATOM     78  O   UNL A   1      40.200  22.696  26.452  1.00  0.00    -0.744 OA
ENDBRANCH  71  75
ENDBRANCH  54  68
BRANCH  55  79
ATOM     79  C   UNL A   1      39.298  32.435  35.406  1.00  0.00     0.023 A 
ATOM     80  C   UNL A   1      39.748  33.749  35.607  1.00  0.00     0.031 A 
ATOM     81  C   UNL A   1      38.442  31.877  36.374  1.00  0.00     0.131 A 
ATOM     82  C   UNL A   1      39.370  34.449  36.764  1.00  0.00     0.055 A 
ATOM     83  C   UNL A   1      38.031  32.594  37.498  1.00  0.00     0.041 A 
ATOM     84  F   UNL A   1      37.978  30.626  36.230  1.00  0.00    -0.206 F 
ATOM     85  C   UNL A   1      38.506  33.886  37.704  1.00  0.00     0.022 A 
BRANCH  82  86
ATOM     86  S   UNL A   1      40.088  36.089  37.060  1.00  0.00     0.124 S 
ATOM     87  O   UNL A   1      39.253  36.588  38.147  1.00  0.00    -0.237 OA
ATOM     88  O   UNL A   1      41.465  35.757  37.408  1.00  0.00    -0.237 OA
ATOM     89  O   UNL A   1      39.917  36.771  35.778  1.00  0.00    -0.744 OA
ENDBRANCH  82  86
ENDBRANCH  55  79
BRANCH  67  90
ATOM     90  C   UNL A   1      44.413  27.833  34.287  1.00  0.00     0.023 A 
ATOM     91  C   UNL A   1      44.276  26.625  34.991  1.00  0.00     0.031 A 
ATOM     92  C   UNL A   1      45.607  28.560  34.434  1.00  0.00     0.131 A 
ATOM     93  C   UNL A   1      45.300  26.200  35.849  1.00  0.00     0.055 A 
ATOM     94  C   UNL A   1      46.645  28.103  35.245  1.00  0.00     0.041 A 
ATOM     95  F   UNL A   1      45.784  29.721  33.784  1.00  0.00    -0.206 F 
ATOM     96  C   UNL A   1      46.491  26.922  35.966  1.00  0.00     0.022 A 
BRANCH  93  97
ATOM     97  S   UNL A   1      45.027  24.723  36.864  1.00  0.00     0.124 S 
ATOM     98  O   UNL A   1      45.389  25.201  38.195  1.00  0.00    -0.237 OA
ATOM     99  O   UNL A   1      43.609  24.451  36.648  1.00  0.00    -0.237 OA
ATOM    100  O   UNL A   1      45.941  23.738  36.289  1.00  0.00    -0.744 OA
ENDBRANCH  93  97
ENDBRANCH  67  90
ENDBRANCH  41  42
ENDBRANCH  33  36
ENDBRANCH  31  32
ENDBRANCH  30  31
ENDBRANCH   1  30
TORSDOF 21
ENDMDL
MODEL 2
REMARK VINA RESULT:     -11.6      2.988      5.030
REMARK SMILES O=C(C[C@H]([NH2+]Cc1ccco1)C(=O)NCCCCNC(=O)c1ccc(-c2c3nc(c(-c4cc(S(=O)(=O)[O-])ccc4F)c4ccc([nH]4)c(-c4cc(S(=O)(=O)[O-])ccc4F)c4nc(c(-c5cc(S(=O)(=O)[O-])ccc5F)c5ccc2[nH]5)C=C4)C=C3)cc1)Nc1ccc(O)cc1
REMARK SMILES IDX 16 1 15 2 14 3 12 4 13 5 4 7 3 8 2 9 1 10 85 11 86 13 87 14
REMARK SMILES IDX 92 15 88 16 91 17 89 18 90 19 5 21 6 24 7 25 8 26 11 27 9 28
REMARK SMILES IDX 10 29 17 30 18 31 19 32 20 33 21 35 22 36 23 37 84 38 24 39
REMARK SMILES IDX 83 40 25 41 26 42 27 43 77 44 28 45 82 46 76 47 78 48 29 49
REMARK SMILES IDX 81 50 75 51 74 52 30 54 62 55 42 56 61 57 43 58 46 59 60 60
REMARK SMILES IDX 79 61 44 62 45 63 59 65 80 66 47 67 31 68 32 69 40 70 33 71
REMARK SMILES IDX 39 72 41 73 38 74 34 75 35 76 36 77 37 78 63 79 64 80 72 81
REMARK SMILES IDX 65 82 71 83 73 84 70 85 66 86 67 87 68 88 69 89 48 90 49 91
REMARK SMILES IDX 57 92 50 93 56 94 58 95 55 96 51 97 52 98 53 99 54 100
REMARK H PARENT 14 6 85 12 90 20 5 22 5 23 19 34 78 53 46 64
REMARK Flexibility Score: inf
ROOT
ATOM      1  C   UNL A   1      32.534  28.672  27.150  1.00  0.00     0.023 C 
ENDROOT
BRANCH   1   2
ATOM      2  C   UNL A   1      32.363  27.473  26.231  1.00  0.00     0.116 C 
BRANCH   2   3
ATOM      3  N   UNL A   1      31.704  26.334  26.822  1.00  0.00    -0.351 N 
ATOM      4  C   UNL A   1      31.745  25.018  26.458  1.00  0.00     0.278 C 
ATOM      5  O   UNL A   1      31.272  24.197  27.253  1.00  0.00    -0.268 OA
ATOM      6  H   UNL A   1      31.141  26.536  27.604  1.00  0.00     0.163 HD
BRANCH   4   7
ATOM      7  C   UNL A   1      32.341  24.524  25.110  1.00  0.00     0.282 C 
BRANCH   7   8
ATOM      8  C   UNL A   1      31.628  23.301  24.508  1.00  0.00     0.175 C 
BRANCH   8   9
ATOM      9  C   UNL A   1      32.478  22.154  24.009  1.00  0.00     0.230 C 
ATOM     10  O   UNL A   1      33.338  22.352  23.156  1.00  0.00    -0.274 OA
ATOM     11  N   UNL A   1      32.163  20.927  24.572  1.00  0.00    -0.326 N 
ATOM     12  H   UNL A   1      31.493  20.920  25.293  1.00  0.00     0.169 HD
BRANCH  11  13
ATOM     13  C   UNL A   1      32.725  19.685  24.196  1.00  0.00     0.041 A 
ATOM     14  C   UNL A   1      32.135  19.008  23.119  1.00  0.00     0.030 A 
ATOM     15  C   UNL A   1      33.854  19.135  24.812  1.00  0.00     0.030 A 
ATOM     16  C   UNL A   1      32.696  17.822  22.638  1.00  0.00     0.048 A 
ATOM     17  C   UNL A   1      34.396  17.933  24.353  1.00  0.00     0.048 A 
ATOM     18  C   UNL A   1      33.818  17.300  23.264  1.00  0.00     0.115 A 
BRANCH  18  19
ATOM     19  O   UNL A   1      34.403  16.182  22.751  1.00  0.00    -0.508 OA
ATOM     20  H   UNL A   1      33.899  15.585  22.235  1.00  0.00     0.293 HD
ENDBRANCH  18  19
ENDBRANCH  11  13
ENDBRANCH   8   9
ENDBRANCH   7   8
BRANCH   7  21
ATOM     21  N   UNL A   1      33.818  24.542  25.145  1.00  0.00    -0.329 N 
ATOM     22  H   UNL A   1      34.127  25.513  25.104  1.00  0.00     0.347 HD
ATOM     23  H   UNL A   1      34.137  23.992  24.347  1.00  0.00     0.347 HD
BRANCH  21  24
ATOM     24  C   UNL A   1      34.394  23.928  26.335  1.00  0.00     0.337 C 
BRANCH  24  25
ATOM     25  C   UNL A   1      35.681  23.272  25.987  1.00  0.00     0.157 A 
ATOM     26  C   UNL A   1      36.990  23.709  25.941  1.00  0.00     0.052 A 
ATOM     27  O   UNL A   1      35.621  21.949  25.658  1.00  0.00    -0.463 OA
ATOM     28  C   UNL A   1      37.768  22.595  25.547  1.00  0.00     0.042 A 
ATOM     29  C   UNL A   1      36.890  21.551  25.383  1.00  0.00     0.195 A 
ENDBRANCH  24  25
ENDBRANCH  21  24
ENDBRANCH   7  21
ENDBRANCH   4   7
ENDBRANCH   2   3
ENDBRANCH   1   2
BRANCH   1  30
ATOM     30  C   UNL A   1      32.960  29.963  26.466  1.00  0.00     0.023 C 
BRANCH  30  31
ATOM     31  C   UNL A   1      33.665  30.993  27.348  1.00  0.00     0.116 C 
BRANCH  31  32
ATOM     32  N   UNL A   1      33.017  32.303  27.392  1.00  0.00    -0.352 N 
ATOM     33  C   UNL A   1      33.321  33.397  28.177  1.00  0.00     0.251 C 
ATOM     34  H   UNL A   1      32.258  32.421  26.777  1.00  0.00     0.163 HD
ATOM     35  O   UNL A   1      32.625  34.407  28.155  1.00  0.00    -0.269 OA
BRANCH  33  36
ATOM     36  C   UNL A   1      34.466  33.331  29.102  1.00  0.00     0.039 A 
ATOM     37  C   UNL A   1      34.294  32.668  30.320  1.00  0.00     0.014 A 
ATOM     38  C   UNL A   1      35.714  33.833  28.732  1.00  0.00     0.014 A 
ATOM     39  C   UNL A   1      35.409  32.376  31.101  1.00  0.00     0.010 A 
ATOM     40  C   UNL A   1      36.834  33.464  29.465  1.00  0.00     0.010 A 
ATOM     41  C   UNL A   1      36.692  32.696  30.631  1.00  0.00    -0.014 A 
BRANCH  41  42
ATOM     42  C   UNL A   1      37.903  32.154  31.288  1.00  0.00     0.031 A 
ATOM     43  C   UNL A   1      38.664  31.033  30.647  1.00  0.00     0.074 A 
ATOM     44  C   UNL A   1      38.235  32.611  32.512  1.00  0.00     0.049 A 
ATOM     45  N   UNL A   1      39.659  30.334  31.124  1.00  0.00    -0.248 NA
ATOM     46  C   UNL A   1      38.222  30.623  29.306  1.00  0.00     0.031 C 
ATOM     47  C   UNL A   1      37.525  33.670  33.240  1.00  0.00     0.029 A 
ATOM     48  N   UNL A   1      39.236  32.241  33.373  1.00  0.00    -0.354 N 
ATOM     49  C   UNL A   1      39.956  29.390  30.148  1.00  0.00     0.074 A 
ATOM     50  C   UNL A   1      38.997  29.574  29.079  1.00  0.00     0.031 C 
ATOM     51  C   UNL A   1      38.125  33.874  34.423  1.00  0.00     0.029 A 
ATOM     52  C   UNL A   1      39.222  32.925  34.566  1.00  0.00     0.049 A 
ATOM     53  H   UNL A   1      39.903  31.548  33.156  1.00  0.00     0.167 HD
ATOM     54  C   UNL A   1      40.950  28.469  30.144  1.00  0.00     0.034 A 
ATOM     55  C   UNL A   1      39.991  32.785  35.663  1.00  0.00     0.034 A 
ATOM     56  C   UNL A   1      41.890  28.314  31.227  1.00  0.00     0.049 A 
ATOM     57  C   UNL A   1      41.063  31.727  35.650  1.00  0.00     0.074 A 
ATOM     58  C   UNL A   1      42.977  27.464  31.312  1.00  0.00     0.029 A 
ATOM     59  N   UNL A   1      41.843  29.020  32.424  1.00  0.00    -0.354 N 
ATOM     60  N   UNL A   1      41.371  30.880  34.694  1.00  0.00    -0.248 NA
ATOM     61  C   UNL A   1      41.885  31.601  36.858  1.00  0.00     0.031 C 
ATOM     62  C   UNL A   1      43.547  27.607  32.582  1.00  0.00     0.029 A 
ATOM     63  C   UNL A   1      42.857  28.595  33.268  1.00  0.00     0.049 A 
ATOM     64  H   UNL A   1      41.186  29.720  32.640  1.00  0.00     0.167 HD
ATOM     65  C   UNL A   1      42.433  30.128  35.184  1.00  0.00     0.074 A 
ATOM     66  C   UNL A   1      42.726  30.639  36.509  1.00  0.00     0.031 C 
ATOM     67  C   UNL A   1      43.106  29.106  34.596  1.00  0.00     0.034 A 
BRANCH  54  68
ATOM     68  C   UNL A   1      41.039  27.550  28.950  1.00  0.00     0.023 A 
ATOM     69  C   UNL A   1      42.033  27.711  27.968  1.00  0.00     0.031 A 
ATOM     70  C   UNL A   1      40.095  26.525  28.765  1.00  0.00     0.131 A 
ATOM     71  C   UNL A   1      42.013  26.919  26.811  1.00  0.00     0.055 A 
ATOM     72  C   UNL A   1      40.128  25.685  27.650  1.00  0.00     0.041 A 
ATOM     73  F   UNL A   1      39.110  26.335  29.657  1.00  0.00    -0.206 F 
ATOM     74  C   UNL A   1      41.081  25.889  26.657  1.00  0.00     0.022 A 
BRANCH  71  75
ATOM     75  S   UNL A   1      43.130  27.348  25.448  1.00  0.00     0.124 S 
ATOM     76  O   UNL A   1      42.277  28.202  24.626  1.00  0.00    -0.237 OA
ATOM     77  O   UNL A   1      44.228  28.015  26.138  1.00  0.00    -0.237 OA
ATOM     78  O   UNL A   1      43.460  26.053  24.855  1.00  0.00    -0.744 OA
ENDBRANCH  71  75
ENDBRANCH  54  68
BRANCH  55  79
ATOM     79  C   UNL A   1      39.760  33.635  36.867  1.00  0.00     0.023 A 
ATOM     80  C   UNL A   1      39.214  33.093  38.041  1.00  0.00     0.031 A 
ATOM     81  C   UNL A   1      40.061  35.009  36.855  1.00  0.00     0.131 A 
ATOM     82  C   UNL A   1      38.952  33.925  39.141  1.00  0.00     0.055 A 
ATOM     83  C   UNL A   1      39.843  35.823  37.969  1.00  0.00     0.041 A 
ATOM     84  F   UNL A   1      40.589  35.580  35.762  1.00  0.00    -0.206 F 
ATOM     85  C   UNL A   1      39.274  35.282  39.118  1.00  0.00     0.022 A 
BRANCH  82  86
ATOM     86  S   UNL A   1      38.112  33.217  40.585  1.00  0.00     0.124 S 
ATOM     87  O   UNL A   1      36.711  33.469  40.269  1.00  0.00    -0.237 OA
ATOM     88  O   UNL A   1      38.542  31.824  40.531  1.00  0.00    -0.237 OA
ATOM     89  O   UNL A   1      38.648  33.990  41.703  1.00  0.00    -0.744 OA
ENDBRANCH  82  86
ENDBRANCH  55  79
BRANCH  67  90
ATOM     90  C   UNL A   1      44.228  28.493  35.392  1.00  0.00     0.023 A 
ATOM     91  C   UNL A   1      43.997  27.422  36.273  1.00  0.00     0.031 A 
ATOM     92  C   UNL A   1      45.539  28.985  35.270  1.00  0.00     0.131 A 
ATOM     93  C   UNL A   1      45.055  26.906  37.034  1.00  0.00     0.055 A 
ATOM     94  C   UNL A   1      46.598  28.430  35.988  1.00  0.00     0.041 A 
ATOM     95  F   UNL A   1      45.810  30.008  34.444  1.00  0.00    -0.206 F 
ATOM     96  C   UNL A   1      46.357  27.391  36.883  1.00  0.00     0.022 A 
BRANCH  93  97
ATOM     97  S   UNL A   1      44.695  25.636  38.275  1.00  0.00     0.124 S 
ATOM     98  O   UNL A   1      43.751  26.326  39.148  1.00  0.00    -0.237 OA
ATOM     99  O   UNL A   1      44.141  24.554  37.466  1.00  0.00    -0.237 OA
ATOM    100  O   UNL A   1      46.001  25.358  38.870  1.00  0.00    -0.744 OA
ENDBRANCH  93  97
ENDBRANCH  67  90
ENDBRANCH  41  42
ENDBRANCH  33  36
ENDBRANCH  31  32
ENDBRANCH  30  31
ENDBRANCH   1  30
TORSDOF 21
ENDMDL
MODEL 3
REMARK VINA RESULT:     -11.6      1.897      2.220
REMARK SMILES O=C(C[C@H]([NH2+]Cc1ccco1)C(=O)NCCCCNC(=O)c1ccc(-c2c3nc(c(-c4cc(S(=O)(=O)[O-])ccc4F)c4ccc([nH]4)c(-c4cc(S(=O)(=O)[O-])ccc4F)c4nc(c(-c5cc(S(=O)(=O)[O-])ccc5F)c5ccc2[nH]5)C=C4)C=C3)cc1)Nc1ccc(O)cc1
REMARK SMILES IDX 16 1 15 2 14 3 12 4 13 5 4 7 3 8 2 9 1 10 85 11 86 13 87 14
REMARK SMILES IDX 92 15 88 16 91 17 89 18 90 19 5 21 6 24 7 25 8 26 11 27 9 28
REMARK SMILES IDX 10 29 17 30 18 31 19 32 20 33 21 35 22 36 23 37 84 38 24 39
REMARK SMILES IDX 83 40 25 41 26 42 27 43 77 44 28 45 82 46 76 47 78 48 29 49
REMARK SMILES IDX 81 50 75 51 74 52 30 54 62 55 42 56 61 57 43 58 46 59 60 60
REMARK SMILES IDX 79 61 44 62 45 63 59 65 80 66 47 67 31 68 32 69 40 70 33 71
REMARK SMILES IDX 39 72 41 73 38 74 34 75 35 76 36 77 37 78 63 79 64 80 72 81
REMARK SMILES IDX 65 82 71 83 73 84 70 85 66 86 67 87 68 88 69 89 48 90 49 91
REMARK SMILES IDX 57 92 50 93 56 94 58 95 55 96 51 97 52 98 53 99 54 100
REMARK H PARENT 14 6 85 12 90 20 5 22 5 23 19 34 78 53 46 64
REMARK Flexibility Score: inf
ROOT
ATOM      1  C   UNL A   1      32.016  28.652  27.455  1.00  0.00     0.023 C 
ENDROOT
BRANCH   1   2
ATOM      2  C   UNL A   1      31.981  27.460  26.512  1.00  0.00     0.116 C 
BRANCH   2   3
ATOM      3  N   UNL A   1      31.036  26.427  26.861  1.00  0.00    -0.351 N 
ATOM      4  C   UNL A   1      30.403  25.520  26.061  1.00  0.00     0.278 C 
ATOM      5  O   UNL A   1      29.808  24.590  26.621  1.00  0.00    -0.268 OA
ATOM      6  H   UNL A   1      30.817  26.367  27.819  1.00  0.00     0.163 HD
BRANCH   4   7
ATOM      7  C   UNL A   1      30.392  25.611  24.509  1.00  0.00     0.282 C 
BRANCH   7   8
ATOM      8  C   UNL A   1      29.204  26.395  23.925  1.00  0.00     0.175 C 
BRANCH   8   9
ATOM      9  C   UNL A   1      29.461  27.787  23.393  1.00  0.00     0.230 C 
ATOM     10  O   UNL A   1      30.608  28.223  23.339  1.00  0.00    -0.274 OA
ATOM     11  N   UNL A   1      28.315  28.479  23.033  1.00  0.00    -0.326 N 
ATOM     12  H   UNL A   1      27.463  27.989  23.068  1.00  0.00     0.169 HD
BRANCH  11  13
ATOM     13  C   UNL A   1      28.270  29.830  22.619  1.00  0.00     0.041 A 
ATOM     14  C   UNL A   1      28.077  30.082  21.253  1.00  0.00     0.030 A 
ATOM     15  C   UNL A   1      28.361  30.908  23.506  1.00  0.00     0.030 A 
ATOM     16  C   UNL A   1      27.931  31.393  20.791  1.00  0.00     0.048 A 
ATOM     17  C   UNL A   1      28.248  32.220  23.039  1.00  0.00     0.048 A 
ATOM     18  C   UNL A   1      28.021  32.443  21.690  1.00  0.00     0.115 A 
BRANCH  18  19
ATOM     19  O   UNL A   1      27.810  33.714  21.249  1.00  0.00    -0.508 OA
ATOM     20  H   UNL A   1      26.958  33.972  20.956  1.00  0.00     0.293 HD
ENDBRANCH  18  19
ENDBRANCH  11  13
ENDBRANCH   8   9
ENDBRANCH   7   8
BRANCH   7  21
ATOM     21  N   UNL A   1      30.761  24.318  23.899  1.00  0.00    -0.329 N 
ATOM     22  H   UNL A   1      29.921  23.901  23.501  1.00  0.00     0.347 HD
ATOM     23  H   UNL A   1      31.169  23.750  24.642  1.00  0.00     0.347 HD
BRANCH  21  24
ATOM     24  C   UNL A   1      31.765  24.418  22.849  1.00  0.00     0.337 C 
BRANCH  24  25
ATOM     25  C   UNL A   1      33.108  24.115  23.408  1.00  0.00     0.157 A 
ATOM     26  C   UNL A   1      33.922  24.750  24.324  1.00  0.00     0.052 A 
ATOM     27  O   UNL A   1      33.701  22.963  22.980  1.00  0.00    -0.463 OA
ATOM     28  C   UNL A   1      35.082  23.950  24.449  1.00  0.00     0.042 A 
ATOM     29  C   UNL A   1      34.901  22.877  23.609  1.00  0.00     0.195 A 
ENDBRANCH  24  25
ENDBRANCH  21  24
ENDBRANCH   7  21
ENDBRANCH   4   7
ENDBRANCH   2   3
ENDBRANCH   1   2
BRANCH   1  30
ATOM     30  C   UNL A   1      31.616  29.985  26.838  1.00  0.00     0.023 C 
BRANCH  30  31
ATOM     31  C   UNL A   1      32.758  30.941  26.501  1.00  0.00     0.116 C 
BRANCH  31  32
ATOM     32  N   UNL A   1      32.685  32.239  27.171  1.00  0.00    -0.352 N 
ATOM     33  C   UNL A   1      33.617  32.849  27.986  1.00  0.00     0.251 C 
ATOM     34  H   UNL A   1      31.856  32.747  27.020  1.00  0.00     0.163 HD
ATOM     35  O   UNL A   1      33.371  33.914  28.544  1.00  0.00    -0.269 OA
BRANCH  33  36
ATOM     36  C   UNL A   1      34.907  32.184  28.240  1.00  0.00     0.039 A 
ATOM     37  C   UNL A   1      36.075  32.941  28.126  1.00  0.00     0.014 A 
ATOM     38  C   UNL A   1      34.954  30.858  28.676  1.00  0.00     0.014 A 
ATOM     39  C   UNL A   1      37.277  32.415  28.593  1.00  0.00     0.010 A 
ATOM     40  C   UNL A   1      36.133  30.370  29.223  1.00  0.00     0.010 A 
ATOM     41  C   UNL A   1      37.291  31.162  29.224  1.00  0.00    -0.014 A 
BRANCH  41  42
ATOM     42  C   UNL A   1      38.478  30.700  29.979  1.00  0.00     0.031 A 
ATOM     43  C   UNL A   1      39.378  29.655  29.393  1.00  0.00     0.074 A 
ATOM     44  C   UNL A   1      38.664  31.154  31.235  1.00  0.00     0.049 A 
ATOM     45  N   UNL A   1      40.379  29.024  29.946  1.00  0.00    -0.248 NA
ATOM     46  C   UNL A   1      39.090  29.242  28.011  1.00  0.00     0.031 C 
ATOM     47  C   UNL A   1      37.811  32.139  31.912  1.00  0.00     0.029 A 
ATOM     48  N   UNL A   1      39.610  30.843  32.176  1.00  0.00    -0.354 N 
ATOM     49  C   UNL A   1      40.834  28.127  28.987  1.00  0.00     0.074 A 
ATOM     50  C   UNL A   1      39.962  28.261  27.839  1.00  0.00     0.031 C 
ATOM     51  C   UNL A   1      38.286  32.362  33.147  1.00  0.00     0.029 A 
ATOM     52  C   UNL A   1      39.437  31.498  33.374  1.00  0.00     0.049 A 
ATOM     53  H   UNL A   1      40.346  30.209  32.011  1.00  0.00     0.167 HD
ATOM     54  C   UNL A   1      41.894  27.285  29.059  1.00  0.00     0.034 A 
ATOM     55  C   UNL A   1      40.114  31.392  34.534  1.00  0.00     0.034 A 
ATOM     56  C   UNL A   1      42.743  27.179  30.220  1.00  0.00     0.049 A 
ATOM     57  C   UNL A   1      41.262  30.420  34.601  1.00  0.00     0.074 A 
ATOM     58  C   UNL A   1      43.882  26.413  30.389  1.00  0.00     0.029 A 
ATOM     59  N   UNL A   1      42.535  27.853  31.418  1.00  0.00    -0.354 N 
ATOM     60  N   UNL A   1      41.719  29.621  33.664  1.00  0.00    -0.248 NA
ATOM     61  C   UNL A   1      41.981  30.332  35.877  1.00  0.00     0.031 C 
ATOM     62  C   UNL A   1      44.323  26.571  31.708  1.00  0.00     0.029 A 
ATOM     63  C   UNL A   1      43.500  27.488  32.344  1.00  0.00     0.049 A 
ATOM     64  H   UNL A   1      41.808  28.495  31.585  1.00  0.00     0.167 HD
ATOM     65  C   UNL A   1      42.790  28.942  34.236  1.00  0.00     0.074 A 
ATOM     66  C   UNL A   1      42.923  29.445  35.590  1.00  0.00     0.031 C 
ATOM     67  C   UNL A   1      43.589  27.988  33.696  1.00  0.00     0.034 A 
BRANCH  54  68
ATOM     68  C   UNL A   1      42.160  26.403  27.864  1.00  0.00     0.023 A 
ATOM     69  C   UNL A   1      41.664  25.089  27.792  1.00  0.00     0.031 A 
ATOM     70  C   UNL A   1      42.952  26.865  26.798  1.00  0.00     0.131 A 
ATOM     71  C   UNL A   1      42.032  24.257  26.724  1.00  0.00     0.055 A 
ATOM     72  C   UNL A   1      43.247  26.058  25.697  1.00  0.00     0.041 A 
ATOM     73  F   UNL A   1      43.470  28.102  26.818  1.00  0.00    -0.206 F 
ATOM     74  C   UNL A   1      42.800  24.740  25.663  1.00  0.00     0.022 A 
BRANCH  71  75
ATOM     75  S   UNL A   1      41.611  22.494  26.816  1.00  0.00     0.124 S 
ATOM     76  O   UNL A   1      40.204  22.547  27.206  1.00  0.00    -0.237 OA
ATOM     77  O   UNL A   1      41.881  22.035  25.458  1.00  0.00    -0.237 OA
ATOM     78  O   UNL A   1      42.516  21.979  27.841  1.00  0.00    -0.744 OA
ENDBRANCH  71  75
ENDBRANCH  54  68
BRANCH  55  79
ATOM     79  C   UNL A   1      39.711  32.195  35.724  1.00  0.00     0.023 A 
ATOM     80  C   UNL A   1      38.791  31.693  36.658  1.00  0.00     0.031 A 
ATOM     81  C   UNL A   1      40.223  33.489  35.936  1.00  0.00     0.131 A 
ATOM     82  C   UNL A   1      38.384  32.490  37.739  1.00  0.00     0.055 A 
ATOM     83  C   UNL A   1      39.851  34.259  37.039  1.00  0.00     0.041 A 
ATOM     84  F   UNL A   1      41.109  34.018  35.078  1.00  0.00    -0.206 F 
ATOM     85  C   UNL A   1      38.916  33.764  37.944  1.00  0.00     0.022 A 
BRANCH  82  86
ATOM     86  S   UNL A   1      37.087  31.862  38.841  1.00  0.00     0.124 S 
ATOM     87  O   UNL A   1      36.984  30.470  38.418  1.00  0.00    -0.237 OA
ATOM     88  O   UNL A   1      37.671  32.092  40.157  1.00  0.00    -0.237 OA
ATOM     89  O   UNL A   1      35.933  32.699  38.519  1.00  0.00    -0.744 OA
ENDBRANCH  82  86
ENDBRANCH  55  79
BRANCH  67  90
ATOM     90  C   UNL A   1      44.681  27.445  34.580  1.00  0.00     0.023 A 
ATOM     91  C   UNL A   1      45.944  28.060  34.642  1.00  0.00     0.031 A 
ATOM     92  C   UNL A   1      44.458  26.300  35.365  1.00  0.00     0.131 A 
ATOM     93  C   UNL A   1      46.953  27.500  35.438  1.00  0.00     0.055 A 
ATOM     94  C   UNL A   1      45.449  25.782  36.199  1.00  0.00     0.041 A 
ATOM     95  F   UNL A   1      43.270  25.675  35.339  1.00  0.00    -0.206 F 
ATOM     96  C   UNL A   1      46.707  26.376  36.231  1.00  0.00     0.022 A 
BRANCH  93  97
ATOM     97  S   UNL A   1      48.613  28.222  35.372  1.00  0.00     0.124 S 
ATOM     98  O   UNL A   1      48.373  29.467  34.649  1.00  0.00    -0.237 OA
ATOM     99  O   UNL A   1      48.953  28.361  36.785  1.00  0.00    -0.237 OA
ATOM    100  O   UNL A   1      49.393  27.223  34.644  1.00  0.00    -0.744 OA
ENDBRANCH  93  97
ENDBRANCH  67  90
ENDBRANCH  41  42
ENDBRANCH  33  36
ENDBRANCH  31  32
ENDBRANCH  30  31
ENDBRANCH   1  30
TORSDOF 21
ENDMDL
