MODEL 1
REMARK VINA RESULT:      -9.8      0.000      0.000
REMARK SMILES CCCCCCNC(=O)Oc1cccc(-c2ccc([C@@H](C)C(=O)NCCCCNC(=O)c3ccc(-c4c5nc(c(-c6cc(S(=O)(=O)[O-])ccc6F)c6ccc([nH]6)c(-c6cc(S(=O)(=O)[O-])ccc6F)c6nc(c(-c7cc(S(=O)(=O)[O-])ccc7F)c7ccc4[nH]7)C=C6)C=C5)cc3)cc2[N+](=O)[O-])c1
REMARK SMILES IDX 20 1 21 2 19 3 16 4 17 5 96 6 18 7 95 8 15 9 11 10 12 11
REMARK SMILES IDX 100 12 13 13 14 14 10 15 8 16 7 17 9 19 6 20 5 21 4 22 3 23
REMARK SMILES IDX 2 24 1 25 97 26 98 27 99 28 22 29 23 30 24 31 25 33 26 34
REMARK SMILES IDX 27 35 28 36 29 37 30 38 31 40 32 41 33 42 94 43 34 44 93 45
REMARK SMILES IDX 35 46 36 47 37 48 87 49 38 50 92 51 86 52 88 53 39 54 91 55
REMARK SMILES IDX 85 56 84 57 40 59 72 60 52 61 71 62 53 63 56 64 70 65 89 66
REMARK SMILES IDX 54 67 55 68 69 70 90 71 57 72 41 73 42 74 50 75 43 76 49 77
REMARK SMILES IDX 51 78 48 79 44 80 45 81 46 82 47 83 73 84 74 85 82 86 75 87
REMARK SMILES IDX 81 88 83 89 80 90 76 91 77 92 78 93 79 94 58 95 59 96 67 97
REMARK SMILES IDX 60 98 66 99 68 100 65 101 61 102 62 103 63 104 64 105
REMARK H PARENT 7 18 24 32 29 39 88 58 56 69
REMARK Flexibility Score: inf
ROOT
ATOM      1  C   UNL A   1      41.489  22.199  27.094  1.00  0.00     0.105 C 
ATOM      2  C   UNL A   1      41.645  20.736  27.505  1.00  0.00     0.023 C 
ENDROOT
BRANCH   1   3
ATOM      3  C   UNL A   1      40.082  22.619  26.695  1.00  0.00    -0.029 A 
ATOM      4  C   UNL A   1      37.333  23.259  26.131  1.00  0.00     0.060 A 
ATOM      5  C   UNL A   1      38.175  24.126  26.849  1.00  0.00     0.016 A 
ATOM      6  C   UNL A   1      37.944  22.098  25.619  1.00  0.00     0.277 A 
ATOM      7  C   UNL A   1      39.526  23.841  27.072  1.00  0.00     0.005 A 
ATOM      8  C   UNL A   1      39.279  21.756  25.934  1.00  0.00     0.090 A 
BRANCH   4   9
ATOM      9  C   UNL A   1      35.901  23.618  26.001  1.00  0.00    -0.008 A 
ATOM     10  C   UNL A   1      34.100  24.901  24.995  1.00  0.00     0.133 A 
ATOM     11  C   UNL A   1      33.149  24.234  25.762  1.00  0.00     0.047 A 
ATOM     12  C   UNL A   1      35.460  24.596  25.093  1.00  0.00     0.056 A 
ATOM     13  C   UNL A   1      33.563  23.242  26.642  1.00  0.00     0.004 A 
ATOM     14  C   UNL A   1      34.924  22.950  26.768  1.00  0.00     0.009 A 
BRANCH  10  15
ATOM     15  O   UNL A   1      33.637  25.995  24.244  1.00  0.00    -0.410 OA
BRANCH  15  16
ATOM     16  C   UNL A   1      33.061  25.784  23.003  1.00  0.00     0.412 C 
ATOM     17  N   UNL A   1      31.710  26.003  23.005  1.00  0.00    -0.321 N 
ATOM     18  H   UNL A   1      31.231  25.828  22.162  1.00  0.00     0.167 HD
ATOM     19  O   UNL A   1      33.648  25.431  21.988  1.00  0.00    -0.224 OA
BRANCH  17  20
ATOM     20  C   UNL A   1      30.912  26.467  24.124  1.00  0.00     0.119 C 
BRANCH  20  21
ATOM     21  C   UNL A   1      30.470  27.919  23.947  1.00  0.00     0.021 C 
BRANCH  21  22
ATOM     22  C   UNL A   1      30.757  28.515  22.564  1.00  0.00     0.002 C 
BRANCH  22  23
ATOM     23  C   UNL A   1      29.853  29.681  22.148  1.00  0.00    -0.000 C 
BRANCH  23  24
ATOM     24  C   UNL A   1      28.362  29.490  22.432  1.00  0.00    -0.003 C 
ATOM     25  C   UNL A   1      27.690  30.741  22.978  1.00  0.00     0.004 C 
ENDBRANCH  23  24
ENDBRANCH  22  23
ENDBRANCH  21  22
ENDBRANCH  20  21
ENDBRANCH  17  20
ENDBRANCH  15  16
ENDBRANCH  10  15
ENDBRANCH   4   9
BRANCH   6  26
ATOM     26  N   UNL A   1      37.258  21.235  24.657  1.00  0.00     0.063 N 
ATOM     27  O   UNL A   1      37.022  20.069  25.003  1.00  0.00    -0.258 OA
ATOM     28  O   UNL A   1      37.018  21.697  23.532  1.00  0.00    -0.258 OA
ENDBRANCH   6  26
ENDBRANCH   1   3
BRANCH   1  29
ATOM     29  C   UNL A   1      42.588  22.711  26.147  1.00  0.00     0.227 C 
ATOM     30  O   UNL A   1      42.634  22.288  24.985  1.00  0.00    -0.274 OA
ATOM     31  N   UNL A   1      43.530  23.630  26.494  1.00  0.00    -0.356 N 
ATOM     32  H   UNL A   1      44.107  23.911  25.748  1.00  0.00     0.163 HD
BRANCH  31  33
ATOM     33  C   UNL A   1      43.842  24.269  27.755  1.00  0.00     0.116 C 
BRANCH  33  34
ATOM     34  C   UNL A   1      43.894  25.793  27.623  1.00  0.00     0.023 C 
BRANCH  34  35
ATOM     35  C   UNL A   1      43.738  26.324  26.202  1.00  0.00     0.023 C 
BRANCH  35  36
ATOM     36  C   UNL A   1      44.487  27.617  25.911  1.00  0.00     0.116 C 
BRANCH  36  37
ATOM     37  N   UNL A   1      45.452  27.511  24.824  1.00  0.00    -0.352 N 
ATOM     38  C   UNL A   1      46.786  27.180  24.911  1.00  0.00     0.251 C 
ATOM     39  H   UNL A   1      45.109  27.699  23.921  1.00  0.00     0.163 HD
ATOM     40  O   UNL A   1      47.500  27.215  23.915  1.00  0.00    -0.269 OA
BRANCH  38  41
ATOM     41  C   UNL A   1      47.341  26.832  26.235  1.00  0.00     0.039 A 
ATOM     42  C   UNL A   1      47.682  27.857  27.119  1.00  0.00     0.014 A 
ATOM     43  C   UNL A   1      47.426  25.496  26.632  1.00  0.00     0.014 A 
ATOM     44  C   UNL A   1      48.031  27.541  28.434  1.00  0.00     0.010 A 
ATOM     45  C   UNL A   1      47.688  25.190  27.962  1.00  0.00     0.010 A 
ATOM     46  C   UNL A   1      47.991  26.209  28.879  1.00  0.00    -0.014 A 
BRANCH  46  47
ATOM     47  C   UNL A   1      48.278  25.850  30.292  1.00  0.00     0.031 A 
ATOM     48  C   UNL A   1      49.697  25.577  30.714  1.00  0.00     0.074 A 
ATOM     49  C   UNL A   1      47.266  25.704  31.172  1.00  0.00     0.049 A 
ATOM     50  N   UNL A   1      50.151  25.139  31.859  1.00  0.00    -0.248 NA
ATOM     51  C   UNL A   1      50.739  25.791  29.697  1.00  0.00     0.031 C 
ATOM     52  C   UNL A   1      45.847  25.907  30.872  1.00  0.00     0.029 A 
ATOM     53  N   UNL A   1      47.273  25.340  32.496  1.00  0.00    -0.354 N 
ATOM     54  C   UNL A   1      51.528  25.018  31.698  1.00  0.00     0.074 A 
ATOM     55  C   UNL A   1      51.822  25.357  30.323  1.00  0.00     0.031 C 
ATOM     56  C   UNL A   1      45.126  25.693  31.986  1.00  0.00     0.029 A 
ATOM     57  C   UNL A   1      46.021  25.288  33.066  1.00  0.00     0.049 A 
ATOM     58  H   UNL A   1      48.098  25.136  32.993  1.00  0.00     0.167 HD
ATOM     59  C   UNL A   1      52.463  24.685  32.621  1.00  0.00     0.034 A 
ATOM     60  C   UNL A   1      45.639  24.940  34.311  1.00  0.00     0.034 A 
ATOM     61  C   UNL A   1      52.158  24.368  33.992  1.00  0.00     0.049 A 
ATOM     62  C   UNL A   1      46.699  24.539  35.310  1.00  0.00     0.074 A 
ATOM     63  C   UNL A   1      53.030  24.047  35.018  1.00  0.00     0.029 A 
ATOM     64  N   UNL A   1      50.880  24.335  34.533  1.00  0.00    -0.354 N 
ATOM     65  N   UNL A   1      48.001  24.462  35.148  1.00  0.00    -0.248 NA
ATOM     66  C   UNL A   1      46.240  24.189  36.660  1.00  0.00     0.031 C 
ATOM     67  C   UNL A   1      52.276  23.764  36.162  1.00  0.00     0.029 A 
ATOM     68  C   UNL A   1      50.939  23.982  35.872  1.00  0.00     0.049 A 
ATOM     69  H   UNL A   1      50.051  24.534  34.039  1.00  0.00     0.167 HD
ATOM     70  C   UNL A   1      48.515  24.099  36.389  1.00  0.00     0.074 A 
ATOM     71  C   UNL A   1      47.388  23.984  37.290  1.00  0.00     0.031 C 
ATOM     72  C   UNL A   1      49.804  23.883  36.757  1.00  0.00     0.034 A 
BRANCH  59  73
ATOM     73  C   UNL A   1      53.902  24.642  32.165  1.00  0.00     0.023 A 
ATOM     74  C   UNL A   1      54.623  25.819  31.900  1.00  0.00     0.031 A 
ATOM     75  C   UNL A   1      54.558  23.412  31.980  1.00  0.00     0.131 A 
ATOM     76  C   UNL A   1      55.930  25.743  31.399  1.00  0.00     0.055 A 
ATOM     77  C   UNL A   1      55.887  23.344  31.559  1.00  0.00     0.041 A 
ATOM     78  F   UNL A   1      53.913  22.255  32.195  1.00  0.00    -0.206 F 
ATOM     79  C   UNL A   1      56.578  24.513  31.253  1.00  0.00     0.022 A 
BRANCH  76  80
ATOM     80  S   UNL A   1      56.726  27.265  30.819  1.00  0.00     0.124 S 
ATOM     81  O   UNL A   1      56.528  28.153  31.964  1.00  0.00    -0.237 OA
ATOM     82  O   UNL A   1      58.097  26.833  30.577  1.00  0.00    -0.237 OA
ATOM     83  O   UNL A   1      55.961  27.619  29.626  1.00  0.00    -0.744 OA
ENDBRANCH  76  80
ENDBRANCH  59  73
BRANCH  60  84
ATOM     84  C   UNL A   1      44.197  24.937  34.701  1.00  0.00     0.023 A 
ATOM     85  C   UNL A   1      43.566  26.117  35.130  1.00  0.00     0.031 A 
ATOM     86  C   UNL A   1      43.450  23.747  34.729  1.00  0.00     0.131 A 
ATOM     87  C   UNL A   1      42.258  26.069  35.636  1.00  0.00     0.055 A 
ATOM     88  C   UNL A   1      42.125  23.716  35.172  1.00  0.00     0.041 A 
ATOM     89  F   UNL A   1      44.000  22.590  34.329  1.00  0.00    -0.206 F 
ATOM     90  C   UNL A   1      41.528  24.879  35.647  1.00  0.00     0.022 A 
BRANCH  87  91
ATOM     91  S   UNL A   1      41.569  27.565  36.398  1.00  0.00     0.124 S 
ATOM     92  O   UNL A   1      40.626  27.001  37.358  1.00  0.00    -0.237 OA
ATOM     93  O   UNL A   1      42.759  28.193  36.960  1.00  0.00    -0.237 OA
ATOM     94  O   UNL A   1      40.965  28.274  35.271  1.00  0.00    -0.744 OA
ENDBRANCH  87  91
ENDBRANCH  60  84
BRANCH  72  95
ATOM     95  C   UNL A   1      50.063  23.570  38.210  1.00  0.00     0.023 A 
ATOM     96  C   UNL A   1      50.036  22.255  38.703  1.00  0.00     0.031 A 
ATOM     97  C   UNL A   1      50.339  24.612  39.114  1.00  0.00     0.131 A 
ATOM     98  C   UNL A   1      50.228  22.020  40.073  1.00  0.00     0.055 A 
ATOM     99  C   UNL A   1      50.589  24.366  40.464  1.00  0.00     0.041 A 
ATOM    100  F   UNL A   1      50.376  25.887  38.696  1.00  0.00    -0.206 F 
ATOM    101  C   UNL A   1      50.522  23.065  40.953  1.00  0.00     0.022 A 
BRANCH  98 102
ATOM    102  S   UNL A   1      50.004  20.335  40.708  1.00  0.00     0.124 S 
ATOM    103  O   UNL A   1      48.590  20.331  41.067  1.00  0.00    -0.237 OA
ATOM    104  O   UNL A   1      50.372  19.517  39.557  1.00  0.00    -0.237 OA
ATOM    105  O   UNL A   1      50.930  20.268  41.836  1.00  0.00    -0.744 OA
ENDBRANCH  98 102
ENDBRANCH  72  95
ENDBRANCH  46  47
ENDBRANCH  38  41
ENDBRANCH  36  37
ENDBRANCH  35  36
ENDBRANCH  34  35
ENDBRANCH  33  34
ENDBRANCH  31  33
ENDBRANCH   1  29
TORSDOF 24
ENDMDL
MODEL 2
REMARK VINA RESULT:      -9.7      6.384     10.998
REMARK SMILES CCCCCCNC(=O)Oc1cccc(-c2ccc([C@@H](C)C(=O)NCCCCNC(=O)c3ccc(-c4c5nc(c(-c6cc(S(=O)(=O)[O-])ccc6F)c6ccc([nH]6)c(-c6cc(S(=O)(=O)[O-])ccc6F)c6nc(c(-c7cc(S(=O)(=O)[O-])ccc7F)c7ccc4[nH]7)C=C6)C=C5)cc3)cc2[N+](=O)[O-])c1
REMARK SMILES IDX 20 1 21 2 19 3 16 4 17 5 96 6 18 7 95 8 15 9 11 10 12 11
REMARK SMILES IDX 100 12 13 13 14 14 10 15 8 16 7 17 9 19 6 20 5 21 4 22 3 23
REMARK SMILES IDX 2 24 1 25 97 26 98 27 99 28 22 29 23 30 24 31 25 33 26 34
REMARK SMILES IDX 27 35 28 36 29 37 30 38 31 40 32 41 33 42 94 43 34 44 93 45
REMARK SMILES IDX 35 46 36 47 37 48 87 49 38 50 92 51 86 52 88 53 39 54 91 55
REMARK SMILES IDX 85 56 84 57 40 59 72 60 52 61 71 62 53 63 56 64 70 65 89 66
REMARK SMILES IDX 54 67 55 68 69 70 90 71 57 72 41 73 42 74 50 75 43 76 49 77
REMARK SMILES IDX 51 78 48 79 44 80 45 81 46 82 47 83 73 84 74 85 82 86 75 87
REMARK SMILES IDX 81 88 83 89 80 90 76 91 77 92 78 93 79 94 58 95 59 96 67 97
REMARK SMILES IDX 60 98 66 99 68 100 65 101 61 102 62 103 63 104 64 105
REMARK H PARENT 7 18 24 32 29 39 88 58 56 69
REMARK Flexibility Score: inf
ROOT
ATOM      1  C   UNL A   1      42.296  20.121  26.698  1.00  0.00     0.105 C 
ATOM      2  C   UNL A   1      42.295  18.845  27.537  1.00  0.00     0.023 C 
ENDROOT
BRANCH   1   3
ATOM      3  C   UNL A   1      40.927  20.735  26.439  1.00  0.00    -0.029 A 
ATOM      4  C   UNL A   1      38.438  21.994  25.733  1.00  0.00     0.060 A 
ATOM      5  C   UNL A   1      38.667  20.620  25.539  1.00  0.00     0.016 A 
ATOM      6  C   UNL A   1      39.467  22.701  26.385  1.00  0.00     0.277 A 
ATOM      7  C   UNL A   1      39.856  19.998  25.937  1.00  0.00     0.005 A 
ATOM      8  C   UNL A   1      40.709  22.098  26.690  1.00  0.00     0.090 A 
BRANCH   4   9
ATOM      9  C   UNL A   1      37.174  22.574  25.221  1.00  0.00    -0.008 A 
ATOM     10  C   UNL A   1      35.050  23.704  25.552  1.00  0.00     0.133 A 
ATOM     11  C   UNL A   1      34.796  23.706  24.185  1.00  0.00     0.047 A 
ATOM     12  C   UNL A   1      36.226  23.162  26.076  1.00  0.00     0.056 A 
ATOM     13  C   UNL A   1      35.736  23.157  23.321  1.00  0.00     0.004 A 
ATOM     14  C   UNL A   1      36.902  22.586  23.836  1.00  0.00     0.009 A 
BRANCH  10  15
ATOM     15  O   UNL A   1      33.997  24.129  26.381  1.00  0.00    -0.410 OA
BRANCH  15  16
ATOM     16  C   UNL A   1      33.422  23.240  27.275  1.00  0.00     0.412 C 
ATOM     17  N   UNL A   1      32.062  23.168  27.145  1.00  0.00    -0.321 N 
ATOM     18  H   UNL A   1      31.586  22.586  27.781  1.00  0.00     0.167 HD
ATOM     19  O   UNL A   1      34.019  22.577  28.112  1.00  0.00    -0.224 OA
BRANCH  17  20
ATOM     20  C   UNL A   1      31.249  23.863  26.165  1.00  0.00     0.119 C 
BRANCH  20  21
ATOM     21  C   UNL A   1      31.312  23.194  24.792  1.00  0.00     0.021 C 
BRANCH  21  22
ATOM     22  C   UNL A   1      31.536  21.677  24.827  1.00  0.00     0.002 C 
BRANCH  22  23
ATOM     23  C   UNL A   1      32.316  21.100  23.640  1.00  0.00    -0.000 C 
BRANCH  23  24
ATOM     24  C   UNL A   1      33.402  20.083  23.999  1.00  0.00    -0.003 C 
ATOM     25  C   UNL A   1      33.917  20.234  25.423  1.00  0.00     0.004 C 
ENDBRANCH  23  24
ENDBRANCH  22  23
ENDBRANCH  21  22
ENDBRANCH  20  21
ENDBRANCH  17  20
ENDBRANCH  15  16
ENDBRANCH  10  15
ENDBRANCH   4   9
BRANCH   6  26
ATOM     26  N   UNL A   1      39.268  24.068  26.867  1.00  0.00     0.063 N 
ATOM     27  O   UNL A   1      39.550  24.992  26.091  1.00  0.00    -0.258 OA
ATOM     28  O   UNL A   1      38.899  24.221  28.040  1.00  0.00    -0.258 OA
ENDBRANCH   6  26
ENDBRANCH   1   3
BRANCH   1  29
ATOM     29  C   UNL A   1      43.201  20.061  25.455  1.00  0.00     0.227 C 
ATOM     30  O   UNL A   1      43.235  19.026  24.778  1.00  0.00    -0.274 OA
ATOM     31  N   UNL A   1      43.976  21.093  25.023  1.00  0.00    -0.356 N 
ATOM     32  H   UNL A   1      44.430  20.920  24.166  1.00  0.00     0.163 HD
BRANCH  31  33
ATOM     33  C   UNL A   1      44.259  22.396  25.587  1.00  0.00     0.116 C 
BRANCH  33  34
ATOM     34  C   UNL A   1      43.844  23.528  24.644  1.00  0.00     0.023 C 
BRANCH  34  35
ATOM     35  C   UNL A   1      42.866  24.536  25.237  1.00  0.00     0.023 C 
BRANCH  35  36
ATOM     36  C   UNL A   1      43.345  25.981  25.224  1.00  0.00     0.116 C 
BRANCH  36  37
ATOM     37  N   UNL A   1      44.770  26.132  24.963  1.00  0.00    -0.352 N 
ATOM     38  C   UNL A   1      45.699  26.807  25.725  1.00  0.00     0.251 C 
ATOM     39  H   UNL A   1      45.110  25.700  24.147  1.00  0.00     0.163 HD
ATOM     40  O   UNL A   1      46.855  26.923  25.334  1.00  0.00    -0.269 OA
BRANCH  38  41
ATOM     41  C   UNL A   1      45.256  27.426  26.991  1.00  0.00     0.039 A 
ATOM     42  C   UNL A   1      45.062  28.808  27.040  1.00  0.00     0.014 A 
ATOM     43  C   UNL A   1      44.941  26.626  28.091  1.00  0.00     0.014 A 
ATOM     44  C   UNL A   1      44.469  29.376  28.169  1.00  0.00     0.010 A 
ATOM     45  C   UNL A   1      44.273  27.182  29.175  1.00  0.00     0.010 A 
ATOM     46  C   UNL A   1      44.027  28.563  29.226  1.00  0.00    -0.014 A 
BRANCH  46  47
ATOM     47  C   UNL A   1      43.321  29.130  30.404  1.00  0.00     0.031 A 
ATOM     48  C   UNL A   1      41.871  29.519  30.283  1.00  0.00     0.074 A 
ATOM     49  C   UNL A   1      43.993  29.358  31.551  1.00  0.00     0.049 A 
ATOM     50  N   UNL A   1      41.103  30.132  31.145  1.00  0.00    -0.248 NA
ATOM     51  C   UNL A   1      41.210  29.205  29.006  1.00  0.00     0.031 C 
ATOM     52  C   UNL A   1      45.408  29.056  31.779  1.00  0.00     0.029 A 
ATOM     53  N   UNL A   1      43.579  29.905  32.741  1.00  0.00    -0.354 N 
ATOM     54  C   UNL A   1      39.873  30.286  30.512  1.00  0.00     0.074 A 
ATOM     55  C   UNL A   1      40.024  29.768  29.170  1.00  0.00     0.031 C 
ATOM     56  C   UNL A   1      45.734  29.396  33.037  1.00  0.00     0.029 A 
ATOM     57  C   UNL A   1      44.572  29.986  33.692  1.00  0.00     0.049 A 
ATOM     58  H   UNL A   1      42.657  30.211  32.900  1.00  0.00     0.167 HD
ATOM     59  C   UNL A   1      38.717  30.784  31.015  1.00  0.00     0.034 A 
ATOM     60  C   UNL A   1      44.548  30.491  34.941  1.00  0.00     0.034 A 
ATOM     61  C   UNL A   1      38.577  31.279  32.361  1.00  0.00     0.049 A 
ATOM     62  C   UNL A   1      43.256  31.073  35.465  1.00  0.00     0.074 A 
ATOM     63  C   UNL A   1      37.446  31.777  32.983  1.00  0.00     0.029 A 
ATOM     64  N   UNL A   1      39.602  31.335  33.296  1.00  0.00    -0.354 N 
ATOM     65  N   UNL A   1      42.093  31.179  34.863  1.00  0.00    -0.248 NA
ATOM     66  C   UNL A   1      43.270  31.591  36.839  1.00  0.00     0.031 C 
ATOM     67  C   UNL A   1      37.800  32.189  34.272  1.00  0.00     0.029 A 
ATOM     68  C   UNL A   1      39.133  31.877  34.482  1.00  0.00     0.049 A 
ATOM     69  H   UNL A   1      40.527  31.035  33.140  1.00  0.00     0.167 HD
ATOM     70  C   UNL A   1      41.229  31.735  35.803  1.00  0.00     0.074 A 
ATOM     71  C   UNL A   1      42.001  31.930  37.012  1.00  0.00     0.031 C 
ATOM     72  C   UNL A   1      39.916  32.053  35.682  1.00  0.00     0.034 A 
BRANCH  59  73
ATOM     73  C   UNL A   1      37.520  30.822  30.096  1.00  0.00     0.023 A 
ATOM     74  C   UNL A   1      36.938  32.039  29.701  1.00  0.00     0.031 A 
ATOM     75  C   UNL A   1      36.945  29.631  29.621  1.00  0.00     0.131 A 
ATOM     76  C   UNL A   1      35.777  32.037  28.915  1.00  0.00     0.055 A 
ATOM     77  C   UNL A   1      35.837  29.638  28.771  1.00  0.00     0.041 A 
ATOM     78  F   UNL A   1      37.443  28.439  29.983  1.00  0.00    -0.206 F 
ATOM     79  C   UNL A   1      35.238  30.845  28.423  1.00  0.00     0.022 A 
BRANCH  76  80
ATOM     80  S   UNL A   1      34.908  33.606  28.651  1.00  0.00     0.124 S 
ATOM     81  O   UNL A   1      34.380  33.425  27.300  1.00  0.00    -0.237 OA
ATOM     82  O   UNL A   1      33.923  33.608  29.726  1.00  0.00    -0.237 OA
ATOM     83  O   UNL A   1      35.965  34.608  28.770  1.00  0.00    -0.744 OA
ENDBRANCH  76  80
ENDBRANCH  59  73
BRANCH  60  84
ATOM     84  C   UNL A   1      45.774  30.489  35.795  1.00  0.00     0.023 A 
ATOM     85  C   UNL A   1      46.688  31.555  35.743  1.00  0.00     0.031 A 
ATOM     86  C   UNL A   1      46.092  29.391  36.614  1.00  0.00     0.131 A 
ATOM     87  C   UNL A   1      47.905  31.468  36.435  1.00  0.00     0.055 A 
ATOM     88  C   UNL A   1      47.277  29.339  37.353  1.00  0.00     0.041 A 
ATOM     89  F   UNL A   1      45.255  28.346  36.704  1.00  0.00    -0.206 F 
ATOM     90  C   UNL A   1      48.200  30.374  37.251  1.00  0.00     0.022 A 
BRANCH  87  91
ATOM     91  S   UNL A   1      49.155  32.754  36.152  1.00  0.00     0.124 S 
ATOM     92  O   UNL A   1      49.029  33.561  37.360  1.00  0.00    -0.237 OA
ATOM     93  O   UNL A   1      50.376  31.965  36.031  1.00  0.00    -0.237 OA
ATOM     94  O   UNL A   1      48.706  33.399  34.920  1.00  0.00    -0.744 OA
ENDBRANCH  87  91
ENDBRANCH  60  84
BRANCH  72  95
ATOM     95  C   UNL A   1      39.218  32.579  36.912  1.00  0.00     0.023 A 
ATOM     96  C   UNL A   1      38.442  31.748  37.738  1.00  0.00     0.031 A 
ATOM     97  C   UNL A   1      39.334  33.937  37.259  1.00  0.00     0.131 A 
ATOM     98  C   UNL A   1      37.766  32.295  38.840  1.00  0.00     0.055 A 
ATOM     99  C   UNL A   1      38.710  34.463  38.390  1.00  0.00     0.041 A 
ATOM    100  F   UNL A   1      40.063  34.774  36.504  1.00  0.00    -0.206 F 
ATOM    101  C   UNL A   1      37.911  33.643  39.181  1.00  0.00     0.022 A 
BRANCH  98 102
ATOM    102  S   UNL A   1      36.627  31.239  39.775  1.00  0.00     0.124 S 
ATOM    103  O   UNL A   1      36.180  30.296  38.755  1.00  0.00    -0.237 OA
ATOM    104  O   UNL A   1      37.492  30.690  40.815  1.00  0.00    -0.237 OA
ATOM    105  O   UNL A   1      35.606  32.171  40.249  1.00  0.00    -0.744 OA
ENDBRANCH  98 102
ENDBRANCH  72  95
ENDBRANCH  46  47
ENDBRANCH  38  41
ENDBRANCH  36  37
ENDBRANCH  35  36
ENDBRANCH  34  35
ENDBRANCH  33  34
ENDBRANCH  31  33
ENDBRANCH   1  29
TORSDOF 24
ENDMDL
MODEL 3
REMARK VINA RESULT:      -9.7      5.247      8.758
REMARK SMILES CCCCCCNC(=O)Oc1cccc(-c2ccc([C@@H](C)C(=O)NCCCCNC(=O)c3ccc(-c4c5nc(c(-c6cc(S(=O)(=O)[O-])ccc6F)c6ccc([nH]6)c(-c6cc(S(=O)(=O)[O-])ccc6F)c6nc(c(-c7cc(S(=O)(=O)[O-])ccc7F)c7ccc4[nH]7)C=C6)C=C5)cc3)cc2[N+](=O)[O-])c1
REMARK SMILES IDX 20 1 21 2 19 3 16 4 17 5 96 6 18 7 95 8 15 9 11 10 12 11
REMARK SMILES IDX 100 12 13 13 14 14 10 15 8 16 7 17 9 19 6 20 5 21 4 22 3 23
REMARK SMILES IDX 2 24 1 25 97 26 98 27 99 28 22 29 23 30 24 31 25 33 26 34
REMARK SMILES IDX 27 35 28 36 29 37 30 38 31 40 32 41 33 42 94 43 34 44 93 45
REMARK SMILES IDX 35 46 36 47 37 48 87 49 38 50 92 51 86 52 88 53 39 54 91 55
REMARK SMILES IDX 85 56 84 57 40 59 72 60 52 61 71 62 53 63 56 64 70 65 89 66
REMARK SMILES IDX 54 67 55 68 69 70 90 71 57 72 41 73 42 74 50 75 43 76 49 77
REMARK SMILES IDX 51 78 48 79 44 80 45 81 46 82 47 83 73 84 74 85 82 86 75 87
REMARK SMILES IDX 81 88 83 89 80 90 76 91 77 92 78 93 79 94 58 95 59 96 67 97
REMARK SMILES IDX 60 98 66 99 68 100 65 101 61 102 62 103 63 104 64 105
REMARK H PARENT 7 18 24 32 29 39 88 58 56 69
REMARK Flexibility Score: inf
ROOT
ATOM      1  C   UNL A   1      41.090  22.042  27.325  1.00  0.00     0.105 C 
ATOM      2  C   UNL A   1      41.691  20.922  26.477  1.00  0.00     0.023 C 
ENDROOT
BRANCH   1   3
ATOM      3  C   UNL A   1      39.749  22.578  26.844  1.00  0.00    -0.029 A 
ATOM      4  C   UNL A   1      37.103  23.444  26.116  1.00  0.00     0.060 A 
ATOM      5  C   UNL A   1      37.969  24.239  26.888  1.00  0.00     0.016 A 
ATOM      6  C   UNL A   1      37.645  22.236  25.637  1.00  0.00     0.277 A 
ATOM      7  C   UNL A   1      39.275  23.842  27.192  1.00  0.00     0.005 A 
ATOM      8  C   UNL A   1      38.925  21.785  26.030  1.00  0.00     0.090 A 
BRANCH   4   9
ATOM      9  C   UNL A   1      35.717  23.922  25.901  1.00  0.00    -0.008 A 
ATOM     10  C   UNL A   1      34.094  25.356  24.801  1.00  0.00     0.133 A 
ATOM     11  C   UNL A   1      33.045  24.765  25.497  1.00  0.00     0.047 A 
ATOM     12  C   UNL A   1      35.416  24.940  24.980  1.00  0.00     0.056 A 
ATOM     13  C   UNL A   1      33.320  23.735  26.389  1.00  0.00     0.004 A 
ATOM     14  C   UNL A   1      34.641  23.330  26.597  1.00  0.00     0.009 A 
BRANCH  10  15
ATOM     15  O   UNL A   1      33.772  26.490  24.036  1.00  0.00    -0.410 OA
BRANCH  15  16
ATOM     16  C   UNL A   1      33.411  26.345  22.707  1.00  0.00     0.412 C 
ATOM     17  N   UNL A   1      32.852  27.480  22.185  1.00  0.00    -0.321 N 
ATOM     18  H   UNL A   1      32.534  27.431  21.255  1.00  0.00     0.167 HD
ATOM     19  O   UNL A   1      33.547  25.334  22.032  1.00  0.00    -0.224 OA
BRANCH  17  20
ATOM     20  C   UNL A   1      32.683  28.750  22.865  1.00  0.00     0.119 C 
BRANCH  20  21
ATOM     21  C   UNL A   1      31.277  28.905  23.444  1.00  0.00     0.021 C 
BRANCH  21  22
ATOM     22  C   UNL A   1      30.140  28.649  22.448  1.00  0.00     0.002 C 
BRANCH  22  23
ATOM     23  C   UNL A   1      29.314  29.880  22.060  1.00  0.00    -0.000 C 
BRANCH  23  24
ATOM     24  C   UNL A   1      27.888  29.916  22.615  1.00  0.00    -0.003 C 
ATOM     25  C   UNL A   1      27.646  31.076  23.571  1.00  0.00     0.004 C 
ENDBRANCH  23  24
ENDBRANCH  22  23
ENDBRANCH  21  22
ENDBRANCH  20  21
ENDBRANCH  17  20
ENDBRANCH  15  16
ENDBRANCH  10  15
ENDBRANCH   4   9
BRANCH   6  26
ATOM     26  N   UNL A   1      36.950  21.434  24.630  1.00  0.00     0.063 N 
ATOM     27  O   UNL A   1      37.065  21.780  23.446  1.00  0.00    -0.258 OA
ATOM     28  O   UNL A   1      36.232  20.503  25.024  1.00  0.00    -0.258 OA
ENDBRANCH   6  26
ENDBRANCH   1   3
BRANCH   1  29
ATOM     29  C   UNL A   1      42.092  23.135  27.733  1.00  0.00     0.227 C 
ATOM     30  O   UNL A   1      42.263  23.385  28.933  1.00  0.00    -0.274 OA
ATOM     31  N   UNL A   1      42.836  23.858  26.853  1.00  0.00    -0.356 N 
ATOM     32  H   UNL A   1      43.488  24.459  27.280  1.00  0.00     0.163 HD
BRANCH  31  33
ATOM     33  C   UNL A   1      42.846  23.910  25.406  1.00  0.00     0.116 C 
BRANCH  33  34
ATOM     34  C   UNL A   1      43.059  25.334  24.888  1.00  0.00     0.023 C 
BRANCH  34  35
ATOM     35  C   UNL A   1      43.897  26.231  25.792  1.00  0.00     0.023 C 
BRANCH  35  36
ATOM     36  C   UNL A   1      45.342  26.420  25.352  1.00  0.00     0.116 C 
BRANCH  36  37
ATOM     37  N   UNL A   1      46.224  25.323  25.728  1.00  0.00    -0.352 N 
ATOM     38  C   UNL A   1      46.645  24.977  26.993  1.00  0.00     0.251 C 
ATOM     39  H   UNL A   1      46.559  24.764  24.990  1.00  0.00     0.163 HD
ATOM     40  O   UNL A   1      47.463  24.076  27.150  1.00  0.00    -0.269 OA
BRANCH  38  41
ATOM     41  C   UNL A   1      46.129  25.747  28.143  1.00  0.00     0.039 A 
ATOM     42  C   UNL A   1      46.455  27.099  28.257  1.00  0.00     0.014 A 
ATOM     43  C   UNL A   1      45.244  25.151  29.045  1.00  0.00     0.014 A 
ATOM     44  C   UNL A   1      45.825  27.876  29.232  1.00  0.00     0.010 A 
ATOM     45  C   UNL A   1      44.556  25.944  29.955  1.00  0.00     0.010 A 
ATOM     46  C   UNL A   1      44.837  27.316  30.058  1.00  0.00    -0.014 A 
BRANCH  46  47
ATOM     47  C   UNL A   1      44.092  28.136  31.048  1.00  0.00     0.031 A 
ATOM     48  C   UNL A   1      44.695  28.389  32.404  1.00  0.00     0.074 A 
ATOM     49  C   UNL A   1      42.856  28.592  30.758  1.00  0.00     0.049 A 
ATOM     50  N   UNL A   1      44.170  28.975  33.449  1.00  0.00    -0.248 NA
ATOM     51  C   UNL A   1      46.059  27.882  32.623  1.00  0.00     0.031 C 
ATOM     52  C   UNL A   1      42.152  28.381  29.490  1.00  0.00     0.029 A 
ATOM     53  N   UNL A   1      41.967  29.318  31.510  1.00  0.00    -0.354 N 
ATOM     54  C   UNL A   1      45.134  28.899  34.449  1.00  0.00     0.074 A 
ATOM     55  C   UNL A   1      46.244  28.145  33.907  1.00  0.00     0.031 C 
ATOM     56  C   UNL A   1      40.954  28.989  29.546  1.00  0.00     0.029 A 
ATOM     57  C   UNL A   1      40.781  29.588  30.865  1.00  0.00     0.049 A 
ATOM     58  H   UNL A   1      42.159  29.619  32.428  1.00  0.00     0.167 HD
ATOM     59  C   UNL A   1      45.109  29.435  35.693  1.00  0.00     0.034 A 
ATOM     60  C   UNL A   1      39.677  30.232  31.294  1.00  0.00     0.034 A 
ATOM     61  C   UNL A   1      44.004  30.199  36.214  1.00  0.00     0.049 A 
ATOM     62  C   UNL A   1      39.661  30.789  32.698  1.00  0.00     0.074 A 
ATOM     63  C   UNL A   1      43.886  30.814  37.448  1.00  0.00     0.029 A 
ATOM     64  N   UNL A   1      42.826  30.459  35.527  1.00  0.00    -0.354 N 
ATOM     65  N   UNL A   1      40.597  30.737  33.619  1.00  0.00    -0.248 NA
ATOM     66  C   UNL A   1      38.447  31.502  33.116  1.00  0.00     0.031 C 
ATOM     67  C   UNL A   1      42.615  31.394  37.530  1.00  0.00     0.029 A 
ATOM     68  C   UNL A   1      41.969  31.208  36.318  1.00  0.00     0.049 A 
ATOM     69  H   UNL A   1      42.627  30.156  34.611  1.00  0.00     0.167 HD
ATOM     70  C   UNL A   1      40.098  31.448  34.706  1.00  0.00     0.074 A 
ATOM     71  C   UNL A   1      38.787  31.929  34.323  1.00  0.00     0.031 C 
ATOM     72  C   UNL A   1      40.670  31.688  35.913  1.00  0.00     0.034 A 
BRANCH  59  73
ATOM     73  C   UNL A   1      46.312  29.201  36.574  1.00  0.00     0.023 A 
ATOM     74  C   UNL A   1      46.384  28.095  37.440  1.00  0.00     0.031 A 
ATOM     75  C   UNL A   1      47.394  30.098  36.562  1.00  0.00     0.131 A 
ATOM     76  C   UNL A   1      47.477  27.952  38.305  1.00  0.00     0.055 A 
ATOM     77  C   UNL A   1      48.518  29.906  37.367  1.00  0.00     0.041 A 
ATOM     78  F   UNL A   1      47.372  31.184  35.774  1.00  0.00    -0.206 F 
ATOM     79  C   UNL A   1      48.559  28.835  38.255  1.00  0.00     0.022 A 
BRANCH  76  80
ATOM     80  S   UNL A   1      47.406  26.670  39.585  1.00  0.00     0.124 S 
ATOM     81  O   UNL A   1      46.887  27.424  40.725  1.00  0.00    -0.237 OA
ATOM     82  O   UNL A   1      46.499  25.689  39.002  1.00  0.00    -0.237 OA
ATOM     83  O   UNL A   1      48.796  26.237  39.715  1.00  0.00    -0.744 OA
ENDBRANCH  76  80
ENDBRANCH  59  73
BRANCH  60  84
ATOM     84  C   UNL A   1      38.484  30.387  30.409  1.00  0.00     0.023 A 
ATOM     85  C   UNL A   1      38.099  31.652  29.935  1.00  0.00     0.031 A 
ATOM     86  C   UNL A   1      37.665  29.290  30.088  1.00  0.00     0.131 A 
ATOM     87  C   UNL A   1      36.894  31.801  29.232  1.00  0.00     0.055 A 
ATOM     88  C   UNL A   1      36.499  29.434  29.331  1.00  0.00     0.041 A 
ATOM     89  F   UNL A   1      37.984  28.057  30.512  1.00  0.00    -0.206 F 
ATOM     90  C   UNL A   1      36.098  30.699  28.914  1.00  0.00     0.022 A 
BRANCH  87  91
ATOM     91  S   UNL A   1      36.318  33.479  28.848  1.00  0.00     0.124 S 
ATOM     92  O   UNL A   1      37.572  34.224  28.819  1.00  0.00    -0.237 OA
ATOM     93  O   UNL A   1      35.656  33.284  27.563  1.00  0.00    -0.237 OA
ATOM     94  O   UNL A   1      35.429  33.797  29.964  1.00  0.00    -0.744 OA
ENDBRANCH  87  91
ENDBRANCH  60  84
BRANCH  72  95
ATOM     95  C   UNL A   1      39.908  32.566  36.875  1.00  0.00     0.023 A 
ATOM     96  C   UNL A   1      38.908  32.051  37.718  1.00  0.00     0.031 A 
ATOM     97  C   UNL A   1      40.190  33.942  36.944  1.00  0.00     0.131 A 
ATOM     98  C   UNL A   1      38.188  32.918  38.554  1.00  0.00     0.055 A 
ATOM     99  C   UNL A   1      39.513  34.788  37.822  1.00  0.00     0.041 A 
ATOM    100  F   UNL A   1      41.136  34.485  36.161  1.00  0.00    -0.206 F 
ATOM    101  C   UNL A   1      38.497  34.279  38.625  1.00  0.00     0.022 A 
BRANCH  98 102
ATOM    102  S   UNL A   1      36.782  32.256  39.490  1.00  0.00     0.124 S 
ATOM    103  O   UNL A   1      35.645  32.787  38.746  1.00  0.00    -0.237 OA
ATOM    104  O   UNL A   1      36.992  30.815  39.393  1.00  0.00    -0.237 OA
ATOM    105  O   UNL A   1      36.965  32.818  40.827  1.00  0.00    -0.744 OA
ENDBRANCH  98 102
ENDBRANCH  72  95
ENDBRANCH  46  47
ENDBRANCH  38  41
ENDBRANCH  36  37
ENDBRANCH  35  36
ENDBRANCH  34  35
ENDBRANCH  33  34
ENDBRANCH  31  33
ENDBRANCH   1  29
TORSDOF 24
ENDMDL
