MODEL 1
REMARK VINA RESULT:     -11.1      0.000      0.000
REMARK SMILES O=C(C[C@@H]1CN(C(=O)NCc2cccs2)CCO1)NCCCCNC(=O)c1ccc(-c2c3nc(c(-c4cc(S(=O)(=O)[O-])ccc4F)c4ccc([nH]4)c(-c4cc(S(=O)(=O)[O-])ccc4F)c4nc(c(-c5cc(S(=O)(=O)[O-])ccc5F)c5ccc2[nH]5)C=C4)C=C3)cc1
REMARK SMILES IDX 21 1 20 2 19 3 1 4 2 5 3 7 4 8 5 9 18 10 6 11 17 12 16 13
REMARK SMILES IDX 7 14 8 15 9 16 10 18 11 19 12 20 15 21 13 22 14 23 22 24
REMARK SMILES IDX 23 25 24 26 25 27 26 29 27 30 28 31 89 32 29 33 88 34 30 35
REMARK SMILES IDX 31 36 32 37 82 38 33 39 87 40 81 41 83 42 34 43 86 44 80 45
REMARK SMILES IDX 79 46 35 48 67 49 47 50 66 51 48 52 51 53 65 54 84 55 49 56
REMARK SMILES IDX 50 57 64 59 85 60 52 61 36 62 37 63 45 64 38 65 44 66 46 67
REMARK SMILES IDX 43 68 39 69 40 70 41 71 42 72 68 73 69 74 77 75 70 76 76 77
REMARK SMILES IDX 78 78 75 79 71 80 72 81 73 82 74 83 53 84 54 85 62 86 55 87
REMARK SMILES IDX 61 88 63 89 60 90 56 91 57 92 58 93 59 94
REMARK H PARENT 19 6 9 17 24 28 83 47 51 58
REMARK Flexibility Score: inf
ROOT
ATOM      1  C   UNL A   1      31.400  29.739  24.754  1.00  0.00     0.023 C 
ENDROOT
BRANCH   1   2
ATOM      2  C   UNL A   1      30.906  28.389  24.239  1.00  0.00     0.116 C 
BRANCH   2   3
ATOM      3  N   UNL A   1      31.961  27.399  24.244  1.00  0.00    -0.356 N 
ATOM      4  O   UNL A   1      31.019  26.021  22.666  1.00  0.00    -0.275 OA
ATOM      5  C   UNL A   1      31.923  26.275  23.455  1.00  0.00     0.222 C 
ATOM      6  H   UNL A   1      32.737  27.536  24.834  1.00  0.00     0.163 HD
BRANCH   5   7
ATOM      7  C   UNL A   1      33.082  25.330  23.667  1.00  0.00     0.133 C 
BRANCH   7   8
ATOM      8  C   UNL A   1      32.765  24.299  24.751  1.00  0.00     0.147 C 
ATOM      9  C   UNL A   1      32.171  23.029  24.117  1.00  0.00     0.154 C 
ATOM     10  O   UNL A   1      31.820  24.887  25.673  1.00  0.00    -0.374 OA
ATOM     11  N   UNL A   1      31.833  22.065  25.158  1.00  0.00    -0.320 N 
ATOM     12  C   UNL A   1      31.452  23.951  26.707  1.00  0.00     0.182 C 
ATOM     13  C   UNL A   1      30.885  22.647  26.123  1.00  0.00     0.150 C 
BRANCH  11  14
ATOM     14  C   UNL A   1      32.372  20.851  25.445  1.00  0.00     0.317 C 
ATOM     15  O   UNL A   1      31.902  19.811  24.967  1.00  0.00    -0.249 OA
ATOM     16  N   UNL A   1      33.424  20.649  26.246  1.00  0.00    -0.333 N 
ATOM     17  H   UNL A   1      33.573  19.685  26.379  1.00  0.00     0.165 HD
BRANCH  16  18
ATOM     18  C   UNL A   1      34.408  21.415  26.978  1.00  0.00     0.164 C 
BRANCH  18  19
ATOM     19  C   UNL A   1      35.547  21.755  26.066  1.00  0.00     0.024 A 
ATOM     20  C   UNL A   1      36.225  20.912  25.203  1.00  0.00     0.017 A 
ATOM     21  S   UNL A   1      36.171  23.348  25.982  1.00  0.00    -0.147 S 
ATOM     22  C   UNL A   1      37.262  21.577  24.486  1.00  0.00     0.012 A 
ATOM     23  C   UNL A   1      37.345  22.909  24.824  1.00  0.00     0.065 A 
ENDBRANCH  18  19
ENDBRANCH  16  18
ENDBRANCH  11  14
ENDBRANCH   7   8
ENDBRANCH   5   7
ENDBRANCH   2   3
ENDBRANCH   1   2
BRANCH   1  24
ATOM     24  C   UNL A   1      32.675  29.672  25.600  1.00  0.00     0.023 C 
BRANCH  24  25
ATOM     25  C   UNL A   1      32.541  30.199  27.025  1.00  0.00     0.116 C 
BRANCH  25  26
ATOM     26  N   UNL A   1      32.668  31.644  27.103  1.00  0.00    -0.352 N 
ATOM     27  C   UNL A   1      33.673  32.404  27.658  1.00  0.00     0.251 C 
ATOM     28  H   UNL A   1      31.928  32.154  26.702  1.00  0.00     0.163 HD
ATOM     29  O   UNL A   1      33.524  33.614  27.773  1.00  0.00    -0.269 OA
BRANCH  27  30
ATOM     30  C   UNL A   1      34.913  31.754  28.145  1.00  0.00     0.039 A 
ATOM     31  C   UNL A   1      36.100  32.490  28.156  1.00  0.00     0.014 A 
ATOM     32  C   UNL A   1      34.909  30.430  28.594  1.00  0.00     0.014 A 
ATOM     33  C   UNL A   1      37.265  31.923  28.683  1.00  0.00     0.010 A 
ATOM     34  C   UNL A   1      36.051  29.894  29.189  1.00  0.00     0.010 A 
ATOM     35  C   UNL A   1      37.242  30.636  29.244  1.00  0.00    -0.014 A 
BRANCH  35  36
ATOM     36  C   UNL A   1      38.448  30.055  29.895  1.00  0.00     0.031 A 
ATOM     37  C   UNL A   1      38.881  30.532  31.255  1.00  0.00     0.074 A 
ATOM     38  C   UNL A   1      39.186  29.138  29.237  1.00  0.00     0.049 A 
ATOM     39  N   UNL A   1      39.940  30.204  31.949  1.00  0.00    -0.248 NA
ATOM     40  C   UNL A   1      38.020  31.529  31.909  1.00  0.00     0.031 C 
ATOM     41  C   UNL A   1      38.892  28.620  27.899  1.00  0.00     0.029 A 
ATOM     42  N   UNL A   1      40.339  28.483  29.596  1.00  0.00    -0.354 N 
ATOM     43  C   UNL A   1      39.879  30.957  33.118  1.00  0.00     0.074 A 
ATOM     44  C   UNL A   1      38.712  31.807  33.004  1.00  0.00     0.031 C 
ATOM     45  C   UNL A   1      39.823  27.713  27.563  1.00  0.00     0.029 A 
ATOM     46  C   UNL A   1      40.812  27.622  28.633  1.00  0.00     0.049 A 
ATOM     47  H   UNL A   1      40.786  28.619  30.464  1.00  0.00     0.167 HD
ATOM     48  C   UNL A   1      40.704  30.925  34.195  1.00  0.00     0.034 A 
ATOM     49  C   UNL A   1      41.923  26.858  28.603  1.00  0.00     0.034 A 
ATOM     50  C   UNL A   1      41.862  30.071  34.294  1.00  0.00     0.049 A 
ATOM     51  C   UNL A   1      42.849  26.873  29.793  1.00  0.00     0.074 A 
ATOM     52  C   UNL A   1      42.740  29.931  35.355  1.00  0.00     0.029 A 
ATOM     53  N   UNL A   1      42.314  29.218  33.294  1.00  0.00    -0.354 N 
ATOM     54  N   UNL A   1      42.752  27.560  30.909  1.00  0.00    -0.248 NA
ATOM     55  C   UNL A   1      44.031  26.003  29.725  1.00  0.00     0.031 C 
ATOM     56  C   UNL A   1      43.761  29.056  34.971  1.00  0.00     0.029 A 
ATOM     57  C   UNL A   1      43.475  28.577  33.703  1.00  0.00     0.049 A 
ATOM     58  H   UNL A   1      41.874  29.088  32.424  1.00  0.00     0.167 HD
ATOM     59  C   UNL A   1      43.841  27.176  31.688  1.00  0.00     0.074 A 
ATOM     60  C   UNL A   1      44.571  26.188  30.921  1.00  0.00     0.031 C 
ATOM     61  C   UNL A   1      44.202  27.599  32.926  1.00  0.00     0.034 A 
BRANCH  48  62
ATOM     62  C   UNL A   1      40.390  31.862  35.339  1.00  0.00     0.023 A 
ATOM     63  C   UNL A   1      39.378  31.575  36.271  1.00  0.00     0.031 A 
ATOM     64  C   UNL A   1      41.100  33.067  35.491  1.00  0.00     0.131 A 
ATOM     65  C   UNL A   1      39.051  32.512  37.263  1.00  0.00     0.055 A 
ATOM     66  C   UNL A   1      40.828  33.955  36.534  1.00  0.00     0.041 A 
ATOM     67  F   UNL A   1      42.063  33.408  34.622  1.00  0.00    -0.206 F 
ATOM     68  C   UNL A   1      39.787  33.688  37.418  1.00  0.00     0.022 A 
BRANCH  65  69
ATOM     69  S   UNL A   1      37.553  32.241  38.249  1.00  0.00     0.124 S 
ATOM     70  O   UNL A   1      38.001  32.645  39.581  1.00  0.00    -0.237 OA
ATOM     71  O   UNL A   1      36.586  33.122  37.606  1.00  0.00    -0.237 OA
ATOM     72  O   UNL A   1      37.295  30.811  38.096  1.00  0.00    -0.744 OA
ENDBRANCH  65  69
ENDBRANCH  48  62
BRANCH  49  73
ATOM     73  C   UNL A   1      42.242  26.031  27.402  1.00  0.00     0.023 A 
ATOM     74  C   UNL A   1      41.918  24.666  27.353  1.00  0.00     0.031 A 
ATOM     75  C   UNL A   1      42.923  26.585  26.302  1.00  0.00     0.131 A 
ATOM     76  C   UNL A   1      42.321  23.889  26.255  1.00  0.00     0.055 A 
ATOM     77  C   UNL A   1      43.268  25.822  25.185  1.00  0.00     0.041 A 
ATOM     78  F   UNL A   1      43.257  27.885  26.295  1.00  0.00    -0.206 F 
ATOM     79  C   UNL A   1      42.979  24.461  25.164  1.00  0.00     0.022 A 
BRANCH  76  80
ATOM     80  S   UNL A   1      42.063  22.094  26.319  1.00  0.00     0.124 S 
ATOM     81  O   UNL A   1      42.451  21.789  27.691  1.00  0.00    -0.237 OA
ATOM     82  O   UNL A   1      40.642  21.982  26.012  1.00  0.00    -0.237 OA
ATOM     83  O   UNL A   1      42.965  21.585  25.287  1.00  0.00    -0.744 OA
ENDBRANCH  76  80
ENDBRANCH  49  73
BRANCH  61  84
ATOM     84  C   UNL A   1      45.418  26.952  33.549  1.00  0.00     0.023 A 
ATOM     85  C   UNL A   1      45.323  25.785  34.328  1.00  0.00     0.031 A 
ATOM     86  C   UNL A   1      46.690  27.520  33.364  1.00  0.00     0.131 A 
ATOM     87  C   UNL A   1      46.470  25.259  34.942  1.00  0.00     0.055 A 
ATOM     88  C   UNL A   1      47.838  26.954  33.921  1.00  0.00     0.041 A 
ATOM     89  F   UNL A   1      46.842  28.637  32.634  1.00  0.00    -0.206 F 
ATOM     90  C   UNL A   1      47.730  25.824  34.727  1.00  0.00     0.022 A 
BRANCH  87  91
ATOM     91  S   UNL A   1      46.281  23.883  36.108  1.00  0.00     0.124 S 
ATOM     92  O   UNL A   1      44.878  23.526  35.930  1.00  0.00    -0.237 OA
ATOM     93  O   UNL A   1      47.254  22.915  35.610  1.00  0.00    -0.237 OA
ATOM     94  O   UNL A   1      46.610  24.481  37.401  1.00  0.00    -0.744 OA
ENDBRANCH  87  91
ENDBRANCH  61  84
ENDBRANCH  35  36
ENDBRANCH  27  30
ENDBRANCH  25  26
ENDBRANCH  24  25
ENDBRANCH   1  24
TORSDOF 18
ENDMDL
MODEL 2
REMARK VINA RESULT:     -11.0      2.407      8.098
REMARK SMILES O=C(C[C@@H]1CN(C(=O)NCc2cccs2)CCO1)NCCCCNC(=O)c1ccc(-c2c3nc(c(-c4cc(S(=O)(=O)[O-])ccc4F)c4ccc([nH]4)c(-c4cc(S(=O)(=O)[O-])ccc4F)c4nc(c(-c5cc(S(=O)(=O)[O-])ccc5F)c5ccc2[nH]5)C=C4)C=C3)cc1
REMARK SMILES IDX 21 1 20 2 19 3 1 4 2 5 3 7 4 8 5 9 18 10 6 11 17 12 16 13
REMARK SMILES IDX 7 14 8 15 9 16 10 18 11 19 12 20 15 21 13 22 14 23 22 24
REMARK SMILES IDX 23 25 24 26 25 27 26 29 27 30 28 31 89 32 29 33 88 34 30 35
REMARK SMILES IDX 31 36 32 37 82 38 33 39 87 40 81 41 83 42 34 43 86 44 80 45
REMARK SMILES IDX 79 46 35 48 67 49 47 50 66 51 48 52 51 53 65 54 84 55 49 56
REMARK SMILES IDX 50 57 64 59 85 60 52 61 36 62 37 63 45 64 38 65 44 66 46 67
REMARK SMILES IDX 43 68 39 69 40 70 41 71 42 72 68 73 69 74 77 75 70 76 76 77
REMARK SMILES IDX 78 78 75 79 71 80 72 81 73 82 74 83 53 84 54 85 62 86 55 87
REMARK SMILES IDX 61 88 63 89 60 90 56 91 57 92 58 93 59 94
REMARK H PARENT 19 6 9 17 24 28 83 47 51 58
REMARK Flexibility Score: inf
ROOT
ATOM      1  C   UNL A   1      31.831  30.361  26.287  1.00  0.00     0.023 C 
ENDROOT
BRANCH   1   2
ATOM      2  C   UNL A   1      31.268  30.046  24.903  1.00  0.00     0.116 C 
BRANCH   2   3
ATOM      3  N   UNL A   1      30.954  28.641  24.762  1.00  0.00    -0.356 N 
ATOM      4  O   UNL A   1      30.832  28.639  22.468  1.00  0.00    -0.275 OA
ATOM      5  C   UNL A   1      30.746  28.049  23.541  1.00  0.00     0.222 C 
ATOM      6  H   UNL A   1      30.887  28.087  25.574  1.00  0.00     0.163 HD
BRANCH   5   7
ATOM      7  C   UNL A   1      30.353  26.593  23.617  1.00  0.00     0.133 C 
BRANCH   7   8
ATOM      8  C   UNL A   1      31.497  25.737  24.160  1.00  0.00     0.147 C 
ATOM      9  C   UNL A   1      31.212  25.334  25.617  1.00  0.00     0.154 C 
ATOM     10  O   UNL A   1      32.716  26.510  24.085  1.00  0.00    -0.374 OA
ATOM     11  N   UNL A   1      32.326  24.552  26.144  1.00  0.00    -0.320 N 
ATOM     12  C   UNL A   1      33.835  25.770  24.614  1.00  0.00     0.182 C 
ATOM     13  C   UNL A   1      33.585  25.312  26.060  1.00  0.00     0.150 C 
BRANCH  11  14
ATOM     14  C   UNL A   1      32.391  23.246  26.509  1.00  0.00     0.317 C 
ATOM     15  O   UNL A   1      32.079  22.881  27.649  1.00  0.00    -0.249 OA
ATOM     16  N   UNL A   1      32.788  22.246  25.714  1.00  0.00    -0.333 N 
ATOM     17  H   UNL A   1      32.844  21.405  26.222  1.00  0.00     0.165 HD
BRANCH  16  18
ATOM     18  C   UNL A   1      33.160  22.025  24.334  1.00  0.00     0.164 C 
BRANCH  18  19
ATOM     19  C   UNL A   1      34.649  22.132  24.200  1.00  0.00     0.024 A 
ATOM     20  C   UNL A   1      35.367  22.860  23.269  1.00  0.00     0.017 A 
ATOM     21  S   UNL A   1      35.696  21.308  25.276  1.00  0.00    -0.147 S 
ATOM     22  C   UNL A   1      36.777  22.727  23.437  1.00  0.00     0.012 A 
ATOM     23  C   UNL A   1      37.092  21.901  24.492  1.00  0.00     0.065 A 
ENDBRANCH  18  19
ENDBRANCH  16  18
ENDBRANCH  11  14
ENDBRANCH   7   8
ENDBRANCH   5   7
ENDBRANCH   2   3
ENDBRANCH   1   2
BRANCH   1  24
ATOM     24  C   UNL A   1      31.613  31.805  26.751  1.00  0.00     0.023 C 
BRANCH  24  25
ATOM     25  C   UNL A   1      32.824  32.472  27.396  1.00  0.00     0.116 C 
BRANCH  25  26
ATOM     26  N   UNL A   1      32.617  33.889  27.645  1.00  0.00    -0.352 N 
ATOM     27  C   UNL A   1      33.235  34.715  28.556  1.00  0.00     0.251 C 
ATOM     28  H   UNL A   1      31.935  34.320  27.081  1.00  0.00     0.163 HD
ATOM     29  O   UNL A   1      32.809  35.849  28.731  1.00  0.00    -0.269 OA
BRANCH  27  30
ATOM     30  C   UNL A   1      34.388  34.219  29.346  1.00  0.00     0.039 A 
ATOM     31  C   UNL A   1      34.142  33.423  30.467  1.00  0.00     0.014 A 
ATOM     32  C   UNL A   1      35.702  34.528  28.984  1.00  0.00     0.014 A 
ATOM     33  C   UNL A   1      35.214  32.881  31.183  1.00  0.00     0.010 A 
ATOM     34  C   UNL A   1      36.767  33.924  29.651  1.00  0.00     0.010 A 
ATOM     35  C   UNL A   1      36.536  33.090  30.756  1.00  0.00    -0.014 A 
BRANCH  35  36
ATOM     36  C   UNL A   1      37.683  32.441  31.449  1.00  0.00     0.031 A 
ATOM     37  C   UNL A   1      38.406  31.288  30.806  1.00  0.00     0.074 A 
ATOM     38  C   UNL A   1      38.039  32.854  32.683  1.00  0.00     0.049 A 
ATOM     39  N   UNL A   1      39.373  30.548  31.282  1.00  0.00    -0.248 NA
ATOM     40  C   UNL A   1      37.961  30.901  29.459  1.00  0.00     0.031 C 
ATOM     41  C   UNL A   1      37.395  33.938  33.429  1.00  0.00     0.029 A 
ATOM     42  N   UNL A   1      39.022  32.410  33.533  1.00  0.00    -0.354 N 
ATOM     43  C   UNL A   1      39.651  29.604  30.298  1.00  0.00     0.074 A 
ATOM     44  C   UNL A   1      38.700  29.826  29.228  1.00  0.00     0.031 C 
ATOM     45  C   UNL A   1      38.015  34.089  34.610  1.00  0.00     0.029 A 
ATOM     46  C   UNL A   1      39.063  33.080  34.733  1.00  0.00     0.049 A 
ATOM     47  H   UNL A   1      39.640  31.677  33.304  1.00  0.00     0.167 HD
ATOM     48  C   UNL A   1      40.623  28.656  30.278  1.00  0.00     0.034 A 
ATOM     49  C   UNL A   1      39.841  32.896  35.820  1.00  0.00     0.034 A 
ATOM     50  C   UNL A   1      41.564  28.448  31.352  1.00  0.00     0.049 A 
ATOM     51  C   UNL A   1      40.884  31.807  35.792  1.00  0.00     0.074 A 
ATOM     52  C   UNL A   1      42.611  27.545  31.415  1.00  0.00     0.029 A 
ATOM     53  N   UNL A   1      41.568  29.141  32.556  1.00  0.00    -0.354 N 
ATOM     54  N   UNL A   1      41.162  30.951  34.834  1.00  0.00    -0.248 NA
ATOM     55  C   UNL A   1      41.726  31.664  36.987  1.00  0.00     0.031 C 
ATOM     56  C   UNL A   1      43.198  27.638  32.681  1.00  0.00     0.029 A 
ATOM     57  C   UNL A   1      42.577  28.663  33.378  1.00  0.00     0.049 A 
ATOM     58  H   UNL A   1      40.946  29.867  32.790  1.00  0.00     0.167 HD
ATOM     59  C   UNL A   1      42.234  30.194  35.300  1.00  0.00     0.074 A 
ATOM     60  C   UNL A   1      42.561  30.704  36.615  1.00  0.00     0.031 C 
ATOM     61  C   UNL A   1      42.891  29.172  34.694  1.00  0.00     0.034 A 
BRANCH  48  62
ATOM     62  C   UNL A   1      40.695  27.761  29.062  1.00  0.00     0.023 A 
ATOM     63  C   UNL A   1      41.639  27.975  28.044  1.00  0.00     0.031 A 
ATOM     64  C   UNL A   1      39.797  26.689  28.910  1.00  0.00     0.131 A 
ATOM     65  C   UNL A   1      41.615  27.182  26.886  1.00  0.00     0.055 A 
ATOM     66  C   UNL A   1      39.835  25.849  27.795  1.00  0.00     0.041 A 
ATOM     67  F   UNL A   1      38.858  26.446  29.837  1.00  0.00    -0.206 F 
ATOM     68  C   UNL A   1      40.737  26.103  26.766  1.00  0.00     0.022 A 
BRANCH  65  69
ATOM     69  S   UNL A   1      42.644  27.676  25.477  1.00  0.00     0.124 S 
ATOM     70  O   UNL A   1      43.884  28.073  26.142  1.00  0.00    -0.237 OA
ATOM     71  O   UNL A   1      42.706  26.453  24.686  1.00  0.00    -0.237 OA
ATOM     72  O   UNL A   1      41.893  28.774  24.871  1.00  0.00    -0.744 OA
ENDBRANCH  65  69
ENDBRANCH  48  62
BRANCH  49  73
ATOM     73  C   UNL A   1      39.656  33.740  37.037  1.00  0.00     0.023 A 
ATOM     74  C   UNL A   1      39.189  33.189  38.240  1.00  0.00     0.031 A 
ATOM     75  C   UNL A   1      39.896  35.127  36.998  1.00  0.00     0.131 A 
ATOM     76  C   UNL A   1      38.926  34.024  39.338  1.00  0.00     0.055 A 
ATOM     77  C   UNL A   1      39.692  35.943  38.112  1.00  0.00     0.041 A 
ATOM     78  F   UNL A   1      40.344  35.708  35.874  1.00  0.00    -0.206 F 
ATOM     79  C   UNL A   1      39.189  35.394  39.287  1.00  0.00     0.022 A 
BRANCH  76  80
ATOM     80  S   UNL A   1      38.136  33.307  40.805  1.00  0.00     0.124 S 
ATOM     81  O   UNL A   1      38.874  33.954  41.885  1.00  0.00    -0.237 OA
ATOM     82  O   UNL A   1      36.749  33.725  40.636  1.00  0.00    -0.237 OA
ATOM     83  O   UNL A   1      38.377  31.874  40.655  1.00  0.00    -0.744 OA
ENDBRANCH  76  80
ENDBRANCH  49  73
BRANCH  61  84
ATOM     84  C   UNL A   1      44.065  28.573  35.432  1.00  0.00     0.023 A 
ATOM     85  C   UNL A   1      43.912  27.504  36.333  1.00  0.00     0.031 A 
ATOM     86  C   UNL A   1      45.359  29.087  35.233  1.00  0.00     0.131 A 
ATOM     87  C   UNL A   1      45.022  27.026  37.046  1.00  0.00     0.055 A 
ATOM     88  C   UNL A   1      46.471  28.562  35.894  1.00  0.00     0.041 A 
ATOM     89  F   UNL A   1      45.566  30.110  34.387  1.00  0.00    -0.206 F 
ATOM     90  C   UNL A   1      46.303  27.534  36.817  1.00  0.00     0.022 A 
BRANCH  87  91
ATOM     91  S   UNL A   1      44.755  25.796  38.353  1.00  0.00     0.124 S 
ATOM     92  O   UNL A   1      44.064  26.581  39.371  1.00  0.00    -0.237 OA
ATOM     93  O   UNL A   1      43.952  24.786  37.671  1.00  0.00    -0.237 OA
ATOM     94  O   UNL A   1      46.108  25.374  38.707  1.00  0.00    -0.744 OA
ENDBRANCH  87  91
ENDBRANCH  61  84
ENDBRANCH  35  36
ENDBRANCH  27  30
ENDBRANCH  25  26
ENDBRANCH  24  25
ENDBRANCH   1  24
TORSDOF 18
ENDMDL
MODEL 3
REMARK VINA RESULT:     -11.0      1.890      7.797
REMARK SMILES O=C(C[C@@H]1CN(C(=O)NCc2cccs2)CCO1)NCCCCNC(=O)c1ccc(-c2c3nc(c(-c4cc(S(=O)(=O)[O-])ccc4F)c4ccc([nH]4)c(-c4cc(S(=O)(=O)[O-])ccc4F)c4nc(c(-c5cc(S(=O)(=O)[O-])ccc5F)c5ccc2[nH]5)C=C4)C=C3)cc1
REMARK SMILES IDX 21 1 20 2 19 3 1 4 2 5 3 7 4 8 5 9 18 10 6 11 17 12 16 13
REMARK SMILES IDX 7 14 8 15 9 16 10 18 11 19 12 20 15 21 13 22 14 23 22 24
REMARK SMILES IDX 23 25 24 26 25 27 26 29 27 30 28 31 89 32 29 33 88 34 30 35
REMARK SMILES IDX 31 36 32 37 82 38 33 39 87 40 81 41 83 42 34 43 86 44 80 45
REMARK SMILES IDX 79 46 35 48 67 49 47 50 66 51 48 52 51 53 65 54 84 55 49 56
REMARK SMILES IDX 50 57 64 59 85 60 52 61 36 62 37 63 45 64 38 65 44 66 46 67
REMARK SMILES IDX 43 68 39 69 40 70 41 71 42 72 68 73 69 74 77 75 70 76 76 77
REMARK SMILES IDX 78 78 75 79 71 80 72 81 73 82 74 83 53 84 54 85 62 86 55 87
REMARK SMILES IDX 61 88 63 89 60 90 56 91 57 92 58 93 59 94
REMARK H PARENT 19 6 9 17 24 28 83 47 51 58
REMARK Flexibility Score: inf
ROOT
ATOM      1  C   UNL A   1      33.594  27.901  24.201  1.00  0.00     0.023 C 
ENDROOT
BRANCH   1   2
ATOM      2  C   UNL A   1      32.666  27.345  23.123  1.00  0.00     0.116 C 
BRANCH   2   3
ATOM      3  N   UNL A   1      32.689  25.899  23.093  1.00  0.00    -0.356 N 
ATOM      4  O   UNL A   1      33.260  25.703  20.877  1.00  0.00    -0.275 OA
ATOM      5  C   UNL A   1      32.976  25.188  21.953  1.00  0.00     0.222 C 
ATOM      6  H   UNL A   1      32.494  25.405  23.922  1.00  0.00     0.163 HD
BRANCH   5   7
ATOM      7  C   UNL A   1      32.871  23.690  22.115  1.00  0.00     0.133 C 
BRANCH   7   8
ATOM      8  C   UNL A   1      33.791  23.187  23.226  1.00  0.00     0.147 C 
ATOM      9  C   UNL A   1      33.008  23.055  24.544  1.00  0.00     0.154 C 
ATOM     10  O   UNL A   1      34.874  24.131  23.380  1.00  0.00    -0.374 OA
ATOM     11  N   UNL A   1      33.900  22.614  25.611  1.00  0.00    -0.320 N 
ATOM     12  C   UNL A   1      35.766  23.731  24.441  1.00  0.00     0.182 C 
ATOM     13  C   UNL A   1      35.024  23.551  25.775  1.00  0.00     0.150 C 
BRANCH  11  14
ATOM     14  C   UNL A   1      33.935  21.446  26.304  1.00  0.00     0.317 C 
ATOM     15  O   UNL A   1      33.909  21.433  27.541  1.00  0.00    -0.249 OA
ATOM     16  N   UNL A   1      34.003  20.229  25.754  1.00  0.00    -0.333 N 
ATOM     17  H   UNL A   1      34.113  19.543  26.452  1.00  0.00     0.165 HD
BRANCH  16  18
ATOM     18  C   UNL A   1      33.965  19.613  24.446  1.00  0.00     0.164 C 
BRANCH  18  19
ATOM     19  C   UNL A   1      33.746  18.139  24.599  1.00  0.00     0.024 A 
ATOM     20  C   UNL A   1      34.400  17.111  23.944  1.00  0.00     0.017 A 
ATOM     21  S   UNL A   1      32.582  17.526  25.696  1.00  0.00    -0.147 S 
ATOM     22  C   UNL A   1      33.930  15.824  24.336  1.00  0.00     0.012 A 
ATOM     23  C   UNL A   1      32.932  15.908  25.281  1.00  0.00     0.065 A 
ENDBRANCH  18  19
ENDBRANCH  16  18
ENDBRANCH  11  14
ENDBRANCH   7   8
ENDBRANCH   5   7
ENDBRANCH   2   3
ENDBRANCH   1   2
BRANCH   1  24
ATOM     24  C   UNL A   1      33.284  29.338  24.631  1.00  0.00     0.023 C 
BRANCH  24  25
ATOM     25  C   UNL A   1      32.521  29.476  25.945  1.00  0.00     0.116 C 
BRANCH  25  26
ATOM     26  N   UNL A   1      32.204  30.856  26.268  1.00  0.00    -0.352 N 
ATOM     27  C   UNL A   1      32.844  31.723  27.124  1.00  0.00     0.251 C 
ATOM     28  H   UNL A   1      31.415  31.225  25.808  1.00  0.00     0.163 HD
ATOM     29  O   UNL A   1      32.329  32.801  27.390  1.00  0.00    -0.269 OA
BRANCH  27  30
ATOM     30  C   UNL A   1      34.133  31.335  27.746  1.00  0.00     0.039 A 
ATOM     31  C   UNL A   1      35.092  32.323  27.979  1.00  0.00     0.014 A 
ATOM     32  C   UNL A   1      34.396  30.009  28.104  1.00  0.00     0.014 A 
ATOM     33  C   UNL A   1      36.283  31.994  28.634  1.00  0.00     0.010 A 
ATOM     34  C   UNL A   1      35.548  29.699  28.825  1.00  0.00     0.010 A 
ATOM     35  C   UNL A   1      36.504  30.689  29.103  1.00  0.00    -0.014 A 
BRANCH  35  36
ATOM     36  C   UNL A   1      37.722  30.344  29.886  1.00  0.00     0.031 A 
ATOM     37  C   UNL A   1      38.759  29.418  29.310  1.00  0.00     0.074 A 
ATOM     38  C   UNL A   1      37.868  30.822  31.139  1.00  0.00     0.049 A 
ATOM     39  N   UNL A   1      39.844  28.942  29.865  1.00  0.00    -0.248 NA
ATOM     40  C   UNL A   1      38.530  28.944  27.937  1.00  0.00     0.031 C 
ATOM     41  C   UNL A   1      36.917  31.701  31.823  1.00  0.00     0.029 A 
ATOM     42  N   UNL A   1      38.865  30.633  32.064  1.00  0.00    -0.354 N 
ATOM     43  C   UNL A   1      40.424  28.108  28.914  1.00  0.00     0.074 A 
ATOM     44  C   UNL A   1      39.532  28.093  27.773  1.00  0.00     0.031 C 
ATOM     45  C   UNL A   1      37.388  31.992  33.046  1.00  0.00     0.029 A 
ATOM     46  C   UNL A   1      38.644  31.280  33.258  1.00  0.00     0.049 A 
ATOM     47  H   UNL A   1      39.664  30.082  31.890  1.00  0.00     0.167 HD
ATOM     48  C   UNL A   1      41.603  27.437  28.976  1.00  0.00     0.034 A 
ATOM     49  C   UNL A   1      39.360  31.288  34.401  1.00  0.00     0.034 A 
ATOM     50  C   UNL A   1      42.482  27.463  30.119  1.00  0.00     0.049 A 
ATOM     51  C   UNL A   1      40.644  30.499  34.463  1.00  0.00     0.074 A 
ATOM     52  C   UNL A   1      43.716  26.854  30.270  1.00  0.00     0.029 A 
ATOM     53  N   UNL A   1      42.221  28.124  31.313  1.00  0.00    -0.354 N 
ATOM     54  N   UNL A   1      41.200  29.750  33.537  1.00  0.00    -0.248 NA
ATOM     55  C   UNL A   1      41.402  30.562  35.719  1.00  0.00     0.031 C 
ATOM     56  C   UNL A   1      44.163  27.080  31.576  1.00  0.00     0.029 A 
ATOM     57  C   UNL A   1      43.253  27.908  32.214  1.00  0.00     0.049 A 
ATOM     58  H   UNL A   1      41.420  28.667  31.493  1.00  0.00     0.167 HD
ATOM     59  C   UNL A   1      42.390  29.284  34.090  1.00  0.00     0.074 A 
ATOM     60  C   UNL A   1      42.478  29.848  35.421  1.00  0.00     0.031 C 
ATOM     61  C   UNL A   1      43.328  28.467  33.545  1.00  0.00     0.034 A 
BRANCH  48  62
ATOM     62  C   UNL A   1      41.990  26.601  27.778  1.00  0.00     0.023 A 
ATOM     63  C   UNL A   1      41.742  25.219  27.731  1.00  0.00     0.031 A 
ATOM     64  C   UNL A   1      42.633  27.190  26.673  1.00  0.00     0.131 A 
ATOM     65  C   UNL A   1      42.201  24.459  26.645  1.00  0.00     0.055 A 
ATOM     66  C   UNL A   1      43.009  26.442  25.555  1.00  0.00     0.041 A 
ATOM     67  F   UNL A   1      42.917  28.501  26.666  1.00  0.00    -0.206 F 
ATOM     68  C   UNL A   1      42.808  25.065  25.543  1.00  0.00     0.022 A 
BRANCH  65  69
ATOM     69  S   UNL A   1      42.128  22.651  26.761  1.00  0.00     0.124 S 
ATOM     70  O   UNL A   1      43.300  22.361  27.585  1.00  0.00    -0.237 OA
ATOM     71  O   UNL A   1      40.833  22.426  27.391  1.00  0.00    -0.237 OA
ATOM     72  O   UNL A   1      42.231  22.212  25.371  1.00  0.00    -0.744 OA
ENDBRANCH  65  69
ENDBRANCH  48  62
BRANCH  49  73
ATOM     73  C   UNL A   1      38.877  32.047  35.593  1.00  0.00     0.023 A 
ATOM     74  C   UNL A   1      38.277  31.390  36.679  1.00  0.00     0.031 A 
ATOM     75  C   UNL A   1      38.962  33.451  35.639  1.00  0.00     0.131 A 
ATOM     76  C   UNL A   1      37.739  32.137  37.739  1.00  0.00     0.055 A 
ATOM     77  C   UNL A   1      38.481  34.185  36.725  1.00  0.00     0.041 A 
ATOM     78  F   UNL A   1      39.527  34.131  34.629  1.00  0.00    -0.206 F 
ATOM     79  C   UNL A   1      37.850  33.528  37.777  1.00  0.00     0.022 A 
BRANCH  76  80
ATOM     80  S   UNL A   1      36.795  31.268  39.023  1.00  0.00     0.124 S 
ATOM     81  O   UNL A   1      36.703  29.924  38.463  1.00  0.00    -0.237 OA
ATOM     82  O   UNL A   1      37.660  31.420  40.188  1.00  0.00    -0.237 OA
ATOM     83  O   UNL A   1      35.537  32.009  39.080  1.00  0.00    -0.744 OA
ENDBRANCH  76  80
ENDBRANCH  49  73
BRANCH  61  84
ATOM     84  C   UNL A   1      44.557  28.177  34.375  1.00  0.00     0.023 A 
ATOM     85  C   UNL A   1      44.631  27.066  35.233  1.00  0.00     0.031 A 
ATOM     86  C   UNL A   1      45.670  29.034  34.308  1.00  0.00     0.131 A 
ATOM     87  C   UNL A   1      45.766  26.876  36.035  1.00  0.00     0.055 A 
ATOM     88  C   UNL A   1      46.825  28.802  35.057  1.00  0.00     0.041 A 
ATOM     89  F   UNL A   1      45.656  30.114  33.509  1.00  0.00    -0.206 F 
ATOM     90  C   UNL A   1      46.872  27.725  35.938  1.00  0.00     0.022 A 
BRANCH  87  91
ATOM     91  S   UNL A   1      45.742  25.560  37.283  1.00  0.00     0.124 S 
ATOM     92  O   UNL A   1      45.048  26.206  38.392  1.00  0.00    -0.237 OA
ATOM     93  O   UNL A   1      45.007  24.498  36.602  1.00  0.00    -0.237 OA
ATOM     94  O   UNL A   1      47.158  25.280  37.514  1.00  0.00    -0.744 OA
ENDBRANCH  87  91
ENDBRANCH  61  84
ENDBRANCH  35  36
ENDBRANCH  27  30
ENDBRANCH  25  26
ENDBRANCH  24  25
ENDBRANCH   1  24
TORSDOF 18
ENDMDL
