MODEL 1
REMARK VINA RESULT:     -13.2      0.000      0.000
REMARK SMILES Cc1c(NC(=O)c2ccc(I)cc2)cccc1C(=O)NCCCCNC(=O)c1ccc(-c2c3nc(c(-c4cc(S(=O)(=O)[O-])ccc4F)c4ccc([nH]4)c(-c4cc(S(=O)(=O)[O-])ccc4F)c4nc(c(-c5cc(S(=O)(=O)[O-])ccc5F)c5ccc2[nH]5)C=C4)C=C3)cc1
REMARK SMILES IDX 23 1 22 2 21 3 20 4 18 5 19 6 17 8 1 9 2 10 3 11 14 12 16 13
REMARK SMILES IDX 15 14 4 15 5 16 6 18 7 19 8 20 13 21 9 22 12 23 10 24 11 25
REMARK SMILES IDX 24 26 25 27 26 28 27 30 28 31 29 32 90 33 30 34 89 35 31 36
REMARK SMILES IDX 32 37 33 38 83 39 34 40 88 41 82 42 84 43 35 44 87 45 81 46
REMARK SMILES IDX 80 47 36 49 68 50 48 51 67 52 49 53 52 54 66 55 85 56 50 57
REMARK SMILES IDX 51 58 65 60 86 61 53 62 37 63 38 64 46 65 39 66 45 67 47 68
REMARK SMILES IDX 44 69 40 70 41 71 42 72 43 73 69 74 70 75 78 76 71 77 77 78
REMARK SMILES IDX 79 79 76 80 72 81 73 82 74 83 75 84 54 85 55 86 63 87 56 88
REMARK SMILES IDX 62 89 64 90 61 91 57 92 58 93 59 94 60 95
REMARK H PARENT 20 7 4 17 25 29 84 48 52 59
REMARK Flexibility Score: inf
ROOT
ATOM      1  C   UNL A   1      33.355  30.351  27.630  1.00  0.00     0.023 C 
ENDROOT
BRANCH   1   2
ATOM      2  C   UNL A   1      32.273  31.140  26.901  1.00  0.00     0.023 C 
BRANCH   2   3
ATOM      3  C   UNL A   1      31.546  30.373  25.778  1.00  0.00     0.116 C 
BRANCH   3   4
ATOM      4  N   UNL A   1      32.497  29.928  24.769  1.00  0.00    -0.352 N 
ATOM      5  C   UNL A   1      32.733  28.745  24.121  1.00  0.00     0.251 C 
ATOM      6  O   UNL A   1      33.704  28.742  23.353  1.00  0.00    -0.269 OA
ATOM      7  H   UNL A   1      33.111  30.644  24.487  1.00  0.00     0.163 HD
BRANCH   5   8
ATOM      8  C   UNL A   1      31.898  27.499  24.192  1.00  0.00     0.044 A 
ATOM      9  C   UNL A   1      32.246  26.881  26.654  1.00  0.00     0.047 C 
ATOM     10  C   UNL A   1      31.597  26.698  25.314  1.00  0.00    -0.015 A 
ATOM     11  C   UNL A   1      30.801  25.538  25.151  1.00  0.00     0.045 A 
ATOM     12  C   UNL A   1      30.441  25.085  23.881  1.00  0.00     0.026 A 
ATOM     13  C   UNL A   1      31.497  27.023  22.922  1.00  0.00     0.014 A 
ATOM     14  C   UNL A   1      30.807  25.821  22.762  1.00  0.00     0.003 A 
BRANCH  11  15
ATOM     15  N   UNL A   1      30.358  24.862  26.304  1.00  0.00    -0.322 N 
ATOM     16  C   UNL A   1      30.621  23.584  26.731  1.00  0.00     0.255 C 
ATOM     17  H   UNL A   1      29.770  25.386  26.895  1.00  0.00     0.170 HD
ATOM     18  O   UNL A   1      29.868  23.018  27.522  1.00  0.00    -0.269 OA
BRANCH  16  19
ATOM     19  C   UNL A   1      31.894  22.907  26.359  1.00  0.00     0.040 A 
ATOM     20  C   UNL A   1      33.070  23.325  26.994  1.00  0.00     0.015 A 
ATOM     21  C   UNL A   1      31.974  21.970  25.318  1.00  0.00     0.015 A 
ATOM     22  C   UNL A   1      34.302  22.777  26.632  1.00  0.00     0.015 A 
ATOM     23  C   UNL A   1      33.204  21.408  24.965  1.00  0.00     0.015 A 
ATOM     24  C   UNL A   1      34.362  21.812  25.627  1.00  0.00     0.013 A 
ATOM     25  I   UNL A   1      36.194  20.987  25.095  1.00  0.00    -0.044 I 
ENDBRANCH  16  19
ENDBRANCH  11  15
ENDBRANCH   5   8
ENDBRANCH   3   4
ENDBRANCH   2   3
ENDBRANCH   1   2
BRANCH   1  26
ATOM     26  C   UNL A   1      34.747  30.876  27.332  1.00  0.00     0.116 C 
BRANCH  26  27
ATOM     27  N   UNL A   1      35.373  31.619  28.422  1.00  0.00    -0.352 N 
ATOM     28  C   UNL A   1      36.279  31.153  29.359  1.00  0.00     0.251 C 
ATOM     29  H   UNL A   1      35.119  32.567  28.500  1.00  0.00     0.163 HD
ATOM     30  O   UNL A   1      36.648  31.844  30.306  1.00  0.00    -0.269 OA
BRANCH  28  31
ATOM     31  C   UNL A   1      36.901  29.828  29.128  1.00  0.00     0.039 A 
ATOM     32  C   UNL A   1      37.169  29.043  30.253  1.00  0.00     0.014 A 
ATOM     33  C   UNL A   1      37.504  29.549  27.906  1.00  0.00     0.014 A 
ATOM     34  C   UNL A   1      38.243  28.158  30.219  1.00  0.00     0.010 A 
ATOM     35  C   UNL A   1      38.650  28.779  27.912  1.00  0.00     0.010 A 
ATOM     36  C   UNL A   1      39.059  28.137  29.088  1.00  0.00    -0.014 A 
BRANCH  36  37
ATOM     37  C   UNL A   1      40.425  27.619  29.109  1.00  0.00     0.031 A 
ATOM     38  C   UNL A   1      40.717  26.232  28.694  1.00  0.00     0.074 A 
ATOM     39  C   UNL A   1      41.448  28.437  29.445  1.00  0.00     0.049 A 
ATOM     40  N   UNL A   1      41.757  25.562  29.062  1.00  0.00    -0.248 NA
ATOM     41  C   UNL A   1      39.809  25.458  27.859  1.00  0.00     0.031 C 
ATOM     42  C   UNL A   1      42.877  28.190  29.270  1.00  0.00     0.029 A 
ATOM     43  N   UNL A   1      41.392  29.572  30.251  1.00  0.00    -0.354 N 
ATOM     44  C   UNL A   1      41.823  24.428  28.285  1.00  0.00     0.074 A 
ATOM     45  C   UNL A   1      40.542  24.368  27.624  1.00  0.00     0.031 C 
ATOM     46  C   UNL A   1      43.560  28.959  30.133  1.00  0.00     0.029 A 
ATOM     47  C   UNL A   1      42.591  29.629  30.981  1.00  0.00     0.049 A 
ATOM     48  H   UNL A   1      40.648  30.215  30.298  1.00  0.00     0.167 HD
ATOM     49  C   UNL A   1      43.010  23.761  28.176  1.00  0.00     0.034 A 
ATOM     50  C   UNL A   1      42.581  29.599  32.345  1.00  0.00     0.034 A 
ATOM     51  C   UNL A   1      44.017  24.313  29.090  1.00  0.00     0.049 A 
ATOM     52  C   UNL A   1      43.290  28.397  32.928  1.00  0.00     0.074 A 
ATOM     53  C   UNL A   1      45.120  25.133  28.902  1.00  0.00     0.029 A 
ATOM     54  N   UNL A   1      43.805  24.258  30.466  1.00  0.00    -0.354 N 
ATOM     55  N   UNL A   1      43.657  27.355  32.233  1.00  0.00    -0.248 NA
ATOM     56  C   UNL A   1      43.626  28.262  34.342  1.00  0.00     0.031 C 
ATOM     57  C   UNL A   1      45.522  25.628  30.172  1.00  0.00     0.029 A 
ATOM     58  C   UNL A   1      44.688  25.085  31.134  1.00  0.00     0.049 A 
ATOM     59  H   UNL A   1      43.118  23.705  30.903  1.00  0.00     0.167 HD
ATOM     60  C   UNL A   1      44.227  26.419  33.058  1.00  0.00     0.074 A 
ATOM     61  C   UNL A   1      44.213  27.051  34.366  1.00  0.00     0.031 C 
ATOM     62  C   UNL A   1      44.646  25.203  32.588  1.00  0.00     0.034 A 
BRANCH  49  63
ATOM     63  C   UNL A   1      43.357  22.834  27.021  1.00  0.00     0.023 A 
ATOM     64  C   UNL A   1      42.825  21.525  27.006  1.00  0.00     0.031 A 
ATOM     65  C   UNL A   1      44.243  23.120  25.963  1.00  0.00     0.131 A 
ATOM     66  C   UNL A   1      43.259  20.558  26.077  1.00  0.00     0.055 A 
ATOM     67  C   UNL A   1      44.721  22.146  25.075  1.00  0.00     0.041 A 
ATOM     68  F   UNL A   1      44.640  24.367  25.688  1.00  0.00    -0.206 F 
ATOM     69  C   UNL A   1      44.242  20.850  25.140  1.00  0.00     0.022 A 
BRANCH  66  70
ATOM     70  S   UNL A   1      42.520  18.903  26.110  1.00  0.00     0.124 S 
ATOM     71  O   UNL A   1      42.669  18.524  27.511  1.00  0.00    -0.237 OA
ATOM     72  O   UNL A   1      41.159  19.164  25.651  1.00  0.00    -0.237 OA
ATOM     73  O   UNL A   1      43.349  18.143  25.175  1.00  0.00    -0.744 OA
ENDBRANCH  66  70
ENDBRANCH  49  63
BRANCH  50  74
ATOM     74  C   UNL A   1      41.404  30.305  32.929  1.00  0.00     0.023 A 
ATOM     75  C   UNL A   1      41.418  31.716  32.858  1.00  0.00     0.031 A 
ATOM     76  C   UNL A   1      40.174  29.670  33.137  1.00  0.00     0.131 A 
ATOM     77  C   UNL A   1      40.217  32.434  32.805  1.00  0.00     0.055 A 
ATOM     78  C   UNL A   1      38.978  30.402  33.166  1.00  0.00     0.041 A 
ATOM     79  F   UNL A   1      40.092  28.333  33.174  1.00  0.00    -0.206 F 
ATOM     80  C   UNL A   1      38.991  31.783  32.950  1.00  0.00     0.022 A 
BRANCH  77  81
ATOM     81  S   UNL A   1      40.268  34.169  32.255  1.00  0.00     0.124 S 
ATOM     82  O   UNL A   1      39.055  34.713  32.851  1.00  0.00    -0.237 OA
ATOM     83  O   UNL A   1      41.528  34.659  32.814  1.00  0.00    -0.237 OA
ATOM     84  O   UNL A   1      40.267  34.063  30.798  1.00  0.00    -0.744 OA
ENDBRANCH  77  81
ENDBRANCH  50  74
BRANCH  62  85
ATOM     85  C   UNL A   1      45.126  24.037  33.432  1.00  0.00     0.023 A 
ATOM     86  C   UNL A   1      46.419  23.941  33.970  1.00  0.00     0.031 A 
ATOM     87  C   UNL A   1      44.240  22.988  33.790  1.00  0.00     0.131 A 
ATOM     88  C   UNL A   1      46.810  22.828  34.739  1.00  0.00     0.055 A 
ATOM     89  C   UNL A   1      44.607  21.924  34.620  1.00  0.00     0.041 A 
ATOM     90  F   UNL A   1      42.972  22.953  33.354  1.00  0.00    -0.206 F 
ATOM     91  C   UNL A   1      45.906  21.829  35.088  1.00  0.00     0.022 A 
BRANCH  88  92
ATOM     92  S   UNL A   1      48.552  22.684  35.220  1.00  0.00     0.124 S 
ATOM     93  O   UNL A   1      48.691  21.244  35.419  1.00  0.00    -0.237 OA
ATOM     94  O   UNL A   1      49.244  23.233  34.058  1.00  0.00    -0.237 OA
ATOM     95  O   UNL A   1      48.643  23.490  36.436  1.00  0.00    -0.744 OA
ENDBRANCH  88  92
ENDBRANCH  62  85
ENDBRANCH  36  37
ENDBRANCH  28  31
ENDBRANCH  26  27
ENDBRANCH   1  26
TORSDOF 16
ENDMDL
MODEL 2
REMARK VINA RESULT:     -13.2      4.226     10.710
REMARK SMILES Cc1c(NC(=O)c2ccc(I)cc2)cccc1C(=O)NCCCCNC(=O)c1ccc(-c2c3nc(c(-c4cc(S(=O)(=O)[O-])ccc4F)c4ccc([nH]4)c(-c4cc(S(=O)(=O)[O-])ccc4F)c4nc(c(-c5cc(S(=O)(=O)[O-])ccc5F)c5ccc2[nH]5)C=C4)C=C3)cc1
REMARK SMILES IDX 23 1 22 2 21 3 20 4 18 5 19 6 17 8 1 9 2 10 3 11 14 12 16 13
REMARK SMILES IDX 15 14 4 15 5 16 6 18 7 19 8 20 13 21 9 22 12 23 10 24 11 25
REMARK SMILES IDX 24 26 25 27 26 28 27 30 28 31 29 32 90 33 30 34 89 35 31 36
REMARK SMILES IDX 32 37 33 38 83 39 34 40 88 41 82 42 84 43 35 44 87 45 81 46
REMARK SMILES IDX 80 47 36 49 68 50 48 51 67 52 49 53 52 54 66 55 85 56 50 57
REMARK SMILES IDX 51 58 65 60 86 61 53 62 37 63 38 64 46 65 39 66 45 67 47 68
REMARK SMILES IDX 44 69 40 70 41 71 42 72 43 73 69 74 70 75 78 76 71 77 77 78
REMARK SMILES IDX 79 79 76 80 72 81 73 82 74 83 75 84 54 85 55 86 63 87 56 88
REMARK SMILES IDX 62 89 64 90 61 91 57 92 58 93 59 94 60 95
REMARK H PARENT 20 7 4 17 25 29 84 48 52 59
REMARK Flexibility Score: inf
ROOT
ATOM      1  C   UNL A   1      38.516  21.541  25.748  1.00  0.00     0.023 C 
ENDROOT
BRANCH   1   2
ATOM      2  C   UNL A   1      37.243  21.524  24.908  1.00  0.00     0.023 C 
BRANCH   2   3
ATOM      3  C   UNL A   1      35.928  21.587  25.710  1.00  0.00     0.116 C 
BRANCH   3   4
ATOM      4  N   UNL A   1      35.034  20.512  25.306  1.00  0.00    -0.352 N 
ATOM      5  C   UNL A   1      33.725  20.444  24.908  1.00  0.00     0.251 C 
ATOM      6  O   UNL A   1      33.289  19.305  24.703  1.00  0.00    -0.269 OA
ATOM      7  H   UNL A   1      35.472  19.630  25.320  1.00  0.00     0.163 HD
BRANCH   5   8
ATOM      8  C   UNL A   1      32.810  21.601  24.627  1.00  0.00     0.044 A 
ATOM      9  C   UNL A   1      34.074  22.692  22.683  1.00  0.00     0.047 C 
ATOM     10  C   UNL A   1      32.893  22.566  23.600  1.00  0.00    -0.015 A 
ATOM     11  C   UNL A   1      31.926  23.599  23.532  1.00  0.00     0.045 A 
ATOM     12  C   UNL A   1      30.988  23.775  24.551  1.00  0.00     0.026 A 
ATOM     13  C   UNL A   1      31.831  21.796  25.629  1.00  0.00     0.014 A 
ATOM     14  C   UNL A   1      30.954  22.881  25.612  1.00  0.00     0.003 A 
BRANCH  11  15
ATOM     15  N   UNL A   1      31.917  24.433  22.398  1.00  0.00    -0.322 N 
ATOM     16  C   UNL A   1      31.739  25.792  22.306  1.00  0.00     0.255 C 
ATOM     17  H   UNL A   1      32.059  23.973  21.539  1.00  0.00     0.170 HD
ATOM     18  O   UNL A   1      31.367  26.307  21.253  1.00  0.00    -0.269 OA
BRANCH  16  19
ATOM     19  C   UNL A   1      32.127  26.685  23.433  1.00  0.00     0.040 A 
ATOM     20  C   UNL A   1      31.123  27.448  24.041  1.00  0.00     0.015 A 
ATOM     21  C   UNL A   1      33.463  26.880  23.814  1.00  0.00     0.015 A 
ATOM     22  C   UNL A   1      31.442  28.357  25.053  1.00  0.00     0.015 A 
ATOM     23  C   UNL A   1      33.782  27.776  24.838  1.00  0.00     0.015 A 
ATOM     24  C   UNL A   1      32.769  28.508  25.455  1.00  0.00     0.013 A 
ATOM     25  I   UNL A   1      33.243  29.851  26.968  1.00  0.00    -0.044 I 
ENDBRANCH  16  19
ENDBRANCH  11  15
ENDBRANCH   5   8
ENDBRANCH   3   4
ENDBRANCH   2   3
ENDBRANCH   1   2
BRANCH   1  26
ATOM     26  C   UNL A   1      38.953  22.950  26.100  1.00  0.00     0.116 C 
BRANCH  26  27
ATOM     27  N   UNL A   1      40.321  23.066  26.597  1.00  0.00    -0.352 N 
ATOM     28  C   UNL A   1      41.005  24.219  26.946  1.00  0.00     0.251 C 
ATOM     29  H   UNL A   1      40.819  22.222  26.697  1.00  0.00     0.163 HD
ATOM     30  O   UNL A   1      42.198  24.203  27.241  1.00  0.00    -0.269 OA
BRANCH  28  31
ATOM     31  C   UNL A   1      40.230  25.475  27.080  1.00  0.00     0.039 A 
ATOM     32  C   UNL A   1      40.694  26.590  26.376  1.00  0.00     0.014 A 
ATOM     33  C   UNL A   1      39.318  25.619  28.121  1.00  0.00     0.014 A 
ATOM     34  C   UNL A   1      40.457  27.860  26.892  1.00  0.00     0.010 A 
ATOM     35  C   UNL A   1      39.201  26.863  28.708  1.00  0.00     0.010 A 
ATOM     36  C   UNL A   1      39.827  27.975  28.132  1.00  0.00    -0.014 A 
BRANCH  36  37
ATOM     37  C   UNL A   1      39.933  29.170  28.965  1.00  0.00     0.031 A 
ATOM     38  C   UNL A   1      38.889  30.214  28.929  1.00  0.00     0.074 A 
ATOM     39  C   UNL A   1      40.963  29.296  29.832  1.00  0.00     0.049 A 
ATOM     40  N   UNL A   1      39.074  31.446  29.270  1.00  0.00    -0.248 NA
ATOM     41  C   UNL A   1      37.541  29.956  28.444  1.00  0.00     0.031 C 
ATOM     42  C   UNL A   1      41.099  30.264  30.917  1.00  0.00     0.029 A 
ATOM     43  N   UNL A   1      42.223  28.708  29.737  1.00  0.00    -0.354 N 
ATOM     44  C   UNL A   1      37.839  32.047  29.357  1.00  0.00     0.074 A 
ATOM     45  C   UNL A   1      36.934  31.106  28.743  1.00  0.00     0.031 C 
ATOM     46  C   UNL A   1      42.400  30.402  31.216  1.00  0.00     0.029 A 
ATOM     47  C   UNL A   1      43.155  29.627  30.249  1.00  0.00     0.049 A 
ATOM     48  H   UNL A   1      42.422  27.814  29.377  1.00  0.00     0.167 HD
ATOM     49  C   UNL A   1      37.708  33.201  30.075  1.00  0.00     0.034 A 
ATOM     50  C   UNL A   1      44.166  30.107  29.468  1.00  0.00     0.034 A 
ATOM     51  C   UNL A   1      39.014  33.708  30.514  1.00  0.00     0.049 A 
ATOM     52  C   UNL A   1      44.105  31.603  29.253  1.00  0.00     0.074 A 
ATOM     53  C   UNL A   1      39.671  33.700  31.735  1.00  0.00     0.029 A 
ATOM     54  N   UNL A   1      39.960  34.089  29.566  1.00  0.00    -0.354 N 
ATOM     55  N   UNL A   1      43.072  32.344  29.553  1.00  0.00    -0.248 NA
ATOM     56  C   UNL A   1      45.191  32.382  28.667  1.00  0.00     0.031 C 
ATOM     57  C   UNL A   1      41.038  34.010  31.501  1.00  0.00     0.029 A 
ATOM     58  C   UNL A   1      41.206  34.238  30.146  1.00  0.00     0.049 A 
ATOM     59  H   UNL A   1      39.768  34.234  28.612  1.00  0.00     0.167 HD
ATOM     60  C   UNL A   1      43.311  33.646  29.192  1.00  0.00     0.074 A 
ATOM     61  C   UNL A   1      44.667  33.622  28.670  1.00  0.00     0.031 C 
ATOM     62  C   UNL A   1      42.363  34.621  29.342  1.00  0.00     0.034 A 
BRANCH  49  63
ATOM     63  C   UNL A   1      36.390  33.691  30.658  1.00  0.00     0.023 A 
ATOM     64  C   UNL A   1      35.454  34.320  29.806  1.00  0.00     0.031 A 
ATOM     65  C   UNL A   1      36.016  33.651  32.015  1.00  0.00     0.131 A 
ATOM     66  C   UNL A   1      34.309  34.967  30.312  1.00  0.00     0.055 A 
ATOM     67  C   UNL A   1      34.910  34.344  32.529  1.00  0.00     0.041 A 
ATOM     68  F   UNL A   1      36.657  32.888  32.906  1.00  0.00    -0.206 F 
ATOM     69  C   UNL A   1      34.057  35.023  31.678  1.00  0.00     0.022 A 
BRANCH  66  70
ATOM     70  S   UNL A   1      33.146  35.742  29.157  1.00  0.00     0.124 S 
ATOM     71  O   UNL A   1      34.019  36.601  28.364  1.00  0.00    -0.237 OA
ATOM     72  O   UNL A   1      32.578  34.586  28.470  1.00  0.00    -0.237 OA
ATOM     73  O   UNL A   1      32.216  36.452  30.036  1.00  0.00    -0.744 OA
ENDBRANCH  66  70
ENDBRANCH  49  63
BRANCH  50  74
ATOM     74  C   UNL A   1      44.681  29.092  28.505  1.00  0.00     0.023 A 
ATOM     75  C   UNL A   1      45.455  28.043  29.051  1.00  0.00     0.031 A 
ATOM     76  C   UNL A   1      44.115  28.901  27.240  1.00  0.00     0.131 A 
ATOM     77  C   UNL A   1      45.488  26.789  28.428  1.00  0.00     0.055 A 
ATOM     78  C   UNL A   1      44.220  27.667  26.580  1.00  0.00     0.041 A 
ATOM     79  F   UNL A   1      43.340  29.844  26.687  1.00  0.00    -0.206 F 
ATOM     80  C   UNL A   1      44.865  26.591  27.194  1.00  0.00     0.022 A 
BRANCH  77  81
ATOM     81  S   UNL A   1      46.096  25.363  29.382  1.00  0.00     0.124 S 
ATOM     82  O   UNL A   1      47.540  25.554  29.328  1.00  0.00    -0.237 OA
ATOM     83  O   UNL A   1      45.477  25.552  30.694  1.00  0.00    -0.237 OA
ATOM     84  O   UNL A   1      45.579  24.214  28.642  1.00  0.00    -0.744 OA
ENDBRANCH  77  81
ENDBRANCH  50  74
BRANCH  62  85
ATOM     85  C   UNL A   1      42.454  36.044  28.822  1.00  0.00     0.023 A 
ATOM     86  C   UNL A   1      43.052  37.098  29.530  1.00  0.00     0.031 A 
ATOM     87  C   UNL A   1      41.988  36.372  27.523  1.00  0.00     0.131 A 
ATOM     88  C   UNL A   1      43.099  38.402  28.998  1.00  0.00     0.055 A 
ATOM     89  C   UNL A   1      42.108  37.649  26.965  1.00  0.00     0.041 A 
ATOM     90  F   UNL A   1      41.401  35.463  26.731  1.00  0.00    -0.206 F 
ATOM     91  C   UNL A   1      42.652  38.680  27.710  1.00  0.00     0.022 A 
BRANCH  88  92
ATOM     92  S   UNL A   1      43.701  39.743  30.060  1.00  0.00     0.124 S 
ATOM     93  O   UNL A   1      44.931  40.136  29.379  1.00  0.00    -0.237 OA
ATOM     94  O   UNL A   1      42.606  40.705  29.999  1.00  0.00    -0.237 OA
ATOM     95  O   UNL A   1      43.890  39.098  31.358  1.00  0.00    -0.744 OA
ENDBRANCH  88  92
ENDBRANCH  62  85
ENDBRANCH  36  37
ENDBRANCH  28  31
ENDBRANCH  26  27
ENDBRANCH   1  26
TORSDOF 16
ENDMDL
MODEL 3
REMARK VINA RESULT:     -12.8      2.669      3.737
REMARK SMILES Cc1c(NC(=O)c2ccc(I)cc2)cccc1C(=O)NCCCCNC(=O)c1ccc(-c2c3nc(c(-c4cc(S(=O)(=O)[O-])ccc4F)c4ccc([nH]4)c(-c4cc(S(=O)(=O)[O-])ccc4F)c4nc(c(-c5cc(S(=O)(=O)[O-])ccc5F)c5ccc2[nH]5)C=C4)C=C3)cc1
REMARK SMILES IDX 23 1 22 2 21 3 20 4 18 5 19 6 17 8 1 9 2 10 3 11 14 12 16 13
REMARK SMILES IDX 15 14 4 15 5 16 6 18 7 19 8 20 13 21 9 22 12 23 10 24 11 25
REMARK SMILES IDX 24 26 25 27 26 28 27 30 28 31 29 32 90 33 30 34 89 35 31 36
REMARK SMILES IDX 32 37 33 38 83 39 34 40 88 41 82 42 84 43 35 44 87 45 81 46
REMARK SMILES IDX 80 47 36 49 68 50 48 51 67 52 49 53 52 54 66 55 85 56 50 57
REMARK SMILES IDX 51 58 65 60 86 61 53 62 37 63 38 64 46 65 39 66 45 67 47 68
REMARK SMILES IDX 44 69 40 70 41 71 42 72 43 73 69 74 70 75 78 76 71 77 77 78
REMARK SMILES IDX 79 79 76 80 72 81 73 82 74 83 75 84 54 85 55 86 63 87 56 88
REMARK SMILES IDX 62 89 64 90 61 91 57 92 58 93 59 94 60 95
REMARK H PARENT 20 7 4 17 25 29 84 48 52 59
REMARK Flexibility Score: inf
ROOT
ATOM      1  C   UNL A   1      34.677  29.625  27.623  1.00  0.00     0.023 C 
ENDROOT
BRANCH   1   2
ATOM      2  C   UNL A   1      33.304  29.540  26.966  1.00  0.00     0.023 C 
BRANCH   2   3
ATOM      3  C   UNL A   1      33.320  29.324  25.440  1.00  0.00     0.116 C 
BRANCH   3   4
ATOM      4  N   UNL A   1      32.040  29.702  24.859  1.00  0.00    -0.352 N 
ATOM      5  C   UNL A   1      31.067  29.044  24.156  1.00  0.00     0.251 C 
ATOM      6  O   UNL A   1      30.124  29.744  23.765  1.00  0.00    -0.269 OA
ATOM      7  H   UNL A   1      31.823  30.652  25.007  1.00  0.00     0.163 HD
BRANCH   5   8
ATOM      8  C   UNL A   1      30.995  27.567  23.886  1.00  0.00     0.044 A 
ATOM      9  C   UNL A   1      30.704  26.703  26.281  1.00  0.00     0.047 C 
ATOM     10  C   UNL A   1      30.755  26.514  24.793  1.00  0.00    -0.015 A 
ATOM     11  C   UNL A   1      30.755  25.176  24.327  1.00  0.00     0.045 A 
ATOM     12  C   UNL A   1      31.144  24.870  23.021  1.00  0.00     0.026 A 
ATOM     13  C   UNL A   1      31.362  27.223  22.565  1.00  0.00     0.014 A 
ATOM     14  C   UNL A   1      31.466  25.896  22.144  1.00  0.00     0.003 A 
BRANCH  11  15
ATOM     15  N   UNL A   1      30.329  24.161  25.204  1.00  0.00    -0.322 N 
ATOM     16  C   UNL A   1      30.936  22.976  25.540  1.00  0.00     0.255 C 
ATOM     17  H   UNL A   1      29.463  24.324  25.643  1.00  0.00     0.170 HD
ATOM     18  O   UNL A   1      30.280  22.039  25.992  1.00  0.00    -0.269 OA
BRANCH  16  19
ATOM     19  C   UNL A   1      32.419  22.846  25.498  1.00  0.00     0.040 A 
ATOM     20  C   UNL A   1      33.172  23.627  26.383  1.00  0.00     0.015 A 
ATOM     21  C   UNL A   1      33.081  22.076  24.530  1.00  0.00     0.015 A 
ATOM     22  C   UNL A   1      34.567  23.600  26.338  1.00  0.00     0.015 A 
ATOM     23  C   UNL A   1      34.478  22.034  24.494  1.00  0.00     0.015 A 
ATOM     24  C   UNL A   1      35.215  22.794  25.401  1.00  0.00     0.013 A 
ATOM     25  I   UNL A   1      37.291  22.744  25.340  1.00  0.00    -0.044 I 
ENDBRANCH  16  19
ENDBRANCH  11  15
ENDBRANCH   5   8
ENDBRANCH   3   4
ENDBRANCH   2   3
ENDBRANCH   1   2
BRANCH   1  26
ATOM     26  C   UNL A   1      35.227  31.039  27.624  1.00  0.00     0.116 C 
BRANCH  26  27
ATOM     27  N   UNL A   1      34.264  32.076  27.980  1.00  0.00    -0.352 N 
ATOM     28  C   UNL A   1      34.360  33.014  28.994  1.00  0.00     0.251 C 
ATOM     29  H   UNL A   1      33.445  32.112  27.434  1.00  0.00     0.163 HD
ATOM     30  O   UNL A   1      33.428  33.764  29.276  1.00  0.00    -0.269 OA
BRANCH  28  31
ATOM     31  C   UNL A   1      35.671  33.185  29.663  1.00  0.00     0.039 A 
ATOM     32  C   UNL A   1      36.683  33.813  28.931  1.00  0.00     0.014 A 
ATOM     33  C   UNL A   1      35.970  32.446  30.803  1.00  0.00     0.014 A 
ATOM     34  C   UNL A   1      38.009  33.472  29.184  1.00  0.00     0.010 A 
ATOM     35  C   UNL A   1      37.267  32.002  30.962  1.00  0.00     0.010 A 
ATOM     36  C   UNL A   1      38.278  32.462  30.108  1.00  0.00    -0.014 A 
BRANCH  36  37
ATOM     37  C   UNL A   1      39.535  31.718  30.123  1.00  0.00     0.031 A 
ATOM     38  C   UNL A   1      39.631  30.380  29.507  1.00  0.00     0.074 A 
ATOM     39  C   UNL A   1      40.646  32.286  30.645  1.00  0.00     0.049 A 
ATOM     40  N   UNL A   1      40.514  29.491  29.820  1.00  0.00    -0.248 NA
ATOM     41  C   UNL A   1      38.683  29.910  28.507  1.00  0.00     0.031 C 
ATOM     42  C   UNL A   1      42.025  31.824  30.515  1.00  0.00     0.029 A 
ATOM     43  N   UNL A   1      40.707  33.280  31.619  1.00  0.00    -0.354 N 
ATOM     44  C   UNL A   1      40.460  28.493  28.874  1.00  0.00     0.074 A 
ATOM     45  C   UNL A   1      39.245  28.756  28.140  1.00  0.00     0.031 C 
ATOM     46  C   UNL A   1      42.749  32.325  31.528  1.00  0.00     0.029 A 
ATOM     47  C   UNL A   1      41.835  33.018  32.416  1.00  0.00     0.049 A 
ATOM     48  H   UNL A   1      40.077  34.028  31.728  1.00  0.00     0.167 HD
ATOM     49  C   UNL A   1      41.528  27.654  28.727  1.00  0.00     0.034 A 
ATOM     50  C   UNL A   1      41.706  32.786  33.755  1.00  0.00     0.034 A 
ATOM     51  C   UNL A   1      42.531  27.879  29.774  1.00  0.00     0.049 A 
ATOM     52  C   UNL A   1      42.159  31.405  34.175  1.00  0.00     0.074 A 
ATOM     53  C   UNL A   1      43.764  28.514  29.785  1.00  0.00     0.029 A 
ATOM     54  N   UNL A   1      42.198  27.657  31.108  1.00  0.00    -0.354 N 
ATOM     55  N   UNL A   1      42.408  30.431  33.342  1.00  0.00    -0.248 NA
ATOM     56  C   UNL A   1      42.349  31.003  35.566  1.00  0.00     0.031 C 
ATOM     57  C   UNL A   1      44.134  28.736  31.139  1.00  0.00     0.029 A 
ATOM     58  C   UNL A   1      43.145  28.208  31.951  1.00  0.00     0.049 A 
ATOM     59  H   UNL A   1      41.397  27.172  31.411  1.00  0.00     0.167 HD
ATOM     60  C   UNL A   1      42.748  29.298  34.036  1.00  0.00     0.074 A 
ATOM     61  C   UNL A   1      42.727  29.719  35.427  1.00  0.00     0.031 C 
ATOM     62  C   UNL A   1      43.001  28.112  33.401  1.00  0.00     0.034 A 
BRANCH  49  63
ATOM     63  C   UNL A   1      41.815  26.865  27.459  1.00  0.00     0.023 A 
ATOM     64  C   UNL A   1      41.965  25.462  27.541  1.00  0.00     0.031 A 
ATOM     65  C   UNL A   1      42.030  27.404  26.175  1.00  0.00     0.131 A 
ATOM     66  C   UNL A   1      42.423  24.699  26.448  1.00  0.00     0.055 A 
ATOM     67  C   UNL A   1      42.542  26.659  25.103  1.00  0.00     0.041 A 
ATOM     68  F   UNL A   1      41.692  28.661  25.868  1.00  0.00    -0.206 F 
ATOM     69  C   UNL A   1      42.758  25.300  25.241  1.00  0.00     0.022 A 
BRANCH  66  70
ATOM     70  S   UNL A   1      42.578  22.901  26.625  1.00  0.00     0.124 S 
ATOM     71  O   UNL A   1      44.000  22.738  26.911  1.00  0.00    -0.237 OA
ATOM     72  O   UNL A   1      41.660  22.620  27.724  1.00  0.00    -0.237 OA
ATOM     73  O   UNL A   1      42.150  22.394  25.321  1.00  0.00    -0.744 OA
ENDBRANCH  66  70
ENDBRANCH  49  63
BRANCH  50  74
ATOM     74  C   UNL A   1      40.615  33.590  34.377  1.00  0.00     0.023 A 
ATOM     75  C   UNL A   1      39.591  32.865  35.027  1.00  0.00     0.031 A 
ATOM     76  C   UNL A   1      40.769  34.942  34.701  1.00  0.00     0.131 A 
ATOM     77  C   UNL A   1      38.888  33.435  36.095  1.00  0.00     0.055 A 
ATOM     78  C   UNL A   1      40.004  35.534  35.718  1.00  0.00     0.041 A 
ATOM     79  F   UNL A   1      41.747  35.672  34.146  1.00  0.00    -0.206 F 
ATOM     80  C   UNL A   1      39.096  34.769  36.453  1.00  0.00     0.022 A 
BRANCH  77  81
ATOM     81  S   UNL A   1      37.929  32.338  37.186  1.00  0.00     0.124 S 
ATOM     82  O   UNL A   1      38.775  32.270  38.370  1.00  0.00    -0.237 OA
ATOM     83  O   UNL A   1      36.663  33.054  37.348  1.00  0.00    -0.237 OA
ATOM     84  O   UNL A   1      37.817  31.103  36.414  1.00  0.00    -0.744 OA
ENDBRANCH  77  81
ENDBRANCH  50  74
BRANCH  62  85
ATOM     85  C   UNL A   1      43.213  26.767  34.071  1.00  0.00     0.023 A 
ATOM     86  C   UNL A   1      44.454  26.116  34.140  1.00  0.00     0.031 A 
ATOM     87  C   UNL A   1      42.147  26.117  34.743  1.00  0.00     0.131 A 
ATOM     88  C   UNL A   1      44.587  24.862  34.769  1.00  0.00     0.055 A 
ATOM     89  C   UNL A   1      42.299  24.911  35.436  1.00  0.00     0.041 A 
ATOM     90  F   UNL A   1      40.907  26.628  34.766  1.00  0.00    -0.206 F 
ATOM     91  C   UNL A   1      43.523  24.265  35.438  1.00  0.00     0.022 A 
BRANCH  88  92
ATOM     92  S   UNL A   1      46.174  23.996  34.634  1.00  0.00     0.124 S 
ATOM     93  O   UNL A   1      45.748  22.631  34.342  1.00  0.00    -0.237 OA
ATOM     94  O   UNL A   1      46.825  24.705  33.538  1.00  0.00    -0.237 OA
ATOM     95  O   UNL A   1      46.785  24.187  35.948  1.00  0.00    -0.744 OA
ENDBRANCH  88  92
ENDBRANCH  62  85
ENDBRANCH  36  37
ENDBRANCH  28  31
ENDBRANCH  26  27
ENDBRANCH   1  26
TORSDOF 16
ENDMDL
