MODEL 1
REMARK VINA RESULT:     -10.5      0.000      0.000
REMARK SMILES Cc1cc(Br)cc([N+](=O)[O-])c1OCCC[C@@](C)([NH3+])C(=O)NCCCCNC(=O)c1ccc(-c2c3nc(c(-c4cc(S(=O)(=O)[O-])ccc4F)c4ccc([nH]4)c(-c4cc(S(=O)(=O)[O-])ccc4F)c4nc(c(-c5cc(S(=O)(=O)[O-])ccc5F)c5ccc2[nH]5)C=C4)C=C3)cc1
REMARK SMILES IDX 22 1 21 2 19 3 20 4 16 6 17 7 15 8 14 9 13 10 12 11 11 12
REMARK SMILES IDX 1 13 2 14 3 15 4 16 7 17 5 18 6 19 8 20 9 21 10 22 18 23
REMARK SMILES IDX 23 27 24 28 25 29 26 30 27 31 28 33 29 34 30 35 91 36 31 37
REMARK SMILES IDX 90 38 32 39 33 40 34 41 84 42 35 43 89 44 83 45 85 46 36 47
REMARK SMILES IDX 88 48 82 49 81 50 37 52 69 53 49 54 68 55 50 56 53 57 67 58
REMARK SMILES IDX 86 59 51 60 52 61 66 63 87 64 54 65 38 66 39 67 47 68 40 69
REMARK SMILES IDX 46 70 48 71 45 72 41 73 42 74 43 75 44 76 70 77 71 78 79 79
REMARK SMILES IDX 72 80 78 81 80 82 77 83 73 84 74 85 75 86 76 87 55 88 56 89
REMARK SMILES IDX 64 90 57 91 63 92 65 93 62 94 58 95 59 96 60 97 61 98
REMARK H PARENT 21 5 18 24 18 25 18 26 26 32 85 51 53 62
REMARK Flexibility Score: inf
ROOT
ATOM      1  C   UNL A   1      34.116  25.668  25.453  1.00  0.00     0.116 C 
ENDROOT
BRANCH   1   2
ATOM      2  N   UNL A   1      33.151  26.070  26.460  1.00  0.00    -0.351 N 
ATOM      3  C   UNL A   1      32.489  27.232  26.698  1.00  0.00     0.280 C 
ATOM      4  O   UNL A   1      31.472  27.107  27.392  1.00  0.00    -0.268 OA
ATOM      5  H   UNL A   1      32.932  25.355  27.101  1.00  0.00     0.163 HD
BRANCH   3   6
ATOM      6  C   UNL A   1      32.900  28.630  26.135  1.00  0.00     0.171 C 
ATOM      7  C   UNL A   1      34.366  28.834  26.544  1.00  0.00     0.090 C 
BRANCH   6   8
ATOM      8  C   UNL A   1      32.726  28.786  24.580  1.00  0.00     0.082 C 
BRANCH   8   9
ATOM      9  C   UNL A   1      31.341  28.632  23.916  1.00  0.00     0.049 C 
BRANCH   9  10
ATOM     10  C   UNL A   1      31.299  28.134  22.446  1.00  0.00     0.230 C 
BRANCH  10  11
ATOM     11  O   UNL A   1      30.645  26.854  22.368  1.00  0.00    -0.487 OA
BRANCH  11  12
ATOM     12  C   UNL A   1      31.308  25.764  22.892  1.00  0.00     0.200 A 
ATOM     13  C   UNL A   1      29.710  25.619  24.876  1.00  0.00     0.049 C 
ATOM     14  C   UNL A   1      30.707  25.038  23.938  1.00  0.00    -0.001 A 
ATOM     15  C   UNL A   1      31.002  23.678  24.130  1.00  0.00     0.023 A 
ATOM     16  C   UNL A   1      31.952  23.048  23.347  1.00  0.00     0.025 A 
ATOM     17  C   UNL A   1      32.347  25.133  22.184  1.00  0.00     0.312 A 
ATOM     18  Br  UNL A   1      32.256  21.198  23.572  1.00  0.00    -0.051 Br
ATOM     19  C   UNL A   1      32.669  23.777  22.410  1.00  0.00     0.105 A 
BRANCH  17  20
ATOM     20  N   UNL A   1      33.176  25.863  21.225  1.00  0.00     0.066 N 
ATOM     21  O   UNL A   1      34.021  26.647  21.686  1.00  0.00    -0.258 OA
ATOM     22  O   UNL A   1      32.944  25.722  20.018  1.00  0.00    -0.258 OA
ENDBRANCH  17  20
ENDBRANCH  11  12
ENDBRANCH  10  11
ENDBRANCH   9  10
ENDBRANCH   8   9
ENDBRANCH   6   8
BRANCH   6  23
ATOM     23  N   UNL A   1      32.168  29.758  26.768  1.00  0.00    -0.345 N 
ATOM     24  H   UNL A   1      31.790  30.367  26.044  1.00  0.00     0.345 HD
ATOM     25  H   UNL A   1      32.807  30.289  27.360  1.00  0.00     0.345 HD
ATOM     26  H   UNL A   1      31.404  29.391  27.337  1.00  0.00     0.345 HD
ENDBRANCH   6  23
ENDBRANCH   3   6
ENDBRANCH   1   2
BRANCH   1  27
ATOM     27  C   UNL A   1      34.458  24.179  25.542  1.00  0.00     0.023 C 
BRANCH  27  28
ATOM     28  C   UNL A   1      35.862  23.848  26.064  1.00  0.00     0.023 C 
BRANCH  28  29
ATOM     29  C   UNL A   1      36.880  23.425  25.008  1.00  0.00     0.116 C 
BRANCH  29  30
ATOM     30  N   UNL A   1      37.849  22.463  25.504  1.00  0.00    -0.352 N 
ATOM     31  C   UNL A   1      38.993  22.666  26.231  1.00  0.00     0.251 C 
ATOM     32  H   UNL A   1      37.653  21.523  25.285  1.00  0.00     0.163 HD
ATOM     33  O   UNL A   1      39.724  21.707  26.471  1.00  0.00    -0.269 OA
BRANCH  31  34
ATOM     34  C   UNL A   1      39.372  24.024  26.678  1.00  0.00     0.039 A 
ATOM     35  C   UNL A   1      39.048  24.403  27.983  1.00  0.00     0.014 A 
ATOM     36  C   UNL A   1      40.031  24.923  25.834  1.00  0.00     0.014 A 
ATOM     37  C   UNL A   1      39.431  25.658  28.456  1.00  0.00     0.010 A 
ATOM     38  C   UNL A   1      40.481  26.145  26.332  1.00  0.00     0.010 A 
ATOM     39  C   UNL A   1      40.180  26.529  27.647  1.00  0.00    -0.014 A 
BRANCH  39  40
ATOM     40  C   UNL A   1      40.645  27.837  28.180  1.00  0.00     0.031 A 
ATOM     41  C   UNL A   1      42.111  28.177  28.200  1.00  0.00     0.074 A 
ATOM     42  C   UNL A   1      39.739  28.712  28.661  1.00  0.00     0.049 A 
ATOM     43  N   UNL A   1      42.698  29.277  28.597  1.00  0.00    -0.248 NA
ATOM     44  C   UNL A   1      43.039  27.134  27.742  1.00  0.00     0.031 C 
ATOM     45  C   UNL A   1      38.296  28.470  28.743  1.00  0.00     0.029 A 
ATOM     46  N   UNL A   1      39.890  29.981  29.160  1.00  0.00    -0.354 N 
ATOM     47  C   UNL A   1      44.063  29.059  28.436  1.00  0.00     0.074 A 
ATOM     48  C   UNL A   1      44.216  27.694  27.977  1.00  0.00     0.031 C 
ATOM     49  C   UNL A   1      37.692  29.571  29.219  1.00  0.00     0.029 A 
ATOM     50  C   UNL A   1      38.702  30.582  29.513  1.00  0.00     0.049 A 
ATOM     51  H   UNL A   1      40.765  30.422  29.256  1.00  0.00     0.167 HD
ATOM     52  C   UNL A   1      45.091  29.924  28.627  1.00  0.00     0.034 A 
ATOM     53  C   UNL A   1      38.456  31.809  30.013  1.00  0.00     0.034 A 
ATOM     54  C   UNL A   1      44.917  31.283  29.084  1.00  0.00     0.049 A 
ATOM     55  C   UNL A   1      39.614  32.751  30.223  1.00  0.00     0.074 A 
ATOM     56  C   UNL A   1      45.880  32.260  29.272  1.00  0.00     0.029 A 
ATOM     57  N   UNL A   1      43.701  31.856  29.436  1.00  0.00    -0.354 N 
ATOM     58  N   UNL A   1      40.894  32.550  30.005  1.00  0.00    -0.248 NA
ATOM     59  C   UNL A   1      39.291  34.091  30.723  1.00  0.00     0.031 C 
ATOM     60  C   UNL A   1      45.258  33.396  29.803  1.00  0.00     0.029 A 
ATOM     61  C   UNL A   1      43.894  33.162  29.865  1.00  0.00     0.049 A 
ATOM     62  H   UNL A   1      42.829  31.402  29.388  1.00  0.00     0.167 HD
ATOM     63  C   UNL A   1      41.524  33.753  30.311  1.00  0.00     0.074 A 
ATOM     64  C   UNL A   1      40.478  34.676  30.705  1.00  0.00     0.031 C 
ATOM     65  C   UNL A   1      42.844  34.070  30.269  1.00  0.00     0.034 A 
BRANCH  52  66
ATOM     66  C   UNL A   1      46.489  29.413  28.362  1.00  0.00     0.023 A 
ATOM     67  C   UNL A   1      47.260  28.810  29.373  1.00  0.00     0.031 A 
ATOM     68  C   UNL A   1      47.073  29.554  27.090  1.00  0.00     0.131 A 
ATOM     69  C   UNL A   1      48.592  28.446  29.118  1.00  0.00     0.055 A 
ATOM     70  C   UNL A   1      48.369  29.109  26.820  1.00  0.00     0.041 A 
ATOM     71  F   UNL A   1      46.398  30.142  26.089  1.00  0.00    -0.206 F 
ATOM     72  C   UNL A   1      49.142  28.565  27.842  1.00  0.00     0.022 A 
BRANCH  69  73
ATOM     73  S   UNL A   1      49.638  27.956  30.518  1.00  0.00     0.124 S 
ATOM     74  O   UNL A   1      48.944  28.587  31.638  1.00  0.00    -0.237 OA
ATOM     75  O   UNL A   1      49.575  26.500  30.465  1.00  0.00    -0.237 OA
ATOM     76  O   UNL A   1      50.938  28.538  30.192  1.00  0.00    -0.744 OA
ENDBRANCH  69  73
ENDBRANCH  52  66
BRANCH  53  77
ATOM     77  C   UNL A   1      37.062  32.227  30.340  1.00  0.00     0.023 A 
ATOM     78  C   UNL A   1      36.167  32.626  29.333  1.00  0.00     0.031 A 
ATOM     79  C   UNL A   1      36.615  32.277  31.673  1.00  0.00     0.131 A 
ATOM     80  C   UNL A   1      34.894  33.105  29.676  1.00  0.00     0.055 A 
ATOM     81  C   UNL A   1      35.328  32.701  32.005  1.00  0.00     0.041 A 
ATOM     82  F   UNL A   1      37.427  31.902  32.675  1.00  0.00    -0.206 F 
ATOM     83  C   UNL A   1      34.462  33.132  31.005  1.00  0.00     0.022 A 
BRANCH  80  84
ATOM     84  S   UNL A   1      33.838  33.785  28.366  1.00  0.00     0.124 S 
ATOM     85  O   UNL A   1      33.311  32.572  27.751  1.00  0.00    -0.237 OA
ATOM     86  O   UNL A   1      32.885  34.583  29.130  1.00  0.00    -0.237 OA
ATOM     87  O   UNL A   1      34.769  34.551  27.542  1.00  0.00    -0.744 OA
ENDBRANCH  80  84
ENDBRANCH  53  77
BRANCH  65  88
ATOM     88  C   UNL A   1      43.216  35.493  30.612  1.00  0.00     0.023 A 
ATOM     89  C   UNL A   1      43.316  36.493  29.628  1.00  0.00     0.031 A 
ATOM     90  C   UNL A   1      43.515  35.846  31.940  1.00  0.00     0.131 A 
ATOM     91  C   UNL A   1      43.781  37.771  29.973  1.00  0.00     0.055 A 
ATOM     92  C   UNL A   1      43.904  37.140  32.290  1.00  0.00     0.041 A 
ATOM     93  F   UNL A   1      43.440  34.934  32.924  1.00  0.00    -0.206 F 
ATOM     94  C   UNL A   1      44.057  38.106  31.300  1.00  0.00     0.022 A 
BRANCH  91  95
ATOM     95  S   UNL A   1      44.147  38.950  28.644  1.00  0.00     0.124 S 
ATOM     96  O   UNL A   1      45.552  39.260  28.893  1.00  0.00    -0.237 OA
ATOM     97  O   UNL A   1      43.872  38.165  27.446  1.00  0.00    -0.237 OA
ATOM     98  O   UNL A   1      43.216  40.049  28.893  1.00  0.00    -0.744 OA
ENDBRANCH  91  95
ENDBRANCH  65  88
ENDBRANCH  39  40
ENDBRANCH  31  34
ENDBRANCH  29  30
ENDBRANCH  28  29
ENDBRANCH  27  28
ENDBRANCH   1  27
TORSDOF 21
ENDMDL
MODEL 2
REMARK VINA RESULT:     -10.4      4.467      9.339
REMARK SMILES Cc1cc(Br)cc([N+](=O)[O-])c1OCCC[C@@](C)([NH3+])C(=O)NCCCCNC(=O)c1ccc(-c2c3nc(c(-c4cc(S(=O)(=O)[O-])ccc4F)c4ccc([nH]4)c(-c4cc(S(=O)(=O)[O-])ccc4F)c4nc(c(-c5cc(S(=O)(=O)[O-])ccc5F)c5ccc2[nH]5)C=C4)C=C3)cc1
REMARK SMILES IDX 22 1 21 2 19 3 20 4 16 6 17 7 15 8 14 9 13 10 12 11 11 12
REMARK SMILES IDX 1 13 2 14 3 15 4 16 7 17 5 18 6 19 8 20 9 21 10 22 18 23
REMARK SMILES IDX 23 27 24 28 25 29 26 30 27 31 28 33 29 34 30 35 91 36 31 37
REMARK SMILES IDX 90 38 32 39 33 40 34 41 84 42 35 43 89 44 83 45 85 46 36 47
REMARK SMILES IDX 88 48 82 49 81 50 37 52 69 53 49 54 68 55 50 56 53 57 67 58
REMARK SMILES IDX 86 59 51 60 52 61 66 63 87 64 54 65 38 66 39 67 47 68 40 69
REMARK SMILES IDX 46 70 48 71 45 72 41 73 42 74 43 75 44 76 70 77 71 78 79 79
REMARK SMILES IDX 72 80 78 81 80 82 77 83 73 84 74 85 75 86 76 87 55 88 56 89
REMARK SMILES IDX 64 90 57 91 63 92 65 93 62 94 58 95 59 96 60 97 61 98
REMARK H PARENT 21 5 18 24 18 25 18 26 26 32 85 51 53 62
REMARK Flexibility Score: inf
ROOT
ATOM      1  C   UNL A   1      30.952  26.913  25.288  1.00  0.00     0.116 C 
ENDROOT
BRANCH   1   2
ATOM      2  N   UNL A   1      30.689  27.619  24.047  1.00  0.00    -0.351 N 
ATOM      3  C   UNL A   1      30.904  27.310  22.742  1.00  0.00     0.280 C 
ATOM      4  O   UNL A   1      30.219  27.962  21.943  1.00  0.00    -0.268 OA
ATOM      5  H   UNL A   1      30.271  28.500  24.178  1.00  0.00     0.163 HD
BRANCH   3   6
ATOM      6  C   UNL A   1      31.885  26.207  22.230  1.00  0.00     0.171 C 
ATOM      7  C   UNL A   1      33.298  26.772  22.434  1.00  0.00     0.090 C 
BRANCH   6   8
ATOM      8  C   UNL A   1      31.731  24.814  22.944  1.00  0.00     0.082 C 
BRANCH   8   9
ATOM      9  C   UNL A   1      32.530  23.583  22.465  1.00  0.00     0.049 C 
BRANCH   9  10
ATOM     10  C   UNL A   1      32.074  22.188  22.972  1.00  0.00     0.230 C 
BRANCH  10  11
ATOM     11  O   UNL A   1      32.150  22.125  24.407  1.00  0.00    -0.487 OA
BRANCH  11  12
ATOM     12  C   UNL A   1      33.326  21.668  24.966  1.00  0.00     0.200 A 
ATOM     13  C   UNL A   1      32.599  19.232  24.754  1.00  0.00     0.049 C 
ATOM     14  C   UNL A   1      33.629  20.295  24.891  1.00  0.00    -0.001 A 
ATOM     15  C   UNL A   1      34.962  19.852  24.908  1.00  0.00     0.023 A 
ATOM     16  C   UNL A   1      35.999  20.751  25.083  1.00  0.00     0.025 A 
ATOM     17  C   UNL A   1      34.386  22.547  25.252  1.00  0.00     0.312 A 
ATOM     18  Br  UNL A   1      37.781  20.131  25.008  1.00  0.00    -0.051 Br
ATOM     19  C   UNL A   1      35.721  22.091  25.311  1.00  0.00     0.105 A 
BRANCH  17  20
ATOM     20  N   UNL A   1      34.152  23.958  25.558  1.00  0.00     0.066 N 
ATOM     21  O   UNL A   1      33.278  24.219  26.401  1.00  0.00    -0.258 OA
ATOM     22  O   UNL A   1      34.774  24.811  24.915  1.00  0.00    -0.258 OA
ENDBRANCH  17  20
ENDBRANCH  11  12
ENDBRANCH  10  11
ENDBRANCH   9  10
ENDBRANCH   8   9
ENDBRANCH   6   8
BRANCH   6  23
ATOM     23  N   UNL A   1      31.782  25.959  20.769  1.00  0.00    -0.345 N 
ATOM     24  H   UNL A   1      32.700  25.715  20.399  1.00  0.00     0.345 HD
ATOM     25  H   UNL A   1      31.440  26.801  20.304  1.00  0.00     0.345 HD
ATOM     26  H   UNL A   1      31.133  25.190  20.599  1.00  0.00     0.345 HD
ENDBRANCH   6  23
ENDBRANCH   3   6
ENDBRANCH   1   2
BRANCH   1  27
ATOM     27  C   UNL A   1      31.753  27.762  26.278  1.00  0.00     0.023 C 
BRANCH  27  28
ATOM     28  C   UNL A   1      33.253  27.890  25.983  1.00  0.00     0.023 C 
BRANCH  28  29
ATOM     29  C   UNL A   1      33.685  29.182  25.295  1.00  0.00     0.116 C 
BRANCH  29  30
ATOM     30  N   UNL A   1      33.007  30.358  25.813  1.00  0.00    -0.352 N 
ATOM     31  C   UNL A   1      33.321  31.149  26.888  1.00  0.00     0.251 C 
ATOM     32  H   UNL A   1      32.201  30.628  25.315  1.00  0.00     0.163 HD
ATOM     33  O   UNL A   1      32.551  32.053  27.207  1.00  0.00    -0.269 OA
BRANCH  31  34
ATOM     34  C   UNL A   1      34.540  30.890  27.684  1.00  0.00     0.039 A 
ATOM     35  C   UNL A   1      34.624  29.686  28.389  1.00  0.00     0.014 A 
ATOM     36  C   UNL A   1      35.589  31.812  27.749  1.00  0.00     0.014 A 
ATOM     37  C   UNL A   1      35.779  29.386  29.112  1.00  0.00     0.010 A 
ATOM     38  C   UNL A   1      36.772  31.477  28.408  1.00  0.00     0.010 A 
ATOM     39  C   UNL A   1      36.877  30.263  29.102  1.00  0.00    -0.014 A 
BRANCH  39  40
ATOM     40  C   UNL A   1      38.130  29.905  29.819  1.00  0.00     0.031 A 
ATOM     41  C   UNL A   1      38.401  30.440  31.199  1.00  0.00     0.074 A 
ATOM     42  C   UNL A   1      39.031  29.106  29.212  1.00  0.00     0.049 A 
ATOM     43  N   UNL A   1      39.420  30.212  31.988  1.00  0.00    -0.248 NA
ATOM     44  C   UNL A   1      37.411  31.375  31.754  1.00  0.00     0.031 C 
ATOM     45  C   UNL A   1      38.902  28.571  27.854  1.00  0.00     0.029 A 
ATOM     46  N   UNL A   1      40.224  28.595  29.656  1.00  0.00    -0.354 N 
ATOM     47  C   UNL A   1      39.195  30.974  33.130  1.00  0.00     0.074 A 
ATOM     48  C   UNL A   1      37.980  31.727  32.896  1.00  0.00     0.031 C 
ATOM     49  C   UNL A   1      39.950  27.773  27.594  1.00  0.00     0.029 A 
ATOM     50  C   UNL A   1      40.845  27.768  28.746  1.00  0.00     0.049 A 
ATOM     51  H   UNL A   1      40.601  28.799  30.542  1.00  0.00     0.167 HD
ATOM     52  C   UNL A   1      39.918  31.021  34.278  1.00  0.00     0.034 A 
ATOM     53  C   UNL A   1      42.001  27.082  28.833  1.00  0.00     0.034 A 
ATOM     54  C   UNL A   1      41.127  30.260  34.492  1.00  0.00     0.049 A 
ATOM     55  C   UNL A   1      42.791  27.154  30.115  1.00  0.00     0.074 A 
ATOM     56  C   UNL A   1      41.917  30.197  35.627  1.00  0.00     0.029 A 
ATOM     57  N   UNL A   1      41.728  29.437  33.548  1.00  0.00    -0.354 N 
ATOM     58  N   UNL A   1      42.530  27.831  31.210  1.00  0.00    -0.248 NA
ATOM     59  C   UNL A   1      44.018  26.353  30.179  1.00  0.00     0.031 C 
ATOM     60  C   UNL A   1      43.029  29.396  35.346  1.00  0.00     0.029 A 
ATOM     61  C   UNL A   1      42.892  28.886  34.065  1.00  0.00     0.049 A 
ATOM     62  H   UNL A   1      41.380  29.269  32.642  1.00  0.00     0.167 HD
ATOM     63  C   UNL A   1      43.546  27.507  32.106  1.00  0.00     0.074 A 
ATOM     64  C   UNL A   1      44.406  26.559  31.428  1.00  0.00     0.031 C 
ATOM     65  C   UNL A   1      43.750  27.950  33.374  1.00  0.00     0.034 A 
BRANCH  52  66
ATOM     66  C   UNL A   1      39.428  31.942  35.372  1.00  0.00     0.023 A 
ATOM     67  C   UNL A   1      39.889  33.267  35.485  1.00  0.00     0.031 A 
ATOM     68  C   UNL A   1      38.509  31.485  36.334  1.00  0.00     0.131 A 
ATOM     69  C   UNL A   1      39.494  34.058  36.575  1.00  0.00     0.055 A 
ATOM     70  C   UNL A   1      38.053  32.306  37.367  1.00  0.00     0.041 A 
ATOM     71  F   UNL A   1      38.049  30.224  36.294  1.00  0.00    -0.206 F 
ATOM     72  C   UNL A   1      38.557  33.596  37.501  1.00  0.00     0.022 A 
BRANCH  69  73
ATOM     73  S   UNL A   1      40.338  35.640  36.848  1.00  0.00     0.124 S 
ATOM     74  O   UNL A   1      39.659  36.506  35.887  1.00  0.00    -0.237 OA
ATOM     75  O   UNL A   1      40.063  35.907  38.254  1.00  0.00    -0.237 OA
ATOM     76  O   UNL A   1      41.733  35.342  36.529  1.00  0.00    -0.744 OA
ENDBRANCH  69  73
ENDBRANCH  52  66
BRANCH  53  77
ATOM     77  C   UNL A   1      42.480  26.258  27.685  1.00  0.00     0.023 A 
ATOM     78  C   UNL A   1      42.257  24.872  27.642  1.00  0.00     0.031 A 
ATOM     79  C   UNL A   1      43.211  26.839  26.633  1.00  0.00     0.131 A 
ATOM     80  C   UNL A   1      42.801  24.107  26.599  1.00  0.00     0.055 A 
ATOM     81  C   UNL A   1      43.701  26.083  25.568  1.00  0.00     0.041 A 
ATOM     82  F   UNL A   1      43.449  28.161  26.621  1.00  0.00    -0.206 F 
ATOM     83  C   UNL A   1      43.510  24.705  25.553  1.00  0.00     0.022 A 
BRANCH  80  84
ATOM     84  S   UNL A   1      42.651  22.300  26.675  1.00  0.00     0.124 S 
ATOM     85  O   UNL A   1      41.779  22.124  27.830  1.00  0.00    -0.237 OA
ATOM     86  O   UNL A   1      42.065  21.991  25.375  1.00  0.00    -0.237 OA
ATOM     87  O   UNL A   1      44.029  21.852  26.857  1.00  0.00    -0.744 OA
ENDBRANCH  80  84
ENDBRANCH  53  77
BRANCH  65  88
ATOM     88  C   UNL A   1      44.926  27.366  34.121  1.00  0.00     0.023 A 
ATOM     89  C   UNL A   1      44.807  26.202  34.902  1.00  0.00     0.031 A 
ATOM     90  C   UNL A   1      46.178  28.006  34.082  1.00  0.00     0.131 A 
ATOM     91  C   UNL A   1      45.892  25.763  35.674  1.00  0.00     0.055 A 
ATOM     92  C   UNL A   1      47.277  27.521  34.792  1.00  0.00     0.041 A 
ATOM     93  F   UNL A   1      46.353  29.122  33.355  1.00  0.00    -0.206 F 
ATOM     94  C   UNL A   1      47.132  26.403  35.609  1.00  0.00     0.022 A 
BRANCH  91  95
ATOM     95  S   UNL A   1      45.626  24.421  36.865  1.00  0.00     0.124 S 
ATOM     96  O   UNL A   1      46.988  24.129  37.302  1.00  0.00    -0.237 OA
ATOM     97  O   UNL A   1      44.762  25.053  37.857  1.00  0.00    -0.237 OA
ATOM     98  O   UNL A   1      44.991  23.374  36.068  1.00  0.00    -0.744 OA
ENDBRANCH  91  95
ENDBRANCH  65  88
ENDBRANCH  39  40
ENDBRANCH  31  34
ENDBRANCH  29  30
ENDBRANCH  28  29
ENDBRANCH  27  28
ENDBRANCH   1  27
TORSDOF 21
ENDMDL
MODEL 3
REMARK VINA RESULT:     -10.3      4.704      9.465
REMARK SMILES Cc1cc(Br)cc([N+](=O)[O-])c1OCCC[C@@](C)([NH3+])C(=O)NCCCCNC(=O)c1ccc(-c2c3nc(c(-c4cc(S(=O)(=O)[O-])ccc4F)c4ccc([nH]4)c(-c4cc(S(=O)(=O)[O-])ccc4F)c4nc(c(-c5cc(S(=O)(=O)[O-])ccc5F)c5ccc2[nH]5)C=C4)C=C3)cc1
REMARK SMILES IDX 22 1 21 2 19 3 20 4 16 6 17 7 15 8 14 9 13 10 12 11 11 12
REMARK SMILES IDX 1 13 2 14 3 15 4 16 7 17 5 18 6 19 8 20 9 21 10 22 18 23
REMARK SMILES IDX 23 27 24 28 25 29 26 30 27 31 28 33 29 34 30 35 91 36 31 37
REMARK SMILES IDX 90 38 32 39 33 40 34 41 84 42 35 43 89 44 83 45 85 46 36 47
REMARK SMILES IDX 88 48 82 49 81 50 37 52 69 53 49 54 68 55 50 56 53 57 67 58
REMARK SMILES IDX 86 59 51 60 52 61 66 63 87 64 54 65 38 66 39 67 47 68 40 69
REMARK SMILES IDX 46 70 48 71 45 72 41 73 42 74 43 75 44 76 70 77 71 78 79 79
REMARK SMILES IDX 72 80 78 81 80 82 77 83 73 84 74 85 75 86 76 87 55 88 56 89
REMARK SMILES IDX 64 90 57 91 63 92 65 93 62 94 58 95 59 96 60 97 61 98
REMARK H PARENT 21 5 18 24 18 25 18 26 26 32 85 51 53 62
REMARK Flexibility Score: inf
ROOT
ATOM      1  C   UNL A   1      31.063  26.736  25.283  1.00  0.00     0.116 C 
ENDROOT
BRANCH   1   2
ATOM      2  N   UNL A   1      30.757  27.509  24.093  1.00  0.00    -0.351 N 
ATOM      3  C   UNL A   1      31.064  27.349  22.780  1.00  0.00     0.280 C 
ATOM      4  O   UNL A   1      30.329  27.973  22.004  1.00  0.00    -0.268 OA
ATOM      5  H   UNL A   1      30.216  28.312  24.275  1.00  0.00     0.163 HD
BRANCH   3   6
ATOM      6  C   UNL A   1      32.207  26.437  22.230  1.00  0.00     0.171 C 
ATOM      7  C   UNL A   1      33.519  27.176  22.533  1.00  0.00     0.090 C 
BRANCH   6   8
ATOM      8  C   UNL A   1      32.231  24.984  22.834  1.00  0.00     0.082 C 
BRANCH   8   9
ATOM      9  C   UNL A   1      33.210  23.918  22.299  1.00  0.00     0.049 C 
BRANCH   9  10
ATOM     10  C   UNL A   1      34.483  23.625  23.139  1.00  0.00     0.230 C 
BRANCH  10  11
ATOM     11  O   UNL A   1      34.378  22.342  23.781  1.00  0.00    -0.487 OA
BRANCH  11  12
ATOM     12  C   UNL A   1      33.461  22.211  24.804  1.00  0.00     0.200 A 
ATOM     13  C   UNL A   1      34.644  23.969  26.225  1.00  0.00     0.049 C 
ATOM     14  C   UNL A   1      33.455  23.164  25.840  1.00  0.00    -0.001 A 
ATOM     15  C   UNL A   1      32.279  23.433  26.560  1.00  0.00     0.023 A 
ATOM     16  C   UNL A   1      31.126  22.707  26.320  1.00  0.00     0.025 A 
ATOM     17  C   UNL A   1      32.312  21.413  24.654  1.00  0.00     0.312 A 
ATOM     18  Br  UNL A   1      29.541  23.159  27.242  1.00  0.00    -0.051 Br
ATOM     19  C   UNL A   1      31.146  21.660  25.410  1.00  0.00     0.105 A 
BRANCH  17  20
ATOM     20  N   UNL A   1      32.290  20.261  23.754  1.00  0.00     0.066 N 
ATOM     21  O   UNL A   1      32.486  19.143  24.257  1.00  0.00    -0.258 OA
ATOM     22  O   UNL A   1      32.155  20.463  22.541  1.00  0.00    -0.258 OA
ENDBRANCH  17  20
ENDBRANCH  11  12
ENDBRANCH  10  11
ENDBRANCH   9  10
ENDBRANCH   8   9
ENDBRANCH   6   8
BRANCH   6  23
ATOM     23  N   UNL A   1      32.185  26.291  20.752  1.00  0.00    -0.345 N 
ATOM     24  H   UNL A   1      31.366  25.751  20.475  1.00  0.00     0.345 HD
ATOM     25  H   UNL A   1      33.030  25.809  20.444  1.00  0.00     0.345 HD
ATOM     26  H   UNL A   1      32.145  27.215  20.319  1.00  0.00     0.345 HD
ENDBRANCH   6  23
ENDBRANCH   3   6
ENDBRANCH   1   2
BRANCH   1  27
ATOM     27  C   UNL A   1      31.694  27.595  26.383  1.00  0.00     0.023 C 
BRANCH  27  28
ATOM     28  C   UNL A   1      33.223  27.524  26.486  1.00  0.00     0.023 C 
BRANCH  28  29
ATOM     29  C   UNL A   1      33.984  28.688  25.858  1.00  0.00     0.116 C 
BRANCH  29  30
ATOM     30  N   UNL A   1      33.599  29.980  26.400  1.00  0.00    -0.352 N 
ATOM     31  C   UNL A   1      34.229  30.762  27.334  1.00  0.00     0.251 C 
ATOM     32  H   UNL A   1      32.761  30.351  26.041  1.00  0.00     0.163 HD
ATOM     33  O   UNL A   1      33.676  31.791  27.719  1.00  0.00    -0.269 OA
BRANCH  31  34
ATOM     34  C   UNL A   1      35.529  30.352  27.908  1.00  0.00     0.039 A 
ATOM     35  C   UNL A   1      35.529  29.718  29.154  1.00  0.00     0.014 A 
ATOM     36  C   UNL A   1      36.736  30.586  27.245  1.00  0.00     0.014 A 
ATOM     37  C   UNL A   1      36.730  29.274  29.706  1.00  0.00     0.010 A 
ATOM     38  C   UNL A   1      37.926  30.072  27.760  1.00  0.00     0.010 A 
ATOM     39  C   UNL A   1      37.937  29.417  29.001  1.00  0.00    -0.014 A 
BRANCH  39  40
ATOM     40  C   UNL A   1      39.204  28.879  29.564  1.00  0.00     0.031 A 
ATOM     41  C   UNL A   1      39.806  29.483  30.804  1.00  0.00     0.074 A 
ATOM     42  C   UNL A   1      39.818  27.853  28.941  1.00  0.00     0.049 A 
ATOM     43  N   UNL A   1      40.884  29.128  31.455  1.00  0.00    -0.248 NA
ATOM     44  C   UNL A   1      39.123  30.655  31.369  1.00  0.00     0.031 C 
ATOM     45  C   UNL A   1      39.357  27.222  27.702  1.00  0.00     0.029 A 
ATOM     46  N   UNL A   1      40.951  27.151  29.267  1.00  0.00    -0.354 N 
ATOM     47  C   UNL A   1      41.009  30.032  32.505  1.00  0.00     0.074 A 
ATOM     48  C   UNL A   1      39.937  30.994  32.357  1.00  0.00     0.031 C 
ATOM     49  C   UNL A   1      40.174  26.200  27.398  1.00  0.00     0.029 A 
ATOM     50  C   UNL A   1      41.237  26.125  28.394  1.00  0.00     0.049 A 
ATOM     51  H   UNL A   1      41.508  27.361  30.052  1.00  0.00     0.167 HD
ATOM     52  C   UNL A   1      41.915  30.043  33.516  1.00  0.00     0.034 A 
ATOM     53  C   UNL A   1      42.240  25.225  28.399  1.00  0.00     0.034 A 
ATOM     54  C   UNL A   1      42.976  29.072  33.648  1.00  0.00     0.049 A 
ATOM     55  C   UNL A   1      43.239  25.260  29.527  1.00  0.00     0.074 A 
ATOM     56  C   UNL A   1      43.924  28.961  34.650  1.00  0.00     0.029 A 
ATOM     57  N   UNL A   1      43.238  28.050  32.743  1.00  0.00    -0.354 N 
ATOM     58  N   UNL A   1      43.305  26.084  30.548  1.00  0.00    -0.248 NA
ATOM     59  C   UNL A   1      44.283  24.231  29.515  1.00  0.00     0.031 C 
ATOM     60  C   UNL A   1      44.799  27.921  34.317  1.00  0.00     0.029 A 
ATOM     61  C   UNL A   1      44.348  27.323  33.151  1.00  0.00     0.049 A 
ATOM     62  H   UNL A   1      42.713  27.868  31.930  1.00  0.00     0.167 HD
ATOM     63  C   UNL A   1      44.380  25.647  31.318  1.00  0.00     0.074 A 
ATOM     64  C   UNL A   1      44.914  24.476  30.652  1.00  0.00     0.031 C 
ATOM     65  C   UNL A   1      44.880  26.164  32.471  1.00  0.00     0.034 A 
BRANCH  52  66
ATOM     66  C   UNL A   1      41.806  31.152  34.537  1.00  0.00     0.023 A 
ATOM     67  C   UNL A   1      40.701  31.253  35.403  1.00  0.00     0.031 A 
ATOM     68  C   UNL A   1      42.803  32.139  34.632  1.00  0.00     0.131 A 
ATOM     69  C   UNL A   1      40.581  32.355  36.264  1.00  0.00     0.055 A 
ATOM     70  C   UNL A   1      42.720  33.186  35.552  1.00  0.00     0.041 A 
ATOM     71  F   UNL A   1      43.871  32.112  33.819  1.00  0.00    -0.206 F 
ATOM     72  C   UNL A   1      41.596  33.307  36.365  1.00  0.00     0.022 A 
BRANCH  69  73
ATOM     73  S   UNL A   1      39.010  32.605  37.137  1.00  0.00     0.124 S 
ATOM     74  O   UNL A   1      39.448  33.328  38.329  1.00  0.00    -0.237 OA
ATOM     75  O   UNL A   1      38.232  33.374  36.174  1.00  0.00    -0.237 OA
ATOM     76  O   UNL A   1      38.535  31.245  37.382  1.00  0.00    -0.744 OA
ENDBRANCH  69  73
ENDBRANCH  52  66
BRANCH  53  77
ATOM     77  C   UNL A   1      42.348  24.208  27.313  1.00  0.00     0.023 A 
ATOM     78  C   UNL A   1      41.598  23.021  27.352  1.00  0.00     0.031 A 
ATOM     79  C   UNL A   1      43.240  24.387  26.240  1.00  0.00     0.131 A 
ATOM     80  C   UNL A   1      41.790  22.038  26.368  1.00  0.00     0.055 A 
ATOM     81  C   UNL A   1      43.386  23.432  25.233  1.00  0.00     0.041 A 
ATOM     82  F   UNL A   1      43.978  25.505  26.151  1.00  0.00    -0.206 F 
ATOM     83  C   UNL A   1      42.669  22.241  25.301  1.00  0.00     0.022 A 
BRANCH  80  84
ATOM     84  S   UNL A   1      40.943  20.444  26.554  1.00  0.00     0.124 S 
ATOM     85  O   UNL A   1      40.773  20.365  27.999  1.00  0.00    -0.237 OA
ATOM     86  O   UNL A   1      39.728  20.656  25.775  1.00  0.00    -0.237 OA
ATOM     87  O   UNL A   1      41.888  19.488  25.982  1.00  0.00    -0.744 OA
ENDBRANCH  80  84
ENDBRANCH  53  77
BRANCH  65  88
ATOM     88  C   UNL A   1      46.036  25.425  33.105  1.00  0.00     0.023 A 
ATOM     89  C   UNL A   1      45.834  24.361  34.003  1.00  0.00     0.031 A 
ATOM     90  C   UNL A   1      47.359  25.818  32.837  1.00  0.00     0.131 A 
ATOM     91  C   UNL A   1      46.930  23.783  34.660  1.00  0.00     0.055 A 
ATOM     92  C   UNL A   1      48.451  25.189  33.437  1.00  0.00     0.041 A 
ATOM     93  F   UNL A   1      47.615  26.830  31.991  1.00  0.00    -0.206 F 
ATOM     94  C   UNL A   1      48.238  24.177  34.369  1.00  0.00     0.022 A 
BRANCH  91  95
ATOM     95  S   UNL A   1      46.616  22.601  35.999  1.00  0.00     0.124 S 
ATOM     96  O   UNL A   1      47.606  23.001  36.995  1.00  0.00    -0.237 OA
ATOM     97  O   UNL A   1      45.224  22.879  36.339  1.00  0.00    -0.237 OA
ATOM     98  O   UNL A   1      46.854  21.302  35.375  1.00  0.00    -0.744 OA
ENDBRANCH  91  95
ENDBRANCH  65  88
ENDBRANCH  39  40
ENDBRANCH  31  34
ENDBRANCH  29  30
ENDBRANCH  28  29
ENDBRANCH  27  28
ENDBRANCH   1  27
TORSDOF 21
ENDMDL
