MODEL 1
REMARK VINA RESULT:     -10.2      0.000      0.000
REMARK SMILES C#CC[N@@H+](CC(=O)NCCCCNC(=O)c1ccc(-c2c3nc(c(-c4cc(S(=O)(=O)[O-])ccc4F)c4ccc([nH]4)c(-c4cc(S(=O)(=O)[O-])ccc4F)c4nc(c(-c5cc(S(=O)(=O)[O-])ccc5F)c5ccc2[nH]5)C=C4)C=C3)cc1)[C@@H](C)Cc1ccco1
REMARK SMILES IDX 10 1 9 2 8 3 6 4 7 5 5 7 4 8 3 10 2 11 1 12 79 13 80 14
REMARK SMILES IDX 81 15 82 16 83 17 86 18 84 19 85 20 11 21 12 22 13 23 14 24
REMARK SMILES IDX 15 26 16 27 17 28 78 29 18 30 77 31 19 32 20 33 21 34 71 35
REMARK SMILES IDX 22 36 76 37 70 38 72 39 23 40 75 41 69 42 68 43 24 45 56 46
REMARK SMILES IDX 36 47 55 48 37 49 40 50 54 51 73 52 38 53 39 54 53 56 74 57
REMARK SMILES IDX 41 58 25 59 26 60 34 61 27 62 33 63 35 64 32 65 28 66 29 67
REMARK SMILES IDX 30 68 31 69 57 70 58 71 66 72 59 73 65 74 67 75 64 76 60 77
REMARK SMILES IDX 61 78 62 79 63 80 42 81 43 82 51 83 44 84 50 85 52 86 49 87
REMARK SMILES IDX 45 88 46 89 47 90 48 91
REMARK H PARENT 8 6 4 9 13 25 72 44 40 55
REMARK Flexibility Score: inf
ROOT
ATOM      1  C   UNL A   1      34.208  22.627  26.097  1.00  0.00     0.023 C 
ENDROOT
BRANCH   1   2
ATOM      2  C   UNL A   1      32.953  21.754  25.887  1.00  0.00     0.116 C 
BRANCH   2   3
ATOM      3  N   UNL A   1      32.309  22.013  24.607  1.00  0.00    -0.351 N 
ATOM      4  C   UNL A   1      31.519  23.026  24.142  1.00  0.00     0.275 C 
ATOM      5  O   UNL A   1      31.250  22.989  22.934  1.00  0.00    -0.269 OA
ATOM      6  H   UNL A   1      32.478  21.312  23.936  1.00  0.00     0.163 HD
BRANCH   4   7
ATOM      7  C   UNL A   1      31.001  24.203  24.998  1.00  0.00     0.364 C 
BRANCH   7   8
ATOM      8  N   UNL A   1      31.577  25.559  24.751  1.00  0.00    -0.314 N 
ATOM      9  H   UNL A   1      31.490  26.148  25.580  1.00  0.00     0.349 HD
BRANCH   8  10
ATOM     10  C   UNL A   1      30.780  26.207  23.724  1.00  0.00     0.354 C 
BRANCH  10  11
ATOM     11  C   UNL A   1      30.570  27.709  23.822  1.00  0.00    -0.047 C 
ATOM     12  C   UNL A   1      30.390  28.998  23.907  1.00  0.00     0.010 C 
ENDBRANCH  10  11
ENDBRANCH   8  10
BRANCH   8  13
ATOM     13  C   UNL A   1      33.064  25.605  24.652  1.00  0.00     0.189 C 
ATOM     14  C   UNL A   1      33.621  26.143  23.313  1.00  0.00     0.076 C 
BRANCH  13  15
ATOM     15  C   UNL A   1      33.867  26.374  25.749  1.00  0.00     0.140 C 
BRANCH  15  16
ATOM     16  C   UNL A   1      33.341  27.660  26.286  1.00  0.00     0.109 A 
ATOM     17  C   UNL A   1      33.674  28.969  25.991  1.00  0.00     0.046 A 
ATOM     18  O   UNL A   1      32.273  27.638  27.127  1.00  0.00    -0.469 OA
ATOM     19  C   UNL A   1      32.752  29.786  26.684  1.00  0.00     0.042 A 
ATOM     20  C   UNL A   1      31.919  28.926  27.359  1.00  0.00     0.195 A 
ENDBRANCH  15  16
ENDBRANCH  13  15
ENDBRANCH   8  13
ENDBRANCH   7   8
ENDBRANCH   4   7
ENDBRANCH   2   3
ENDBRANCH   1   2
BRANCH   1  21
ATOM     21  C   UNL A   1      35.496  21.950  26.483  1.00  0.00     0.023 C 
BRANCH  21  22
ATOM     22  C   UNL A   1      36.685  22.371  25.667  1.00  0.00     0.116 C 
BRANCH  22  23
ATOM     23  N   UNL A   1      37.729  21.363  25.529  1.00  0.00    -0.352 N 
ATOM     24  C   UNL A   1      39.034  21.452  25.983  1.00  0.00     0.251 C 
ATOM     25  H   UNL A   1      37.480  20.531  25.066  1.00  0.00     0.163 HD
ATOM     26  O   UNL A   1      39.842  20.572  25.757  1.00  0.00    -0.269 OA
BRANCH  24  27
ATOM     27  C   UNL A   1      39.414  22.695  26.691  1.00  0.00     0.039 A 
ATOM     28  C   UNL A   1      40.385  22.636  27.689  1.00  0.00     0.014 A 
ATOM     29  C   UNL A   1      38.955  23.921  26.209  1.00  0.00     0.014 A 
ATOM     30  C   UNL A   1      40.953  23.824  28.145  1.00  0.00     0.010 A 
ATOM     31  C   UNL A   1      39.643  25.075  26.538  1.00  0.00     0.010 A 
ATOM     32  C   UNL A   1      40.623  25.048  27.537  1.00  0.00    -0.014 A 
BRANCH  32  33
ATOM     33  C   UNL A   1      41.251  26.318  27.977  1.00  0.00     0.031 A 
ATOM     34  C   UNL A   1      42.664  26.627  27.552  1.00  0.00     0.074 A 
ATOM     35  C   UNL A   1      40.571  27.161  28.779  1.00  0.00     0.049 A 
ATOM     36  N   UNL A   1      43.391  27.684  27.806  1.00  0.00    -0.248 NA
ATOM     37  C   UNL A   1      43.374  25.589  26.788  1.00  0.00     0.031 C 
ATOM     38  C   UNL A   1      39.236  26.912  29.338  1.00  0.00     0.029 A 
ATOM     39  N   UNL A   1      40.898  28.404  29.256  1.00  0.00    -0.354 N 
ATOM     40  C   UNL A   1      44.639  27.422  27.247  1.00  0.00     0.074 A 
ATOM     41  C   UNL A   1      44.603  26.070  26.743  1.00  0.00     0.031 C 
ATOM     42  C   UNL A   1      38.837  27.994  30.024  1.00  0.00     0.029 A 
ATOM     43  C   UNL A   1      39.892  29.001  29.982  1.00  0.00     0.049 A 
ATOM     44  H   UNL A   1      41.771  28.829  29.094  1.00  0.00     0.167 HD
ATOM     45  C   UNL A   1      45.703  28.252  27.119  1.00  0.00     0.034 A 
ATOM     46  C   UNL A   1      39.826  30.231  30.526  1.00  0.00     0.034 A 
ATOM     47  C   UNL A   1      45.698  29.609  27.597  1.00  0.00     0.049 A 
ATOM     48  C   UNL A   1      40.993  31.163  30.319  1.00  0.00     0.074 A 
ATOM     49  C   UNL A   1      46.681  30.573  27.477  1.00  0.00     0.029 A 
ATOM     50  N   UNL A   1      44.644  30.198  28.287  1.00  0.00    -0.354 N 
ATOM     51  N   UNL A   1      42.137  30.933  29.712  1.00  0.00    -0.248 NA
ATOM     52  C   UNL A   1      40.849  32.525  30.840  1.00  0.00     0.031 C 
ATOM     53  C   UNL A   1      46.247  31.724  28.145  1.00  0.00     0.029 A 
ATOM     54  C   UNL A   1      44.961  31.505  28.617  1.00  0.00     0.049 A 
ATOM     55  H   UNL A   1      43.795  29.750  28.510  1.00  0.00     0.167 HD
ATOM     56  C   UNL A   1      42.838  32.134  29.757  1.00  0.00     0.074 A 
ATOM     57  C   UNL A   1      41.973  33.088  30.423  1.00  0.00     0.031 C 
ATOM     58  C   UNL A   1      44.082  32.428  29.296  1.00  0.00     0.034 A 
BRANCH  45  59
ATOM     59  C   UNL A   1      46.937  27.694  26.447  1.00  0.00     0.023 A 
ATOM     60  C   UNL A   1      47.260  28.008  25.113  1.00  0.00     0.031 A 
ATOM     61  C   UNL A   1      47.769  26.786  27.124  1.00  0.00     0.131 A 
ATOM     62  C   UNL A   1      48.320  27.348  24.471  1.00  0.00     0.055 A 
ATOM     63  C   UNL A   1      48.879  26.204  26.508  1.00  0.00     0.041 A 
ATOM     64  F   UNL A   1      47.501  26.427  28.388  1.00  0.00    -0.206 F 
ATOM     65  C   UNL A   1      49.149  26.470  25.168  1.00  0.00     0.022 A 
BRANCH  62  66
ATOM     66  S   UNL A   1      48.493  27.531  22.674  1.00  0.00     0.124 S 
ATOM     67  O   UNL A   1      49.745  28.278  22.575  1.00  0.00    -0.237 OA
ATOM     68  O   UNL A   1      48.538  26.147  22.218  1.00  0.00    -0.237 OA
ATOM     69  O   UNL A   1      47.299  28.278  22.288  1.00  0.00    -0.744 OA
ENDBRANCH  62  66
ENDBRANCH  45  59
BRANCH  46  70
ATOM     70  C   UNL A   1      38.612  30.669  31.275  1.00  0.00     0.023 A 
ATOM     71  C   UNL A   1      37.541  31.301  30.621  1.00  0.00     0.031 A 
ATOM     72  C   UNL A   1      38.515  30.486  32.665  1.00  0.00     0.131 A 
ATOM     73  C   UNL A   1      36.443  31.769  31.361  1.00  0.00     0.055 A 
ATOM     74  C   UNL A   1      37.399  30.911  33.391  1.00  0.00     0.041 A 
ATOM     75  F   UNL A   1      39.503  29.876  33.340  1.00  0.00    -0.206 F 
ATOM     76  C   UNL A   1      36.361  31.569  32.740  1.00  0.00     0.022 A 
BRANCH  73  77
ATOM     77  S   UNL A   1      35.155  32.717  30.503  1.00  0.00     0.124 S 
ATOM     78  O   UNL A   1      34.135  32.838  31.536  1.00  0.00    -0.237 OA
ATOM     79  O   UNL A   1      35.864  33.943  30.153  1.00  0.00    -0.237 OA
ATOM     80  O   UNL A   1      34.801  31.861  29.372  1.00  0.00    -0.744 OA
ENDBRANCH  73  77
ENDBRANCH  46  70
BRANCH  58  81
ATOM     81  C   UNL A   1      44.549  33.850  29.475  1.00  0.00     0.023 A 
ATOM     82  C   UNL A   1      44.285  34.837  28.510  1.00  0.00     0.031 A 
ATOM     83  C   UNL A   1      45.299  34.213  30.607  1.00  0.00     0.131 A 
ATOM     84  C   UNL A   1      44.839  36.117  28.653  1.00  0.00     0.055 A 
ATOM     85  C   UNL A   1      45.785  35.510  30.780  1.00  0.00     0.041 A 
ATOM     86  F   UNL A   1      45.579  33.310  31.561  1.00  0.00    -0.206 F 
ATOM     87  C   UNL A   1      45.573  36.465  29.789  1.00  0.00     0.022 A 
BRANCH  84  88
ATOM     88  S   UNL A   1      44.700  37.278  27.267  1.00  0.00     0.124 S 
ATOM     89  O   UNL A   1      45.836  36.894  26.435  1.00  0.00    -0.237 OA
ATOM     90  O   UNL A   1      43.381  36.962  26.728  1.00  0.00    -0.237 OA
ATOM     91  O   UNL A   1      44.812  38.587  27.906  1.00  0.00    -0.744 OA
ENDBRANCH  84  88
ENDBRANCH  58  81
ENDBRANCH  32  33
ENDBRANCH  24  27
ENDBRANCH  22  23
ENDBRANCH  21  22
ENDBRANCH   1  21
TORSDOF 20
ENDMDL
MODEL 2
REMARK VINA RESULT:     -10.0      5.005      9.961
REMARK SMILES C#CC[N@@H+](CC(=O)NCCCCNC(=O)c1ccc(-c2c3nc(c(-c4cc(S(=O)(=O)[O-])ccc4F)c4ccc([nH]4)c(-c4cc(S(=O)(=O)[O-])ccc4F)c4nc(c(-c5cc(S(=O)(=O)[O-])ccc5F)c5ccc2[nH]5)C=C4)C=C3)cc1)[C@@H](C)Cc1ccco1
REMARK SMILES IDX 10 1 9 2 8 3 6 4 7 5 5 7 4 8 3 10 2 11 1 12 79 13 80 14
REMARK SMILES IDX 81 15 82 16 83 17 86 18 84 19 85 20 11 21 12 22 13 23 14 24
REMARK SMILES IDX 15 26 16 27 17 28 78 29 18 30 77 31 19 32 20 33 21 34 71 35
REMARK SMILES IDX 22 36 76 37 70 38 72 39 23 40 75 41 69 42 68 43 24 45 56 46
REMARK SMILES IDX 36 47 55 48 37 49 40 50 54 51 73 52 38 53 39 54 53 56 74 57
REMARK SMILES IDX 41 58 25 59 26 60 34 61 27 62 33 63 35 64 32 65 28 66 29 67
REMARK SMILES IDX 30 68 31 69 57 70 58 71 66 72 59 73 65 74 67 75 64 76 60 77
REMARK SMILES IDX 61 78 62 79 63 80 42 81 43 82 51 83 44 84 50 85 52 86 49 87
REMARK SMILES IDX 45 88 46 89 47 90 48 91
REMARK H PARENT 8 6 4 9 13 25 72 44 40 55
REMARK Flexibility Score: inf
ROOT
ATOM      1  C   UNL A   1      33.875  27.530  25.731  1.00  0.00     0.023 C 
ENDROOT
BRANCH   1   2
ATOM      2  C   UNL A   1      32.984  27.821  24.506  1.00  0.00     0.116 C 
BRANCH   2   3
ATOM      3  N   UNL A   1      33.487  27.189  23.295  1.00  0.00    -0.351 N 
ATOM      4  C   UNL A   1      33.075  26.117  22.556  1.00  0.00     0.275 C 
ATOM      5  O   UNL A   1      33.676  25.935  21.488  1.00  0.00    -0.269 OA
ATOM      6  H   UNL A   1      34.294  27.624  22.934  1.00  0.00     0.163 HD
BRANCH   4   7
ATOM      7  C   UNL A   1      31.908  25.180  22.938  1.00  0.00     0.364 C 
BRANCH   7   8
ATOM      8  N   UNL A   1      32.182  24.073  23.904  1.00  0.00    -0.314 N 
ATOM      9  H   UNL A   1      33.178  23.855  23.934  1.00  0.00     0.349 HD
BRANCH   8  10
ATOM     10  C   UNL A   1      31.531  22.872  23.411  1.00  0.00     0.354 C 
BRANCH  10  11
ATOM     11  C   UNL A   1      32.220  21.538  23.646  1.00  0.00    -0.047 C 
ATOM     12  C   UNL A   1      32.810  20.393  23.848  1.00  0.00     0.010 C 
ENDBRANCH  10  11
ENDBRANCH   8  10
BRANCH   8  13
ATOM     13  C   UNL A   1      32.034  24.440  25.342  1.00  0.00     0.189 C 
ATOM     14  C   UNL A   1      30.637  24.173  25.950  1.00  0.00     0.076 C 
BRANCH  13  15
ATOM     15  C   UNL A   1      33.036  23.838  26.378  1.00  0.00     0.140 C 
BRANCH  15  16
ATOM     16  C   UNL A   1      34.417  23.481  25.952  1.00  0.00     0.109 A 
ATOM     17  C   UNL A   1      35.413  24.246  25.372  1.00  0.00     0.046 A 
ATOM     18  O   UNL A   1      34.903  22.246  26.249  1.00  0.00    -0.469 OA
ATOM     19  C   UNL A   1      36.569  23.434  25.323  1.00  0.00     0.042 A 
ATOM     20  C   UNL A   1      36.206  22.226  25.871  1.00  0.00     0.195 A 
ENDBRANCH  15  16
ENDBRANCH  13  15
ENDBRANCH   8  13
ENDBRANCH   7   8
ENDBRANCH   4   7
ENDBRANCH   2   3
ENDBRANCH   1   2
BRANCH   1  21
ATOM     21  C   UNL A   1      33.786  28.452  26.918  1.00  0.00     0.023 C 
BRANCH  21  22
ATOM     22  C   UNL A   1      34.792  29.569  26.911  1.00  0.00     0.116 C 
BRANCH  22  23
ATOM     23  N   UNL A   1      34.262  30.880  27.266  1.00  0.00    -0.352 N 
ATOM     24  C   UNL A   1      34.770  31.751  28.214  1.00  0.00     0.251 C 
ATOM     25  H   UNL A   1      33.460  31.177  26.780  1.00  0.00     0.163 HD
ATOM     26  O   UNL A   1      34.208  32.798  28.474  1.00  0.00    -0.269 OA
BRANCH  24  27
ATOM     27  C   UNL A   1      35.984  31.318  28.942  1.00  0.00     0.039 A 
ATOM     28  C   UNL A   1      35.923  30.181  29.745  1.00  0.00     0.014 A 
ATOM     29  C   UNL A   1      37.206  31.924  28.649  1.00  0.00     0.014 A 
ATOM     30  C   UNL A   1      37.113  29.606  30.188  1.00  0.00     0.010 A 
ATOM     31  C   UNL A   1      38.379  31.252  28.943  1.00  0.00     0.010 A 
ATOM     32  C   UNL A   1      38.351  30.108  29.748  1.00  0.00    -0.014 A 
BRANCH  32  33
ATOM     33  C   UNL A   1      39.627  29.483  30.172  1.00  0.00     0.031 A 
ATOM     34  C   UNL A   1      40.323  29.994  31.408  1.00  0.00     0.074 A 
ATOM     35  C   UNL A   1      40.170  28.496  29.432  1.00  0.00     0.049 A 
ATOM     36  N   UNL A   1      41.431  29.580  31.965  1.00  0.00    -0.248 NA
ATOM     37  C   UNL A   1      39.724  31.161  32.076  1.00  0.00     0.031 C 
ATOM     38  C   UNL A   1      39.637  27.995  28.160  1.00  0.00     0.029 A 
ATOM     39  N   UNL A   1      41.284  27.725  29.645  1.00  0.00    -0.354 N 
ATOM     40  C   UNL A   1      41.662  30.446  33.029  1.00  0.00     0.074 A 
ATOM     41  C   UNL A   1      40.645  31.469  32.972  1.00  0.00     0.031 C 
ATOM     42  C   UNL A   1      40.386  26.962  27.744  1.00  0.00     0.029 A 
ATOM     43  C   UNL A   1      41.468  26.744  28.698  1.00  0.00     0.049 A 
ATOM     44  H   UNL A   1      41.895  27.862  30.405  1.00  0.00     0.167 HD
ATOM     45  C   UNL A   1      42.605  30.367  33.999  1.00  0.00     0.034 A 
ATOM     46  C   UNL A   1      42.391  25.765  28.629  1.00  0.00     0.034 A 
ATOM     47  C   UNL A   1      43.584  29.314  34.054  1.00  0.00     0.049 A 
ATOM     48  C   UNL A   1      43.393  25.654  29.750  1.00  0.00     0.074 A 
ATOM     49  C   UNL A   1      44.552  29.080  35.012  1.00  0.00     0.029 A 
ATOM     50  N   UNL A   1      43.712  28.307  33.103  1.00  0.00    -0.354 N 
ATOM     51  N   UNL A   1      43.547  26.429  30.800  1.00  0.00    -0.248 NA
ATOM     52  C   UNL A   1      44.321  24.521  29.693  1.00  0.00     0.031 C 
ATOM     53  C   UNL A   1      45.303  27.969  34.611  1.00  0.00     0.029 A 
ATOM     54  C   UNL A   1      44.756  27.462  33.441  1.00  0.00     0.049 A 
ATOM     55  H   UNL A   1      43.144  28.209  32.305  1.00  0.00     0.167 HD
ATOM     56  C   UNL A   1      44.577  25.860  31.543  1.00  0.00     0.074 A 
ATOM     57  C   UNL A   1      44.980  24.662  30.833  1.00  0.00     0.031 C 
ATOM     58  C   UNL A   1      45.144  26.283  32.704  1.00  0.00     0.034 A 
BRANCH  45  59
ATOM     59  C   UNL A   1      42.608  31.453  35.050  1.00  0.00     0.023 A 
ATOM     60  C   UNL A   1      41.621  31.519  36.052  1.00  0.00     0.031 A 
ATOM     61  C   UNL A   1      43.572  32.476  35.016  1.00  0.00     0.131 A 
ATOM     62  C   UNL A   1      41.560  32.627  36.910  1.00  0.00     0.055 A 
ATOM     63  C   UNL A   1      43.561  33.528  35.934  1.00  0.00     0.041 A 
ATOM     64  F   UNL A   1      44.524  32.485  34.071  1.00  0.00    -0.206 F 
ATOM     65  C   UNL A   1      42.541  33.619  36.877  1.00  0.00     0.022 A 
BRANCH  62  66
ATOM     66  S   UNL A   1      40.091  32.835  37.955  1.00  0.00     0.124 S 
ATOM     67  O   UNL A   1      40.610  32.459  39.269  1.00  0.00    -0.237 OA
ATOM     68  O   UNL A   1      39.772  34.247  37.776  1.00  0.00    -0.237 OA
ATOM     69  O   UNL A   1      39.127  31.898  37.383  1.00  0.00    -0.744 OA
ENDBRANCH  62  66
ENDBRANCH  45  59
BRANCH  46  70
ATOM     70  C   UNL A   1      42.389  24.796  27.494  1.00  0.00     0.023 A 
ATOM     71  C   UNL A   1      41.626  23.618  27.544  1.00  0.00     0.031 A 
ATOM     72  C   UNL A   1      43.176  25.021  26.351  1.00  0.00     0.131 A 
ATOM     73  C   UNL A   1      41.702  22.687  26.495  1.00  0.00     0.055 A 
ATOM     74  C   UNL A   1      43.210  24.115  25.288  1.00  0.00     0.041 A 
ATOM     75  F   UNL A   1      43.915  26.137  26.244  1.00  0.00    -0.206 F 
ATOM     76  C   UNL A   1      42.480  22.933  25.362  1.00  0.00     0.022 A 
BRANCH  73  77
ATOM     77  S   UNL A   1      40.823  21.108  26.666  1.00  0.00     0.124 S 
ATOM     78  O   UNL A   1      40.767  20.954  28.114  1.00  0.00    -0.237 OA
ATOM     79  O   UNL A   1      39.556  21.394  26.001  1.00  0.00    -0.237 OA
ATOM     80  O   UNL A   1      41.690  20.160  25.969  1.00  0.00    -0.744 OA
ENDBRANCH  73  77
ENDBRANCH  46  70
BRANCH  58  81
ATOM     81  C   UNL A   1      46.234  25.414  33.278  1.00  0.00     0.023 A 
ATOM     82  C   UNL A   1      45.942  24.339  34.135  1.00  0.00     0.031 A 
ATOM     83  C   UNL A   1      47.583  25.688  32.993  1.00  0.00     0.131 A 
ATOM     84  C   UNL A   1      46.987  23.631  34.745  1.00  0.00     0.055 A 
ATOM     85  C   UNL A   1      48.618  24.931  33.545  1.00  0.00     0.041 A 
ATOM     86  F   UNL A   1      47.918  26.702  32.179  1.00  0.00    -0.206 F 
ATOM     87  C   UNL A   1      48.322  23.909  34.443  1.00  0.00     0.022 A 
BRANCH  84  88
ATOM     88  S   UNL A   1      46.576  22.433  36.042  1.00  0.00     0.124 S 
ATOM     89  O   UNL A   1      47.872  22.216  36.677  1.00  0.00    -0.237 OA
ATOM     90  O   UNL A   1      45.591  23.160  36.837  1.00  0.00    -0.237 OA
ATOM     91  O   UNL A   1      46.050  21.290  35.298  1.00  0.00    -0.744 OA
ENDBRANCH  84  88
ENDBRANCH  58  81
ENDBRANCH  32  33
ENDBRANCH  24  27
ENDBRANCH  22  23
ENDBRANCH  21  22
ENDBRANCH   1  21
TORSDOF 20
ENDMDL
MODEL 3
REMARK VINA RESULT:     -10.0      1.888      2.613
REMARK SMILES C#CC[N@@H+](CC(=O)NCCCCNC(=O)c1ccc(-c2c3nc(c(-c4cc(S(=O)(=O)[O-])ccc4F)c4ccc([nH]4)c(-c4cc(S(=O)(=O)[O-])ccc4F)c4nc(c(-c5cc(S(=O)(=O)[O-])ccc5F)c5ccc2[nH]5)C=C4)C=C3)cc1)[C@@H](C)Cc1ccco1
REMARK SMILES IDX 10 1 9 2 8 3 6 4 7 5 5 7 4 8 3 10 2 11 1 12 79 13 80 14
REMARK SMILES IDX 81 15 82 16 83 17 86 18 84 19 85 20 11 21 12 22 13 23 14 24
REMARK SMILES IDX 15 26 16 27 17 28 78 29 18 30 77 31 19 32 20 33 21 34 71 35
REMARK SMILES IDX 22 36 76 37 70 38 72 39 23 40 75 41 69 42 68 43 24 45 56 46
REMARK SMILES IDX 36 47 55 48 37 49 40 50 54 51 73 52 38 53 39 54 53 56 74 57
REMARK SMILES IDX 41 58 25 59 26 60 34 61 27 62 33 63 35 64 32 65 28 66 29 67
REMARK SMILES IDX 30 68 31 69 57 70 58 71 66 72 59 73 65 74 67 75 64 76 60 77
REMARK SMILES IDX 61 78 62 79 63 80 42 81 43 82 51 83 44 84 50 85 52 86 49 87
REMARK SMILES IDX 45 88 46 89 47 90 48 91
REMARK H PARENT 8 6 4 9 13 25 72 44 40 55
REMARK Flexibility Score: inf
ROOT
ATOM      1  C   UNL A   1      35.738  22.221  23.914  1.00  0.00     0.023 C 
ENDROOT
BRANCH   1   2
ATOM      2  C   UNL A   1      34.553  21.518  24.607  1.00  0.00     0.116 C 
BRANCH   2   3
ATOM      3  N   UNL A   1      33.268  21.962  24.086  1.00  0.00    -0.351 N 
ATOM      4  C   UNL A   1      32.476  23.046  24.341  1.00  0.00     0.275 C 
ATOM      5  O   UNL A   1      31.490  23.179  23.603  1.00  0.00    -0.269 OA
ATOM      6  H   UNL A   1      32.890  21.354  23.409  1.00  0.00     0.163 HD
BRANCH   4   7
ATOM      7  C   UNL A   1      32.759  24.106  25.427  1.00  0.00     0.364 C 
BRANCH   7   8
ATOM      8  N   UNL A   1      32.748  25.545  25.025  1.00  0.00    -0.314 N 
ATOM      9  H   UNL A   1      31.911  25.766  24.487  1.00  0.00     0.349 HD
BRANCH   8  10
ATOM     10  C   UNL A   1      33.866  25.771  24.126  1.00  0.00     0.354 C 
BRANCH  10  11
ATOM     11  C   UNL A   1      33.691  26.788  23.010  1.00  0.00    -0.047 C 
ATOM     12  C   UNL A   1      33.541  27.661  22.052  1.00  0.00     0.010 C 
ENDBRANCH  10  11
ENDBRANCH   8  10
BRANCH   8  13
ATOM     13  C   UNL A   1      32.507  26.509  26.139  1.00  0.00     0.189 C 
ATOM     14  C   UNL A   1      33.689  27.454  26.461  1.00  0.00     0.076 C 
BRANCH  13  15
ATOM     15  C   UNL A   1      31.262  27.449  26.062  1.00  0.00     0.140 C 
BRANCH  15  16
ATOM     16  C   UNL A   1      30.762  27.908  24.737  1.00  0.00     0.109 A 
ATOM     17  C   UNL A   1      29.944  27.285  23.812  1.00  0.00     0.046 A 
ATOM     18  O   UNL A   1      31.007  29.186  24.344  1.00  0.00    -0.469 OA
ATOM     19  C   UNL A   1      29.671  28.241  22.807  1.00  0.00     0.042 A 
ATOM     20  C   UNL A   1      30.341  29.382  23.179  1.00  0.00     0.195 A 
ENDBRANCH  15  16
ENDBRANCH  13  15
ENDBRANCH   8  13
ENDBRANCH   7   8
ENDBRANCH   4   7
ENDBRANCH   2   3
ENDBRANCH   1   2
BRANCH   1  21
ATOM     21  C   UNL A   1      36.404  23.371  24.622  1.00  0.00     0.023 C 
BRANCH  21  22
ATOM     22  C   UNL A   1      36.894  23.046  26.005  1.00  0.00     0.116 C 
BRANCH  22  23
ATOM     23  N   UNL A   1      38.131  22.276  26.057  1.00  0.00    -0.352 N 
ATOM     24  C   UNL A   1      39.369  22.723  26.482  1.00  0.00     0.251 C 
ATOM     25  H   UNL A   1      38.080  21.339  25.758  1.00  0.00     0.163 HD
ATOM     26  O   UNL A   1      40.353  22.010  26.424  1.00  0.00    -0.269 OA
BRANCH  24  27
ATOM     27  C   UNL A   1      39.454  24.127  26.945  1.00  0.00     0.039 A 
ATOM     28  C   UNL A   1      39.263  24.408  28.296  1.00  0.00     0.014 A 
ATOM     29  C   UNL A   1      39.925  25.105  26.068  1.00  0.00     0.014 A 
ATOM     30  C   UNL A   1      39.630  25.663  28.779  1.00  0.00     0.010 A 
ATOM     31  C   UNL A   1      40.445  26.279  26.584  1.00  0.00     0.010 A 
ATOM     32  C   UNL A   1      40.270  26.590  27.937  1.00  0.00    -0.014 A 
BRANCH  32  33
ATOM     33  C   UNL A   1      40.707  27.914  28.443  1.00  0.00     0.031 A 
ATOM     34  C   UNL A   1      42.175  28.259  28.427  1.00  0.00     0.074 A 
ATOM     35  C   UNL A   1      39.801  28.774  28.945  1.00  0.00     0.049 A 
ATOM     36  N   UNL A   1      42.769  29.362  28.801  1.00  0.00    -0.248 NA
ATOM     37  C   UNL A   1      43.104  27.207  27.985  1.00  0.00     0.031 C 
ATOM     38  C   UNL A   1      38.367  28.501  29.106  1.00  0.00     0.029 A 
ATOM     39  N   UNL A   1      39.942  30.060  29.401  1.00  0.00    -0.354 N 
ATOM     40  C   UNL A   1      44.132  29.123  28.653  1.00  0.00     0.074 A 
ATOM     41  C   UNL A   1      44.280  27.740  28.264  1.00  0.00     0.031 C 
ATOM     42  C   UNL A   1      37.757  29.606  29.562  1.00  0.00     0.029 A 
ATOM     43  C   UNL A   1      38.752  30.656  29.753  1.00  0.00     0.049 A 
ATOM     44  H   UNL A   1      40.813  30.513  29.469  1.00  0.00     0.167 HD
ATOM     45  C   UNL A   1      45.165  29.990  28.778  1.00  0.00     0.034 A 
ATOM     46  C   UNL A   1      38.498  31.915  30.159  1.00  0.00     0.034 A 
ATOM     47  C   UNL A   1      44.986  31.374  29.129  1.00  0.00     0.049 A 
ATOM     48  C   UNL A   1      39.651  32.884  30.232  1.00  0.00     0.074 A 
ATOM     49  C   UNL A   1      45.936  32.373  29.229  1.00  0.00     0.029 A 
ATOM     50  N   UNL A   1      43.761  31.957  29.434  1.00  0.00    -0.354 N 
ATOM     51  N   UNL A   1      40.928  32.667  30.004  1.00  0.00    -0.248 NA
ATOM     52  C   UNL A   1      39.326  34.269  30.582  1.00  0.00     0.031 C 
ATOM     53  C   UNL A   1      45.296  33.544  29.651  1.00  0.00     0.029 A 
ATOM     54  C   UNL A   1      43.934  33.297  29.742  1.00  0.00     0.049 A 
ATOM     55  H   UNL A   1      42.896  31.486  29.433  1.00  0.00     0.167 HD
ATOM     56  C   UNL A   1      41.554  33.900  30.161  1.00  0.00     0.074 A 
ATOM     57  C   UNL A   1      40.508  34.855  30.470  1.00  0.00     0.031 C 
ATOM     58  C   UNL A   1      42.871  34.221  30.062  1.00  0.00     0.034 A 
BRANCH  45  59
ATOM     59  C   UNL A   1      46.556  29.448  28.540  1.00  0.00     0.023 A 
ATOM     60  C   UNL A   1      47.029  29.163  27.245  1.00  0.00     0.031 A 
ATOM     61  C   UNL A   1      47.400  29.149  29.624  1.00  0.00     0.131 A 
ATOM     62  C   UNL A   1      48.260  28.511  27.072  1.00  0.00     0.055 A 
ATOM     63  C   UNL A   1      48.664  28.586  29.439  1.00  0.00     0.041 A 
ATOM     64  F   UNL A   1      46.998  29.373  30.884  1.00  0.00    -0.206 F 
ATOM     65  C   UNL A   1      49.094  28.246  28.159  1.00  0.00     0.022 A 
BRANCH  62  66
ATOM     66  S   UNL A   1      48.677  27.868  25.428  1.00  0.00     0.124 S 
ATOM     67  O   UNL A   1      49.880  28.634  25.109  1.00  0.00    -0.237 OA
ATOM     68  O   UNL A   1      48.875  26.446  25.685  1.00  0.00    -0.237 OA
ATOM     69  O   UNL A   1      47.505  28.200  24.622  1.00  0.00    -0.744 OA
ENDBRANCH  62  66
ENDBRANCH  45  59
BRANCH  46  70
ATOM     70  C   UNL A   1      37.107  32.344  30.485  1.00  0.00     0.023 A 
ATOM     71  C   UNL A   1      36.220  32.767  29.480  1.00  0.00     0.031 A 
ATOM     72  C   UNL A   1      36.649  32.364  31.814  1.00  0.00     0.131 A 
ATOM     73  C   UNL A   1      34.942  33.236  29.823  1.00  0.00     0.055 A 
ATOM     74  C   UNL A   1      35.359  32.786  32.145  1.00  0.00     0.041 A 
ATOM     75  F   UNL A   1      37.448  31.958  32.814  1.00  0.00    -0.206 F 
ATOM     76  C   UNL A   1      34.502  33.238  31.147  1.00  0.00     0.022 A 
BRANCH  73  77
ATOM     77  S   UNL A   1      33.885  33.919  28.514  1.00  0.00     0.124 S 
ATOM     78  O   UNL A   1      34.793  34.847  27.851  1.00  0.00    -0.237 OA
ATOM     79  O   UNL A   1      33.527  32.722  27.760  1.00  0.00    -0.237 OA
ATOM     80  O   UNL A   1      32.787  34.539  29.253  1.00  0.00    -0.744 OA
ENDBRANCH  73  77
ENDBRANCH  46  70
BRANCH  58  81
ATOM     81  C   UNL A   1      43.229  35.672  30.261  1.00  0.00     0.023 A 
ATOM     82  C   UNL A   1      43.112  36.606  29.218  1.00  0.00     0.031 A 
ATOM     83  C   UNL A   1      43.728  36.116  31.498  1.00  0.00     0.131 A 
ATOM     84  C   UNL A   1      43.569  37.919  29.405  1.00  0.00     0.055 A 
ATOM     85  C   UNL A   1      44.112  37.442  31.700  1.00  0.00     0.041 A 
ATOM     86  F   UNL A   1      43.858  35.265  32.529  1.00  0.00    -0.206 F 
ATOM     87  C   UNL A   1      44.052  38.347  30.644  1.00  0.00     0.022 A 
BRANCH  84  88
ATOM     88  S   UNL A   1      43.649  39.018  27.965  1.00  0.00     0.124 S 
ATOM     89  O   UNL A   1      44.410  38.216  27.013  1.00  0.00    -0.237 OA
ATOM     90  O   UNL A   1      42.238  39.217  27.647  1.00  0.00    -0.237 OA
ATOM     91  O   UNL A   1      44.341  40.200  28.476  1.00  0.00    -0.744 OA
ENDBRANCH  84  88
ENDBRANCH  58  81
ENDBRANCH  32  33
ENDBRANCH  24  27
ENDBRANCH  22  23
ENDBRANCH  21  22
ENDBRANCH   1  21
TORSDOF 20
ENDMDL
