MODEL 1
REMARK VINA RESULT:     -11.5      0.000      0.000
REMARK SMILES O=C(NCCCCNC(=O)c1cccc([C@@H]2CCC[N@@H+](Cc3cccc(OCCO)c3)C2)c1)c1ccc(-c2c3nc(c(-c4cc(S(=O)(=O)[O-])ccc4F)c4ccc([nH]4)c(-c4cc(S(=O)(=O)[O-])ccc4F)c4nc(c(-c5cc(S(=O)(=O)[O-])ccc5F)c5ccc2[nH]5)C=C4)C=C3)cc1
REMARK SMILES IDX 8 1 9 2 10 3 7 5 6 6 5 7 4 8 3 9 1 10 2 11 34 13 35 14 96 15
REMARK SMILES IDX 36 16 95 17 37 18 38 19 39 20 89 21 40 22 94 23 88 24 90 25
REMARK SMILES IDX 41 26 93 27 87 28 86 29 42 31 74 32 54 33 73 34 55 35 58 36
REMARK SMILES IDX 72 37 91 38 56 39 57 40 71 42 92 43 59 44 43 45 44 46 52 47
REMARK SMILES IDX 45 48 51 49 53 50 50 51 46 52 47 53 48 54 49 55 75 56 76 57
REMARK SMILES IDX 84 58 77 59 83 60 85 61 82 62 78 63 79 64 80 65 81 66 60 67
REMARK SMILES IDX 61 68 69 69 62 70 68 71 70 72 67 73 63 74 64 75 65 76 66 77
REMARK SMILES IDX 11 78 12 79 33 80 13 81 15 82 14 83 16 84 17 85 32 86 18 87
REMARK SMILES IDX 20 88 19 89 21 91 22 92 23 93 31 94 24 95 26 96 25 97 27 98
REMARK SMILES IDX 28 99 29 100 30 101
REMARK H PARENT 8 4 3 12 90 30 58 41 20 90 30 102
REMARK Flexibility Score: inf
ROOT
ATOM      1  N   UNL A   1      35.899  31.982  28.107  1.00  0.00    -0.352 N 
ATOM      2  C   UNL A   1      35.780  30.699  27.622  1.00  0.00     0.251 C 
ATOM      3  O   UNL A   1      36.763  30.006  27.410  1.00  0.00    -0.269 OA
ATOM      4  H   UNL A   1      36.818  32.334  28.151  1.00  0.00     0.163 HD
ENDROOT
BRANCH   1   5
ATOM      5  C   UNL A   1      34.856  32.891  28.563  1.00  0.00     0.116 C 
BRANCH   5   6
ATOM      6  C   UNL A   1      35.237  34.357  28.393  1.00  0.00     0.023 C 
BRANCH   6   7
ATOM      7  C   UNL A   1      34.131  35.348  28.729  1.00  0.00     0.023 C 
BRANCH   7   8
ATOM      8  C   UNL A   1      32.968  34.767  29.519  1.00  0.00     0.116 C 
BRANCH   8   9
ATOM      9  N   UNL A   1      32.592  35.576  30.672  1.00  0.00    -0.352 N 
ATOM     10  O   UNL A   1      32.640  36.241  32.835  1.00  0.00    -0.269 OA
ATOM     11  C   UNL A   1      33.148  35.581  31.933  1.00  0.00     0.251 C 
ATOM     12  H   UNL A   1      31.844  36.201  30.532  1.00  0.00     0.163 HD
BRANCH  11  13
ATOM     13  C   UNL A   1      34.352  34.759  32.190  1.00  0.00     0.039 A 
ATOM     14  C   UNL A   1      34.211  33.457  32.670  1.00  0.00     0.014 A 
ATOM     15  C   UNL A   1      35.623  35.311  32.012  1.00  0.00     0.014 A 
ATOM     16  C   UNL A   1      35.324  32.782  33.148  1.00  0.00     0.010 A 
ATOM     17  C   UNL A   1      36.755  34.577  32.386  1.00  0.00     0.010 A 
ATOM     18  C   UNL A   1      36.613  33.319  32.994  1.00  0.00    -0.014 A 
BRANCH  18  19
ATOM     19  C   UNL A   1      37.776  32.497  33.426  1.00  0.00     0.031 A 
ATOM     20  C   UNL A   1      38.345  31.409  32.558  1.00  0.00     0.074 A 
ATOM     21  C   UNL A   1      38.367  32.811  34.598  1.00  0.00     0.049 A 
ATOM     22  N   UNL A   1      39.399  30.659  32.766  1.00  0.00    -0.248 NA
ATOM     23  C   UNL A   1      37.641  31.114  31.303  1.00  0.00     0.031 C 
ATOM     24  C   UNL A   1      37.887  33.839  35.528  1.00  0.00     0.029 A 
ATOM     25  N   UNL A   1      39.508  32.340  35.191  1.00  0.00    -0.354 N 
ATOM     26  C   UNL A   1      39.484  29.800  31.675  1.00  0.00     0.074 A 
ATOM     27  C   UNL A   1      38.347  30.096  30.826  1.00  0.00     0.031 C 
ATOM     28  C   UNL A   1      38.765  33.971  36.531  1.00  0.00     0.029 A 
ATOM     29  C   UNL A   1      39.822  32.983  36.365  1.00  0.00     0.049 A 
ATOM     30  H   UNL A   1      40.051  31.611  34.812  1.00  0.00     0.167 HD
ATOM     31  C   UNL A   1      40.427  28.862  31.406  1.00  0.00     0.034 A 
ATOM     32  C   UNL A   1      40.838  32.792  37.229  1.00  0.00     0.034 A 
ATOM     33  C   UNL A   1      41.552  28.579  32.269  1.00  0.00     0.049 A 
ATOM     34  C   UNL A   1      41.858  31.735  36.911  1.00  0.00     0.074 A 
ATOM     35  C   UNL A   1      42.564  27.649  32.093  1.00  0.00     0.029 A 
ATOM     36  N   UNL A   1      41.816  29.222  33.473  1.00  0.00    -0.354 N 
ATOM     37  N   UNL A   1      41.918  30.933  35.873  1.00  0.00    -0.248 NA
ATOM     38  C   UNL A   1      42.948  31.561  37.876  1.00  0.00     0.031 C 
ATOM     39  C   UNL A   1      43.402  27.690  33.214  1.00  0.00     0.029 A 
ATOM     40  C   UNL A   1      42.960  28.695  34.057  1.00  0.00     0.049 A 
ATOM     41  H   UNL A   1      41.272  29.948  33.855  1.00  0.00     0.167 HD
ATOM     42  C   UNL A   1      43.058  30.161  36.059  1.00  0.00     0.074 A 
ATOM     43  C   UNL A   1      43.677  30.627  37.284  1.00  0.00     0.031 C 
ATOM     44  C   UNL A   1      43.546  29.149  35.297  1.00  0.00     0.034 A 
BRANCH  31  45
ATOM     45  C   UNL A   1      40.262  28.045  30.144  1.00  0.00     0.023 A 
ATOM     46  C   UNL A   1      41.053  28.274  29.004  1.00  0.00     0.031 A 
ATOM     47  C   UNL A   1      39.302  27.018  30.080  1.00  0.00     0.131 A 
ATOM     48  C   UNL A   1      40.834  27.527  27.836  1.00  0.00     0.055 A 
ATOM     49  C   UNL A   1      39.138  26.230  28.939  1.00  0.00     0.041 A 
ATOM     50  F   UNL A   1      38.503  26.764  31.129  1.00  0.00    -0.206 F 
ATOM     51  C   UNL A   1      39.899  26.489  27.804  1.00  0.00     0.022 A 
BRANCH  48  52
ATOM     52  S   UNL A   1      41.709  28.004  26.320  1.00  0.00     0.124 S 
ATOM     53  O   UNL A   1      41.499  26.829  25.477  1.00  0.00    -0.237 OA
ATOM     54  O   UNL A   1      41.004  29.215  25.916  1.00  0.00    -0.237 OA
ATOM     55  O   UNL A   1      43.086  28.203  26.766  1.00  0.00    -0.744 OA
ENDBRANCH  48  52
ENDBRANCH  31  45
BRANCH  32  56
ATOM     56  C   UNL A   1      40.909  33.583  38.491  1.00  0.00     0.023 A 
ATOM     57  C   UNL A   1      40.315  33.126  39.677  1.00  0.00     0.031 A 
ATOM     58  C   UNL A   1      41.553  34.835  38.516  1.00  0.00     0.131 A 
ATOM     59  C   UNL A   1      40.335  33.936  40.823  1.00  0.00     0.055 A 
ATOM     60  C   UNL A   1      41.626  35.606  39.675  1.00  0.00     0.041 A 
ATOM     61  F   UNL A   1      42.141  35.319  37.409  1.00  0.00    -0.206 F 
ATOM     62  C   UNL A   1      41.000  35.164  40.835  1.00  0.00     0.022 A 
BRANCH  59  63
ATOM     63  S   UNL A   1      39.388  33.406  42.276  1.00  0.00     0.124 S 
ATOM     64  O   UNL A   1      38.441  32.467  41.688  1.00  0.00    -0.237 OA
ATOM     65  O   UNL A   1      40.428  32.826  43.119  1.00  0.00    -0.237 OA
ATOM     66  O   UNL A   1      38.806  34.652  42.774  1.00  0.00    -0.744 OA
ENDBRANCH  59  63
ENDBRANCH  32  56
BRANCH  44  67
ATOM     67  C   UNL A   1      44.822  28.503  35.778  1.00  0.00     0.023 A 
ATOM     68  C   UNL A   1      44.799  27.391  36.639  1.00  0.00     0.031 A 
ATOM     69  C   UNL A   1      46.071  29.039  35.422  1.00  0.00     0.131 A 
ATOM     70  C   UNL A   1      45.997  26.900  37.178  1.00  0.00     0.055 A 
ATOM     71  C   UNL A   1      47.265  28.503  35.909  1.00  0.00     0.041 A 
ATOM     72  F   UNL A   1      46.151  30.102  34.606  1.00  0.00    -0.206 F 
ATOM     73  C   UNL A   1      47.231  27.440  36.807  1.00  0.00     0.022 A 
BRANCH  70  74
ATOM     74  S   UNL A   1      45.911  25.629  38.469  1.00  0.00     0.124 S 
ATOM     75  O   UNL A   1      44.622  25.915  39.091  1.00  0.00    -0.237 OA
ATOM     76  O   UNL A   1      45.986  24.394  37.695  1.00  0.00    -0.237 OA
ATOM     77  O   UNL A   1      47.079  25.908  39.304  1.00  0.00    -0.744 OA
ENDBRANCH  70  74
ENDBRANCH  44  67
ENDBRANCH  18  19
ENDBRANCH  11  13
ENDBRANCH   8   9
ENDBRANCH   7   8
ENDBRANCH   6   7
ENDBRANCH   5   6
ENDBRANCH   1   5
BRANCH   2  78
ATOM     78  C   UNL A   1      34.431  30.157  27.373  1.00  0.00     0.040 A 
ATOM     79  C   UNL A   1      33.348  31.032  27.299  1.00  0.00     0.014 A 
ATOM     80  C   UNL A   1      34.262  28.785  27.165  1.00  0.00     0.018 A 
ATOM     81  C   UNL A   1      32.098  30.534  26.944  1.00  0.00     0.001 A 
ATOM     82  C   UNL A   1      33.027  28.278  26.767  1.00  0.00    -0.039 A 
ATOM     83  C   UNL A   1      31.945  29.172  26.661  1.00  0.00     0.004 A 
BRANCH  82  84
ATOM     84  C   UNL A   1      32.855  26.826  26.363  1.00  0.00     0.074 C 
ATOM     85  C   UNL A   1      33.989  26.238  25.508  1.00  0.00     0.020 C 
ATOM     86  C   UNL A   1      31.456  26.548  25.764  1.00  0.00     0.270 C 
ATOM     87  C   UNL A   1      33.754  26.334  24.003  1.00  0.00     0.062 C 
ATOM     88  N   UNL A   1      31.313  26.618  24.299  1.00  0.00    -0.331 N 
ATOM     89  C   UNL A   1      32.360  25.853  23.613  1.00  0.00     0.262 C 
ATOM     90  H   UNL A   1      31.434  27.599  24.045  1.00  0.00     0.348 HD
BRANCH  88  91
ATOM     91  C   UNL A   1      29.954  26.225  23.835  1.00  0.00     0.299 C 
BRANCH  91  92
ATOM     92  C   UNL A   1      29.044  27.361  23.384  1.00  0.00     0.010 A 
ATOM     93  C   UNL A   1      27.682  27.375  23.711  1.00  0.00     0.010 A 
ATOM     94  C   UNL A   1      29.582  28.468  22.705  1.00  0.00     0.056 A 
ATOM     95  C   UNL A   1      26.901  28.496  23.422  1.00  0.00     0.004 A 
ATOM     96  C   UNL A   1      28.842  29.634  22.523  1.00  0.00     0.119 A 
ATOM     97  C   UNL A   1      27.487  29.629  22.853  1.00  0.00     0.046 A 
BRANCH  96  98
ATOM     98  O   UNL A   1      29.338  30.832  22.086  1.00  0.00    -0.491 OA
BRANCH  98  99
ATOM     99  C   UNL A   1      28.456  31.962  22.031  1.00  0.00     0.257 C 
BRANCH  99 100
ATOM    100  C   UNL A   1      28.094  32.357  20.594  1.00  0.00     0.197 C 
BRANCH 100 101
ATOM    101  O   UNL A   1      27.332  33.555  20.514  1.00  0.00    -0.393 OA
ATOM    102  H   UNL A   1      26.639  33.544  21.191  1.00  0.00     0.210 HD
ENDBRANCH 100 101
ENDBRANCH  99 100
ENDBRANCH  98  99
ENDBRANCH  96  98
ENDBRANCH  91  92
ENDBRANCH  88  91
ENDBRANCH  82  84
ENDBRANCH   2  78
TORSDOF 21
ENDMDL
MODEL 2
REMARK VINA RESULT:     -11.3      1.385      7.381
REMARK SMILES O=C(NCCCCNC(=O)c1cccc([C@@H]2CCC[N@@H+](Cc3cccc(OCCO)c3)C2)c1)c1ccc(-c2c3nc(c(-c4cc(S(=O)(=O)[O-])ccc4F)c4ccc([nH]4)c(-c4cc(S(=O)(=O)[O-])ccc4F)c4nc(c(-c5cc(S(=O)(=O)[O-])ccc5F)c5ccc2[nH]5)C=C4)C=C3)cc1
REMARK SMILES IDX 8 1 9 2 10 3 7 5 6 6 5 7 4 8 3 9 1 10 2 11 34 13 35 14 96 15
REMARK SMILES IDX 36 16 95 17 37 18 38 19 39 20 89 21 40 22 94 23 88 24 90 25
REMARK SMILES IDX 41 26 93 27 87 28 86 29 42 31 74 32 54 33 73 34 55 35 58 36
REMARK SMILES IDX 72 37 91 38 56 39 57 40 71 42 92 43 59 44 43 45 44 46 52 47
REMARK SMILES IDX 45 48 51 49 53 50 50 51 46 52 47 53 48 54 49 55 75 56 76 57
REMARK SMILES IDX 84 58 77 59 83 60 85 61 82 62 78 63 79 64 80 65 81 66 60 67
REMARK SMILES IDX 61 68 69 69 62 70 68 71 70 72 67 73 63 74 64 75 65 76 66 77
REMARK SMILES IDX 11 78 12 79 33 80 13 81 15 82 14 83 16 84 17 85 32 86 18 87
REMARK SMILES IDX 20 88 19 89 21 91 22 92 23 93 31 94 24 95 26 96 25 97 27 98
REMARK SMILES IDX 28 99 29 100 30 101
REMARK H PARENT 8 4 3 12 90 30 58 41 20 90 30 102
REMARK Flexibility Score: inf
ROOT
ATOM      1  N   UNL A   1      36.057  31.722  28.152  1.00  0.00    -0.352 N 
ATOM      2  C   UNL A   1      35.906  30.456  27.632  1.00  0.00     0.251 C 
ATOM      3  O   UNL A   1      36.871  29.743  27.408  1.00  0.00    -0.269 OA
ATOM      4  H   UNL A   1      36.984  32.048  28.211  1.00  0.00     0.163 HD
ENDROOT
BRANCH   1   5
ATOM      5  C   UNL A   1      35.035  32.647  28.626  1.00  0.00     0.116 C 
BRANCH   5   6
ATOM      6  C   UNL A   1      35.567  34.063  28.818  1.00  0.00     0.023 C 
BRANCH   6   7
ATOM      7  C   UNL A   1      34.506  35.104  29.150  1.00  0.00     0.023 C 
BRANCH   7   8
ATOM      8  C   UNL A   1      33.201  34.540  29.689  1.00  0.00     0.116 C 
BRANCH   8   9
ATOM      9  N   UNL A   1      32.555  35.411  30.663  1.00  0.00    -0.352 N 
ATOM     10  O   UNL A   1      32.160  36.284  32.713  1.00  0.00    -0.269 OA
ATOM     11  C   UNL A   1      32.878  35.601  31.990  1.00  0.00     0.251 C 
ATOM     12  H   UNL A   1      31.788  35.931  30.331  1.00  0.00     0.163 HD
BRANCH  11  13
ATOM     13  C   UNL A   1      34.089  34.947  32.533  1.00  0.00     0.039 A 
ATOM     14  C   UNL A   1      35.315  35.610  32.484  1.00  0.00     0.014 A 
ATOM     15  C   UNL A   1      34.012  33.645  33.035  1.00  0.00     0.014 A 
ATOM     16  C   UNL A   1      36.481  34.910  32.754  1.00  0.00     0.010 A 
ATOM     17  C   UNL A   1      35.183  32.981  33.421  1.00  0.00     0.010 A 
ATOM     18  C   UNL A   1      36.434  33.595  33.248  1.00  0.00    -0.014 A 
BRANCH  18  19
ATOM     19  C   UNL A   1      37.714  32.937  33.625  1.00  0.00     0.031 A 
ATOM     20  C   UNL A   1      38.419  33.254  34.915  1.00  0.00     0.074 A 
ATOM     21  C   UNL A   1      38.191  31.975  32.807  1.00  0.00     0.049 A 
ATOM     22  N   UNL A   1      39.500  32.709  35.415  1.00  0.00    -0.248 NA
ATOM     23  C   UNL A   1      37.848  34.321  35.748  1.00  0.00     0.031 C 
ATOM     24  C   UNL A   1      37.595  31.599  31.520  1.00  0.00     0.029 A 
ATOM     25  N   UNL A   1      39.248  31.115  32.943  1.00  0.00    -0.354 N 
ATOM     26  C   UNL A   1      39.746  33.368  36.615  1.00  0.00     0.074 A 
ATOM     27  C   UNL A   1      38.720  34.382  36.747  1.00  0.00     0.031 C 
ATOM     28  C   UNL A   1      38.247  30.539  31.025  1.00  0.00     0.029 A 
ATOM     29  C   UNL A   1      39.358  30.214  31.909  1.00  0.00     0.049 A 
ATOM     30  H   UNL A   1      39.869  31.139  33.707  1.00  0.00     0.167 HD
ATOM     31  C   UNL A   1      40.729  33.139  37.523  1.00  0.00     0.034 A 
ATOM     32  C   UNL A   1      40.262  29.242  31.682  1.00  0.00     0.034 A 
ATOM     33  C   UNL A   1      41.747  32.124  37.370  1.00  0.00     0.049 A 
ATOM     34  C   UNL A   1      41.348  29.023  32.697  1.00  0.00     0.074 A 
ATOM     35  C   UNL A   1      42.789  31.809  38.227  1.00  0.00     0.029 A 
ATOM     36  N   UNL A   1      41.853  31.256  36.289  1.00  0.00    -0.354 N 
ATOM     37  N   UNL A   1      41.561  29.660  33.826  1.00  0.00    -0.248 NA
ATOM     38  C   UNL A   1      42.310  27.954  32.413  1.00  0.00     0.031 C 
ATOM     39  C   UNL A   1      43.555  30.796  37.637  1.00  0.00     0.029 A 
ATOM     40  C   UNL A   1      42.952  30.424  36.448  1.00  0.00     0.049 A 
ATOM     41  H   UNL A   1      41.236  31.234  35.521  1.00  0.00     0.167 HD
ATOM     42  C   UNL A   1      42.682  29.061  34.389  1.00  0.00     0.074 A 
ATOM     43  C   UNL A   1      43.069  27.986  33.497  1.00  0.00     0.031 C 
ATOM     44  C   UNL A   1      43.343  29.377  35.532  1.00  0.00     0.034 A 
BRANCH  31  45
ATOM     45  C   UNL A   1      40.775  34.029  38.745  1.00  0.00     0.023 A 
ATOM     46  C   UNL A   1      41.543  35.206  38.776  1.00  0.00     0.031 A 
ATOM     47  C   UNL A   1      40.037  33.697  39.896  1.00  0.00     0.131 A 
ATOM     48  C   UNL A   1      41.599  35.978  39.947  1.00  0.00     0.055 A 
ATOM     49  C   UNL A   1      40.040  34.507  41.034  1.00  0.00     0.041 A 
ATOM     50  F   UNL A   1      39.300  32.576  39.935  1.00  0.00    -0.206 F 
ATOM     51  C   UNL A   1      40.832  35.650  41.068  1.00  0.00     0.022 A 
BRANCH  48  52
ATOM     52  S   UNL A   1      42.775  37.356  40.027  1.00  0.00     0.124 S 
ATOM     53  O   UNL A   1      43.892  36.837  39.241  1.00  0.00    -0.237 OA
ATOM     54  O   UNL A   1      42.023  38.450  39.424  1.00  0.00    -0.237 OA
ATOM     55  O   UNL A   1      43.043  37.498  41.457  1.00  0.00    -0.744 OA
ENDBRANCH  48  52
ENDBRANCH  31  45
BRANCH  32  56
ATOM     56  C   UNL A   1      40.205  28.442  30.424  1.00  0.00     0.023 A 
ATOM     57  C   UNL A   1      41.013  28.753  29.321  1.00  0.00     0.031 A 
ATOM     58  C   UNL A   1      39.306  27.366  30.301  1.00  0.00     0.131 A 
ATOM     59  C   UNL A   1      40.873  28.027  28.127  1.00  0.00     0.055 A 
ATOM     60  C   UNL A   1      39.218  26.606  29.135  1.00  0.00     0.041 A 
ATOM     61  F   UNL A   1      38.511  27.023  31.328  1.00  0.00    -0.206 F 
ATOM     62  C   UNL A   1      39.993  26.946  28.033  1.00  0.00     0.022 A 
BRANCH  59  63
ATOM     63  S   UNL A   1      41.787  28.581  26.662  1.00  0.00     0.124 S 
ATOM     64  O   UNL A   1      40.714  29.091  25.817  1.00  0.00    -0.237 OA
ATOM     65  O   UNL A   1      42.688  29.579  27.228  1.00  0.00    -0.237 OA
ATOM     66  O   UNL A   1      42.433  27.360  26.183  1.00  0.00    -0.744 OA
ENDBRANCH  59  63
ENDBRANCH  32  56
BRANCH  44  67
ATOM     67  C   UNL A   1      44.541  28.524  35.871  1.00  0.00     0.023 A 
ATOM     68  C   UNL A   1      44.412  27.354  36.640  1.00  0.00     0.031 A 
ATOM     69  C   UNL A   1      45.830  28.915  35.472  1.00  0.00     0.131 A 
ATOM     70  C   UNL A   1      45.559  26.660  37.054  1.00  0.00     0.055 A 
ATOM     71  C   UNL A   1      46.963  28.182  35.830  1.00  0.00     0.041 A 
ATOM     72  F   UNL A   1      46.012  30.025  34.738  1.00  0.00    -0.206 F 
ATOM     73  C   UNL A   1      46.832  27.058  36.641  1.00  0.00     0.022 A 
BRANCH  70  74
ATOM     74  S   UNL A   1      45.370  25.303  38.242  1.00  0.00     0.124 S 
ATOM     75  O   UNL A   1      46.737  24.804  38.352  1.00  0.00    -0.237 OA
ATOM     76  O   UNL A   1      44.845  25.989  39.418  1.00  0.00    -0.237 OA
ATOM     77  O   UNL A   1      44.430  24.397  37.583  1.00  0.00    -0.744 OA
ENDBRANCH  70  74
ENDBRANCH  44  67
ENDBRANCH  18  19
ENDBRANCH  11  13
ENDBRANCH   8   9
ENDBRANCH   7   8
ENDBRANCH   6   7
ENDBRANCH   5   6
ENDBRANCH   1   5
BRANCH   2  78
ATOM     78  C   UNL A   1      34.544  29.958  27.360  1.00  0.00     0.040 A 
ATOM     79  C   UNL A   1      33.488  30.866  27.294  1.00  0.00     0.014 A 
ATOM     80  C   UNL A   1      34.338  28.597  27.124  1.00  0.00     0.018 A 
ATOM     81  C   UNL A   1      32.227  30.411  26.919  1.00  0.00     0.001 A 
ATOM     82  C   UNL A   1      33.093  28.133  26.705  1.00  0.00    -0.039 A 
ATOM     83  C   UNL A   1      32.038  29.060  26.608  1.00  0.00     0.004 A 
BRANCH  82  84
ATOM     84  C   UNL A   1      32.884  26.695  26.272  1.00  0.00     0.074 C 
ATOM     85  C   UNL A   1      33.989  26.104  25.382  1.00  0.00     0.020 C 
ATOM     86  C   UNL A   1      31.468  26.459  25.692  1.00  0.00     0.270 C 
ATOM     87  C   UNL A   1      33.729  26.240  23.884  1.00  0.00     0.062 C 
ATOM     88  N   UNL A   1      31.300  26.566  24.232  1.00  0.00    -0.331 N 
ATOM     89  C   UNL A   1      32.318  25.797  23.510  1.00  0.00     0.262 C 
ATOM     90  H   UNL A   1      31.436  27.550  23.999  1.00  0.00     0.348 HD
BRANCH  88  91
ATOM     91  C   UNL A   1      29.925  26.213  23.784  1.00  0.00     0.299 C 
BRANCH  91  92
ATOM     92  C   UNL A   1      29.034  27.376  23.369  1.00  0.00     0.010 A 
ATOM     93  C   UNL A   1      27.677  27.413  23.716  1.00  0.00     0.010 A 
ATOM     94  C   UNL A   1      29.586  28.486  22.705  1.00  0.00     0.056 A 
ATOM     95  C   UNL A   1      26.916  28.556  23.460  1.00  0.00     0.004 A 
ATOM     96  C   UNL A   1      28.868  29.670  22.557  1.00  0.00     0.119 A 
ATOM     97  C   UNL A   1      27.518  29.688  22.906  1.00  0.00     0.046 A 
BRANCH  96  98
ATOM     98  O   UNL A   1      29.384  30.866  22.137  1.00  0.00    -0.491 OA
BRANCH  98  99
ATOM     99  C   UNL A   1      28.509  32.000  22.050  1.00  0.00     0.257 C 
BRANCH  99 100
ATOM    100  C   UNL A   1      28.098  32.317  20.607  1.00  0.00     0.197 C 
BRANCH 100 101
ATOM    101  O   UNL A   1      27.356  33.524  20.485  1.00  0.00    -0.393 OA
ATOM    102  H   UNL A   1      27.088  33.647  19.562  1.00  0.00     0.210 HD
ENDBRANCH 100 101
ENDBRANCH  99 100
ENDBRANCH  98  99
ENDBRANCH  96  98
ENDBRANCH  91  92
ENDBRANCH  88  91
ENDBRANCH  82  84
ENDBRANCH   2  78
TORSDOF 21
ENDMDL
MODEL 3
REMARK VINA RESULT:     -10.6      1.376      7.625
REMARK SMILES O=C(NCCCCNC(=O)c1cccc([C@@H]2CCC[N@@H+](Cc3cccc(OCCO)c3)C2)c1)c1ccc(-c2c3nc(c(-c4cc(S(=O)(=O)[O-])ccc4F)c4ccc([nH]4)c(-c4cc(S(=O)(=O)[O-])ccc4F)c4nc(c(-c5cc(S(=O)(=O)[O-])ccc5F)c5ccc2[nH]5)C=C4)C=C3)cc1
REMARK SMILES IDX 8 1 9 2 10 3 7 5 6 6 5 7 4 8 3 9 1 10 2 11 34 13 35 14 96 15
REMARK SMILES IDX 36 16 95 17 37 18 38 19 39 20 89 21 40 22 94 23 88 24 90 25
REMARK SMILES IDX 41 26 93 27 87 28 86 29 42 31 74 32 54 33 73 34 55 35 58 36
REMARK SMILES IDX 72 37 91 38 56 39 57 40 71 42 92 43 59 44 43 45 44 46 52 47
REMARK SMILES IDX 45 48 51 49 53 50 50 51 46 52 47 53 48 54 49 55 75 56 76 57
REMARK SMILES IDX 84 58 77 59 83 60 85 61 82 62 78 63 79 64 80 65 81 66 60 67
REMARK SMILES IDX 61 68 69 69 62 70 68 71 70 72 67 73 63 74 64 75 65 76 66 77
REMARK SMILES IDX 11 78 12 79 33 80 13 81 15 82 14 83 16 84 17 85 32 86 18 87
REMARK SMILES IDX 20 88 19 89 21 91 22 92 23 93 31 94 24 95 26 96 25 97 27 98
REMARK SMILES IDX 28 99 29 100 30 101
REMARK H PARENT 8 4 3 12 90 30 58 41 20 90 30 102
REMARK Flexibility Score: inf
ROOT
ATOM      1  N   UNL A   1      36.046  31.386  28.264  1.00  0.00    -0.352 N 
ATOM      2  C   UNL A   1      35.807  30.173  27.656  1.00  0.00     0.251 C 
ATOM      3  O   UNL A   1      36.716  29.400  27.403  1.00  0.00    -0.269 OA
ATOM      4  H   UNL A   1      36.995  31.629  28.364  1.00  0.00     0.163 HD
ENDROOT
BRANCH   1   5
ATOM      5  C   UNL A   1      35.091  32.358  28.780  1.00  0.00     0.116 C 
BRANCH   5   6
ATOM      6  C   UNL A   1      35.559  33.797  28.598  1.00  0.00     0.023 C 
BRANCH   6   7
ATOM      7  C   UNL A   1      34.508  34.855  28.904  1.00  0.00     0.023 C 
BRANCH   7   8
ATOM      8  C   UNL A   1      33.245  34.329  29.568  1.00  0.00     0.116 C 
BRANCH   8   9
ATOM      9  N   UNL A   1      32.654  35.271  30.511  1.00  0.00    -0.352 N 
ATOM     10  O   UNL A   1      32.345  36.264  32.521  1.00  0.00    -0.269 OA
ATOM     11  C   UNL A   1      33.020  35.521  31.816  1.00  0.00     0.251 C 
ATOM     12  H   UNL A   1      31.894  35.797  30.172  1.00  0.00     0.163 HD
BRANCH  11  13
ATOM     13  C   UNL A   1      34.226  34.859  32.361  1.00  0.00     0.039 A 
ATOM     14  C   UNL A   1      35.444  35.538  32.372  1.00  0.00     0.014 A 
ATOM     15  C   UNL A   1      34.154  33.535  32.803  1.00  0.00     0.014 A 
ATOM     16  C   UNL A   1      36.613  34.841  32.640  1.00  0.00     0.010 A 
ATOM     17  C   UNL A   1      35.324  32.869  33.189  1.00  0.00     0.010 A 
ATOM     18  C   UNL A   1      36.570  33.505  33.075  1.00  0.00    -0.014 A 
BRANCH  18  19
ATOM     19  C   UNL A   1      37.849  32.846  33.455  1.00  0.00     0.031 A 
ATOM     20  C   UNL A   1      38.540  33.147  34.757  1.00  0.00     0.074 A 
ATOM     21  C   UNL A   1      38.339  31.898  32.629  1.00  0.00     0.049 A 
ATOM     22  N   UNL A   1      39.619  32.600  35.260  1.00  0.00    -0.248 NA
ATOM     23  C   UNL A   1      37.957  34.200  35.599  1.00  0.00     0.031 C 
ATOM     24  C   UNL A   1      37.757  31.538  31.331  1.00  0.00     0.029 A 
ATOM     25  N   UNL A   1      39.397  31.040  32.762  1.00  0.00    -0.354 N 
ATOM     26  C   UNL A   1      39.850  33.242  36.472  1.00  0.00     0.074 A 
ATOM     27  C   UNL A   1      38.818  34.250  36.608  1.00  0.00     0.031 C 
ATOM     28  C   UNL A   1      38.418  30.489  30.827  1.00  0.00     0.029 A 
ATOM     29  C   UNL A   1      39.522  30.155  31.717  1.00  0.00     0.049 A 
ATOM     30  H   UNL A   1      40.010  31.056  33.534  1.00  0.00     0.167 HD
ATOM     31  C   UNL A   1      40.824  33.004  37.386  1.00  0.00     0.034 A 
ATOM     32  C   UNL A   1      40.432  29.190  31.485  1.00  0.00     0.034 A 
ATOM     33  C   UNL A   1      41.848  31.995  37.229  1.00  0.00     0.049 A 
ATOM     34  C   UNL A   1      41.508  28.960  32.508  1.00  0.00     0.074 A 
ATOM     35  C   UNL A   1      42.882  31.671  38.091  1.00  0.00     0.029 A 
ATOM     36  N   UNL A   1      41.968  31.143  36.136  1.00  0.00    -0.354 N 
ATOM     37  N   UNL A   1      41.707  29.581  33.648  1.00  0.00    -0.248 NA
ATOM     38  C   UNL A   1      42.477  27.899  32.217  1.00  0.00     0.031 C 
ATOM     39  C   UNL A   1      43.659  30.670  37.495  1.00  0.00     0.029 A 
ATOM     40  C   UNL A   1      43.069  30.313  36.294  1.00  0.00     0.049 A 
ATOM     41  H   UNL A   1      41.359  31.130  35.362  1.00  0.00     0.167 HD
ATOM     42  C   UNL A   1      42.825  28.979  34.213  1.00  0.00     0.074 A 
ATOM     43  C   UNL A   1      43.225  27.919  33.310  1.00  0.00     0.031 C 
ATOM     44  C   UNL A   1      43.474  29.281  35.368  1.00  0.00     0.034 A 
BRANCH  31  45
ATOM     45  C   UNL A   1      40.855  33.876  38.621  1.00  0.00     0.023 A 
ATOM     46  C   UNL A   1      40.043  33.607  39.737  1.00  0.00     0.031 A 
ATOM     47  C   UNL A   1      41.711  34.991  38.686  1.00  0.00     0.131 A 
ATOM     48  C   UNL A   1      40.064  34.470  40.845  1.00  0.00     0.055 A 
ATOM     49  C   UNL A   1      41.780  35.804  39.819  1.00  0.00     0.041 A 
ATOM     50  F   UNL A   1      42.496  35.310  37.645  1.00  0.00    -0.206 F 
ATOM     51  C   UNL A   1      40.945  35.553  40.904  1.00  0.00     0.022 A 
BRANCH  48  52
ATOM     52  S   UNL A   1      38.841  34.226  42.163  1.00  0.00     0.124 S 
ATOM     53  O   UNL A   1      39.692  33.836  43.285  1.00  0.00    -0.237 OA
ATOM     54  O   UNL A   1      38.216  35.539  42.262  1.00  0.00    -0.237 OA
ATOM     55  O   UNL A   1      37.982  33.164  41.644  1.00  0.00    -0.744 OA
ENDBRANCH  48  52
ENDBRANCH  31  45
BRANCH  32  56
ATOM     56  C   UNL A   1      40.390  28.408  30.216  1.00  0.00     0.023 A 
ATOM     57  C   UNL A   1      41.305  28.645  29.179  1.00  0.00     0.031 A 
ATOM     58  C   UNL A   1      39.401  27.427  30.011  1.00  0.00     0.131 A 
ATOM     59  C   UNL A   1      41.184  27.944  27.968  1.00  0.00     0.055 A 
ATOM     60  C   UNL A   1      39.326  26.688  28.832  1.00  0.00     0.041 A 
ATOM     61  F   UNL A   1      38.502  27.158  30.972  1.00  0.00    -0.206 F 
ATOM     62  C   UNL A   1      40.212  26.957  27.795  1.00  0.00     0.022 A 
BRANCH  59  63
ATOM     63  S   UNL A   1      42.254  28.415  26.582  1.00  0.00     0.124 S 
ATOM     64  O   UNL A   1      42.382  29.854  26.780  1.00  0.00    -0.237 OA
ATOM     65  O   UNL A   1      43.451  27.622  26.843  1.00  0.00    -0.237 OA
ATOM     66  O   UNL A   1      41.484  28.011  25.407  1.00  0.00    -0.744 OA
ENDBRANCH  59  63
ENDBRANCH  32  56
BRANCH  44  67
ATOM     67  C   UNL A   1      44.672  28.428  35.706  1.00  0.00     0.023 A 
ATOM     68  C   UNL A   1      45.942  28.706  35.170  1.00  0.00     0.031 A 
ATOM     69  C   UNL A   1      44.531  27.293  36.522  1.00  0.00     0.131 A 
ATOM     70  C   UNL A   1      47.003  27.816  35.391  1.00  0.00     0.055 A 
ATOM     71  C   UNL A   1      45.609  26.448  36.795  1.00  0.00     0.041 A 
ATOM     72  F   UNL A   1      43.341  26.980  37.058  1.00  0.00    -0.206 F 
ATOM     73  C   UNL A   1      46.848  26.697  36.213  1.00  0.00     0.022 A 
BRANCH  70  74
ATOM     74  S   UNL A   1      48.555  28.075  34.488  1.00  0.00     0.124 S 
ATOM     75  O   UNL A   1      49.468  27.180  35.193  1.00  0.00    -0.237 OA
ATOM     76  O   UNL A   1      48.195  27.679  33.130  1.00  0.00    -0.237 OA
ATOM     77  O   UNL A   1      48.823  29.501  34.668  1.00  0.00    -0.744 OA
ENDBRANCH  70  74
ENDBRANCH  44  67
ENDBRANCH  18  19
ENDBRANCH  11  13
ENDBRANCH   8   9
ENDBRANCH   7   8
ENDBRANCH   6   7
ENDBRANCH   5   6
ENDBRANCH   1   5
BRANCH   2  78
ATOM     78  C   UNL A   1      34.417  29.808  27.325  1.00  0.00     0.040 A 
ATOM     79  C   UNL A   1      33.490  30.818  27.069  1.00  0.00     0.014 A 
ATOM     80  C   UNL A   1      34.059  28.461  27.222  1.00  0.00     0.018 A 
ATOM     81  C   UNL A   1      32.213  30.471  26.639  1.00  0.00     0.001 A 
ATOM     82  C   UNL A   1      32.800  28.099  26.750  1.00  0.00    -0.039 A 
ATOM     83  C   UNL A   1      31.879  29.123  26.462  1.00  0.00     0.004 A 
BRANCH  82  84
ATOM     84  C   UNL A   1      32.444  26.654  26.460  1.00  0.00     0.074 C 
ATOM     85  C   UNL A   1      33.604  25.772  25.967  1.00  0.00     0.020 C 
ATOM     86  C   UNL A   1      31.186  26.529  25.568  1.00  0.00     0.270 C 
ATOM     87  C   UNL A   1      33.731  25.695  24.448  1.00  0.00     0.062 C 
ATOM     88  N   UNL A   1      31.387  26.416  24.112  1.00  0.00    -0.331 N 
ATOM     89  C   UNL A   1      32.391  25.401  23.780  1.00  0.00     0.262 C 
ATOM     90  H   UNL A   1      31.748  27.319  23.802  1.00  0.00     0.348 HD
BRANCH  88  91
ATOM     91  C   UNL A   1      30.114  26.193  23.372  1.00  0.00     0.299 C 
BRANCH  91  92
ATOM     92  C   UNL A   1      29.208  27.406  23.214  1.00  0.00     0.010 A 
ATOM     93  C   UNL A   1      27.869  27.371  23.624  1.00  0.00     0.010 A 
ATOM     94  C   UNL A   1      29.730  28.620  22.735  1.00  0.00     0.056 A 
ATOM     95  C   UNL A   1      27.099  28.536  23.614  1.00  0.00     0.004 A 
ATOM     96  C   UNL A   1      29.009  29.807  22.836  1.00  0.00     0.119 A 
ATOM     97  C   UNL A   1      27.677  29.753  23.244  1.00  0.00     0.046 A 
BRANCH  96  98
ATOM     98  O   UNL A   1      29.507  31.063  22.614  1.00  0.00    -0.491 OA
BRANCH  98  99
ATOM     99  C   UNL A   1      28.642  32.190  22.812  1.00  0.00     0.257 C 
BRANCH  99 100
ATOM    100  C   UNL A   1      28.156  32.800  21.491  1.00  0.00     0.197 C 
BRANCH 100 101
ATOM    101  O   UNL A   1      28.640  32.114  20.343  1.00  0.00    -0.393 OA
ATOM    102  H   UNL A   1      28.376  32.595  19.544  1.00  0.00     0.210 HD
ENDBRANCH 100 101
ENDBRANCH  99 100
ENDBRANCH  98  99
ENDBRANCH  96  98
ENDBRANCH  91  92
ENDBRANCH  88  91
ENDBRANCH  82  84
ENDBRANCH   2  78
TORSDOF 21
ENDMDL
