MODEL 1
REMARK VINA RESULT:     -12.1      0.000      0.000
REMARK SMILES O=C(NCCCCNC(=O)[C@H]1CCCN(C(=O)c2ccc(NC(=O)c3ccccc3)cc2)C1)c1ccc(-c2c3nc(c(-c4cc(S(=O)(=O)[O-])ccc4F)c4ccc([nH]4)c(-c4cc(S(=O)(=O)[O-])ccc4F)c4nc(c(-c5cc(S(=O)(=O)[O-])ccc5F)c5ccc2[nH]5)C=C4)C=C3)cc1
REMARK SMILES IDX 6 1 5 2 4 3 3 4 1 5 2 6 34 8 35 9 96 10 36 11 95 12 37 13
REMARK SMILES IDX 38 14 39 15 89 16 40 17 94 18 88 19 90 20 41 21 93 22 87 23
REMARK SMILES IDX 86 24 42 26 74 27 54 28 73 29 55 30 58 31 72 32 91 33 56 34
REMARK SMILES IDX 57 35 71 37 92 38 59 39 43 40 44 41 52 42 45 43 51 44 53 45
REMARK SMILES IDX 50 46 46 47 47 48 48 49 49 50 75 51 76 52 84 53 77 54 83 55
REMARK SMILES IDX 85 56 82 57 78 58 79 59 80 60 81 61 60 62 61 63 69 64 62 65
REMARK SMILES IDX 68 66 70 67 67 68 63 69 64 70 65 71 66 72 7 73 8 74 9 75
REMARK SMILES IDX 10 77 11 78 12 79 33 80 13 81 15 82 14 83 16 84 17 85 18 86
REMARK SMILES IDX 19 87 32 88 20 89 31 90 21 91 22 92 23 93 24 95 25 96 26 97
REMARK SMILES IDX 30 98 27 99 29 100 28 101
REMARK H PARENT 3 7 90 25 58 36 8 76 22 94
REMARK Flexibility Score: inf
ROOT
ATOM      1  C   UNL A   1      32.733  31.233  27.150  1.00  0.00     0.023 C 
ENDROOT
BRANCH   1   2
ATOM      2  C   UNL A   1      33.670  32.044  28.040  1.00  0.00     0.023 C 
BRANCH   2   3
ATOM      3  C   UNL A   1      33.752  33.520  27.684  1.00  0.00     0.116 C 
BRANCH   3   4
ATOM      4  N   UNL A   1      33.105  34.380  28.663  1.00  0.00    -0.352 N 
ATOM      5  O   UNL A   1      32.764  35.232  30.729  1.00  0.00    -0.269 OA
ATOM      6  C   UNL A   1      33.467  34.565  29.975  1.00  0.00     0.251 C 
ATOM      7  H   UNL A   1      32.321  34.887  28.350  1.00  0.00     0.163 HD
BRANCH   6   8
ATOM      8  C   UNL A   1      34.700  33.918  30.462  1.00  0.00     0.039 A 
ATOM      9  C   UNL A   1      34.620  32.882  31.398  1.00  0.00     0.014 A 
ATOM     10  C   UNL A   1      35.937  34.378  30.010  1.00  0.00     0.014 A 
ATOM     11  C   UNL A   1      35.783  32.374  31.960  1.00  0.00     0.010 A 
ATOM     12  C   UNL A   1      37.106  33.813  30.520  1.00  0.00     0.010 A 
ATOM     13  C   UNL A   1      37.035  32.812  31.502  1.00  0.00    -0.014 A 
BRANCH  13  14
ATOM     14  C   UNL A   1      38.257  32.112  31.964  1.00  0.00     0.031 A 
ATOM     15  C   UNL A   1      38.886  31.020  31.151  1.00  0.00     0.074 A 
ATOM     16  C   UNL A   1      38.777  32.483  33.151  1.00  0.00     0.049 A 
ATOM     17  N   UNL A   1      39.926  30.283  31.439  1.00  0.00    -0.248 NA
ATOM     18  C   UNL A   1      38.269  30.711  29.852  1.00  0.00     0.031 C 
ATOM     19  C   UNL A   1      38.225  33.532  34.017  1.00  0.00     0.029 A 
ATOM     20  N   UNL A   1      39.870  32.031  33.840  1.00  0.00    -0.354 N 
ATOM     21  C   UNL A   1      40.079  29.405  30.373  1.00  0.00     0.074 A 
ATOM     22  C   UNL A   1      39.017  29.696  29.432  1.00  0.00     0.031 C 
ATOM     23  C   UNL A   1      38.992  33.653  35.108  1.00  0.00     0.029 A 
ATOM     24  C   UNL A   1      40.041  32.644  35.059  1.00  0.00     0.049 A 
ATOM     25  H   UNL A   1      40.476  31.334  33.495  1.00  0.00     0.167 HD
ATOM     26  C   UNL A   1      41.022  28.445  30.206  1.00  0.00     0.034 A 
ATOM     27  C   UNL A   1      40.916  32.391  36.050  1.00  0.00     0.034 A 
ATOM     28  C   UNL A   1      42.079  28.188  31.156  1.00  0.00     0.049 A 
ATOM     29  C   UNL A   1      41.918  31.289  35.851  1.00  0.00     0.074 A 
ATOM     30  C   UNL A   1      43.138  27.304  31.046  1.00  0.00     0.029 A 
ATOM     31  N   UNL A   1      42.198  28.796  32.399  1.00  0.00    -0.354 N 
ATOM     32  N   UNL A   1      42.085  30.507  34.809  1.00  0.00    -0.248 NA
ATOM     33  C   UNL A   1      42.844  31.029  36.958  1.00  0.00     0.031 C 
ATOM     34  C   UNL A   1      43.853  27.324  32.249  1.00  0.00     0.029 A 
ATOM     35  C   UNL A   1      43.281  28.268  33.087  1.00  0.00     0.049 A 
ATOM     36  H   UNL A   1      41.600  29.499  32.743  1.00  0.00     0.167 HD
ATOM     37  C   UNL A   1      43.141  29.665  35.136  1.00  0.00     0.074 A 
ATOM     38  C   UNL A   1      43.591  30.057  36.457  1.00  0.00     0.031 C 
ATOM     39  C   UNL A   1      43.688  28.654  34.415  1.00  0.00     0.034 A 
BRANCH  26  40
ATOM     40  C   UNL A   1      40.936  27.565  28.985  1.00  0.00     0.023 A 
ATOM     41  C   UNL A   1      41.847  27.671  27.920  1.00  0.00     0.031 A 
ATOM     42  C   UNL A   1      39.941  26.573  28.908  1.00  0.00     0.131 A 
ATOM     43  C   UNL A   1      41.724  26.820  26.811  1.00  0.00     0.055 A 
ATOM     44  C   UNL A   1      39.859  25.694  27.828  1.00  0.00     0.041 A 
ATOM     45  F   UNL A   1      39.033  26.441  29.888  1.00  0.00    -0.206 F 
ATOM     46  C   UNL A   1      40.752  25.817  26.767  1.00  0.00     0.022 A 
BRANCH  43  47
ATOM     47  S   UNL A   1      42.810  27.087  25.381  1.00  0.00     0.124 S 
ATOM     48  O   UNL A   1      42.677  25.819  24.668  1.00  0.00    -0.237 OA
ATOM     49  O   UNL A   1      42.207  28.248  24.738  1.00  0.00    -0.237 OA
ATOM     50  O   UNL A   1      44.121  27.319  25.984  1.00  0.00    -0.744 OA
ENDBRANCH  43  47
ENDBRANCH  26  40
BRANCH  27  51
ATOM     51  C   UNL A   1      40.836  33.140  37.335  1.00  0.00     0.023 A 
ATOM     52  C   UNL A   1      40.019  32.696  38.385  1.00  0.00     0.031 A 
ATOM     53  C   UNL A   1      41.550  34.340  37.516  1.00  0.00     0.131 A 
ATOM     54  C   UNL A   1      39.900  33.468  39.550  1.00  0.00     0.055 A 
ATOM     55  C   UNL A   1      41.474  35.074  38.700  1.00  0.00     0.041 A 
ATOM     56  F   UNL A   1      42.348  34.810  36.543  1.00  0.00    -0.206 F 
ATOM     57  C   UNL A   1      40.632  34.646  39.721  1.00  0.00     0.022 A 
BRANCH  54  58
ATOM     58  S   UNL A   1      38.689  32.965  40.801  1.00  0.00     0.124 S 
ATOM     59  O   UNL A   1      39.170  31.637  41.167  1.00  0.00    -0.237 OA
ATOM     60  O   UNL A   1      38.850  34.006  41.810  1.00  0.00    -0.237 OA
ATOM     61  O   UNL A   1      37.420  32.992  40.076  1.00  0.00    -0.744 OA
ENDBRANCH  54  58
ENDBRANCH  27  51
BRANCH  39  62
ATOM     62  C   UNL A   1      44.836  27.921  35.056  1.00  0.00     0.023 A 
ATOM     63  C   UNL A   1      44.622  26.763  35.823  1.00  0.00     0.031 A 
ATOM     64  C   UNL A   1      46.150  28.401  34.927  1.00  0.00     0.131 A 
ATOM     65  C   UNL A   1      45.700  26.152  36.479  1.00  0.00     0.055 A 
ATOM     66  C   UNL A   1      47.228  27.756  35.535  1.00  0.00     0.041 A 
ATOM     67  F   UNL A   1      46.406  29.506  34.209  1.00  0.00    -0.206 F 
ATOM     68  C   UNL A   1      47.003  26.633  36.326  1.00  0.00     0.022 A 
BRANCH  65  69
ATOM     69  S   UNL A   1      45.364  24.768  37.601  1.00  0.00     0.124 S 
ATOM     70  O   UNL A   1      44.227  25.270  38.367  1.00  0.00    -0.237 OA
ATOM     71  O   UNL A   1      45.077  23.677  36.676  1.00  0.00    -0.237 OA
ATOM     72  O   UNL A   1      46.608  24.629  38.355  1.00  0.00    -0.744 OA
ENDBRANCH  65  69
ENDBRANCH  39  62
ENDBRANCH  13  14
ENDBRANCH   6   8
ENDBRANCH   3   4
ENDBRANCH   2   3
ENDBRANCH   1   2
BRANCH   1  73
ATOM     73  C   UNL A   1      33.179  29.790  26.910  1.00  0.00     0.116 C 
BRANCH  73  74
ATOM     74  N   UNL A   1      33.690  29.617  25.563  1.00  0.00    -0.356 N 
ATOM     75  C   UNL A   1      33.077  29.200  24.422  1.00  0.00     0.224 C 
ATOM     76  H   UNL A   1      34.643  29.838  25.456  1.00  0.00     0.163 HD
ATOM     77  O   UNL A   1      33.781  29.024  23.426  1.00  0.00    -0.275 OA
BRANCH  75  78
ATOM     78  C   UNL A   1      31.570  28.991  24.341  1.00  0.00     0.098 C 
ATOM     79  C   UNL A   1      30.804  30.195  23.772  1.00  0.00     0.017 C 
ATOM     80  C   UNL A   1      31.264  27.654  23.654  1.00  0.00     0.133 C 
ATOM     81  C   UNL A   1      29.338  29.883  23.491  1.00  0.00     0.022 C 
ATOM     82  N   UNL A   1      29.831  27.491  23.416  1.00  0.00    -0.338 N 
ATOM     83  C   UNL A   1      29.208  28.595  22.687  1.00  0.00     0.120 C 
BRANCH  82  84
ATOM     84  C   UNL A   1      29.174  26.422  24.023  1.00  0.00     0.253 C 
ATOM     85  O   UNL A   1      27.960  26.383  24.207  1.00  0.00    -0.269 OA
BRANCH  84  86
ATOM     86  C   UNL A   1      29.948  25.229  24.421  1.00  0.00     0.040 A 
ATOM     87  C   UNL A   1      30.169  25.021  25.781  1.00  0.00     0.016 A 
ATOM     88  C   UNL A   1      30.481  24.343  23.484  1.00  0.00     0.016 A 
ATOM     89  C   UNL A   1      30.833  23.870  26.208  1.00  0.00     0.027 A 
ATOM     90  C   UNL A   1      31.108  23.173  23.922  1.00  0.00     0.027 A 
ATOM     91  C   UNL A   1      31.236  22.897  25.290  1.00  0.00     0.041 A 
BRANCH  91  92
ATOM     92  N   UNL A   1      31.780  21.648  25.641  1.00  0.00    -0.322 N 
ATOM     93  C   UNL A   1      33.061  21.144  25.590  1.00  0.00     0.255 C 
ATOM     94  H   UNL A   1      31.116  21.010  25.992  1.00  0.00     0.170 HD
ATOM     95  O   UNL A   1      33.259  19.948  25.801  1.00  0.00    -0.269 OA
BRANCH  93  96
ATOM     96  C   UNL A   1      34.226  22.011  25.333  1.00  0.00     0.040 A 
ATOM     97  C   UNL A   1      34.703  22.111  24.023  1.00  0.00     0.014 A 
ATOM     98  C   UNL A   1      34.834  22.733  26.368  1.00  0.00     0.014 A 
ATOM     99  C   UNL A   1      35.744  22.993  23.733  1.00  0.00     0.001 A 
ATOM    100  C   UNL A   1      35.871  23.619  26.070  1.00  0.00     0.001 A 
ATOM    101  C   UNL A   1      36.316  23.756  24.753  1.00  0.00     0.000 A 
ENDBRANCH  93  96
ENDBRANCH  91  92
ENDBRANCH  84  86
ENDBRANCH  82  84
ENDBRANCH  75  78
ENDBRANCH  73  74
ENDBRANCH   1  73
TORSDOF 18
ENDMDL
MODEL 2
REMARK VINA RESULT:     -12.1      5.501     11.388
REMARK SMILES O=C(NCCCCNC(=O)[C@H]1CCCN(C(=O)c2ccc(NC(=O)c3ccccc3)cc2)C1)c1ccc(-c2c3nc(c(-c4cc(S(=O)(=O)[O-])ccc4F)c4ccc([nH]4)c(-c4cc(S(=O)(=O)[O-])ccc4F)c4nc(c(-c5cc(S(=O)(=O)[O-])ccc5F)c5ccc2[nH]5)C=C4)C=C3)cc1
REMARK SMILES IDX 6 1 5 2 4 3 3 4 1 5 2 6 34 8 35 9 96 10 36 11 95 12 37 13
REMARK SMILES IDX 38 14 39 15 89 16 40 17 94 18 88 19 90 20 41 21 93 22 87 23
REMARK SMILES IDX 86 24 42 26 74 27 54 28 73 29 55 30 58 31 72 32 91 33 56 34
REMARK SMILES IDX 57 35 71 37 92 38 59 39 43 40 44 41 52 42 45 43 51 44 53 45
REMARK SMILES IDX 50 46 46 47 47 48 48 49 49 50 75 51 76 52 84 53 77 54 83 55
REMARK SMILES IDX 85 56 82 57 78 58 79 59 80 60 81 61 60 62 61 63 69 64 62 65
REMARK SMILES IDX 68 66 70 67 67 68 63 69 64 70 65 71 66 72 7 73 8 74 9 75
REMARK SMILES IDX 10 77 11 78 12 79 33 80 13 81 15 82 14 83 16 84 17 85 18 86
REMARK SMILES IDX 19 87 32 88 20 89 31 90 21 91 22 92 23 93 24 95 25 96 26 97
REMARK SMILES IDX 30 98 27 99 29 100 28 101
REMARK H PARENT 3 7 90 25 58 36 8 76 22 94
REMARK Flexibility Score: inf
ROOT
ATOM      1  C   UNL A   1      36.980  21.049  24.610  1.00  0.00     0.023 C 
ENDROOT
BRANCH   1   2
ATOM      2  C   UNL A   1      38.175  20.101  24.630  1.00  0.00     0.023 C 
BRANCH   2   3
ATOM      3  C   UNL A   1      39.114  20.300  25.809  1.00  0.00     0.116 C 
BRANCH   3   4
ATOM      4  N   UNL A   1      40.131  19.264  25.909  1.00  0.00    -0.352 N 
ATOM      5  O   UNL A   1      42.244  18.484  26.107  1.00  0.00    -0.269 OA
ATOM      6  C   UNL A   1      41.471  19.436  26.164  1.00  0.00     0.251 C 
ATOM      7  H   UNL A   1      39.826  18.337  25.782  1.00  0.00     0.163 HD
BRANCH   6   8
ATOM      8  C   UNL A   1      41.958  20.793  26.475  1.00  0.00     0.039 A 
ATOM      9  C   UNL A   1      42.193  21.703  25.440  1.00  0.00     0.014 A 
ATOM     10  C   UNL A   1      42.219  21.138  27.803  1.00  0.00     0.014 A 
ATOM     11  C   UNL A   1      42.786  22.926  25.723  1.00  0.00     0.010 A 
ATOM     12  C   UNL A   1      42.744  22.397  28.092  1.00  0.00     0.010 A 
ATOM     13  C   UNL A   1      43.036  23.296  27.054  1.00  0.00    -0.014 A 
BRANCH  13  14
ATOM     14  C   UNL A   1      43.474  24.680  27.347  1.00  0.00     0.031 A 
ATOM     15  C   UNL A   1      42.518  25.706  27.880  1.00  0.00     0.074 A 
ATOM     16  C   UNL A   1      44.763  24.991  27.104  1.00  0.00     0.049 A 
ATOM     17  N   UNL A   1      42.736  26.968  28.142  1.00  0.00    -0.248 NA
ATOM     18  C   UNL A   1      41.141  25.264  28.148  1.00  0.00     0.031 C 
ATOM     19  C   UNL A   1      45.765  24.057  26.576  1.00  0.00     0.029 A 
ATOM     20  N   UNL A   1      45.456  26.161  27.261  1.00  0.00    -0.354 N 
ATOM     21  C   UNL A   1      41.523  27.481  28.584  1.00  0.00     0.074 A 
ATOM     22  C   UNL A   1      40.567  26.394  28.546  1.00  0.00     0.031 C 
ATOM     23  C   UNL A   1      46.942  24.687  26.470  1.00  0.00     0.029 A 
ATOM     24  C   UNL A   1      46.765  26.083  26.847  1.00  0.00     0.049 A 
ATOM     25  H   UNL A   1      45.054  26.981  27.633  1.00  0.00     0.167 HD
ATOM     26  C   UNL A   1      41.243  28.748  28.980  1.00  0.00     0.034 A 
ATOM     27  C   UNL A   1      47.708  27.037  26.740  1.00  0.00     0.034 A 
ATOM     28  C   UNL A   1      42.222  29.808  29.021  1.00  0.00     0.049 A 
ATOM     29  C   UNL A   1      47.350  28.440  27.142  1.00  0.00     0.074 A 
ATOM     30  C   UNL A   1      42.070  31.101  29.490  1.00  0.00     0.029 A 
ATOM     31  N   UNL A   1      43.527  29.706  28.556  1.00  0.00    -0.354 N 
ATOM     32  N   UNL A   1      46.211  28.894  27.615  1.00  0.00    -0.248 NA
ATOM     33  C   UNL A   1      48.395  29.458  26.995  1.00  0.00     0.031 C 
ATOM     34  C   UNL A   1      43.257  31.800  29.240  1.00  0.00     0.029 A 
ATOM     35  C   UNL A   1      44.174  30.927  28.677  1.00  0.00     0.049 A 
ATOM     36  H   UNL A   1      43.934  28.886  28.192  1.00  0.00     0.167 HD
ATOM     37  C   UNL A   1      46.408  30.254  27.825  1.00  0.00     0.074 A 
ATOM     38  C   UNL A   1      47.782  30.536  27.459  1.00  0.00     0.031 C 
ATOM     39  C   UNL A   1      45.534  31.189  28.274  1.00  0.00     0.034 A 
BRANCH  26  40
ATOM     40  C   UNL A   1      39.820  29.080  29.353  1.00  0.00     0.023 A 
ATOM     41  C   UNL A   1      39.411  29.221  30.690  1.00  0.00     0.031 A 
ATOM     42  C   UNL A   1      38.867  29.298  28.342  1.00  0.00     0.131 A 
ATOM     43  C   UNL A   1      38.075  29.540  30.979  1.00  0.00     0.055 A 
ATOM     44  C   UNL A   1      37.554  29.670  28.636  1.00  0.00     0.041 A 
ATOM     45  F   UNL A   1      39.200  29.158  27.049  1.00  0.00    -0.206 F 
ATOM     46  C   UNL A   1      37.149  29.787  29.962  1.00  0.00     0.022 A 
BRANCH  43  47
ATOM     47  S   UNL A   1      37.536  29.555  32.712  1.00  0.00     0.124 S 
ATOM     48  O   UNL A   1      37.432  28.127  33.002  1.00  0.00    -0.237 OA
ATOM     49  O   UNL A   1      38.625  30.263  33.375  1.00  0.00    -0.237 OA
ATOM     50  O   UNL A   1      36.262  30.269  32.670  1.00  0.00    -0.744 OA
ENDBRANCH  43  47
ENDBRANCH  26  40
BRANCH  27  51
ATOM     51  C   UNL A   1      49.043  26.716  26.163  1.00  0.00     0.023 A 
ATOM     52  C   UNL A   1      50.164  26.532  26.984  1.00  0.00     0.031 A 
ATOM     53  C   UNL A   1      49.223  26.626  24.769  1.00  0.00     0.131 A 
ATOM     54  C   UNL A   1      51.423  26.314  26.406  1.00  0.00     0.055 A 
ATOM     55  C   UNL A   1      50.467  26.351  24.201  1.00  0.00     0.041 A 
ATOM     56  F   UNL A   1      48.182  26.792  23.937  1.00  0.00    -0.206 F 
ATOM     57  C   UNL A   1      51.581  26.208  25.021  1.00  0.00     0.022 A 
BRANCH  54  58
ATOM     58  S   UNL A   1      52.877  26.277  27.488  1.00  0.00     0.124 S 
ATOM     59  O   UNL A   1      53.613  25.133  26.961  1.00  0.00    -0.237 OA
ATOM     60  O   UNL A   1      53.468  27.588  27.242  1.00  0.00    -0.237 OA
ATOM     61  O   UNL A   1      52.304  26.092  28.820  1.00  0.00    -0.744 OA
ENDBRANCH  54  58
ENDBRANCH  27  51
BRANCH  39  62
ATOM     62  C   UNL A   1      46.060  32.595  28.393  1.00  0.00     0.023 A 
ATOM     63  C   UNL A   1      46.175  33.425  27.265  1.00  0.00     0.031 A 
ATOM     64  C   UNL A   1      46.479  33.096  29.636  1.00  0.00     0.131 A 
ATOM     65  C   UNL A   1      46.749  34.698  27.393  1.00  0.00     0.055 A 
ATOM     66  C   UNL A   1      46.997  34.385  29.768  1.00  0.00     0.041 A 
ATOM     67  F   UNL A   1      46.395  32.340  30.742  1.00  0.00    -0.206 F 
ATOM     68  C   UNL A   1      47.146  35.188  28.640  1.00  0.00     0.022 A 
BRANCH  65  69
ATOM     69  S   UNL A   1      47.045  35.673  25.893  1.00  0.00     0.124 S 
ATOM     70  O   UNL A   1      46.393  36.937  26.221  1.00  0.00    -0.237 OA
ATOM     71  O   UNL A   1      48.502  35.707  25.823  1.00  0.00    -0.237 OA
ATOM     72  O   UNL A   1      46.394  34.892  24.844  1.00  0.00    -0.744 OA
ENDBRANCH  65  69
ENDBRANCH  39  62
ENDBRANCH  13  14
ENDBRANCH   6   8
ENDBRANCH   3   4
ENDBRANCH   2   3
ENDBRANCH   1   2
BRANCH   1  73
ATOM     73  C   UNL A   1      36.806  21.875  25.885  1.00  0.00     0.116 C 
BRANCH  73  74
ATOM     74  N   UNL A   1      35.607  21.484  26.603  1.00  0.00    -0.356 N 
ATOM     75  C   UNL A   1      34.291  21.669  26.311  1.00  0.00     0.224 C 
ATOM     76  H   UNL A   1      35.774  21.003  27.445  1.00  0.00     0.163 HD
ATOM     77  O   UNL A   1      33.464  21.339  27.164  1.00  0.00    -0.275 OA
BRANCH  75  78
ATOM     78  C   UNL A   1      33.827  22.221  24.969  1.00  0.00     0.098 C 
ATOM     79  C   UNL A   1      32.962  21.245  24.158  1.00  0.00     0.017 C 
ATOM     80  C   UNL A   1      33.213  23.614  25.162  1.00  0.00     0.133 C 
ATOM     81  C   UNL A   1      32.329  21.895  22.933  1.00  0.00     0.022 C 
ATOM     82  N   UNL A   1      32.615  24.110  23.924  1.00  0.00    -0.338 N 
ATOM     83  C   UNL A   1      31.644  23.202  23.313  1.00  0.00     0.120 C 
BRANCH  82  84
ATOM     84  C   UNL A   1      33.121  25.282  23.365  1.00  0.00     0.253 C 
ATOM     85  O   UNL A   1      33.765  25.317  22.320  1.00  0.00    -0.269 OA
BRANCH  84  86
ATOM     86  C   UNL A   1      32.827  26.577  24.012  1.00  0.00     0.040 A 
ATOM     87  C   UNL A   1      33.511  27.702  23.554  1.00  0.00     0.016 A 
ATOM     88  C   UNL A   1      31.927  26.691  25.071  1.00  0.00     0.016 A 
ATOM     89  C   UNL A   1      33.214  28.958  24.086  1.00  0.00     0.027 A 
ATOM     90  C   UNL A   1      31.606  27.957  25.569  1.00  0.00     0.027 A 
ATOM     91  C   UNL A   1      32.203  29.108  25.038  1.00  0.00     0.041 A 
BRANCH  91  92
ATOM     92  N   UNL A   1      31.742  30.347  25.521  1.00  0.00    -0.322 N 
ATOM     93  C   UNL A   1      30.746  31.199  25.097  1.00  0.00     0.255 C 
ATOM     94  H   UNL A   1      32.224  30.667  26.318  1.00  0.00     0.170 HD
ATOM     95  O   UNL A   1      30.643  32.319  25.594  1.00  0.00    -0.269 OA
BRANCH  93  96
ATOM     96  C   UNL A   1      29.756  30.790  24.082  1.00  0.00     0.040 A 
ATOM     97  C   UNL A   1      29.975  29.599  23.383  1.00  0.00     0.014 A 
ATOM     98  C   UNL A   1      28.615  31.562  23.832  1.00  0.00     0.014 A 
ATOM     99  C   UNL A   1      29.012  29.140  22.484  1.00  0.00     0.001 A 
ATOM    100  C   UNL A   1      27.651  31.093  22.937  1.00  0.00     0.001 A 
ATOM    101  C   UNL A   1      27.845  29.879  22.274  1.00  0.00     0.000 A 
ENDBRANCH  93  96
ENDBRANCH  91  92
ENDBRANCH  84  86
ENDBRANCH  82  84
ENDBRANCH  75  78
ENDBRANCH  73  74
ENDBRANCH   1  73
TORSDOF 18
ENDMDL
MODEL 3
REMARK VINA RESULT:     -12.0      1.993      2.919
REMARK SMILES O=C(NCCCCNC(=O)[C@H]1CCCN(C(=O)c2ccc(NC(=O)c3ccccc3)cc2)C1)c1ccc(-c2c3nc(c(-c4cc(S(=O)(=O)[O-])ccc4F)c4ccc([nH]4)c(-c4cc(S(=O)(=O)[O-])ccc4F)c4nc(c(-c5cc(S(=O)(=O)[O-])ccc5F)c5ccc2[nH]5)C=C4)C=C3)cc1
REMARK SMILES IDX 6 1 5 2 4 3 3 4 1 5 2 6 34 8 35 9 96 10 36 11 95 12 37 13
REMARK SMILES IDX 38 14 39 15 89 16 40 17 94 18 88 19 90 20 41 21 93 22 87 23
REMARK SMILES IDX 86 24 42 26 74 27 54 28 73 29 55 30 58 31 72 32 91 33 56 34
REMARK SMILES IDX 57 35 71 37 92 38 59 39 43 40 44 41 52 42 45 43 51 44 53 45
REMARK SMILES IDX 50 46 46 47 47 48 48 49 49 50 75 51 76 52 84 53 77 54 83 55
REMARK SMILES IDX 85 56 82 57 78 58 79 59 80 60 81 61 60 62 61 63 69 64 62 65
REMARK SMILES IDX 68 66 70 67 67 68 63 69 64 70 65 71 66 72 7 73 8 74 9 75
REMARK SMILES IDX 10 77 11 78 12 79 33 80 13 81 15 82 14 83 16 84 17 85 18 86
REMARK SMILES IDX 19 87 32 88 20 89 31 90 21 91 22 92 23 93 24 95 25 96 26 97
REMARK SMILES IDX 30 98 27 99 29 100 28 101
REMARK H PARENT 3 7 90 25 58 36 8 76 22 94
REMARK Flexibility Score: inf
ROOT
ATOM      1  C   UNL A   1      31.086  31.861  26.054  1.00  0.00     0.023 C 
ENDROOT
BRANCH   1   2
ATOM      2  C   UNL A   1      31.796  32.122  27.379  1.00  0.00     0.023 C 
BRANCH   2   3
ATOM      3  C   UNL A   1      32.970  33.084  27.284  1.00  0.00     0.116 C 
BRANCH   3   4
ATOM      4  N   UNL A   1      32.684  34.392  27.853  1.00  0.00    -0.352 N 
ATOM      5  O   UNL A   1      32.889  36.049  29.377  1.00  0.00    -0.269 OA
ATOM      6  C   UNL A   1      33.306  34.987  28.924  1.00  0.00     0.251 C 
ATOM      7  H   UNL A   1      31.965  34.909  27.422  1.00  0.00     0.163 HD
BRANCH   6   8
ATOM      8  C   UNL A   1      34.463  34.303  29.532  1.00  0.00     0.039 A 
ATOM      9  C   UNL A   1      35.753  34.565  29.061  1.00  0.00     0.014 A 
ATOM     10  C   UNL A   1      34.249  33.368  30.546  1.00  0.00     0.014 A 
ATOM     11  C   UNL A   1      36.822  33.818  29.535  1.00  0.00     0.010 A 
ATOM     12  C   UNL A   1      35.336  32.672  31.075  1.00  0.00     0.010 A 
ATOM     13  C   UNL A   1      36.627  32.888  30.568  1.00  0.00    -0.014 A 
BRANCH  13  14
ATOM     14  C   UNL A   1      37.808  32.254  31.200  1.00  0.00     0.031 A 
ATOM     15  C   UNL A   1      38.538  31.125  30.534  1.00  0.00     0.074 A 
ATOM     16  C   UNL A   1      38.196  32.719  32.404  1.00  0.00     0.049 A 
ATOM     17  N   UNL A   1      39.557  30.437  30.977  1.00  0.00    -0.248 NA
ATOM     18  C   UNL A   1      38.064  30.712  29.204  1.00  0.00     0.031 C 
ATOM     19  C   UNL A   1      37.538  33.810  33.133  1.00  0.00     0.029 A 
ATOM     20  N   UNL A   1      39.221  32.344  33.230  1.00  0.00    -0.354 N 
ATOM     21  C   UNL A   1      39.836  29.492  29.996  1.00  0.00     0.074 A 
ATOM     22  C   UNL A   1      38.870  29.691  28.935  1.00  0.00     0.031 C 
ATOM     23  C   UNL A   1      38.187  34.024  34.285  1.00  0.00     0.029 A 
ATOM     24  C   UNL A   1      39.255  33.042  34.414  1.00  0.00     0.049 A 
ATOM     25  H   UNL A   1      39.872  31.641  32.998  1.00  0.00     0.167 HD
ATOM     26  C   UNL A   1      40.809  28.548  29.995  1.00  0.00     0.034 A 
ATOM     27  C   UNL A   1      40.028  32.882  35.503  1.00  0.00     0.034 A 
ATOM     28  C   UNL A   1      41.767  28.385  31.062  1.00  0.00     0.049 A 
ATOM     29  C   UNL A   1      41.065  31.795  35.486  1.00  0.00     0.074 A 
ATOM     30  C   UNL A   1      42.848  27.523  31.122  1.00  0.00     0.029 A 
ATOM     31  N   UNL A   1      41.746  29.080  32.265  1.00  0.00    -0.354 N 
ATOM     32  N   UNL A   1      41.353  30.948  34.524  1.00  0.00    -0.248 NA
ATOM     33  C   UNL A   1      41.878  31.636  36.696  1.00  0.00     0.031 C 
ATOM     34  C   UNL A   1      43.435  27.644  32.387  1.00  0.00     0.029 A 
ATOM     35  C   UNL A   1      42.763  28.629  33.094  1.00  0.00     0.049 A 
ATOM     36  H   UNL A   1      41.103  29.788  32.496  1.00  0.00     0.167 HD
ATOM     37  C   UNL A   1      42.386  30.158  35.014  1.00  0.00     0.074 A 
ATOM     38  C   UNL A   1      42.690  30.652  36.343  1.00  0.00     0.031 C 
ATOM     39  C   UNL A   1      43.024  29.115  34.426  1.00  0.00     0.034 A 
BRANCH  26  40
ATOM     40  C   UNL A   1      40.865  27.585  28.836  1.00  0.00     0.023 A 
ATOM     41  C   UNL A   1      41.809  27.711  27.803  1.00  0.00     0.031 A 
ATOM     42  C   UNL A   1      39.976  26.496  28.791  1.00  0.00     0.131 A 
ATOM     43  C   UNL A   1      41.822  26.780  26.753  1.00  0.00     0.055 A 
ATOM     44  C   UNL A   1      40.031  25.543  27.773  1.00  0.00     0.041 A 
ATOM     45  F   UNL A   1      39.042  26.338  29.741  1.00  0.00    -0.206 F 
ATOM     46  C   UNL A   1      40.955  25.684  26.742  1.00  0.00     0.022 A 
BRANCH  43  47
ATOM     47  S   UNL A   1      42.942  27.059  25.352  1.00  0.00     0.124 S 
ATOM     48  O   UNL A   1      42.911  25.759  24.686  1.00  0.00    -0.237 OA
ATOM     49  O   UNL A   1      42.294  28.155  24.642  1.00  0.00    -0.237 OA
ATOM     50  O   UNL A   1      44.213  27.394  25.990  1.00  0.00    -0.744 OA
ENDBRANCH  43  47
ENDBRANCH  26  40
BRANCH  27  51
ATOM     51  C   UNL A   1      39.801  33.714  36.718  1.00  0.00     0.023 A 
ATOM     52  C   UNL A   1      40.638  34.797  37.023  1.00  0.00     0.031 A 
ATOM     53  C   UNL A   1      38.759  33.410  37.615  1.00  0.00     0.131 A 
ATOM     54  C   UNL A   1      40.449  35.508  38.217  1.00  0.00     0.055 A 
ATOM     55  C   UNL A   1      38.540  34.157  38.772  1.00  0.00     0.041 A 
ATOM     56  F   UNL A   1      37.928  32.385  37.370  1.00  0.00    -0.206 F 
ATOM     57  C   UNL A   1      39.398  35.206  39.087  1.00  0.00     0.022 A 
BRANCH  54  58
ATOM     58  S   UNL A   1      41.667  36.772  38.673  1.00  0.00     0.124 S 
ATOM     59  O   UNL A   1      40.813  37.841  39.179  1.00  0.00    -0.237 OA
ATOM     60  O   UNL A   1      42.471  36.069  39.667  1.00  0.00    -0.237 OA
ATOM     61  O   UNL A   1      42.347  37.058  37.412  1.00  0.00    -0.744 OA
ENDBRANCH  54  58
ENDBRANCH  27  51
BRANCH  39  62
ATOM     62  C   UNL A   1      44.113  28.458  35.230  1.00  0.00     0.023 A 
ATOM     63  C   UNL A   1      43.828  27.409  36.122  1.00  0.00     0.031 A 
ATOM     64  C   UNL A   1      45.441  28.904  35.130  1.00  0.00     0.131 A 
ATOM     65  C   UNL A   1      44.849  26.876  36.920  1.00  0.00     0.055 A 
ATOM     66  C   UNL A   1      46.465  28.330  35.885  1.00  0.00     0.041 A 
ATOM     67  F   UNL A   1      45.765  29.906  34.296  1.00  0.00    -0.206 F 
ATOM     68  C   UNL A   1      46.168  27.319  36.795  1.00  0.00     0.022 A 
BRANCH  65  69
ATOM     69  S   UNL A   1      44.414  25.650  38.183  1.00  0.00     0.124 S 
ATOM     70  O   UNL A   1      43.218  25.039  37.612  1.00  0.00    -0.237 OA
ATOM     71  O   UNL A   1      45.604  24.806  38.224  1.00  0.00    -0.237 OA
ATOM     72  O   UNL A   1      44.188  26.458  39.380  1.00  0.00    -0.744 OA
ENDBRANCH  65  69
ENDBRANCH  39  62
ENDBRANCH  13  14
ENDBRANCH   6   8
ENDBRANCH   3   4
ENDBRANCH   2   3
ENDBRANCH   1   2
BRANCH   1  73
ATOM     73  C   UNL A   1      31.390  30.497  25.432  1.00  0.00     0.116 C 
BRANCH  73  74
ATOM     74  N   UNL A   1      30.567  30.260  24.261  1.00  0.00    -0.356 N 
ATOM     75  C   UNL A   1      30.286  29.112  23.585  1.00  0.00     0.224 C 
ATOM     76  H   UNL A   1      30.139  31.065  23.893  1.00  0.00     0.163 HD
ATOM     77  O   UNL A   1      29.645  29.209  22.536  1.00  0.00    -0.275 OA
BRANCH  75  78
ATOM     78  C   UNL A   1      30.699  27.742  24.106  1.00  0.00     0.098 C 
ATOM     79  C   UNL A   1      29.667  26.635  23.836  1.00  0.00     0.017 C 
ATOM     80  C   UNL A   1      32.125  27.416  23.643  1.00  0.00     0.133 C 
ATOM     81  C   UNL A   1      30.197  25.244  24.161  1.00  0.00     0.022 C 
ATOM     82  N   UNL A   1      32.498  26.045  23.990  1.00  0.00    -0.338 N 
ATOM     83  C   UNL A   1      31.562  25.025  23.521  1.00  0.00     0.120 C 
BRANCH  82  84
ATOM     84  C   UNL A   1      33.581  25.848  24.844  1.00  0.00     0.253 C 
ATOM     85  O   UNL A   1      33.974  26.686  25.652  1.00  0.00    -0.269 OA
BRANCH  84  86
ATOM     86  C   UNL A   1      34.274  24.544  24.844  1.00  0.00     0.040 A 
ATOM     87  C   UNL A   1      34.716  24.042  23.621  1.00  0.00     0.016 A 
ATOM     88  C   UNL A   1      34.464  23.802  26.010  1.00  0.00     0.016 A 
ATOM     89  C   UNL A   1      35.439  22.849  23.580  1.00  0.00     0.027 A 
ATOM     90  C   UNL A   1      35.224  22.631  25.966  1.00  0.00     0.027 A 
ATOM     91  C   UNL A   1      35.770  22.176  24.758  1.00  0.00     0.041 A 
BRANCH  91  92
ATOM     92  N   UNL A   1      36.613  21.051  24.822  1.00  0.00    -0.322 N 
ATOM     93  C   UNL A   1      36.356  19.699  24.875  1.00  0.00     0.255 C 
ATOM     94  H   UNL A   1      37.572  21.273  24.830  1.00  0.00     0.170 HD
ATOM     95  O   UNL A   1      37.272  18.908  25.097  1.00  0.00    -0.269 OA
BRANCH  93  96
ATOM     96  C   UNL A   1      35.008  19.154  24.625  1.00  0.00     0.040 A 
ATOM     97  C   UNL A   1      33.908  19.999  24.801  1.00  0.00     0.014 A 
ATOM     98  C   UNL A   1      34.827  17.831  24.205  1.00  0.00     0.014 A 
ATOM     99  C   UNL A   1      32.629  19.541  24.485  1.00  0.00     0.001 A 
ATOM    100  C   UNL A   1      33.546  17.381  23.883  1.00  0.00     0.001 A 
ATOM    101  C   UNL A   1      32.451  18.239  24.012  1.00  0.00     0.000 A 
ENDBRANCH  93  96
ENDBRANCH  91  92
ENDBRANCH  84  86
ENDBRANCH  82  84
ENDBRANCH  75  78
ENDBRANCH  73  74
ENDBRANCH   1  73
TORSDOF 18
ENDMDL
