MODEL 1
REMARK VINA RESULT:     -12.6      0.000      0.000
REMARK SMILES CC(C)CCn1nc(C(=O)NCCCCNC(=O)c2ccc(-c3c4nc(c(-c5cc(S(=O)(=O)[O-])ccc5F)c5ccc([nH]5)c(-c5cc(S(=O)(=O)[O-])ccc5F)c5nc(c(-c6cc(S(=O)(=O)[O-])ccc6F)c6ccc3[nH]6)C=C5)C=C4)cc2)c2c1CCN(C(=O)[C@@H]1CCc3nn(C)c(=O)n3C1)C2
REMARK SMILES IDX 13 1 12 2 11 3 9 4 10 5 8 7 6 8 7 9 83 10 82 11 84 12 100 13
REMARK SMILES IDX 85 14 86 15 5 16 4 17 2 18 1 19 3 20 87 21 88 22 89 23 90 24
REMARK SMILES IDX 99 25 91 26 98 27 92 28 96 29 93 30 94 31 97 32 95 33 14 34
REMARK SMILES IDX 15 35 16 36 17 37 18 39 19 40 20 41 81 42 21 43 80 44 22 45
REMARK SMILES IDX 23 46 24 47 74 48 25 49 79 50 73 51 75 52 26 53 78 54 72 55
REMARK SMILES IDX 71 56 27 58 59 59 39 60 58 61 40 62 43 63 57 64 76 65 41 66
REMARK SMILES IDX 42 67 56 69 77 70 44 71 28 72 29 73 37 74 30 75 36 76 38 77
REMARK SMILES IDX 35 78 31 79 32 80 33 81 34 82 60 83 61 84 69 85 62 86 68 87
REMARK SMILES IDX 70 88 67 89 63 90 64 91 65 92 66 93 45 94 46 95 54 96 47 97
REMARK SMILES IDX 53 98 55 99 52 100 48 101 49 102 50 103 51 104
REMARK H PARENT 11 6 16 38 75 57 43 68
REMARK Flexibility Score: inf
ROOT
ATOM      1  C   UNL A   1      39.703  21.810  26.248  1.00  0.00     0.023 C 
ENDROOT
BRANCH   1   2
ATOM      2  C   UNL A   1      38.191  21.759  25.938  1.00  0.00     0.116 C 
BRANCH   2   3
ATOM      3  N   UNL A   1      37.877  22.181  24.576  1.00  0.00    -0.351 N 
ATOM      4  C   UNL A   1      36.737  22.423  23.829  1.00  0.00     0.272 C 
ATOM      5  O   UNL A   1      36.967  22.952  22.733  1.00  0.00    -0.267 OA
ATOM      6  H   UNL A   1      38.694  22.334  24.048  1.00  0.00     0.163 HD
BRANCH   4   7
ATOM      7  C   UNL A   1      35.341  22.105  24.243  1.00  0.00     0.155 A 
ATOM      8  N   UNL A   1      33.733  20.867  25.006  1.00  0.00    -0.268 N 
ATOM      9  N   UNL A   1      35.037  20.846  24.657  1.00  0.00    -0.167 NA
ATOM     10  C   UNL A   1      33.148  22.047  24.682  1.00  0.00     0.046 A 
ATOM     11  C   UNL A   1      34.183  22.911  24.397  1.00  0.00     0.026 A 
ATOM     12  C   UNL A   1      31.721  22.448  24.709  1.00  0.00     0.078 C 
ATOM     13  C   UNL A   1      33.984  24.366  24.296  1.00  0.00     0.159 C 
ATOM     14  C   UNL A   1      31.632  23.837  24.037  1.00  0.00     0.126 C 
ATOM     15  N   UNL A   1      32.616  24.781  24.589  1.00  0.00    -0.338 N 
BRANCH   8  16
ATOM     16  C   UNL A   1      33.209  19.812  25.860  1.00  0.00     0.145 C 
BRANCH  16  17
ATOM     17  C   UNL A   1      32.934  18.462  25.192  1.00  0.00     0.027 C 
BRANCH  17  18
ATOM     18  C   UNL A   1      33.406  18.379  23.730  1.00  0.00    -0.016 C 
ATOM     19  C   UNL A   1      34.040  17.022  23.430  1.00  0.00     0.007 C 
ATOM     20  C   UNL A   1      32.232  18.634  22.784  1.00  0.00     0.007 C 
ENDBRANCH  17  18
ENDBRANCH  16  17
ENDBRANCH   8  16
BRANCH  15  21
ATOM     21  C   UNL A   1      32.491  26.091  25.019  1.00  0.00     0.227 C 
ATOM     22  O   UNL A   1      31.746  26.343  25.982  1.00  0.00    -0.274 OA
BRANCH  21  23
ATOM     23  C   UNL A   1      33.134  27.314  24.359  1.00  0.00     0.099 C 
ATOM     24  C   UNL A   1      33.560  28.410  25.336  1.00  0.00     0.023 C 
ATOM     25  C   UNL A   1      32.462  27.865  23.116  1.00  0.00     0.142 C 
ATOM     26  C   UNL A   1      32.441  29.368  25.707  1.00  0.00     0.078 C 
ATOM     27  N   UNL A   1      31.592  28.976  23.410  1.00  0.00    -0.278 N 
ATOM     28  C   UNL A   1      31.485  29.636  24.582  1.00  0.00     0.133 A 
ATOM     29  C   UNL A   1      30.458  29.268  22.700  1.00  0.00     0.345 A 
ATOM     30  N   UNL A   1      30.400  30.343  24.711  1.00  0.00    -0.155 NA
ATOM     31  N   UNL A   1      29.719  30.116  23.529  1.00  0.00    -0.216 N 
ATOM     32  O   UNL A   1      30.102  28.764  21.638  1.00  0.00    -0.246 OA
ATOM     33  C   UNL A   1      28.306  30.337  23.395  1.00  0.00     0.179 C 
ENDBRANCH  21  23
ENDBRANCH  15  21
ENDBRANCH   4   7
ENDBRANCH   2   3
ENDBRANCH   1   2
BRANCH   1  34
ATOM     34  C   UNL A   1      40.508  20.522  26.092  1.00  0.00     0.023 C 
BRANCH  34  35
ATOM     35  C   UNL A   1      41.836  20.535  26.841  1.00  0.00     0.116 C 
BRANCH  35  36
ATOM     36  N   UNL A   1      42.961  20.002  26.070  1.00  0.00    -0.352 N 
ATOM     37  C   UNL A   1      43.840  20.745  25.299  1.00  0.00     0.251 C 
ATOM     38  H   UNL A   1      43.105  19.028  26.101  1.00  0.00     0.163 HD
ATOM     39  O   UNL A   1      44.442  20.242  24.358  1.00  0.00    -0.269 OA
BRANCH  37  40
ATOM     40  C   UNL A   1      44.038  22.163  25.660  1.00  0.00     0.039 A 
ATOM     41  C   UNL A   1      43.319  23.180  25.034  1.00  0.00     0.014 A 
ATOM     42  C   UNL A   1      44.906  22.447  26.719  1.00  0.00     0.014 A 
ATOM     43  C   UNL A   1      43.399  24.472  25.558  1.00  0.00     0.010 A 
ATOM     44  C   UNL A   1      44.910  23.703  27.293  1.00  0.00     0.010 A 
ATOM     45  C   UNL A   1      44.161  24.727  26.720  1.00  0.00    -0.014 A 
BRANCH  45  46
ATOM     46  C   UNL A   1      43.953  25.975  27.475  1.00  0.00     0.031 A 
ATOM     47  C   UNL A   1      45.059  26.948  27.259  1.00  0.00     0.074 A 
ATOM     48  C   UNL A   1      42.830  26.329  28.149  1.00  0.00     0.049 A 
ATOM     49  N   UNL A   1      46.011  27.227  28.086  1.00  0.00    -0.248 NA
ATOM     50  C   UNL A   1      45.278  27.503  25.910  1.00  0.00     0.031 C 
ATOM     51  C   UNL A   1      41.578  25.572  28.246  1.00  0.00     0.029 A 
ATOM     52  N   UNL A   1      42.529  27.477  28.839  1.00  0.00    -0.354 N 
ATOM     53  C   UNL A   1      46.752  28.232  27.478  1.00  0.00     0.074 A 
ATOM     54  C   UNL A   1      46.424  28.168  26.082  1.00  0.00     0.031 C 
ATOM     55  C   UNL A   1      40.600  26.354  28.761  1.00  0.00     0.029 A 
ATOM     56  C   UNL A   1      41.175  27.622  29.181  1.00  0.00     0.049 A 
ATOM     57  H   UNL A   1      43.209  28.146  29.077  1.00  0.00     0.167 HD
ATOM     58  C   UNL A   1      47.292  29.226  28.236  1.00  0.00     0.034 A 
ATOM     59  C   UNL A   1      40.559  28.678  29.791  1.00  0.00     0.034 A 
ATOM     60  C   UNL A   1      47.330  28.833  29.632  1.00  0.00     0.049 A 
ATOM     61  C   UNL A   1      41.606  29.393  30.548  1.00  0.00     0.074 A 
ATOM     62  C   UNL A   1      47.883  27.786  30.345  1.00  0.00     0.029 A 
ATOM     63  N   UNL A   1      46.351  29.364  30.439  1.00  0.00    -0.354 N 
ATOM     64  N   UNL A   1      42.212  28.878  31.578  1.00  0.00    -0.248 NA
ATOM     65  C   UNL A   1      42.300  30.496  29.910  1.00  0.00     0.031 C 
ATOM     66  C   UNL A   1      46.923  27.468  31.353  1.00  0.00     0.029 A 
ATOM     67  C   UNL A   1      45.879  28.393  31.285  1.00  0.00     0.049 A 
ATOM     68  H   UNL A   1      46.039  30.296  30.414  1.00  0.00     0.167 HD
ATOM     69  C   UNL A   1      43.536  29.237  31.418  1.00  0.00     0.074 A 
ATOM     70  C   UNL A   1      43.503  30.355  30.475  1.00  0.00     0.031 C 
ATOM     71  C   UNL A   1      44.532  28.400  31.837  1.00  0.00     0.034 A 
BRANCH  58  72
ATOM     72  C   UNL A   1      47.328  30.690  27.822  1.00  0.00     0.023 A 
ATOM     73  C   UNL A   1      46.108  31.281  27.436  1.00  0.00     0.031 A 
ATOM     74  C   UNL A   1      48.490  31.426  27.489  1.00  0.00     0.131 A 
ATOM     75  C   UNL A   1      46.083  32.466  26.676  1.00  0.00     0.055 A 
ATOM     76  C   UNL A   1      48.455  32.635  26.787  1.00  0.00     0.041 A 
ATOM     77  F   UNL A   1      49.729  30.987  27.733  1.00  0.00    -0.206 F 
ATOM     78  C   UNL A   1      47.250  33.147  26.349  1.00  0.00     0.022 A 
BRANCH  75  79
ATOM     79  S   UNL A   1      44.504  33.009  25.972  1.00  0.00     0.124 S 
ATOM     80  O   UNL A   1      44.938  33.600  24.711  1.00  0.00    -0.237 OA
ATOM     81  O   UNL A   1      43.771  31.751  25.878  1.00  0.00    -0.237 OA
ATOM     82  O   UNL A   1      43.998  33.952  26.966  1.00  0.00    -0.744 OA
ENDBRANCH  75  79
ENDBRANCH  58  72
BRANCH  59  83
ATOM     83  C   UNL A   1      39.191  29.259  29.598  1.00  0.00     0.023 A 
ATOM     84  C   UNL A   1      38.467  29.926  30.621  1.00  0.00     0.031 A 
ATOM     85  C   UNL A   1      38.709  29.420  28.283  1.00  0.00     0.131 A 
ATOM     86  C   UNL A   1      37.333  30.723  30.301  1.00  0.00     0.055 A 
ATOM     87  C   UNL A   1      37.601  30.215  27.973  1.00  0.00     0.041 A 
ATOM     88  F   UNL A   1      39.361  28.887  27.238  1.00  0.00    -0.206 F 
ATOM     89  C   UNL A   1      36.917  30.880  28.979  1.00  0.00     0.022 A 
BRANCH  86  90
ATOM     90  S   UNL A   1      36.426  31.658  31.588  1.00  0.00     0.124 S 
ATOM     91  O   UNL A   1      37.315  32.784  31.845  1.00  0.00    -0.237 OA
ATOM     92  O   UNL A   1      35.162  31.963  30.929  1.00  0.00    -0.237 OA
ATOM     93  O   UNL A   1      36.318  30.704  32.693  1.00  0.00    -0.744 OA
ENDBRANCH  86  90
ENDBRANCH  59  83
BRANCH  71  94
ATOM     94  C   UNL A   1      44.162  27.318  32.842  1.00  0.00     0.023 A 
ATOM     95  C   UNL A   1      43.887  27.522  34.215  1.00  0.00     0.031 A 
ATOM     96  C   UNL A   1      44.071  26.001  32.356  1.00  0.00     0.131 A 
ATOM     97  C   UNL A   1      43.578  26.427  35.048  1.00  0.00     0.055 A 
ATOM     98  C   UNL A   1      43.733  24.925  33.175  1.00  0.00     0.041 A 
ATOM     99  F   UNL A   1      44.303  25.734  31.060  1.00  0.00    -0.206 F 
ATOM    100  C   UNL A   1      43.500  25.131  34.528  1.00  0.00     0.022 A 
BRANCH  97 101
ATOM    101  S   UNL A   1      43.332  26.652  36.841  1.00  0.00     0.124 S 
ATOM    102  O   UNL A   1      44.515  26.040  37.432  1.00  0.00    -0.237 OA
ATOM    103  O   UNL A   1      43.236  28.105  36.966  1.00  0.00    -0.237 OA
ATOM    104  O   UNL A   1      42.080  25.939  37.104  1.00  0.00    -0.744 OA
ENDBRANCH  97 101
ENDBRANCH  71  94
ENDBRANCH  45  46
ENDBRANCH  37  40
ENDBRANCH  35  36
ENDBRANCH  34  35
ENDBRANCH   1  34
TORSDOF 19
ENDMDL
MODEL 2
REMARK VINA RESULT:     -11.8      3.243      8.918
REMARK SMILES CC(C)CCn1nc(C(=O)NCCCCNC(=O)c2ccc(-c3c4nc(c(-c5cc(S(=O)(=O)[O-])ccc5F)c5ccc([nH]5)c(-c5cc(S(=O)(=O)[O-])ccc5F)c5nc(c(-c6cc(S(=O)(=O)[O-])ccc6F)c6ccc3[nH]6)C=C5)C=C4)cc2)c2c1CCN(C(=O)[C@@H]1CCc3nn(C)c(=O)n3C1)C2
REMARK SMILES IDX 13 1 12 2 11 3 9 4 10 5 8 7 6 8 7 9 83 10 82 11 84 12 100 13
REMARK SMILES IDX 85 14 86 15 5 16 4 17 2 18 1 19 3 20 87 21 88 22 89 23 90 24
REMARK SMILES IDX 99 25 91 26 98 27 92 28 96 29 93 30 94 31 97 32 95 33 14 34
REMARK SMILES IDX 15 35 16 36 17 37 18 39 19 40 20 41 81 42 21 43 80 44 22 45
REMARK SMILES IDX 23 46 24 47 74 48 25 49 79 50 73 51 75 52 26 53 78 54 72 55
REMARK SMILES IDX 71 56 27 58 59 59 39 60 58 61 40 62 43 63 57 64 76 65 41 66
REMARK SMILES IDX 42 67 56 69 77 70 44 71 28 72 29 73 37 74 30 75 36 76 38 77
REMARK SMILES IDX 35 78 31 79 32 80 33 81 34 82 60 83 61 84 69 85 62 86 68 87
REMARK SMILES IDX 70 88 67 89 63 90 64 91 65 92 66 93 45 94 46 95 54 96 47 97
REMARK SMILES IDX 53 98 55 99 52 100 48 101 49 102 50 103 51 104
REMARK H PARENT 11 6 16 38 75 57 43 68
REMARK Flexibility Score: inf
ROOT
ATOM      1  C   UNL A   1      33.753  34.228  29.304  1.00  0.00     0.023 C 
ENDROOT
BRANCH   1   2
ATOM      2  C   UNL A   1      33.588  34.169  27.770  1.00  0.00     0.116 C 
BRANCH   2   3
ATOM      3  N   UNL A   1      32.324  33.564  27.359  1.00  0.00    -0.351 N 
ATOM      4  C   UNL A   1      31.879  32.310  26.978  1.00  0.00     0.272 C 
ATOM      5  O   UNL A   1      30.646  32.229  26.888  1.00  0.00    -0.267 OA
ATOM      6  H   UNL A   1      31.594  34.224  27.350  1.00  0.00     0.163 HD
BRANCH   4   7
ATOM      7  C   UNL A   1      32.742  31.129  26.692  1.00  0.00     0.155 A 
ATOM      8  N   UNL A   1      34.440  29.807  26.952  1.00  0.00    -0.268 N 
ATOM      9  N   UNL A   1      33.902  30.966  27.384  1.00  0.00    -0.167 NA
ATOM     10  C   UNL A   1      33.754  29.300  25.897  1.00  0.00     0.046 A 
ATOM     11  C   UNL A   1      32.568  29.998  25.852  1.00  0.00     0.026 A 
ATOM     12  C   UNL A   1      34.079  28.165  25.000  1.00  0.00     0.078 C 
ATOM     13  C   UNL A   1      31.423  29.549  25.045  1.00  0.00     0.159 C 
ATOM     14  C   UNL A   1      33.038  28.185  23.857  1.00  0.00     0.126 C 
ATOM     15  N   UNL A   1      31.661  28.278  24.366  1.00  0.00    -0.338 N 
BRANCH   8  16
ATOM     16  C   UNL A   1      35.451  29.146  27.763  1.00  0.00     0.145 C 
BRANCH  16  17
ATOM     17  C   UNL A   1      36.026  29.952  28.933  1.00  0.00     0.027 C 
BRANCH  17  18
ATOM     18  C   UNL A   1      37.541  29.779  29.128  1.00  0.00    -0.016 C 
ATOM     19  C   UNL A   1      37.847  28.654  30.116  1.00  0.00     0.007 C 
ATOM     20  C   UNL A   1      38.215  29.499  27.784  1.00  0.00     0.007 C 
ENDBRANCH  17  18
ENDBRANCH  16  17
ENDBRANCH   8  16
BRANCH  15  21
ATOM     21  C   UNL A   1      30.515  27.571  24.050  1.00  0.00     0.227 C 
ATOM     22  O   UNL A   1      29.640  28.116  23.354  1.00  0.00    -0.274 OA
BRANCH  21  23
ATOM     23  C   UNL A   1      30.162  26.168  24.552  1.00  0.00     0.099 C 
ATOM     24  C   UNL A   1      30.326  25.975  26.059  1.00  0.00     0.023 C 
ATOM     25  C   UNL A   1      30.686  24.992  23.750  1.00  0.00     0.142 C 
ATOM     26  C   UNL A   1      31.742  25.622  26.482  1.00  0.00     0.078 C 
ATOM     27  N   UNL A   1      31.904  24.451  24.300  1.00  0.00    -0.278 N 
ATOM     28  C   UNL A   1      32.465  24.760  25.488  1.00  0.00     0.133 A 
ATOM     29  C   UNL A   1      32.888  23.866  23.550  1.00  0.00     0.345 A 
ATOM     30  N   UNL A   1      33.718  24.427  25.601  1.00  0.00    -0.155 NA
ATOM     31  N   UNL A   1      34.018  23.866  24.372  1.00  0.00    -0.216 N 
ATOM     32  O   UNL A   1      32.828  23.560  22.363  1.00  0.00    -0.246 OA
ATOM     33  C   UNL A   1      35.365  23.744  23.885  1.00  0.00     0.179 C 
ENDBRANCH  21  23
ENDBRANCH  15  21
ENDBRANCH   4   7
ENDBRANCH   2   3
ENDBRANCH   1   2
BRANCH   1  34
ATOM     34  C   UNL A   1      34.982  33.558  29.916  1.00  0.00     0.023 C 
BRANCH  34  35
ATOM     35  C   UNL A   1      34.936  33.468  31.437  1.00  0.00     0.116 C 
BRANCH  35  36
ATOM     36  N   UNL A   1      35.681  34.528  32.120  1.00  0.00    -0.352 N 
ATOM     37  C   UNL A   1      36.909  34.382  32.745  1.00  0.00     0.251 C 
ATOM     38  H   UNL A   1      35.273  35.424  32.136  1.00  0.00     0.163 HD
ATOM     39  O   UNL A   1      37.255  35.133  33.649  1.00  0.00    -0.269 OA
BRANCH  37  40
ATOM     40  C   UNL A   1      37.793  33.297  32.274  1.00  0.00     0.039 A 
ATOM     41  C   UNL A   1      38.410  33.353  31.025  1.00  0.00     0.014 A 
ATOM     42  C   UNL A   1      38.066  32.252  33.161  1.00  0.00     0.014 A 
ATOM     43  C   UNL A   1      39.389  32.403  30.724  1.00  0.00     0.010 A 
ATOM     44  C   UNL A   1      39.100  31.374  32.901  1.00  0.00     0.010 A 
ATOM     45  C   UNL A   1      39.769  31.438  31.682  1.00  0.00    -0.014 A 
BRANCH  45  46
ATOM     46  C   UNL A   1      41.030  30.693  31.513  1.00  0.00     0.031 A 
ATOM     47  C   UNL A   1      42.066  31.501  30.813  1.00  0.00     0.074 A 
ATOM     48  C   UNL A   1      41.332  29.492  32.067  1.00  0.00     0.049 A 
ATOM     49  N   UNL A   1      42.441  31.373  29.584  1.00  0.00    -0.248 NA
ATOM     50  C   UNL A   1      42.581  32.725  31.456  1.00  0.00     0.031 C 
ATOM     51  C   UNL A   1      40.497  28.695  32.970  1.00  0.00     0.029 A 
ATOM     52  N   UNL A   1      42.483  28.746  32.004  1.00  0.00    -0.354 N 
ATOM     53  C   UNL A   1      43.470  32.290  29.410  1.00  0.00     0.074 A 
ATOM     54  C   UNL A   1      43.328  33.241  30.477  1.00  0.00     0.031 C 
ATOM     55  C   UNL A   1      41.230  27.705  33.530  1.00  0.00     0.029 A 
ATOM     56  C   UNL A   1      42.550  27.685  32.920  1.00  0.00     0.049 A 
ATOM     57  H   UNL A   1      43.207  28.940  31.366  1.00  0.00     0.167 HD
ATOM     58  C   UNL A   1      44.527  31.976  28.612  1.00  0.00     0.034 A 
ATOM     59  C   UNL A   1      43.585  26.823  33.152  1.00  0.00     0.034 A 
ATOM     60  C   UNL A   1      44.192  30.861  27.746  1.00  0.00     0.049 A 
ATOM     61  C   UNL A   1      44.398  26.805  31.920  1.00  0.00     0.074 A 
ATOM     62  C   UNL A   1      43.214  30.606  26.804  1.00  0.00     0.029 A 
ATOM     63  N   UNL A   1      44.687  29.633  28.119  1.00  0.00    -0.354 N 
ATOM     64  N   UNL A   1      43.967  26.317  30.793  1.00  0.00    -0.248 NA
ATOM     65  C   UNL A   1      45.520  27.719  31.809  1.00  0.00     0.031 C 
ATOM     66  C   UNL A   1      42.872  29.230  26.980  1.00  0.00     0.029 A 
ATOM     67  C   UNL A   1      43.721  28.676  27.941  1.00  0.00     0.049 A 
ATOM     68  H   UNL A   1      45.594  29.467  28.461  1.00  0.00     0.167 HD
ATOM     69  C   UNL A   1      44.409  27.210  29.836  1.00  0.00     0.074 A 
ATOM     70  C   UNL A   1      45.484  27.953  30.494  1.00  0.00     0.031 C 
ATOM     71  C   UNL A   1      43.658  27.449  28.719  1.00  0.00     0.034 A 
BRANCH  58  72
ATOM     72  C   UNL A   1      45.972  32.325  28.935  1.00  0.00     0.023 A 
ATOM     73  C   UNL A   1      46.718  32.980  27.934  1.00  0.00     0.031 A 
ATOM     74  C   UNL A   1      46.731  31.791  30.005  1.00  0.00     0.131 A 
ATOM     75  C   UNL A   1      48.125  32.991  27.966  1.00  0.00     0.055 A 
ATOM     76  C   UNL A   1      48.127  31.859  30.061  1.00  0.00     0.041 A 
ATOM     77  F   UNL A   1      46.190  31.093  31.008  1.00  0.00    -0.206 F 
ATOM     78  C   UNL A   1      48.834  32.434  29.024  1.00  0.00     0.022 A 
BRANCH  75  79
ATOM     79  S   UNL A   1      49.018  33.593  26.510  1.00  0.00     0.124 S 
ATOM     80  O   UNL A   1      49.803  32.419  26.146  1.00  0.00    -0.237 OA
ATOM     81  O   UNL A   1      47.924  33.944  25.612  1.00  0.00    -0.237 OA
ATOM     82  O   UNL A   1      49.785  34.724  27.028  1.00  0.00    -0.744 OA
ENDBRANCH  75  79
ENDBRANCH  58  72
BRANCH  59  83
ATOM     83  C   UNL A   1      44.064  26.188  34.422  1.00  0.00     0.023 A 
ATOM     84  C   UNL A   1      44.375  24.807  34.544  1.00  0.00     0.031 A 
ATOM     85  C   UNL A   1      44.510  27.023  35.466  1.00  0.00     0.131 A 
ATOM     86  C   UNL A   1      45.115  24.329  35.659  1.00  0.00     0.055 A 
ATOM     87  C   UNL A   1      45.250  26.549  36.554  1.00  0.00     0.041 A 
ATOM     88  F   UNL A   1      44.328  28.352  35.413  1.00  0.00    -0.206 F 
ATOM     89  C   UNL A   1      45.566  25.203  36.648  1.00  0.00     0.022 A 
BRANCH  86  90
ATOM     90  S   UNL A   1      45.599  22.569  35.804  1.00  0.00     0.124 S 
ATOM     91  O   UNL A   1      46.939  22.562  35.231  1.00  0.00    -0.237 OA
ATOM     92  O   UNL A   1      45.502  22.329  37.239  1.00  0.00    -0.237 OA
ATOM     93  O   UNL A   1      44.591  21.869  35.004  1.00  0.00    -0.744 OA
ENDBRANCH  86  90
ENDBRANCH  59  83
BRANCH  71  94
ATOM     94  C   UNL A   1      42.594  26.422  28.357  1.00  0.00     0.023 A 
ATOM     95  C   UNL A   1      42.821  25.191  27.697  1.00  0.00     0.031 A 
ATOM     96  C   UNL A   1      41.269  26.719  28.727  1.00  0.00     0.131 A 
ATOM     97  C   UNL A   1      41.741  24.336  27.397  1.00  0.00     0.055 A 
ATOM     98  C   UNL A   1      40.208  25.856  28.458  1.00  0.00     0.041 A 
ATOM     99  F   UNL A   1      40.981  27.862  29.371  1.00  0.00    -0.206 F 
ATOM    100  C   UNL A   1      40.437  24.667  27.778  1.00  0.00     0.022 A 
BRANCH  97 101
ATOM    101  S   UNL A   1      41.996  22.800  26.446  1.00  0.00     0.124 S 
ATOM    102  O   UNL A   1      40.651  22.266  26.283  1.00  0.00    -0.237 OA
ATOM    103  O   UNL A   1      42.642  23.287  25.230  1.00  0.00    -0.237 OA
ATOM    104  O   UNL A   1      42.867  22.005  27.316  1.00  0.00    -0.744 OA
ENDBRANCH  97 101
ENDBRANCH  71  94
ENDBRANCH  45  46
ENDBRANCH  37  40
ENDBRANCH  35  36
ENDBRANCH  34  35
ENDBRANCH   1  34
TORSDOF 19
ENDMDL
MODEL 3
REMARK VINA RESULT:     -11.7      5.509     11.313
REMARK SMILES CC(C)CCn1nc(C(=O)NCCCCNC(=O)c2ccc(-c3c4nc(c(-c5cc(S(=O)(=O)[O-])ccc5F)c5ccc([nH]5)c(-c5cc(S(=O)(=O)[O-])ccc5F)c5nc(c(-c6cc(S(=O)(=O)[O-])ccc6F)c6ccc3[nH]6)C=C5)C=C4)cc2)c2c1CCN(C(=O)[C@@H]1CCc3nn(C)c(=O)n3C1)C2
REMARK SMILES IDX 13 1 12 2 11 3 9 4 10 5 8 7 6 8 7 9 83 10 82 11 84 12 100 13
REMARK SMILES IDX 85 14 86 15 5 16 4 17 2 18 1 19 3 20 87 21 88 22 89 23 90 24
REMARK SMILES IDX 99 25 91 26 98 27 92 28 96 29 93 30 94 31 97 32 95 33 14 34
REMARK SMILES IDX 15 35 16 36 17 37 18 39 19 40 20 41 81 42 21 43 80 44 22 45
REMARK SMILES IDX 23 46 24 47 74 48 25 49 79 50 73 51 75 52 26 53 78 54 72 55
REMARK SMILES IDX 71 56 27 58 59 59 39 60 58 61 40 62 43 63 57 64 76 65 41 66
REMARK SMILES IDX 42 67 56 69 77 70 44 71 28 72 29 73 37 74 30 75 36 76 38 77
REMARK SMILES IDX 35 78 31 79 32 80 33 81 34 82 60 83 61 84 69 85 62 86 68 87
REMARK SMILES IDX 70 88 67 89 63 90 64 91 65 92 66 93 45 94 46 95 54 96 47 97
REMARK SMILES IDX 53 98 55 99 52 100 48 101 49 102 50 103 51 104
REMARK H PARENT 11 6 16 38 75 57 43 68
REMARK Flexibility Score: inf
ROOT
ATOM      1  C   UNL A   1      32.768  36.260  30.655  1.00  0.00     0.023 C 
ENDROOT
BRANCH   1   2
ATOM      2  C   UNL A   1      33.641  35.719  29.503  1.00  0.00     0.116 C 
BRANCH   2   3
ATOM      3  N   UNL A   1      32.861  35.037  28.473  1.00  0.00    -0.351 N 
ATOM      4  C   UNL A   1      32.810  33.771  27.915  1.00  0.00     0.272 C 
ATOM      5  O   UNL A   1      31.835  33.598  27.171  1.00  0.00    -0.267 OA
ATOM      6  H   UNL A   1      32.195  35.637  28.068  1.00  0.00     0.163 HD
BRANCH   4   7
ATOM      7  C   UNL A   1      33.796  32.677  28.146  1.00  0.00     0.155 A 
ATOM      8  N   UNL A   1      35.560  31.745  28.995  1.00  0.00    -0.268 N 
ATOM      9  N   UNL A   1      34.882  32.910  28.931  1.00  0.00    -0.167 NA
ATOM     10  C   UNL A   1      35.040  30.818  28.153  1.00  0.00     0.046 A 
ATOM     11  C   UNL A   1      33.811  31.309  27.769  1.00  0.00     0.026 A 
ATOM     12  C   UNL A   1      35.555  29.484  27.760  1.00  0.00     0.078 C 
ATOM     13  C   UNL A   1      32.804  30.468  27.102  1.00  0.00     0.159 C 
ATOM     14  C   UNL A   1      34.649  28.971  26.618  1.00  0.00     0.126 C 
ATOM     15  N   UNL A   1      33.222  29.077  26.956  1.00  0.00    -0.338 N 
BRANCH   8  16
ATOM     16  C   UNL A   1      36.526  31.543  30.063  1.00  0.00     0.145 C 
BRANCH  16  17
ATOM     17  C   UNL A   1      37.998  31.448  29.648  1.00  0.00     0.027 C 
BRANCH  17  18
ATOM     18  C   UNL A   1      38.746  30.254  30.262  1.00  0.00    -0.016 C 
ATOM     19  C   UNL A   1      37.780  29.133  30.644  1.00  0.00     0.007 C 
ATOM     20  C   UNL A   1      39.799  29.733  29.283  1.00  0.00     0.007 C 
ENDBRANCH  17  18
ENDBRANCH  16  17
ENDBRANCH   8  16
BRANCH  15  21
ATOM     21  C   UNL A   1      32.181  28.173  26.839  1.00  0.00     0.227 C 
ATOM     22  O   UNL A   1      31.435  27.979  27.815  1.00  0.00    -0.274 OA
BRANCH  21  23
ATOM     23  C   UNL A   1      31.890  27.296  25.618  1.00  0.00     0.099 C 
ATOM     24  C   UNL A   1      30.442  26.817  25.512  1.00  0.00     0.023 C 
ATOM     25  C   UNL A   1      32.894  26.207  25.291  1.00  0.00     0.142 C 
ATOM     26  C   UNL A   1      30.153  25.559  26.314  1.00  0.00     0.078 C 
ATOM     27  N   UNL A   1      32.498  24.922  25.812  1.00  0.00    -0.278 N 
ATOM     28  C   UNL A   1      31.306  24.599  26.356  1.00  0.00     0.133 A 
ATOM     29  C   UNL A   1      33.380  23.956  26.216  1.00  0.00     0.345 A 
ATOM     30  N   UNL A   1      31.311  23.510  27.069  1.00  0.00    -0.155 NA
ATOM     31  N   UNL A   1      32.627  23.086  27.008  1.00  0.00    -0.216 N 
ATOM     32  O   UNL A   1      34.596  23.951  26.049  1.00  0.00    -0.246 OA
ATOM     33  C   UNL A   1      33.194  22.182  27.971  1.00  0.00     0.179 C 
ENDBRANCH  21  23
ENDBRANCH  15  21
ENDBRANCH   4   7
ENDBRANCH   2   3
ENDBRANCH   1   2
BRANCH   1  34
ATOM     34  C   UNL A   1      33.462  37.036  31.773  1.00  0.00     0.023 C 
BRANCH  34  35
ATOM     35  C   UNL A   1      33.496  36.293  33.104  1.00  0.00     0.116 C 
BRANCH  35  36
ATOM     36  N   UNL A   1      33.207  34.862  32.995  1.00  0.00    -0.352 N 
ATOM     37  C   UNL A   1      34.147  33.852  32.864  1.00  0.00     0.251 C 
ATOM     38  H   UNL A   1      32.260  34.593  33.016  1.00  0.00     0.163 HD
ATOM     39  O   UNL A   1      33.861  32.782  32.339  1.00  0.00    -0.269 OA
BRANCH  37  40
ATOM     40  C   UNL A   1      35.503  34.105  33.391  1.00  0.00     0.039 A 
ATOM     41  C   UNL A   1      35.850  33.761  34.697  1.00  0.00     0.014 A 
ATOM     42  C   UNL A   1      36.457  34.619  32.508  1.00  0.00     0.014 A 
ATOM     43  C   UNL A   1      37.194  33.836  35.069  1.00  0.00     0.010 A 
ATOM     44  C   UNL A   1      37.795  34.601  32.847  1.00  0.00     0.010 A 
ATOM     45  C   UNL A   1      38.178  34.212  34.128  1.00  0.00    -0.014 A 
BRANCH  45  46
ATOM     46  C   UNL A   1      39.600  33.937  34.402  1.00  0.00     0.031 A 
ATOM     47  C   UNL A   1      40.190  34.932  35.339  1.00  0.00     0.074 A 
ATOM     48  C   UNL A   1      40.290  32.831  34.028  1.00  0.00     0.049 A 
ATOM     49  N   UNL A   1      40.982  35.904  35.031  1.00  0.00    -0.248 NA
ATOM     50  C   UNL A   1      39.678  35.013  36.720  1.00  0.00     0.031 C 
ATOM     51  C   UNL A   1      39.772  31.664  33.308  1.00  0.00     0.029 A 
ATOM     52  N   UNL A   1      41.591  32.468  34.270  1.00  0.00    -0.354 N 
ATOM     53  C   UNL A   1      41.319  36.508  36.235  1.00  0.00     0.074 A 
ATOM     54  C   UNL A   1      40.310  36.100  37.171  1.00  0.00     0.031 C 
ATOM     55  C   UNL A   1      40.670  30.652  33.355  1.00  0.00     0.029 A 
ATOM     56  C   UNL A   1      41.896  31.131  33.972  1.00  0.00     0.049 A 
ATOM     57  H   UNL A   1      42.259  33.097  34.626  1.00  0.00     0.167 HD
ATOM     58  C   UNL A   1      42.576  37.000  36.416  1.00  0.00     0.034 A 
ATOM     59  C   UNL A   1      43.069  30.458  34.175  1.00  0.00     0.034 A 
ATOM     60  C   UNL A   1      43.243  37.162  35.138  1.00  0.00     0.049 A 
ATOM     61  C   UNL A   1      44.134  31.480  34.223  1.00  0.00     0.074 A 
ATOM     62  C   UNL A   1      42.980  37.855  33.972  1.00  0.00     0.029 A 
ATOM     63  N   UNL A   1      44.158  36.191  34.803  1.00  0.00    -0.354 N 
ATOM     64  N   UNL A   1      44.477  32.195  33.192  1.00  0.00    -0.248 NA
ATOM     65  C   UNL A   1      44.520  32.027  35.511  1.00  0.00     0.031 C 
ATOM     66  C   UNL A   1      43.413  36.993  32.917  1.00  0.00     0.029 A 
ATOM     67  C   UNL A   1      44.016  35.865  33.479  1.00  0.00     0.049 A 
ATOM     68  H   UNL A   1      44.813  35.792  35.419  1.00  0.00     0.167 HD
ATOM     69  C   UNL A   1      44.664  33.467  33.697  1.00  0.00     0.074 A 
ATOM     70  C   UNL A   1      44.834  33.270  35.137  1.00  0.00     0.031 C 
ATOM     71  C   UNL A   1      44.363  34.561  32.935  1.00  0.00     0.034 A 
BRANCH  58  72
ATOM     72  C   UNL A   1      43.362  36.873  37.713  1.00  0.00     0.023 A 
ATOM     73  C   UNL A   1      43.477  35.585  38.274  1.00  0.00     0.031 A 
ATOM     74  C   UNL A   1      43.722  37.941  38.569  1.00  0.00     0.131 A 
ATOM     75  C   UNL A   1      43.821  35.410  39.628  1.00  0.00     0.055 A 
ATOM     76  C   UNL A   1      44.122  37.757  39.896  1.00  0.00     0.041 A 
ATOM     77  F   UNL A   1      43.621  39.227  38.216  1.00  0.00    -0.206 F 
ATOM     78  C   UNL A   1      44.145  36.489  40.443  1.00  0.00     0.022 A 
BRANCH  75  79
ATOM     79  S   UNL A   1      43.668  33.757  40.353  1.00  0.00     0.124 S 
ATOM     80  O   UNL A   1      42.389  33.319  39.806  1.00  0.00    -0.237 OA
ATOM     81  O   UNL A   1      44.857  33.091  39.831  1.00  0.00    -0.237 OA
ATOM     82  O   UNL A   1      43.680  34.016  41.790  1.00  0.00    -0.744 OA
ENDBRANCH  75  79
ENDBRANCH  58  72
BRANCH  59  83
ATOM     83  C   UNL A   1      43.326  29.033  34.559  1.00  0.00     0.023 A 
ATOM     84  C   UNL A   1      42.508  28.300  35.459  1.00  0.00     0.031 A 
ATOM     85  C   UNL A   1      44.234  28.281  33.787  1.00  0.00     0.131 A 
ATOM     86  C   UNL A   1      42.609  26.884  35.538  1.00  0.00     0.055 A 
ATOM     87  C   UNL A   1      44.321  26.887  33.859  1.00  0.00     0.041 A 
ATOM     88  F   UNL A   1      45.004  28.871  32.857  1.00  0.00    -0.206 F 
ATOM     89  C   UNL A   1      43.500  26.182  34.724  1.00  0.00     0.022 A 
BRANCH  86  90
ATOM     90  S   UNL A   1      41.514  25.904  36.630  1.00  0.00     0.124 S 
ATOM     91  O   UNL A   1      40.669  25.196  35.677  1.00  0.00    -0.237 OA
ATOM     92  O   UNL A   1      42.461  25.095  37.388  1.00  0.00    -0.237 OA
ATOM     93  O   UNL A   1      40.819  26.922  37.421  1.00  0.00    -0.744 OA
ENDBRANCH  86  90
ENDBRANCH  59  83
BRANCH  71  94
ATOM     94  C   UNL A   1      44.251  34.358  31.430  1.00  0.00     0.023 A 
ATOM     95  C   UNL A   1      45.330  34.333  30.515  1.00  0.00     0.031 A 
ATOM     96  C   UNL A   1      42.960  34.161  30.908  1.00  0.00     0.131 A 
ATOM     97  C   UNL A   1      45.089  34.159  29.136  1.00  0.00     0.055 A 
ATOM     98  C   UNL A   1      42.727  33.956  29.549  1.00  0.00     0.041 A 
ATOM     99  F   UNL A   1      41.889  34.156  31.719  1.00  0.00    -0.206 F 
ATOM    100  C   UNL A   1      43.790  33.970  28.655  1.00  0.00     0.022 A 
BRANCH  97 101
ATOM    101  S   UNL A   1      46.453  34.238  27.928  1.00  0.00     0.124 S 
ATOM    102  O   UNL A   1      45.780  34.502  26.663  1.00  0.00    -0.237 OA
ATOM    103  O   UNL A   1      47.276  35.325  28.452  1.00  0.00    -0.237 OA
ATOM    104  O   UNL A   1      47.069  32.912  28.026  1.00  0.00    -0.744 OA
ENDBRANCH  97 101
ENDBRANCH  71  94
ENDBRANCH  45  46
ENDBRANCH  37  40
ENDBRANCH  35  36
ENDBRANCH  34  35
ENDBRANCH   1  34
TORSDOF 19
ENDMDL
