MODEL 1
REMARK VINA RESULT:     -11.3      0.000      0.000
REMARK SMILES CCC(CC)(NC(=O)NC[C@H](C)[NH+]1CCCCC1)C(=O)NCCCCNC(=O)c1ccc(-c2c3nc(c(-c4cc(S(=O)(=O)[O-])ccc4F)c4ccc([nH]4)c(-c4cc(S(=O)(=O)[O-])ccc4F)c4nc(c(-c5cc(S(=O)(=O)[O-])ccc5F)c5ccc2[nH]5)C=C4)C=C3)cc1
REMARK SMILES IDX 23 1 22 2 21 3 19 4 20 5 3 7 2 8 1 9 4 10 5 11 6 12 7 13
REMARK SMILES IDX 8 15 9 16 10 18 11 19 12 20 13 21 14 22 18 23 15 25 17 26
REMARK SMILES IDX 16 27 24 28 25 29 26 30 27 31 28 33 29 34 30 35 91 36 31 37
REMARK SMILES IDX 90 38 32 39 33 40 34 41 84 42 35 43 89 44 83 45 85 46 36 47
REMARK SMILES IDX 88 48 82 49 81 50 37 52 69 53 49 54 68 55 50 56 53 57 67 58
REMARK SMILES IDX 86 59 51 60 52 61 66 63 87 64 54 65 38 66 39 67 47 68 40 69
REMARK SMILES IDX 46 70 48 71 45 72 41 73 42 74 43 75 44 76 70 77 71 78 79 79
REMARK SMILES IDX 72 80 78 81 80 82 77 83 73 84 74 85 75 86 76 87 55 88 56 89
REMARK SMILES IDX 64 90 57 91 63 92 65 93 62 94 58 95 59 96 60 97 61 98
REMARK H PARENT 21 6 6 14 9 17 13 24 26 32 85 51 53 62
REMARK Flexibility Score: inf
ROOT
ATOM      1  C   UNL A   1      31.257  30.803  25.696  1.00  0.00     0.023 C 
ENDROOT
BRANCH   1   2
ATOM      2  C   UNL A   1      32.323  29.681  25.521  1.00  0.00     0.116 C 
BRANCH   2   3
ATOM      3  N   UNL A   1      33.236  29.543  24.378  1.00  0.00    -0.354 N 
ATOM      4  C   UNL A   1      33.559  28.581  23.440  1.00  0.00     0.245 C 
ATOM      5  O   UNL A   1      34.291  28.935  22.507  1.00  0.00    -0.272 OA
ATOM      6  H   UNL A   1      33.765  30.362  24.245  1.00  0.00     0.163 HD
BRANCH   4   7
ATOM      7  C   UNL A   1      32.830  27.221  23.386  1.00  0.00     0.120 C 
BRANCH   7   8
ATOM      8  C   UNL A   1      31.348  27.076  23.835  1.00  0.00     0.035 C 
ATOM      9  C   UNL A   1      30.249  27.728  23.017  1.00  0.00     0.007 C 
ENDBRANCH   7   8
BRANCH   7  10
ATOM     10  C   UNL A   1      33.781  26.434  24.361  1.00  0.00     0.035 C 
ATOM     11  C   UNL A   1      33.369  26.129  25.786  1.00  0.00     0.007 C 
ENDBRANCH   7  10
BRANCH   7  12
ATOM     12  N   UNL A   1      32.856  26.795  21.989  1.00  0.00    -0.324 N 
ATOM     13  C   UNL A   1      32.733  25.574  21.433  1.00  0.00     0.315 C 
ATOM     14  H   UNL A   1      32.988  27.525  21.343  1.00  0.00     0.166 HD
ATOM     15  O   UNL A   1      33.058  25.483  20.243  1.00  0.00    -0.249 OA
ATOM     16  N   UNL A   1      32.192  24.482  22.005  1.00  0.00    -0.332 N 
ATOM     17  H   UNL A   1      31.823  23.889  21.310  1.00  0.00     0.165 HD
BRANCH  16  18
ATOM     18  C   UNL A   1      31.971  23.880  23.350  1.00  0.00     0.182 C 
BRANCH  18  19
ATOM     19  C   UNL A   1      32.740  22.539  23.700  1.00  0.00     0.200 C 
ATOM     20  C   UNL A   1      32.078  21.557  24.661  1.00  0.00     0.077 C 
BRANCH  19  21
ATOM     21  N   UNL A   1      34.137  22.813  24.165  1.00  0.00    -0.331 N 
ATOM     22  C   UNL A   1      34.643  21.826  25.152  1.00  0.00     0.262 C 
ATOM     23  C   UNL A   1      35.032  22.889  22.994  1.00  0.00     0.262 C 
ATOM     24  H   UNL A   1      34.122  23.705  24.657  1.00  0.00     0.348 HD
ATOM     25  C   UNL A   1      36.091  22.049  25.575  1.00  0.00     0.062 C 
ATOM     26  C   UNL A   1      36.473  23.180  23.398  1.00  0.00     0.062 C 
ATOM     27  C   UNL A   1      36.993  22.114  24.350  1.00  0.00     0.012 C 
ENDBRANCH  19  21
ENDBRANCH  18  19
ENDBRANCH  16  18
ENDBRANCH   7  12
ENDBRANCH   4   7
ENDBRANCH   2   3
ENDBRANCH   1   2
BRANCH   1  28
ATOM     28  C   UNL A   1      31.327  32.128  26.486  1.00  0.00     0.023 C 
BRANCH  28  29
ATOM     29  C   UNL A   1      32.562  32.619  27.248  1.00  0.00     0.116 C 
BRANCH  29  30
ATOM     30  N   UNL A   1      32.588  34.001  27.640  1.00  0.00    -0.352 N 
ATOM     31  C   UNL A   1      33.514  34.601  28.469  1.00  0.00     0.251 C 
ATOM     32  H   UNL A   1      31.875  34.577  27.281  1.00  0.00     0.163 HD
ATOM     33  O   UNL A   1      33.398  35.797  28.733  1.00  0.00    -0.269 OA
BRANCH  31  34
ATOM     34  C   UNL A   1      34.611  33.808  29.094  1.00  0.00     0.039 A 
ATOM     35  C   UNL A   1      35.930  34.191  28.832  1.00  0.00     0.014 A 
ATOM     36  C   UNL A   1      34.371  32.686  29.895  1.00  0.00     0.014 A 
ATOM     37  C   UNL A   1      36.999  33.487  29.403  1.00  0.00     0.010 A 
ATOM     38  C   UNL A   1      35.443  32.007  30.500  1.00  0.00     0.010 A 
ATOM     39  C   UNL A   1      36.771  32.401  30.264  1.00  0.00    -0.014 A 
BRANCH  39  40
ATOM     40  C   UNL A   1      37.916  31.697  30.917  1.00  0.00     0.031 A 
ATOM     41  C   UNL A   1      38.690  30.629  30.186  1.00  0.00     0.074 A 
ATOM     42  C   UNL A   1      38.262  32.011  32.183  1.00  0.00     0.049 A 
ATOM     43  N   UNL A   1      39.712  29.917  30.595  1.00  0.00    -0.248 NA
ATOM     44  C   UNL A   1      38.246  30.309  28.824  1.00  0.00     0.031 C 
ATOM     45  C   UNL A   1      37.588  33.011  33.015  1.00  0.00     0.029 A 
ATOM     46  N   UNL A   1      39.263  31.530  32.995  1.00  0.00    -0.354 N 
ATOM     47  C   UNL A   1      40.034  29.064  29.544  1.00  0.00     0.074 A 
ATOM     48  C   UNL A   1      39.059  29.313  28.500  1.00  0.00     0.031 C 
ATOM     49  C   UNL A   1      38.209  33.085  34.204  1.00  0.00     0.029 A 
ATOM     50  C   UNL A   1      39.297  32.112  34.242  1.00  0.00     0.049 A 
ATOM     51  H   UNL A   1      39.897  30.832  32.709  1.00  0.00     0.167 HD
ATOM     52  C   UNL A   1      41.053  28.171  29.448  1.00  0.00     0.034 A 
ATOM     53  C   UNL A   1      40.103  31.887  35.301  1.00  0.00     0.034 A 
ATOM     54  C   UNL A   1      42.021  27.929  30.494  1.00  0.00     0.049 A 
ATOM     55  C   UNL A   1      41.199  30.855  35.188  1.00  0.00     0.074 A 
ATOM     56  C   UNL A   1      43.119  27.085  30.472  1.00  0.00     0.029 A 
ATOM     57  N   UNL A   1      42.003  28.517  31.752  1.00  0.00    -0.354 N 
ATOM     58  N   UNL A   1      41.518  30.097  34.164  1.00  0.00    -0.248 NA
ATOM     59  C   UNL A   1      42.049  30.658  36.369  1.00  0.00     0.031 C 
ATOM     60  C   UNL A   1      43.715  27.102  31.739  1.00  0.00     0.029 A 
ATOM     61  C   UNL A   1      43.045  28.022  32.526  1.00  0.00     0.049 A 
ATOM     62  H   UNL A   1      41.346  29.186  32.052  1.00  0.00     0.167 HD
ATOM     63  C   UNL A   1      42.628  29.359  34.570  1.00  0.00     0.074 A 
ATOM     64  C   UNL A   1      42.930  29.775  35.924  1.00  0.00     0.031 C 
ATOM     65  C   UNL A   1      43.337  28.428  33.882  1.00  0.00     0.034 A 
BRANCH  52  66
ATOM     66  C   UNL A   1      41.154  27.362  28.174  1.00  0.00     0.023 A 
ATOM     67  C   UNL A   1      40.785  26.006  28.127  1.00  0.00     0.031 A 
ATOM     68  C   UNL A   1      41.633  27.952  26.991  1.00  0.00     0.131 A 
ATOM     69  C   UNL A   1      40.972  25.268  26.947  1.00  0.00     0.055 A 
ATOM     70  C   UNL A   1      41.738  27.234  25.797  1.00  0.00     0.041 A 
ATOM     71  F   UNL A   1      42.016  29.239  26.975  1.00  0.00    -0.206 F 
ATOM     72  C   UNL A   1      41.422  25.880  25.774  1.00  0.00     0.022 A 
BRANCH  69  73
ATOM     73  S   UNL A   1      40.758  23.469  27.008  1.00  0.00     0.124 S 
ATOM     74  O   UNL A   1      41.191  23.166  28.369  1.00  0.00    -0.237 OA
ATOM     75  O   UNL A   1      39.334  23.311  26.738  1.00  0.00    -0.237 OA
ATOM     76  O   UNL A   1      41.651  22.982  25.957  1.00  0.00    -0.744 OA
ENDBRANCH  69  73
ENDBRANCH  52  66
BRANCH  53  77
ATOM     77  C   UNL A   1      39.903  32.636  36.577  1.00  0.00     0.023 A 
ATOM     78  C   UNL A   1      38.940  32.231  37.515  1.00  0.00     0.031 A 
ATOM     79  C   UNL A   1      40.637  33.804  36.851  1.00  0.00     0.131 A 
ATOM     80  C   UNL A   1      38.700  33.013  38.656  1.00  0.00     0.055 A 
ATOM     81  C   UNL A   1      40.436  34.548  38.015  1.00  0.00     0.041 A 
ATOM     82  F   UNL A   1      41.570  34.238  35.989  1.00  0.00    -0.206 F 
ATOM     83  C   UNL A   1      39.452  34.161  38.920  1.00  0.00     0.022 A 
BRANCH  80  84
ATOM     84  S   UNL A   1      37.323  32.561  39.747  1.00  0.00     0.124 S 
ATOM     85  O   UNL A   1      37.750  31.255  40.237  1.00  0.00    -0.237 OA
ATOM     86  O   UNL A   1      37.338  33.648  40.719  1.00  0.00    -0.237 OA
ATOM     87  O   UNL A   1      36.169  32.545  38.851  1.00  0.00    -0.744 OA
ENDBRANCH  80  84
ENDBRANCH  53  77
BRANCH  65  88
ATOM     88  C   UNL A   1      44.541  27.829  34.570  1.00  0.00     0.023 A 
ATOM     89  C   UNL A   1      44.453  26.649  35.333  1.00  0.00     0.031 A 
ATOM     90  C   UNL A   1      45.796  28.456  34.471  1.00  0.00     0.131 A 
ATOM     91  C   UNL A   1      45.584  26.167  36.011  1.00  0.00     0.055 A 
ATOM     92  C   UNL A   1      46.932  27.937  35.097  1.00  0.00     0.041 A 
ATOM     93  F   UNL A   1      45.942  29.587  33.761  1.00  0.00    -0.206 F 
ATOM     94  C   UNL A   1      46.826  26.794  35.883  1.00  0.00     0.022 A 
BRANCH  91  95
ATOM     95  S   UNL A   1      45.390  24.763  37.143  1.00  0.00     0.124 S 
ATOM     96  O   UNL A   1      46.523  24.941  38.044  1.00  0.00    -0.237 OA
ATOM     97  O   UNL A   1      44.072  25.006  37.720  1.00  0.00    -0.237 OA
ATOM     98  O   UNL A   1      45.474  23.598  36.263  1.00  0.00    -0.744 OA
ENDBRANCH  91  95
ENDBRANCH  65  88
ENDBRANCH  39  40
ENDBRANCH  31  34
ENDBRANCH  29  30
ENDBRANCH  28  29
ENDBRANCH   1  28
TORSDOF 20
ENDMDL
MODEL 2
REMARK VINA RESULT:     -11.0      4.886      8.697
REMARK SMILES CCC(CC)(NC(=O)NC[C@H](C)[NH+]1CCCCC1)C(=O)NCCCCNC(=O)c1ccc(-c2c3nc(c(-c4cc(S(=O)(=O)[O-])ccc4F)c4ccc([nH]4)c(-c4cc(S(=O)(=O)[O-])ccc4F)c4nc(c(-c5cc(S(=O)(=O)[O-])ccc5F)c5ccc2[nH]5)C=C4)C=C3)cc1
REMARK SMILES IDX 23 1 22 2 21 3 19 4 20 5 3 7 2 8 1 9 4 10 5 11 6 12 7 13
REMARK SMILES IDX 8 15 9 16 10 18 11 19 12 20 13 21 14 22 18 23 15 25 17 26
REMARK SMILES IDX 16 27 24 28 25 29 26 30 27 31 28 33 29 34 30 35 91 36 31 37
REMARK SMILES IDX 90 38 32 39 33 40 34 41 84 42 35 43 89 44 83 45 85 46 36 47
REMARK SMILES IDX 88 48 82 49 81 50 37 52 69 53 49 54 68 55 50 56 53 57 67 58
REMARK SMILES IDX 86 59 51 60 52 61 66 63 87 64 54 65 38 66 39 67 47 68 40 69
REMARK SMILES IDX 46 70 48 71 45 72 41 73 42 74 43 75 44 76 70 77 71 78 79 79
REMARK SMILES IDX 72 80 78 81 80 82 77 83 73 84 74 85 75 86 76 87 55 88 56 89
REMARK SMILES IDX 64 90 57 91 63 92 65 93 62 94 58 95 59 96 60 97 61 98
REMARK H PARENT 21 6 6 14 9 17 13 24 26 32 85 51 53 62
REMARK Flexibility Score: inf
ROOT
ATOM      1  C   UNL A   1      35.234  23.885  23.690  1.00  0.00     0.023 C 
ENDROOT
BRANCH   1   2
ATOM      2  C   UNL A   1      34.187  22.977  22.976  1.00  0.00     0.116 C 
BRANCH   2   3
ATOM      3  N   UNL A   1      32.728  23.108  23.087  1.00  0.00    -0.354 N 
ATOM      4  C   UNL A   1      31.736  22.745  23.978  1.00  0.00     0.245 C 
ATOM      5  O   UNL A   1      30.607  23.210  23.774  1.00  0.00    -0.272 OA
ATOM      6  H   UNL A   1      32.354  23.587  22.313  1.00  0.00     0.163 HD
BRANCH   4   7
ATOM      7  C   UNL A   1      32.058  22.038  25.311  1.00  0.00     0.120 C 
BRANCH   7   8
ATOM      8  C   UNL A   1      33.273  22.464  26.183  1.00  0.00     0.035 C 
ATOM      9  C   UNL A   1      33.448  21.869  27.568  1.00  0.00     0.007 C 
ENDBRANCH   7   8
BRANCH   7  10
ATOM     10  C   UNL A   1      32.276  20.591  24.733  1.00  0.00     0.035 C 
ATOM     11  C   UNL A   1      33.649  19.952  24.707  1.00  0.00     0.007 C 
ENDBRANCH   7  10
BRANCH   7  12
ATOM     12  N   UNL A   1      30.886  22.212  26.165  1.00  0.00    -0.324 N 
ATOM     13  C   UNL A   1      30.440  23.283  26.850  1.00  0.00     0.315 C 
ATOM     14  H   UNL A   1      30.325  21.409  26.255  1.00  0.00     0.166 HD
ATOM     15  O   UNL A   1      29.565  23.063  27.694  1.00  0.00    -0.249 OA
ATOM     16  N   UNL A   1      30.770  24.570  26.632  1.00  0.00    -0.332 N 
ATOM     17  H   UNL A   1      30.034  25.157  26.922  1.00  0.00     0.165 HD
BRANCH  16  18
ATOM     18  C   UNL A   1      31.888  25.394  26.091  1.00  0.00     0.182 C 
BRANCH  18  19
ATOM     19  C   UNL A   1      31.520  26.657  25.207  1.00  0.00     0.200 C 
ATOM     20  C   UNL A   1      31.592  26.521  23.690  1.00  0.00     0.077 C 
BRANCH  19  21
ATOM     21  N   UNL A   1      32.297  27.867  25.627  1.00  0.00    -0.331 N 
ATOM     22  C   UNL A   1      31.690  28.601  26.767  1.00  0.00     0.262 C 
ATOM     23  C   UNL A   1      33.683  27.469  25.939  1.00  0.00     0.262 C 
ATOM     24  H   UNL A   1      32.283  28.521  24.845  1.00  0.00     0.348 HD
ATOM     25  C   UNL A   1      32.511  29.789  27.254  1.00  0.00     0.062 C 
ATOM     26  C   UNL A   1      34.535  28.661  26.362  1.00  0.00     0.062 C 
ATOM     27  C   UNL A   1      33.932  29.350  27.577  1.00  0.00     0.012 C 
ENDBRANCH  19  21
ENDBRANCH  18  19
ENDBRANCH  16  18
ENDBRANCH   7  12
ENDBRANCH   4   7
ENDBRANCH   2   3
ENDBRANCH   1   2
BRANCH   1  28
ATOM     28  C   UNL A   1      36.635  23.544  24.240  1.00  0.00     0.023 C 
BRANCH  28  29
ATOM     29  C   UNL A   1      36.937  23.226  25.708  1.00  0.00     0.116 C 
BRANCH  29  30
ATOM     30  N   UNL A   1      37.972  22.265  25.975  1.00  0.00    -0.352 N 
ATOM     31  C   UNL A   1      39.199  22.520  26.551  1.00  0.00     0.251 C 
ATOM     32  H   UNL A   1      37.786  21.332  25.722  1.00  0.00     0.163 HD
ATOM     33  O   UNL A   1      39.997  21.595  26.701  1.00  0.00    -0.269 OA
BRANCH  31  34
ATOM     34  C   UNL A   1      39.593  23.906  26.936  1.00  0.00     0.039 A 
ATOM     35  C   UNL A   1      39.383  24.305  28.259  1.00  0.00     0.014 A 
ATOM     36  C   UNL A   1      40.125  24.822  26.022  1.00  0.00     0.014 A 
ATOM     37  C   UNL A   1      39.745  25.593  28.676  1.00  0.00     0.010 A 
ATOM     38  C   UNL A   1      40.526  26.099  26.451  1.00  0.00     0.010 A 
ATOM     39  C   UNL A   1      40.343  26.500  27.786  1.00  0.00    -0.014 A 
BRANCH  39  40
ATOM     40  C   UNL A   1      40.783  27.848  28.257  1.00  0.00     0.031 A 
ATOM     41  C   UNL A   1      42.239  28.240  28.239  1.00  0.00     0.074 A 
ATOM     42  C   UNL A   1      39.870  28.729  28.716  1.00  0.00     0.049 A 
ATOM     43  N   UNL A   1      42.801  29.366  28.606  1.00  0.00    -0.248 NA
ATOM     44  C   UNL A   1      43.189  27.228  27.760  1.00  0.00     0.031 C 
ATOM     45  C   UNL A   1      38.430  28.475  28.808  1.00  0.00     0.029 A 
ATOM     46  N   UNL A   1      40.008  30.014  29.188  1.00  0.00    -0.354 N 
ATOM     47  C   UNL A   1      44.168  29.200  28.405  1.00  0.00     0.074 A 
ATOM     48  C   UNL A   1      44.351  27.841  27.935  1.00  0.00     0.031 C 
ATOM     49  C   UNL A   1      37.819  29.574  29.280  1.00  0.00     0.029 A 
ATOM     50  C   UNL A   1      38.820  30.598  29.567  1.00  0.00     0.049 A 
ATOM     51  H   UNL A   1      40.877  30.473  29.250  1.00  0.00     0.167 HD
ATOM     52  C   UNL A   1      45.173  30.096  28.578  1.00  0.00     0.034 A 
ATOM     53  C   UNL A   1      38.561  31.813  30.093  1.00  0.00     0.034 A 
ATOM     54  C   UNL A   1      44.981  31.450  29.047  1.00  0.00     0.049 A 
ATOM     55  C   UNL A   1      39.701  32.776  30.322  1.00  0.00     0.074 A 
ATOM     56  C   UNL A   1      45.928  32.449  29.205  1.00  0.00     0.029 A 
ATOM     57  N   UNL A   1      43.768  31.994  29.449  1.00  0.00    -0.354 N 
ATOM     58  N   UNL A   1      40.980  32.616  30.074  1.00  0.00    -0.248 NA
ATOM     59  C   UNL A   1      39.358  34.087  30.889  1.00  0.00     0.031 C 
ATOM     60  C   UNL A   1      45.303  33.565  29.774  1.00  0.00     0.029 A 
ATOM     61  C   UNL A   1      43.950  33.297  29.891  1.00  0.00     0.049 A 
ATOM     62  H   UNL A   1      42.904  31.523  29.424  1.00  0.00     0.167 HD
ATOM     63  C   UNL A   1      41.588  33.820  30.425  1.00  0.00     0.074 A 
ATOM     64  C   UNL A   1      40.533  34.699  30.886  1.00  0.00     0.031 C 
ATOM     65  C   UNL A   1      42.899  34.168  30.364  1.00  0.00     0.034 A 
BRANCH  52  66
ATOM     66  C   UNL A   1      46.582  29.630  28.287  1.00  0.00     0.023 A 
ATOM     67  C   UNL A   1      47.386  29.041  29.279  1.00  0.00     0.031 A 
ATOM     68  C   UNL A   1      47.133  29.782  27.002  1.00  0.00     0.131 A 
ATOM     69  C   UNL A   1      48.717  28.696  28.991  1.00  0.00     0.055 A 
ATOM     70  C   UNL A   1      48.430  29.361  26.699  1.00  0.00     0.041 A 
ATOM     71  F   UNL A   1      46.421  30.352  26.017  1.00  0.00    -0.206 F 
ATOM     72  C   UNL A   1      49.236  28.829  27.701  1.00  0.00     0.022 A 
BRANCH  69  73
ATOM     73  S   UNL A   1      49.802  28.211  30.360  1.00  0.00     0.124 S 
ATOM     74  O   UNL A   1      50.790  29.286  30.349  1.00  0.00    -0.237 OA
ATOM     75  O   UNL A   1      48.888  28.194  31.496  1.00  0.00    -0.237 OA
ATOM     76  O   UNL A   1      50.311  26.904  29.948  1.00  0.00    -0.744 OA
ENDBRANCH  69  73
ENDBRANCH  52  66
BRANCH  53  77
ATOM     77  C   UNL A   1      37.166  32.197  30.462  1.00  0.00     0.023 A 
ATOM     78  C   UNL A   1      36.290  32.754  29.517  1.00  0.00     0.031 A 
ATOM     79  C   UNL A   1      36.707  32.064  31.785  1.00  0.00     0.131 A 
ATOM     80  C   UNL A   1      35.021  33.203  29.915  1.00  0.00     0.055 A 
ATOM     81  C   UNL A   1      35.423  32.459  32.166  1.00  0.00     0.041 A 
ATOM     82  F   UNL A   1      37.502  31.539  32.731  1.00  0.00    -0.206 F 
ATOM     83  C   UNL A   1      34.576  33.045  31.231  1.00  0.00     0.022 A 
BRANCH  80  84
ATOM     84  S   UNL A   1      33.992  34.085  28.710  1.00  0.00     0.124 S 
ATOM     85  O   UNL A   1      32.871  34.517  29.537  1.00  0.00    -0.237 OA
ATOM     86  O   UNL A   1      34.894  35.135  28.251  1.00  0.00    -0.237 OA
ATOM     87  O   UNL A   1      33.676  33.060  27.718  1.00  0.00    -0.744 OA
ENDBRANCH  80  84
ENDBRANCH  53  77
BRANCH  65  88
ATOM     88  C   UNL A   1      43.258  35.580  30.764  1.00  0.00     0.023 A 
ATOM     89  C   UNL A   1      43.365  36.618  29.820  1.00  0.00     0.031 A 
ATOM     90  C   UNL A   1      43.509  35.890  32.113  1.00  0.00     0.131 A 
ATOM     91  C   UNL A   1      43.768  37.899  30.229  1.00  0.00     0.055 A 
ATOM     92  C   UNL A   1      43.849  37.181  32.523  1.00  0.00     0.041 A 
ATOM     93  F   UNL A   1      43.427  34.941  33.059  1.00  0.00    -0.206 F 
ATOM     94  C   UNL A   1      43.994  38.191  31.577  1.00  0.00     0.022 A 
BRANCH  91  95
ATOM     95  S   UNL A   1      44.089  39.159  28.964  1.00  0.00     0.124 S 
ATOM     96  O   UNL A   1      43.722  40.388  29.659  1.00  0.00    -0.237 OA
ATOM     97  O   UNL A   1      45.513  38.978  28.698  1.00  0.00    -0.237 OA
ATOM     98  O   UNL A   1      43.202  38.778  27.866  1.00  0.00    -0.744 OA
ENDBRANCH  91  95
ENDBRANCH  65  88
ENDBRANCH  39  40
ENDBRANCH  31  34
ENDBRANCH  29  30
ENDBRANCH  28  29
ENDBRANCH   1  28
TORSDOF 20
ENDMDL
MODEL 3
REMARK VINA RESULT:     -10.8      1.853      8.241
REMARK SMILES CCC(CC)(NC(=O)NC[C@H](C)[NH+]1CCCCC1)C(=O)NCCCCNC(=O)c1ccc(-c2c3nc(c(-c4cc(S(=O)(=O)[O-])ccc4F)c4ccc([nH]4)c(-c4cc(S(=O)(=O)[O-])ccc4F)c4nc(c(-c5cc(S(=O)(=O)[O-])ccc5F)c5ccc2[nH]5)C=C4)C=C3)cc1
REMARK SMILES IDX 23 1 22 2 21 3 19 4 20 5 3 7 2 8 1 9 4 10 5 11 6 12 7 13
REMARK SMILES IDX 8 15 9 16 10 18 11 19 12 20 13 21 14 22 18 23 15 25 17 26
REMARK SMILES IDX 16 27 24 28 25 29 26 30 27 31 28 33 29 34 30 35 91 36 31 37
REMARK SMILES IDX 90 38 32 39 33 40 34 41 84 42 35 43 89 44 83 45 85 46 36 47
REMARK SMILES IDX 88 48 82 49 81 50 37 52 69 53 49 54 68 55 50 56 53 57 67 58
REMARK SMILES IDX 86 59 51 60 52 61 66 63 87 64 54 65 38 66 39 67 47 68 40 69
REMARK SMILES IDX 46 70 48 71 45 72 41 73 42 74 43 75 44 76 70 77 71 78 79 79
REMARK SMILES IDX 72 80 78 81 80 82 77 83 73 84 74 85 75 86 76 87 55 88 56 89
REMARK SMILES IDX 64 90 57 91 63 92 65 93 62 94 58 95 59 96 60 97 61 98
REMARK H PARENT 21 6 6 14 9 17 13 24 26 32 85 51 53 62
REMARK Flexibility Score: inf
ROOT
ATOM      1  C   UNL A   1      32.211  29.796  27.246  1.00  0.00     0.023 C 
ENDROOT
BRANCH   1   2
ATOM      2  C   UNL A   1      33.394  28.889  26.791  1.00  0.00     0.116 C 
BRANCH   2   3
ATOM      3  N   UNL A   1      33.918  28.793  25.422  1.00  0.00    -0.354 N 
ATOM      4  C   UNL A   1      33.886  27.888  24.378  1.00  0.00     0.245 C 
ATOM      5  O   UNL A   1      34.331  28.277  23.290  1.00  0.00    -0.272 OA
ATOM      6  H   UNL A   1      34.435  29.596  25.183  1.00  0.00     0.163 HD
BRANCH   4   7
ATOM      7  C   UNL A   1      33.088  26.570  24.468  1.00  0.00     0.120 C 
BRANCH   7   8
ATOM      8  C   UNL A   1      31.684  26.515  25.135  1.00  0.00     0.035 C 
ATOM      9  C   UNL A   1      31.500  25.750  26.432  1.00  0.00     0.007 C 
ENDBRANCH   7   8
BRANCH   7  10
ATOM     10  C   UNL A   1      34.132  25.750  25.313  1.00  0.00     0.035 C 
ATOM     11  C   UNL A   1      34.521  24.339  24.928  1.00  0.00     0.007 C 
ENDBRANCH   7  10
BRANCH   7  12
ATOM     12  N   UNL A   1      32.884  26.117  23.094  1.00  0.00    -0.324 N 
ATOM     13  C   UNL A   1      32.076  26.578  22.120  1.00  0.00     0.315 C 
ATOM     14  H   UNL A   1      33.432  25.342  22.836  1.00  0.00     0.166 HD
ATOM     15  O   UNL A   1      31.923  25.835  21.144  1.00  0.00    -0.249 OA
ATOM     16  N   UNL A   1      31.513  27.799  22.054  1.00  0.00    -0.332 N 
ATOM     17  H   UNL A   1      31.358  28.045  21.113  1.00  0.00     0.165 HD
BRANCH  16  18
ATOM     18  C   UNL A   1      31.050  28.900  22.945  1.00  0.00     0.182 C 
BRANCH  18  19
ATOM     19  C   UNL A   1      29.574  28.821  23.518  1.00  0.00     0.200 C 
ATOM     20  C   UNL A   1      28.776  27.544  23.282  1.00  0.00     0.077 C 
BRANCH  19  21
ATOM     21  N   UNL A   1      28.754  29.998  23.087  1.00  0.00    -0.331 N 
ATOM     22  C   UNL A   1      29.179  31.282  23.702  1.00  0.00     0.262 C 
ATOM     23  C   UNL A   1      28.773  30.090  21.615  1.00  0.00     0.262 C 
ATOM     24  H   UNL A   1      27.803  29.840  23.420  1.00  0.00     0.348 HD
ATOM     25  C   UNL A   1      28.401  32.497  23.212  1.00  0.00     0.062 C 
ATOM     26  C   UNL A   1      27.942  31.263  21.107  1.00  0.00     0.062 C 
ATOM     27  C   UNL A   1      28.446  32.574  21.693  1.00  0.00     0.012 C 
ENDBRANCH  19  21
ENDBRANCH  18  19
ENDBRANCH  16  18
ENDBRANCH   7  12
ENDBRANCH   4   7
ENDBRANCH   2   3
ENDBRANCH   1   2
BRANCH   1  28
ATOM     28  C   UNL A   1      31.839  31.232  26.820  1.00  0.00     0.023 C 
BRANCH  28  29
ATOM     29  C   UNL A   1      32.836  32.389  26.708  1.00  0.00     0.116 C 
BRANCH  29  30
ATOM     30  N   UNL A   1      32.469  33.638  27.316  1.00  0.00    -0.352 N 
ATOM     31  C   UNL A   1      33.135  34.279  28.341  1.00  0.00     0.251 C 
ATOM     32  H   UNL A   1      31.662  34.081  26.968  1.00  0.00     0.163 HD
ATOM     33  O   UNL A   1      32.691  35.340  28.776  1.00  0.00    -0.269 OA
BRANCH  31  34
ATOM     34  C   UNL A   1      34.347  33.673  28.964  1.00  0.00     0.039 A 
ATOM     35  C   UNL A   1      34.164  32.654  29.903  1.00  0.00     0.014 A 
ATOM     36  C   UNL A   1      35.645  34.109  28.673  1.00  0.00     0.014 A 
ATOM     37  C   UNL A   1      35.270  32.043  30.510  1.00  0.00     0.010 A 
ATOM     38  C   UNL A   1      36.754  33.467  29.251  1.00  0.00     0.010 A 
ATOM     39  C   UNL A   1      36.580  32.423  30.176  1.00  0.00    -0.014 A 
BRANCH  39  40
ATOM     40  C   UNL A   1      37.751  31.722  30.783  1.00  0.00     0.031 A 
ATOM     41  C   UNL A   1      38.190  32.022  32.195  1.00  0.00     0.074 A 
ATOM     42  C   UNL A   1      38.438  30.813  30.060  1.00  0.00     0.049 A 
ATOM     43  N   UNL A   1      39.180  31.509  32.883  1.00  0.00    -0.248 NA
ATOM     44  C   UNL A   1      37.424  33.044  32.920  1.00  0.00     0.031 C 
ATOM     45  C   UNL A   1      38.136  30.440  28.676  1.00  0.00     0.029 A 
ATOM     46  N   UNL A   1      39.526  30.035  30.380  1.00  0.00    -0.354 N 
ATOM     47  C   UNL A   1      39.159  32.144  34.122  1.00  0.00     0.074 A 
ATOM     48  C   UNL A   1      38.089  33.120  34.065  1.00  0.00     0.031 C 
ATOM     49  C   UNL A   1      38.999  29.490  28.278  1.00  0.00     0.029 A 
ATOM     50  C   UNL A   1      39.944  29.214  29.357  1.00  0.00     0.049 A 
ATOM     51  H   UNL A   1      39.966  30.063  31.261  1.00  0.00     0.167 HD
ATOM     52  C   UNL A   1      39.943  31.925  35.209  1.00  0.00     0.034 A 
ATOM     53  C   UNL A   1      40.973  28.344  29.286  1.00  0.00     0.034 A 
ATOM     54  C   UNL A   1      41.008  30.948  35.257  1.00  0.00     0.049 A 
ATOM     55  C   UNL A   1      41.861  28.152  30.491  1.00  0.00     0.074 A 
ATOM     56  C   UNL A   1      41.823  30.616  36.327  1.00  0.00     0.029 A 
ATOM     57  N   UNL A   1      41.420  30.158  34.191  1.00  0.00    -0.354 N 
ATOM     58  N   UNL A   1      41.789  28.725  31.670  1.00  0.00    -0.248 NA
ATOM     59  C   UNL A   1      42.960  27.186  30.358  1.00  0.00     0.031 C 
ATOM     60  C   UNL A   1      42.773  29.687  35.887  1.00  0.00     0.029 A 
ATOM     61  C   UNL A   1      42.500  29.372  34.568  1.00  0.00     0.049 A 
ATOM     62  H   UNL A   1      41.005  30.157  33.298  1.00  0.00     0.167 HD
ATOM     63  C   UNL A   1      42.814  28.162  32.428  1.00  0.00     0.074 A 
ATOM     64  C   UNL A   1      43.477  27.196  31.578  1.00  0.00     0.031 C 
ATOM     65  C   UNL A   1      43.169  28.418  33.713  1.00  0.00     0.034 A 
BRANCH  52  66
ATOM     66  C   UNL A   1      39.698  32.782  36.431  1.00  0.00     0.023 A 
ATOM     67  C   UNL A   1      40.409  33.975  36.652  1.00  0.00     0.031 A 
ATOM     68  C   UNL A   1      38.746  32.398  37.392  1.00  0.00     0.131 A 
ATOM     69  C   UNL A   1      40.211  34.699  37.839  1.00  0.00     0.055 A 
ATOM     70  C   UNL A   1      38.494  33.167  38.531  1.00  0.00     0.041 A 
ATOM     71  F   UNL A   1      38.047  31.261  37.245  1.00  0.00    -0.206 F 
ATOM     72  C   UNL A   1      39.240  34.317  38.767  1.00  0.00     0.022 A 
BRANCH  69  73
ATOM     73  S   UNL A   1      41.343  36.064  38.219  1.00  0.00     0.124 S 
ATOM     74  O   UNL A   1      40.458  37.221  38.112  1.00  0.00    -0.237 OA
ATOM     75  O   UNL A   1      41.800  35.729  39.563  1.00  0.00    -0.237 OA
ATOM     76  O   UNL A   1      42.359  35.969  37.172  1.00  0.00    -0.744 OA
ENDBRANCH  69  73
ENDBRANCH  52  66
BRANCH  53  77
ATOM     77  C   UNL A   1      41.242  27.592  28.024  1.00  0.00     0.023 A 
ATOM     78  C   UNL A   1      40.976  26.217  27.926  1.00  0.00     0.031 A 
ATOM     79  C   UNL A   1      41.826  28.229  26.914  1.00  0.00     0.131 A 
ATOM     80  C   UNL A   1      41.337  25.513  26.766  1.00  0.00     0.055 A 
ATOM     81  C   UNL A   1      42.131  27.538  25.741  1.00  0.00     0.041 A 
ATOM     82  F   UNL A   1      42.104  29.542  26.953  1.00  0.00    -0.206 F 
ATOM     83  C   UNL A   1      41.899  26.168  25.667  1.00  0.00     0.022 A 
BRANCH  80  84
ATOM     84  S   UNL A   1      41.149  23.709  26.748  1.00  0.00     0.124 S 
ATOM     85  O   UNL A   1      39.708  23.563  26.581  1.00  0.00    -0.237 OA
ATOM     86  O   UNL A   1      41.971  23.331  25.604  1.00  0.00    -0.237 OA
ATOM     87  O   UNL A   1      41.671  23.299  28.050  1.00  0.00    -0.744 OA
ENDBRANCH  80  84
ENDBRANCH  53  77
BRANCH  65  88
ATOM     88  C   UNL A   1      44.301  27.601  34.293  1.00  0.00     0.023 A 
ATOM     89  C   UNL A   1      44.089  26.333  34.864  1.00  0.00     0.031 A 
ATOM     90  C   UNL A   1      45.614  28.107  34.283  1.00  0.00     0.131 A 
ATOM     91  C   UNL A   1      45.160  25.641  35.452  1.00  0.00     0.055 A 
ATOM     92  C   UNL A   1      46.686  27.387  34.814  1.00  0.00     0.041 A 
ATOM     93  F   UNL A   1      45.878  29.314  33.756  1.00  0.00    -0.206 F 
ATOM     94  C   UNL A   1      46.460  26.152  35.414  1.00  0.00     0.022 A 
BRANCH  91  95
ATOM     95  S   UNL A   1      44.817  24.105  36.354  1.00  0.00     0.124 S 
ATOM     96  O   UNL A   1      44.498  24.601  37.688  1.00  0.00    -0.237 OA
ATOM     97  O   UNL A   1      43.701  23.543  35.600  1.00  0.00    -0.237 OA
ATOM     98  O   UNL A   1      46.070  23.360  36.252  1.00  0.00    -0.744 OA
ENDBRANCH  91  95
ENDBRANCH  65  88
ENDBRANCH  39  40
ENDBRANCH  31  34
ENDBRANCH  29  30
ENDBRANCH  28  29
ENDBRANCH   1  28
TORSDOF 20
ENDMDL
