MODEL 1
REMARK VINA RESULT:     -11.1      0.000      0.000
REMARK SMILES CCC(CC)(NC(=O)C[C@@H]1CCC[NH2+]C1)C(=O)NCCCCNC(=O)c1ccc(-c2c3nc(c(-c4cc(S(=O)(=O)[O-])ccc4F)c4ccc([nH]4)c(-c4cc(S(=O)(=O)[O-])ccc4F)c4nc(c(-c5cc(S(=O)(=O)[O-])ccc5F)c5ccc2[nH]5)C=C4)C=C3)cc1
REMARK SMILES IDX 20 1 19 2 18 3 16 4 17 5 3 7 2 8 1 9 4 10 5 11 6 12 7 13
REMARK SMILES IDX 8 15 9 16 10 17 11 18 15 19 12 20 14 21 13 22 21 25 22 26
REMARK SMILES IDX 23 27 24 28 25 30 26 31 27 32 88 33 28 34 87 35 29 36 30 37
REMARK SMILES IDX 31 38 81 39 32 40 86 41 80 42 82 43 33 44 85 45 79 46 78 47
REMARK SMILES IDX 34 49 66 50 46 51 65 52 47 53 50 54 64 55 83 56 48 57 49 58
REMARK SMILES IDX 63 60 84 61 51 62 35 63 36 64 44 65 37 66 43 67 45 68 42 69
REMARK SMILES IDX 38 70 39 71 40 72 41 73 67 74 68 75 76 76 69 77 75 78 77 79
REMARK SMILES IDX 74 80 70 81 71 82 72 83 73 84 52 85 53 86 61 87 54 88 60 89
REMARK SMILES IDX 62 90 59 91 55 92 56 93 57 94 58 95
REMARK H PARENT 18 6 6 14 14 23 14 24 23 29 82 48 50 59
REMARK Flexibility Score: inf
ROOT
ATOM      1  C   UNL A   1      31.428  30.833  25.706  1.00  0.00     0.023 C 
ENDROOT
BRANCH   1   2
ATOM      2  C   UNL A   1      32.711  30.015  25.851  1.00  0.00     0.116 C 
BRANCH   2   3
ATOM      3  N   UNL A   1      33.417  29.735  24.604  1.00  0.00    -0.354 N 
ATOM      4  C   UNL A   1      33.547  28.578  23.871  1.00  0.00     0.245 C 
ATOM      5  O   UNL A   1      34.168  28.659  22.810  1.00  0.00    -0.272 OA
ATOM      6  H   UNL A   1      33.882  30.513  24.219  1.00  0.00     0.163 HD
BRANCH   4   7
ATOM      7  C   UNL A   1      32.866  27.258  24.344  1.00  0.00     0.118 C 
BRANCH   7   8
ATOM      8  C   UNL A   1      31.311  27.199  24.290  1.00  0.00     0.035 C 
ATOM      9  C   UNL A   1      30.639  27.061  22.929  1.00  0.00     0.007 C 
ENDBRANCH   7   8
BRANCH   7  10
ATOM     10  C   UNL A   1      33.271  27.118  25.859  1.00  0.00     0.035 C 
ATOM     11  C   UNL A   1      32.145  26.869  26.857  1.00  0.00     0.007 C 
ENDBRANCH   7  10
BRANCH   7  12
ATOM     12  N   UNL A   1      33.407  26.137  23.515  1.00  0.00    -0.342 N 
ATOM     13  C   UNL A   1      33.761  24.838  23.785  1.00  0.00     0.221 C 
ATOM     14  H   UNL A   1      33.537  26.383  22.571  1.00  0.00     0.164 HD
ATOM     15  O   UNL A   1      34.494  24.312  22.940  1.00  0.00    -0.275 OA
BRANCH  13  16
ATOM     16  C   UNL A   1      33.160  23.995  24.922  1.00  0.00     0.109 C 
BRANCH  16  17
ATOM     17  C   UNL A   1      31.871  23.163  24.789  1.00  0.00     0.054 C 
ATOM     18  C   UNL A   1      32.005  21.666  25.020  1.00  0.00     0.016 C 
ATOM     19  C   UNL A   1      31.148  23.379  23.455  1.00  0.00     0.264 C 
ATOM     20  C   UNL A   1      32.721  20.984  23.855  1.00  0.00     0.062 C 
ATOM     21  N   UNL A   1      31.890  22.791  22.347  1.00  0.00    -0.346 N 
ATOM     22  C   UNL A   1      32.082  21.352  22.515  1.00  0.00     0.260 C 
ATOM     23  H   UNL A   1      31.374  22.955  21.482  1.00  0.00     0.346 HD
ATOM     24  H   UNL A   1      32.810  23.229  22.319  1.00  0.00     0.346 HD
ENDBRANCH  16  17
ENDBRANCH  13  16
ENDBRANCH   7  12
ENDBRANCH   4   7
ENDBRANCH   2   3
ENDBRANCH   1   2
BRANCH   1  25
ATOM     25  C   UNL A   1      31.294  32.022  26.647  1.00  0.00     0.023 C 
BRANCH  25  26
ATOM     26  C   UNL A   1      32.623  32.584  27.124  1.00  0.00     0.116 C 
BRANCH  26  27
ATOM     27  N   UNL A   1      32.500  33.949  27.615  1.00  0.00    -0.352 N 
ATOM     28  C   UNL A   1      33.200  34.571  28.617  1.00  0.00     0.251 C 
ATOM     29  H   UNL A   1      31.823  34.503  27.165  1.00  0.00     0.163 HD
ATOM     30  O   UNL A   1      32.838  35.671  29.027  1.00  0.00    -0.269 OA
BRANCH  28  31
ATOM     31  C   UNL A   1      34.364  33.888  29.209  1.00  0.00     0.039 A 
ATOM     32  C   UNL A   1      35.645  34.367  28.934  1.00  0.00     0.014 A 
ATOM     33  C   UNL A   1      34.180  32.801  30.069  1.00  0.00     0.014 A 
ATOM     34  C   UNL A   1      36.741  33.789  29.572  1.00  0.00     0.010 A 
ATOM     35  C   UNL A   1      35.261  32.295  30.777  1.00  0.00     0.010 A 
ATOM     36  C   UNL A   1      36.554  32.773  30.525  1.00  0.00    -0.014 A 
BRANCH  36  37
ATOM     37  C   UNL A   1      37.702  32.179  31.253  1.00  0.00     0.031 A 
ATOM     38  C   UNL A   1      38.461  31.035  30.636  1.00  0.00     0.074 A 
ATOM     39  C   UNL A   1      38.020  32.631  32.482  1.00  0.00     0.049 A 
ATOM     40  N   UNL A   1      39.442  30.329  31.134  1.00  0.00    -0.248 NA
ATOM     41  C   UNL A   1      38.033  30.607  29.295  1.00  0.00     0.031 C 
ATOM     42  C   UNL A   1      37.324  33.706  33.192  1.00  0.00     0.029 A 
ATOM     43  N   UNL A   1      39.004  32.241  33.353  1.00  0.00    -0.354 N 
ATOM     44  C   UNL A   1      39.741  29.369  30.173  1.00  0.00     0.074 A 
ATOM     45  C   UNL A   1      38.785  29.536  29.101  1.00  0.00     0.031 C 
ATOM     46  C   UNL A   1      37.924  33.911  34.376  1.00  0.00     0.029 A 
ATOM     47  C   UNL A   1      39.011  32.950  34.532  1.00  0.00     0.049 A 
ATOM     48  H   UNL A   1      39.645  31.522  33.154  1.00  0.00     0.167 HD
ATOM     49  C   UNL A   1      40.740  28.453  30.174  1.00  0.00     0.034 A 
ATOM     50  C   UNL A   1      39.797  32.829  35.621  1.00  0.00     0.034 A 
ATOM     51  C   UNL A   1      41.687  28.313  31.253  1.00  0.00     0.049 A 
ATOM     52  C   UNL A   1      40.881  31.780  35.613  1.00  0.00     0.074 A 
ATOM     53  C   UNL A   1      42.768  27.455  31.343  1.00  0.00     0.029 A 
ATOM     54  N   UNL A   1      41.662  29.046  32.434  1.00  0.00    -0.354 N 
ATOM     55  N   UNL A   1      41.185  30.912  34.676  1.00  0.00    -0.248 NA
ATOM     56  C   UNL A   1      41.734  31.702  36.805  1.00  0.00     0.031 C 
ATOM     57  C   UNL A   1      43.348  27.613  32.606  1.00  0.00     0.029 A 
ATOM     58  C   UNL A   1      42.687  28.634  33.272  1.00  0.00     0.049 A 
ATOM     59  H   UNL A   1      41.011  29.754  32.644  1.00  0.00     0.167 HD
ATOM     60  C   UNL A   1      42.288  30.208  35.152  1.00  0.00     0.074 A 
ATOM     61  C   UNL A   1      42.602  30.766  36.452  1.00  0.00     0.031 C 
ATOM     62  C   UNL A   1      42.980  29.196  34.570  1.00  0.00     0.034 A 
BRANCH  49  63
ATOM     63  C   UNL A   1      40.836  27.527  28.986  1.00  0.00     0.023 A 
ATOM     64  C   UNL A   1      41.793  27.718  27.973  1.00  0.00     0.031 A 
ATOM     65  C   UNL A   1      39.937  26.453  28.843  1.00  0.00     0.131 A 
ATOM     66  C   UNL A   1      41.780  26.905  26.831  1.00  0.00     0.055 A 
ATOM     67  C   UNL A   1      39.987  25.592  27.745  1.00  0.00     0.041 A 
ATOM     68  F   UNL A   1      38.984  26.233  29.762  1.00  0.00    -0.206 F 
ATOM     69  C   UNL A   1      40.901  25.825  26.722  1.00  0.00     0.022 A 
BRANCH  66  70
ATOM     70  S   UNL A   1      42.819  27.377  25.420  1.00  0.00     0.124 S 
ATOM     71  O   UNL A   1      42.849  26.135  24.649  1.00  0.00    -0.237 OA
ATOM     72  O   UNL A   1      42.069  28.477  24.829  1.00  0.00    -0.237 OA
ATOM     73  O   UNL A   1      44.090  27.746  26.039  1.00  0.00    -0.744 OA
ENDBRANCH  66  70
ENDBRANCH  49  63
BRANCH  50  74
ATOM     74  C   UNL A   1      39.588  33.708  36.808  1.00  0.00     0.023 A 
ATOM     75  C   UNL A   1      39.009  33.209  37.986  1.00  0.00     0.031 A 
ATOM     76  C   UNL A   1      39.923  35.073  36.768  1.00  0.00     0.131 A 
ATOM     77  C   UNL A   1      38.734  34.079  39.054  1.00  0.00     0.055 A 
ATOM     78  C   UNL A   1      39.706  35.920  37.855  1.00  0.00     0.041 A 
ATOM     79  F   UNL A   1      40.483  35.603  35.668  1.00  0.00    -0.206 F 
ATOM     80  C   UNL A   1      39.093  35.427  39.002  1.00  0.00     0.022 A 
BRANCH  77  81
ATOM     81  S   UNL A   1      37.807  33.440  40.476  1.00  0.00     0.124 S 
ATOM     82  O   UNL A   1      38.724  32.433  40.999  1.00  0.00    -0.237 OA
ATOM     83  O   UNL A   1      37.637  34.639  41.290  1.00  0.00    -0.237 OA
ATOM     84  O   UNL A   1      36.583  32.916  39.875  1.00  0.00    -0.744 OA
ENDBRANCH  77  81
ENDBRANCH  50  74
BRANCH  62  85
ATOM     85  C   UNL A   1      44.178  28.664  35.318  1.00  0.00     0.023 A 
ATOM     86  C   UNL A   1      44.068  27.615  36.246  1.00  0.00     0.031 A 
ATOM     87  C   UNL A   1      45.451  29.223  35.101  1.00  0.00     0.131 A 
ATOM     88  C   UNL A   1      45.198  27.198  36.967  1.00  0.00     0.055 A 
ATOM     89  C   UNL A   1      46.583  28.756  35.769  1.00  0.00     0.041 A 
ATOM     90  F   UNL A   1      45.615  30.231  34.229  1.00  0.00    -0.206 F 
ATOM     91  C   UNL A   1      46.458  27.748  36.720  1.00  0.00     0.022 A 
BRANCH  88  92
ATOM     92  S   UNL A   1      44.979  25.997  38.309  1.00  0.00     0.124 S 
ATOM     93  O   UNL A   1      44.627  24.785  37.575  1.00  0.00    -0.237 OA
ATOM     94  O   UNL A   1      46.292  25.998  38.945  1.00  0.00    -0.237 OA
ATOM     95  O   UNL A   1      43.901  26.572  39.110  1.00  0.00    -0.744 OA
ENDBRANCH  88  92
ENDBRANCH  62  85
ENDBRANCH  36  37
ENDBRANCH  28  31
ENDBRANCH  26  27
ENDBRANCH  25  26
ENDBRANCH   1  25
TORSDOF 19
ENDMDL
MODEL 2
REMARK VINA RESULT:     -10.9      1.511      8.329
REMARK SMILES CCC(CC)(NC(=O)C[C@@H]1CCC[NH2+]C1)C(=O)NCCCCNC(=O)c1ccc(-c2c3nc(c(-c4cc(S(=O)(=O)[O-])ccc4F)c4ccc([nH]4)c(-c4cc(S(=O)(=O)[O-])ccc4F)c4nc(c(-c5cc(S(=O)(=O)[O-])ccc5F)c5ccc2[nH]5)C=C4)C=C3)cc1
REMARK SMILES IDX 20 1 19 2 18 3 16 4 17 5 3 7 2 8 1 9 4 10 5 11 6 12 7 13
REMARK SMILES IDX 8 15 9 16 10 17 11 18 15 19 12 20 14 21 13 22 21 25 22 26
REMARK SMILES IDX 23 27 24 28 25 30 26 31 27 32 88 33 28 34 87 35 29 36 30 37
REMARK SMILES IDX 31 38 81 39 32 40 86 41 80 42 82 43 33 44 85 45 79 46 78 47
REMARK SMILES IDX 34 49 66 50 46 51 65 52 47 53 50 54 64 55 83 56 48 57 49 58
REMARK SMILES IDX 63 60 84 61 51 62 35 63 36 64 44 65 37 66 43 67 45 68 42 69
REMARK SMILES IDX 38 70 39 71 40 72 41 73 67 74 68 75 76 76 69 77 75 78 77 79
REMARK SMILES IDX 74 80 70 81 71 82 72 83 73 84 52 85 53 86 61 87 54 88 60 89
REMARK SMILES IDX 62 90 59 91 55 92 56 93 57 94 58 95
REMARK H PARENT 18 6 6 14 14 23 14 24 23 29 82 48 50 59
REMARK Flexibility Score: inf
ROOT
ATOM      1  C   UNL A   1      31.551  30.992  26.300  1.00  0.00     0.023 C 
ENDROOT
BRANCH   1   2
ATOM      2  C   UNL A   1      32.819  30.195  26.605  1.00  0.00     0.116 C 
BRANCH   2   3
ATOM      3  N   UNL A   1      33.650  29.879  25.447  1.00  0.00    -0.354 N 
ATOM      4  C   UNL A   1      33.634  28.812  24.578  1.00  0.00     0.245 C 
ATOM      5  O   UNL A   1      34.436  28.845  23.643  1.00  0.00    -0.272 OA
ATOM      6  H   UNL A   1      34.346  30.548  25.253  1.00  0.00     0.163 HD
BRANCH   4   7
ATOM      7  C   UNL A   1      32.590  27.667  24.747  1.00  0.00     0.118 C 
BRANCH   7   8
ATOM      8  C   UNL A   1      31.490  27.861  25.831  1.00  0.00     0.035 C 
ATOM      9  C   UNL A   1      31.358  26.809  26.925  1.00  0.00     0.007 C 
ENDBRANCH   7   8
BRANCH   7  10
ATOM     10  C   UNL A   1      33.436  26.412  25.181  1.00  0.00     0.035 C 
ATOM     11  C   UNL A   1      33.821  25.422  24.087  1.00  0.00     0.007 C 
ENDBRANCH   7  10
BRANCH   7  12
ATOM     12  N   UNL A   1      31.917  27.458  23.427  1.00  0.00    -0.342 N 
ATOM     13  C   UNL A   1      30.902  28.102  22.764  1.00  0.00     0.221 C 
ATOM     14  H   UNL A   1      32.280  26.693  22.926  1.00  0.00     0.164 HD
ATOM     15  O   UNL A   1      30.374  27.447  21.858  1.00  0.00    -0.275 OA
BRANCH  13  16
ATOM     16  C   UNL A   1      30.550  29.587  22.954  1.00  0.00     0.109 C 
BRANCH  16  17
ATOM     17  C   UNL A   1      29.150  30.098  23.342  1.00  0.00     0.054 C 
ATOM     18  C   UNL A   1      28.009  29.722  22.411  1.00  0.00     0.016 C 
ATOM     19  C   UNL A   1      29.104  31.614  23.568  1.00  0.00     0.264 C 
ATOM     20  C   UNL A   1      28.076  30.506  21.101  1.00  0.00     0.062 C 
ATOM     21  N   UNL A   1      29.251  32.343  22.315  1.00  0.00    -0.346 N 
ATOM     22  C   UNL A   1      28.200  32.009  21.357  1.00  0.00     0.260 C 
ATOM     23  H   UNL A   1      29.212  33.343  22.511  1.00  0.00     0.346 HD
ATOM     24  H   UNL A   1      30.146  32.080  21.904  1.00  0.00     0.346 HD
ENDBRANCH  16  17
ENDBRANCH  13  16
ENDBRANCH   7  12
ENDBRANCH   4   7
ENDBRANCH   2   3
ENDBRANCH   1   2
BRANCH   1  25
ATOM     25  C   UNL A   1      31.553  32.440  26.772  1.00  0.00     0.023 C 
BRANCH  25  26
ATOM     26  C   UNL A   1      32.898  32.917  27.293  1.00  0.00     0.116 C 
BRANCH  26  27
ATOM     27  N   UNL A   1      32.793  34.173  28.023  1.00  0.00    -0.352 N 
ATOM     28  C   UNL A   1      33.488  34.588  29.129  1.00  0.00     0.251 C 
ATOM     29  H   UNL A   1      32.134  34.813  27.672  1.00  0.00     0.163 HD
ATOM     30  O   UNL A   1      33.141  35.603  29.727  1.00  0.00    -0.269 OA
BRANCH  28  31
ATOM     31  C   UNL A   1      34.630  33.784  29.602  1.00  0.00     0.039 A 
ATOM     32  C   UNL A   1      35.920  34.134  29.200  1.00  0.00     0.014 A 
ATOM     33  C   UNL A   1      34.422  32.713  30.475  1.00  0.00     0.014 A 
ATOM     34  C   UNL A   1      37.008  33.441  29.726  1.00  0.00     0.010 A 
ATOM     35  C   UNL A   1      35.511  32.093  31.072  1.00  0.00     0.010 A 
ATOM     36  C   UNL A   1      36.814  32.440  30.693  1.00  0.00    -0.014 A 
BRANCH  36  37
ATOM     37  C   UNL A   1      37.962  31.725  31.302  1.00  0.00     0.031 A 
ATOM     38  C   UNL A   1      38.454  32.133  32.664  1.00  0.00     0.074 A 
ATOM     39  C   UNL A   1      38.588  30.754  30.609  1.00  0.00     0.049 A 
ATOM     40  N   UNL A   1      39.482  31.690  33.340  1.00  0.00    -0.248 NA
ATOM     41  C   UNL A   1      37.711  33.209  33.338  1.00  0.00     0.031 C 
ATOM     42  C   UNL A   1      38.222  30.307  29.262  1.00  0.00     0.029 A 
ATOM     43  N   UNL A   1      39.666  29.972  30.934  1.00  0.00    -0.354 N 
ATOM     44  C   UNL A   1      39.513  32.438  34.512  1.00  0.00     0.074 A 
ATOM     45  C   UNL A   1      38.450  33.414  34.416  1.00  0.00     0.031 C 
ATOM     46  C   UNL A   1      39.039  29.308  28.893  1.00  0.00     0.029 A 
ATOM     47  C   UNL A   1      40.020  29.079  29.949  1.00  0.00     0.049 A 
ATOM     48  H   UNL A   1      40.142  30.042  31.794  1.00  0.00     0.167 HD
ATOM     49  C   UNL A   1      40.336  32.303  35.580  1.00  0.00     0.034 A 
ATOM     50  C   UNL A   1      41.030  28.187  29.899  1.00  0.00     0.034 A 
ATOM     51  C   UNL A   1      41.383  31.314  35.656  1.00  0.00     0.049 A 
ATOM     52  C   UNL A   1      41.953  28.077  31.087  1.00  0.00     0.074 A 
ATOM     53  C   UNL A   1      42.246  31.052  36.705  1.00  0.00     0.029 A 
ATOM     54  N   UNL A   1      41.716  30.429  34.637  1.00  0.00    -0.354 N 
ATOM     55  N   UNL A   1      41.940  28.757  32.210  1.00  0.00    -0.248 NA
ATOM     56  C   UNL A   1      43.019  27.072  31.004  1.00  0.00     0.031 C 
ATOM     57  C   UNL A   1      43.148  30.066  36.293  1.00  0.00     0.029 A 
ATOM     58  C   UNL A   1      42.793  29.645  35.021  1.00  0.00     0.049 A 
ATOM     59  H   UNL A   1      41.254  30.368  33.769  1.00  0.00     0.167 HD
ATOM     60  C   UNL A   1      42.975  28.237  32.982  1.00  0.00     0.074 A 
ATOM     61  C   UNL A   1      43.579  27.176  32.200  1.00  0.00     0.031 C 
ATOM     62  C   UNL A   1      43.389  28.598  34.223  1.00  0.00     0.034 A 
BRANCH  49  63
ATOM     63  C   UNL A   1      40.143  33.260  36.732  1.00  0.00     0.023 A 
ATOM     64  C   UNL A   1      39.512  32.864  37.926  1.00  0.00     0.031 A 
ATOM     65  C   UNL A   1      40.567  34.597  36.628  1.00  0.00     0.131 A 
ATOM     66  C   UNL A   1      39.251  33.809  38.929  1.00  0.00     0.055 A 
ATOM     67  C   UNL A   1      40.384  35.512  37.667  1.00  0.00     0.041 A 
ATOM     68  F   UNL A   1      41.152  35.043  35.506  1.00  0.00    -0.206 F 
ATOM     69  C   UNL A   1      39.708  35.124  38.821  1.00  0.00     0.022 A 
BRANCH  66  70
ATOM     70  S   UNL A   1      38.169  33.333  40.305  1.00  0.00     0.124 S 
ATOM     71  O   UNL A   1      38.839  32.134  40.805  1.00  0.00    -0.237 OA
ATOM     72  O   UNL A   1      38.225  34.505  41.170  1.00  0.00    -0.237 OA
ATOM     73  O   UNL A   1      36.880  33.092  39.661  1.00  0.00    -0.744 OA
ENDBRANCH  66  70
ENDBRANCH  49  63
BRANCH  50  74
ATOM     74  C   UNL A   1      41.231  27.338  28.689  1.00  0.00     0.023 A 
ATOM     75  C   UNL A   1      42.250  27.622  27.765  1.00  0.00     0.031 A 
ATOM     76  C   UNL A   1      40.378  26.254  28.413  1.00  0.00     0.131 A 
ATOM     77  C   UNL A   1      42.357  26.866  26.587  1.00  0.00     0.055 A 
ATOM     78  C   UNL A   1      40.528  25.467  27.271  1.00  0.00     0.041 A 
ATOM     79  F   UNL A   1      39.389  25.935  29.263  1.00  0.00    -0.206 F 
ATOM     80  C   UNL A   1      41.514  25.782  26.341  1.00  0.00     0.022 A 
BRANCH  77  81
ATOM     81  S   UNL A   1      43.556  27.388  25.329  1.00  0.00     0.124 S 
ATOM     82  O   UNL A   1      42.680  27.803  24.240  1.00  0.00    -0.237 OA
ATOM     83  O   UNL A   1      44.274  28.454  26.019  1.00  0.00    -0.237 OA
ATOM     84  O   UNL A   1      44.333  26.176  25.077  1.00  0.00    -0.744 OA
ENDBRANCH  77  81
ENDBRANCH  50  74
BRANCH  62  85
ATOM     85  C   UNL A   1      44.519  27.802  34.830  1.00  0.00     0.023 A 
ATOM     86  C   UNL A   1      44.292  26.605  35.531  1.00  0.00     0.031 A 
ATOM     87  C   UNL A   1      45.846  28.255  34.708  1.00  0.00     0.131 A 
ATOM     88  C   UNL A   1      45.366  25.935  36.135  1.00  0.00     0.055 A 
ATOM     89  C   UNL A   1      46.917  27.546  35.252  1.00  0.00     0.041 A 
ATOM     90  F   UNL A   1      46.121  29.395  34.054  1.00  0.00    -0.206 F 
ATOM     91  C   UNL A   1      46.679  26.387  35.983  1.00  0.00     0.022 A 
BRANCH  88  92
ATOM     92  S   UNL A   1      45.013  24.519  37.213  1.00  0.00     0.124 S 
ATOM     93  O   UNL A   1      43.958  25.048  38.070  1.00  0.00    -0.237 OA
ATOM     94  O   UNL A   1      44.605  23.495  36.257  1.00  0.00    -0.237 OA
ATOM     95  O   UNL A   1      46.289  24.271  37.881  1.00  0.00    -0.744 OA
ENDBRANCH  88  92
ENDBRANCH  62  85
ENDBRANCH  36  37
ENDBRANCH  28  31
ENDBRANCH  26  27
ENDBRANCH  25  26
ENDBRANCH   1  25
TORSDOF 19
ENDMDL
MODEL 3
REMARK VINA RESULT:     -10.9      1.808      3.157
REMARK SMILES CCC(CC)(NC(=O)C[C@@H]1CCC[NH2+]C1)C(=O)NCCCCNC(=O)c1ccc(-c2c3nc(c(-c4cc(S(=O)(=O)[O-])ccc4F)c4ccc([nH]4)c(-c4cc(S(=O)(=O)[O-])ccc4F)c4nc(c(-c5cc(S(=O)(=O)[O-])ccc5F)c5ccc2[nH]5)C=C4)C=C3)cc1
REMARK SMILES IDX 20 1 19 2 18 3 16 4 17 5 3 7 2 8 1 9 4 10 5 11 6 12 7 13
REMARK SMILES IDX 8 15 9 16 10 17 11 18 15 19 12 20 14 21 13 22 21 25 22 26
REMARK SMILES IDX 23 27 24 28 25 30 26 31 27 32 88 33 28 34 87 35 29 36 30 37
REMARK SMILES IDX 31 38 81 39 32 40 86 41 80 42 82 43 33 44 85 45 79 46 78 47
REMARK SMILES IDX 34 49 66 50 46 51 65 52 47 53 50 54 64 55 83 56 48 57 49 58
REMARK SMILES IDX 63 60 84 61 51 62 35 63 36 64 44 65 37 66 43 67 45 68 42 69
REMARK SMILES IDX 38 70 39 71 40 72 41 73 67 74 68 75 76 76 69 77 75 78 77 79
REMARK SMILES IDX 74 80 70 81 71 82 72 83 73 84 52 85 53 86 61 87 54 88 60 89
REMARK SMILES IDX 62 90 59 91 55 92 56 93 57 94 58 95
REMARK H PARENT 18 6 6 14 14 23 14 24 23 29 82 48 50 59
REMARK Flexibility Score: inf
ROOT
ATOM      1  C   UNL A   1      31.607  30.458  26.808  1.00  0.00     0.023 C 
ENDROOT
BRANCH   1   2
ATOM      2  C   UNL A   1      32.953  29.738  26.724  1.00  0.00     0.116 C 
BRANCH   2   3
ATOM      3  N   UNL A   1      33.565  29.713  25.399  1.00  0.00    -0.354 N 
ATOM      4  C   UNL A   1      33.505  28.784  24.385  1.00  0.00     0.245 C 
ATOM      5  O   UNL A   1      34.091  29.066  23.338  1.00  0.00    -0.272 OA
ATOM      6  H   UNL A   1      34.119  30.501  25.193  1.00  0.00     0.163 HD
BRANCH   4   7
ATOM      7  C   UNL A   1      32.667  27.481  24.551  1.00  0.00     0.118 C 
BRANCH   7   8
ATOM      8  C   UNL A   1      31.442  27.540  25.511  1.00  0.00     0.035 C 
ATOM      9  C   UNL A   1      31.352  26.515  26.635  1.00  0.00     0.007 C 
ENDBRANCH   7   8
BRANCH   7  10
ATOM     10  C   UNL A   1      33.670  26.433  25.164  1.00  0.00     0.035 C 
ATOM     11  C   UNL A   1      34.059  25.250  24.284  1.00  0.00     0.007 C 
ENDBRANCH   7  10
BRANCH   7  12
ATOM     12  N   UNL A   1      32.183  27.067  23.198  1.00  0.00    -0.342 N 
ATOM     13  C   UNL A   1      31.193  27.520  22.362  1.00  0.00     0.221 C 
ATOM     14  H   UNL A   1      32.682  26.305  22.826  1.00  0.00     0.164 HD
ATOM     15  O   UNL A   1      30.849  26.723  21.481  1.00  0.00    -0.275 OA
BRANCH  13  16
ATOM     16  C   UNL A   1      30.665  28.964  22.347  1.00  0.00     0.109 C 
BRANCH  16  17
ATOM     17  C   UNL A   1      29.387  29.424  23.073  1.00  0.00     0.054 C 
ATOM     18  C   UNL A   1      28.089  29.320  22.290  1.00  0.00     0.016 C 
ATOM     19  C   UNL A   1      29.493  30.844  23.639  1.00  0.00     0.264 C 
ATOM     20  C   UNL A   1      28.009  30.386  21.197  1.00  0.00     0.062 C 
ATOM     21  N   UNL A   1      29.497  31.841  22.576  1.00  0.00    -0.346 N 
ATOM     22  C   UNL A   1      28.286  31.781  21.760  1.00  0.00     0.260 C 
ATOM     23  H   UNL A   1      29.566  32.768  22.995  1.00  0.00     0.346 HD
ATOM     24  H   UNL A   1      30.294  31.648  21.970  1.00  0.00     0.346 HD
ENDBRANCH  16  17
ENDBRANCH  13  16
ENDBRANCH   7  12
ENDBRANCH   4   7
ENDBRANCH   2   3
ENDBRANCH   1   2
BRANCH   1  25
ATOM     25  C   UNL A   1      31.653  31.966  26.608  1.00  0.00     0.023 C 
BRANCH  25  26
ATOM     26  C   UNL A   1      32.860  32.637  27.241  1.00  0.00     0.116 C 
BRANCH  26  27
ATOM     27  N   UNL A   1      32.587  34.015  27.626  1.00  0.00    -0.352 N 
ATOM     28  C   UNL A   1      33.149  34.756  28.633  1.00  0.00     0.251 C 
ATOM     29  H   UNL A   1      31.906  34.479  27.088  1.00  0.00     0.163 HD
ATOM     30  O   UNL A   1      32.666  35.845  28.936  1.00  0.00    -0.269 OA
BRANCH  28  31
ATOM     31  C   UNL A   1      34.312  34.215  29.358  1.00  0.00     0.039 A 
ATOM     32  C   UNL A   1      34.100  33.400  30.471  1.00  0.00     0.014 A 
ATOM     33  C   UNL A   1      35.608  34.481  28.908  1.00  0.00     0.014 A 
ATOM     34  C   UNL A   1      35.193  32.803  31.097  1.00  0.00     0.010 A 
ATOM     35  C   UNL A   1      36.683  33.807  29.470  1.00  0.00     0.010 A 
ATOM     36  C   UNL A   1      36.488  32.973  30.579  1.00  0.00    -0.014 A 
BRANCH  36  37
ATOM     37  C   UNL A   1      37.659  32.306  31.200  1.00  0.00     0.031 A 
ATOM     38  C   UNL A   1      38.412  31.256  30.428  1.00  0.00     0.074 A 
ATOM     39  C   UNL A   1      38.004  32.606  32.468  1.00  0.00     0.049 A 
ATOM     40  N   UNL A   1      39.411  30.505  30.812  1.00  0.00    -0.248 NA
ATOM     41  C   UNL A   1      37.954  30.992  29.055  1.00  0.00     0.031 C 
ATOM     42  C   UNL A   1      37.317  33.577  33.323  1.00  0.00     0.029 A 
ATOM     43  N   UNL A   1      39.012  32.123  33.261  1.00  0.00    -0.354 N 
ATOM     44  C   UNL A   1      39.695  29.676  29.733  1.00  0.00     0.074 A 
ATOM     45  C   UNL A   1      38.711  29.962  28.712  1.00  0.00     0.031 C 
ATOM     46  C   UNL A   1      37.944  33.641  34.508  1.00  0.00     0.029 A 
ATOM     47  C   UNL A   1      39.043  32.681  34.518  1.00  0.00     0.049 A 
ATOM     48  H   UNL A   1      39.655  31.441  32.959  1.00  0.00     0.167 HD
ATOM     49  C   UNL A   1      40.701  28.778  29.596  1.00  0.00     0.034 A 
ATOM     50  C   UNL A   1      39.857  32.435  35.564  1.00  0.00     0.034 A 
ATOM     51  C   UNL A   1      41.676  28.516  30.626  1.00  0.00     0.049 A 
ATOM     52  C   UNL A   1      40.949  31.407  35.401  1.00  0.00     0.074 A 
ATOM     53  C   UNL A   1      42.766  27.666  30.584  1.00  0.00     0.029 A 
ATOM     54  N   UNL A   1      41.674  29.097  31.890  1.00  0.00    -0.354 N 
ATOM     55  N   UNL A   1      41.237  30.665  34.356  1.00  0.00    -0.248 NA
ATOM     56  C   UNL A   1      41.832  31.193  36.553  1.00  0.00     0.031 C 
ATOM     57  C   UNL A   1      43.376  27.673  31.843  1.00  0.00     0.029 A 
ATOM     58  C   UNL A   1      42.723  28.597  32.645  1.00  0.00     0.049 A 
ATOM     59  H   UNL A   1      41.022  29.766  32.202  1.00  0.00     0.167 HD
ATOM     60  C   UNL A   1      42.357  29.921  34.715  1.00  0.00     0.074 A 
ATOM     61  C   UNL A   1      42.700  30.318  36.067  1.00  0.00     0.031 C 
ATOM     62  C   UNL A   1      43.043  28.997  33.996  1.00  0.00     0.034 A 
BRANCH  49  63
ATOM     63  C   UNL A   1      40.775  28.007  28.300  1.00  0.00     0.023 A 
ATOM     64  C   UNL A   1      40.146  26.758  28.145  1.00  0.00     0.031 A 
ATOM     65  C   UNL A   1      41.511  28.509  27.211  1.00  0.00     0.131 A 
ATOM     66  C   UNL A   1      40.330  26.020  26.967  1.00  0.00     0.055 A 
ATOM     67  C   UNL A   1      41.615  27.810  26.008  1.00  0.00     0.041 A 
ATOM     68  F   UNL A   1      42.155  29.682  27.305  1.00  0.00    -0.206 F 
ATOM     69  C   UNL A   1      41.037  26.549  25.885  1.00  0.00     0.022 A 
BRANCH  66  70
ATOM     70  S   UNL A   1      39.766  24.296  26.927  1.00  0.00     0.124 S 
ATOM     71  O   UNL A   1      39.476  24.050  28.339  1.00  0.00    -0.237 OA
ATOM     72  O   UNL A   1      38.612  24.362  26.040  1.00  0.00    -0.237 OA
ATOM     73  O   UNL A   1      40.919  23.569  26.402  1.00  0.00    -0.744 OA
ENDBRANCH  66  70
ENDBRANCH  49  63
BRANCH  50  74
ATOM     74  C   UNL A   1      39.670  33.157  36.856  1.00  0.00     0.023 A 
ATOM     75  C   UNL A   1      38.843  32.637  37.865  1.00  0.00     0.031 A 
ATOM     76  C   UNL A   1      40.280  34.404  37.085  1.00  0.00     0.131 A 
ATOM     77  C   UNL A   1      38.608  33.383  39.031  1.00  0.00     0.055 A 
ATOM     78  C   UNL A   1      40.093  35.112  38.272  1.00  0.00     0.041 A 
ATOM     79  F   UNL A   1      41.083  34.947  36.156  1.00  0.00    -0.206 F 
ATOM     80  C   UNL A   1      39.239  34.609  39.248  1.00  0.00     0.022 A 
BRANCH  77  81
ATOM     81  S   UNL A   1      37.382  32.770  40.219  1.00  0.00     0.124 S 
ATOM     82  O   UNL A   1      36.187  32.675  39.388  1.00  0.00    -0.237 OA
ATOM     83  O   UNL A   1      37.974  31.505  40.641  1.00  0.00    -0.237 OA
ATOM     84  O   UNL A   1      37.349  33.813  41.242  1.00  0.00    -0.744 OA
ENDBRANCH  77  81
ENDBRANCH  50  74
BRANCH  62  85
ATOM     85  C   UNL A   1      44.265  28.390  34.643  1.00  0.00     0.023 A 
ATOM     86  C   UNL A   1      44.190  27.219  35.417  1.00  0.00     0.031 A 
ATOM     87  C   UNL A   1      45.523  29.000  34.487  1.00  0.00     0.131 A 
ATOM     88  C   UNL A   1      45.340  26.729  36.055  1.00  0.00     0.055 A 
ATOM     89  C   UNL A   1      46.675  28.468  35.067  1.00  0.00     0.041 A 
ATOM     90  F   UNL A   1      45.653  30.124  33.763  1.00  0.00    -0.206 F 
ATOM     91  C   UNL A   1      46.585  27.334  35.868  1.00  0.00     0.022 A 
BRANCH  88  92
ATOM     92  S   UNL A   1      45.168  25.348  37.218  1.00  0.00     0.124 S 
ATOM     93  O   UNL A   1      46.558  24.957  37.431  1.00  0.00    -0.237 OA
ATOM     94  O   UNL A   1      44.502  25.978  38.353  1.00  0.00    -0.237 OA
ATOM     95  O   UNL A   1      44.357  24.380  36.483  1.00  0.00    -0.744 OA
ENDBRANCH  88  92
ENDBRANCH  62  85
ENDBRANCH  36  37
ENDBRANCH  28  31
ENDBRANCH  26  27
ENDBRANCH  25  26
ENDBRANCH   1  25
TORSDOF 19
ENDMDL
