MODEL 1
REMARK VINA RESULT:     -11.0      0.000      0.000
REMARK SMILES CCC[NH2+][C@]1(C(=O)NCCCCNC(=O)c2ccc(-c3c4nc(c(-c5cc(S(=O)(=O)[O-])ccc5F)c5ccc([nH]5)c(-c5cc(S(=O)(=O)[O-])ccc5F)c5nc(c(-c6cc(S(=O)(=O)[O-])ccc6F)c6ccc3[nH]6)C=C5)C=C4)cc2)CC[C@@H](Sc2nnc(C)n2C)C1
REMARK SMILES IDX 10 1 9 2 8 3 6 4 7 5 5 7 79 8 90 9 80 10 81 11 4 12 3 15
REMARK SMILES IDX 2 16 1 17 82 18 83 19 84 20 88 21 85 22 86 23 89 24 87 25
REMARK SMILES IDX 11 26 12 27 13 28 14 29 15 31 16 32 17 33 78 34 18 35 77 36
REMARK SMILES IDX 19 37 20 38 21 39 71 40 22 41 76 42 70 43 72 44 23 45 75 46
REMARK SMILES IDX 69 47 68 48 24 50 56 51 36 52 55 53 37 54 40 55 54 56 73 57
REMARK SMILES IDX 38 58 39 59 53 61 74 62 41 63 25 64 26 65 34 66 27 67 33 68
REMARK SMILES IDX 35 69 32 70 28 71 29 72 30 73 31 74 57 75 58 76 66 77 59 78
REMARK SMILES IDX 65 79 67 80 64 81 60 82 61 83 62 84 63 85 42 86 43 87 51 88
REMARK SMILES IDX 44 89 50 90 52 91 49 92 45 93 46 94 47 95 48 96
REMARK H PARENT 8 6 4 13 4 14 13 30 72 49 40 60
REMARK Flexibility Score: inf
ROOT
ATOM      1  C   UNL A   1      32.224  27.830  27.378  1.00  0.00     0.023 C 
ENDROOT
BRANCH   1   2
ATOM      2  C   UNL A   1      32.263  26.682  26.374  1.00  0.00     0.116 C 
BRANCH   2   3
ATOM      3  N   UNL A   1      31.400  25.581  26.758  1.00  0.00    -0.351 N 
ATOM      4  C   UNL A   1      31.394  24.254  26.499  1.00  0.00     0.281 C 
ATOM      5  O   UNL A   1      30.488  23.614  27.060  1.00  0.00    -0.268 OA
ATOM      6  H   UNL A   1      30.654  25.864  27.335  1.00  0.00     0.163 HD
BRANCH   4   7
ATOM      7  C   UNL A   1      32.373  23.483  25.555  1.00  0.00     0.176 C 
ATOM      8  C   UNL A   1      31.854  22.520  24.487  1.00  0.00     0.080 C 
ATOM      9  C   UNL A   1      33.085  24.573  24.695  1.00  0.00     0.094 C 
ATOM     10  C   UNL A   1      32.910  22.511  23.393  1.00  0.00     0.022 C 
ATOM     11  C   UNL A   1      33.368  23.965  23.318  1.00  0.00     0.062 C 
BRANCH   7  12
ATOM     12  N   UNL A   1      33.460  22.881  26.385  1.00  0.00    -0.334 N 
ATOM     13  H   UNL A   1      33.092  22.724  27.323  1.00  0.00     0.347 HD
ATOM     14  H   UNL A   1      33.740  22.021  25.913  1.00  0.00     0.347 HD
BRANCH  12  15
ATOM     15  C   UNL A   1      34.668  23.701  26.501  1.00  0.00     0.261 C 
BRANCH  15  16
ATOM     16  C   UNL A   1      35.883  22.945  25.942  1.00  0.00     0.058 C 
ATOM     17  C   UNL A   1      35.644  21.452  25.751  1.00  0.00     0.010 C 
ENDBRANCH  15  16
ENDBRANCH  12  15
ENDBRANCH   7  12
BRANCH  11  18
ATOM     18  S   UNL A   1      32.659  24.969  21.956  1.00  0.00    -0.082 SA
BRANCH  18  19
ATOM     19  C   UNL A   1      31.453  25.940  22.724  1.00  0.00     0.191 A 
ATOM     20  N   UNL A   1      30.321  25.489  23.210  1.00  0.00    -0.123 NA
ATOM     21  N   UNL A   1      31.503  27.300  22.867  1.00  0.00    -0.309 N 
ATOM     22  N   UNL A   1      29.613  26.564  23.693  1.00  0.00    -0.135 NA
ATOM     23  C   UNL A   1      30.316  27.655  23.468  1.00  0.00     0.130 A 
ATOM     24  C   UNL A   1      32.563  28.213  22.523  1.00  0.00     0.154 C 
ATOM     25  C   UNL A   1      29.906  29.044  23.784  1.00  0.00     0.090 C 
ENDBRANCH  18  19
ENDBRANCH  11  18
ENDBRANCH   4   7
ENDBRANCH   2   3
ENDBRANCH   1   2
BRANCH   1  26
ATOM     26  C   UNL A   1      31.647  29.133  26.818  1.00  0.00     0.023 C 
BRANCH  26  27
ATOM     27  C   UNL A   1      32.661  30.083  26.178  1.00  0.00     0.116 C 
BRANCH  27  28
ATOM     28  N   UNL A   1      32.470  31.477  26.534  1.00  0.00    -0.352 N 
ATOM     29  C   UNL A   1      33.255  32.271  27.347  1.00  0.00     0.251 C 
ATOM     30  H   UNL A   1      31.678  31.912  26.146  1.00  0.00     0.163 HD
ATOM     31  O   UNL A   1      32.897  33.403  27.626  1.00  0.00    -0.269 OA
BRANCH  29  32
ATOM     32  C   UNL A   1      34.502  31.713  27.905  1.00  0.00     0.039 A 
ATOM     33  C   UNL A   1      35.611  32.552  28.034  1.00  0.00     0.014 A 
ATOM     34  C   UNL A   1      34.569  30.383  28.332  1.00  0.00     0.014 A 
ATOM     35  C   UNL A   1      36.767  32.077  28.658  1.00  0.00     0.010 A 
ATOM     36  C   UNL A   1      35.693  29.934  29.018  1.00  0.00     0.010 A 
ATOM     37  C   UNL A   1      36.802  30.777  29.189  1.00  0.00    -0.014 A 
BRANCH  37  38
ATOM     38  C   UNL A   1      37.994  30.288  29.927  1.00  0.00     0.031 A 
ATOM     39  C   UNL A   1      38.242  30.734  31.342  1.00  0.00     0.074 A 
ATOM     40  C   UNL A   1      38.878  29.487  29.301  1.00  0.00     0.049 A 
ATOM     41  N   UNL A   1      39.240  30.448  32.138  1.00  0.00    -0.248 NA
ATOM     42  C   UNL A   1      37.251  31.651  31.925  1.00  0.00     0.031 C 
ATOM     43  C   UNL A   1      38.774  29.036  27.911  1.00  0.00     0.029 A 
ATOM     44  N   UNL A   1      40.040  28.909  29.748  1.00  0.00    -0.354 N 
ATOM     45  C   UNL A   1      39.004  31.156  33.312  1.00  0.00     0.074 A 
ATOM     46  C   UNL A   1      37.806  31.939  33.093  1.00  0.00     0.031 C 
ATOM     47  C   UNL A   1      39.809  28.228  27.630  1.00  0.00     0.029 A 
ATOM     48  C   UNL A   1      40.669  28.130  28.805  1.00  0.00     0.049 A 
ATOM     49  H   UNL A   1      40.390  29.039  30.659  1.00  0.00     0.167 HD
ATOM     50  C   UNL A   1      39.706  31.133  34.473  1.00  0.00     0.034 A 
ATOM     51  C   UNL A   1      41.809  27.416  28.880  1.00  0.00     0.034 A 
ATOM     52  C   UNL A   1      40.889  30.333  34.675  1.00  0.00     0.049 A 
ATOM     53  C   UNL A   1      42.568  27.399  30.182  1.00  0.00     0.074 A 
ATOM     54  C   UNL A   1      41.649  30.190  35.822  1.00  0.00     0.029 A 
ATOM     55  N   UNL A   1      41.489  29.542  33.703  1.00  0.00    -0.354 N 
ATOM     56  N   UNL A   1      42.300  28.028  31.303  1.00  0.00    -0.248 NA
ATOM     57  C   UNL A   1      43.772  26.562  30.233  1.00  0.00     0.031 C 
ATOM     58  C   UNL A   1      42.740  29.362  35.528  1.00  0.00     0.029 A 
ATOM     59  C   UNL A   1      42.622  28.928  34.218  1.00  0.00     0.049 A 
ATOM     60  H   UNL A   1      41.158  29.432  32.782  1.00  0.00     0.167 HD
ATOM     61  C   UNL A   1      43.288  27.637  32.202  1.00  0.00     0.074 A 
ATOM     62  C   UNL A   1      44.143  26.704  31.497  1.00  0.00     0.031 C 
ATOM     63  C   UNL A   1      43.471  28.011  33.495  1.00  0.00     0.034 A 
BRANCH  50  64
ATOM     64  C   UNL A   1      39.213  32.016  35.596  1.00  0.00     0.023 A 
ATOM     65  C   UNL A   1      39.613  33.359  35.708  1.00  0.00     0.031 A 
ATOM     66  C   UNL A   1      38.364  31.500  36.591  1.00  0.00     0.131 A 
ATOM     67  C   UNL A   1      39.236  34.112  36.830  1.00  0.00     0.055 A 
ATOM     68  C   UNL A   1      37.922  32.281  37.659  1.00  0.00     0.041 A 
ATOM     69  F   UNL A   1      37.964  30.219  36.552  1.00  0.00    -0.206 F 
ATOM     70  C   UNL A   1      38.371  33.592  37.794  1.00  0.00     0.022 A 
BRANCH  67  71
ATOM     71  S   UNL A   1      40.019  35.729  37.088  1.00  0.00     0.124 S 
ATOM     72  O   UNL A   1      41.427  35.356  37.211  1.00  0.00    -0.237 OA
ATOM     73  O   UNL A   1      39.653  36.454  35.878  1.00  0.00    -0.237 OA
ATOM     74  O   UNL A   1      39.401  36.215  38.321  1.00  0.00    -0.744 OA
ENDBRANCH  67  71
ENDBRANCH  50  64
BRANCH  51  75
ATOM     75  C   UNL A   1      42.303  26.652  27.699  1.00  0.00     0.023 A 
ATOM     76  C   UNL A   1      41.959  25.303  27.515  1.00  0.00     0.031 A 
ATOM     77  C   UNL A   1      43.159  27.249  26.756  1.00  0.00     0.131 A 
ATOM     78  C   UNL A   1      42.506  24.581  26.443  1.00  0.00     0.055 A 
ATOM     79  C   UNL A   1      43.660  26.541  25.663  1.00  0.00     0.041 A 
ATOM     80  F   UNL A   1      43.511  28.539  26.879  1.00  0.00    -0.206 F 
ATOM     81  C   UNL A   1      43.345  25.193  25.509  1.00  0.00     0.022 A 
BRANCH  78  82
ATOM     82  S   UNL A   1      42.170  22.802  26.334  1.00  0.00     0.124 S 
ATOM     83  O   UNL A   1      42.959  22.280  27.444  1.00  0.00    -0.237 OA
ATOM     84  O   UNL A   1      40.720  22.759  26.499  1.00  0.00    -0.237 OA
ATOM     85  O   UNL A   1      42.653  22.447  25.001  1.00  0.00    -0.744 OA
ENDBRANCH  78  82
ENDBRANCH  51  75
BRANCH  63  86
ATOM     86  C   UNL A   1      44.623  27.371  34.230  1.00  0.00     0.023 A 
ATOM     87  C   UNL A   1      44.453  26.212  35.006  1.00  0.00     0.031 A 
ATOM     88  C   UNL A   1      45.905  27.946  34.174  1.00  0.00     0.131 A 
ATOM     89  C   UNL A   1      45.528  25.703  35.748  1.00  0.00     0.055 A 
ATOM     90  C   UNL A   1      46.987  27.399  34.864  1.00  0.00     0.041 A 
ATOM     91  F   UNL A   1      46.126  29.055  33.449  1.00  0.00    -0.206 F 
ATOM     92  C   UNL A   1      46.798  26.279  35.669  1.00  0.00     0.022 A 
BRANCH  89  93
ATOM     93  S   UNL A   1      45.220  24.338  36.903  1.00  0.00     0.124 S 
ATOM     94  O   UNL A   1      44.121  24.862  37.707  1.00  0.00    -0.237 OA
ATOM     95  O   UNL A   1      44.883  23.239  36.003  1.00  0.00    -0.237 OA
ATOM     96  O   UNL A   1      46.492  24.192  37.609  1.00  0.00    -0.744 OA
ENDBRANCH  89  93
ENDBRANCH  63  86
ENDBRANCH  37  38
ENDBRANCH  29  32
ENDBRANCH  27  28
ENDBRANCH  26  27
ENDBRANCH   1  26
TORSDOF 19
ENDMDL
MODEL 2
REMARK VINA RESULT:     -10.9      1.942      3.553
REMARK SMILES CCC[NH2+][C@]1(C(=O)NCCCCNC(=O)c2ccc(-c3c4nc(c(-c5cc(S(=O)(=O)[O-])ccc5F)c5ccc([nH]5)c(-c5cc(S(=O)(=O)[O-])ccc5F)c5nc(c(-c6cc(S(=O)(=O)[O-])ccc6F)c6ccc3[nH]6)C=C5)C=C4)cc2)CC[C@@H](Sc2nnc(C)n2C)C1
REMARK SMILES IDX 10 1 9 2 8 3 6 4 7 5 5 7 79 8 90 9 80 10 81 11 4 12 3 15
REMARK SMILES IDX 2 16 1 17 82 18 83 19 84 20 88 21 85 22 86 23 89 24 87 25
REMARK SMILES IDX 11 26 12 27 13 28 14 29 15 31 16 32 17 33 78 34 18 35 77 36
REMARK SMILES IDX 19 37 20 38 21 39 71 40 22 41 76 42 70 43 72 44 23 45 75 46
REMARK SMILES IDX 69 47 68 48 24 50 56 51 36 52 55 53 37 54 40 55 54 56 73 57
REMARK SMILES IDX 38 58 39 59 53 61 74 62 41 63 25 64 26 65 34 66 27 67 33 68
REMARK SMILES IDX 35 69 32 70 28 71 29 72 30 73 31 74 57 75 58 76 66 77 59 78
REMARK SMILES IDX 65 79 67 80 64 81 60 82 61 83 62 84 63 85 42 86 43 87 51 88
REMARK SMILES IDX 44 89 50 90 52 91 49 92 45 93 46 94 47 95 48 96
REMARK H PARENT 8 6 4 13 4 14 13 30 72 49 40 60
REMARK Flexibility Score: inf
ROOT
ATOM      1  C   UNL A   1      31.666  28.732  27.544  1.00  0.00     0.023 C 
ENDROOT
BRANCH   1   2
ATOM      2  C   UNL A   1      32.116  27.560  26.677  1.00  0.00     0.116 C 
BRANCH   2   3
ATOM      3  N   UNL A   1      31.251  26.405  26.815  1.00  0.00    -0.351 N 
ATOM      4  C   UNL A   1      31.211  25.183  26.236  1.00  0.00     0.281 C 
ATOM      5  O   UNL A   1      30.318  24.430  26.662  1.00  0.00    -0.268 OA
ATOM      6  H   UNL A   1      30.535  26.540  27.476  1.00  0.00     0.163 HD
BRANCH   4   7
ATOM      7  C   UNL A   1      32.137  24.664  25.088  1.00  0.00     0.176 C 
ATOM      8  C   UNL A   1      33.656  24.803  25.168  1.00  0.00     0.080 C 
ATOM      9  C   UNL A   1      31.950  23.115  25.055  1.00  0.00     0.094 C 
ATOM     10  C   UNL A   1      34.218  23.666  24.328  1.00  0.00     0.022 C 
ATOM     11  C   UNL A   1      33.285  22.496  24.628  1.00  0.00     0.062 C 
BRANCH   7  12
ATOM     12  N   UNL A   1      31.588  25.141  23.782  1.00  0.00    -0.334 N 
ATOM     13  H   UNL A   1      31.777  24.428  23.079  1.00  0.00     0.347 HD
ATOM     14  H   UNL A   1      30.592  25.304  23.932  1.00  0.00     0.347 HD
BRANCH  12  15
ATOM     15  C   UNL A   1      32.147  26.409  23.309  1.00  0.00     0.261 C 
BRANCH  15  16
ATOM     16  C   UNL A   1      31.047  27.281  22.687  1.00  0.00     0.058 C 
ATOM     17  C   UNL A   1      29.816  27.441  23.572  1.00  0.00     0.010 C 
ENDBRANCH  15  16
ENDBRANCH  12  15
ENDBRANCH   7  12
BRANCH  11  18
ATOM     18  S   UNL A   1      33.897  21.260  25.838  1.00  0.00    -0.082 SA
BRANCH  18  19
ATOM     19  C   UNL A   1      33.388  19.740  25.191  1.00  0.00     0.191 A 
ATOM     20  N   UNL A   1      32.142  19.340  25.100  1.00  0.00    -0.123 NA
ATOM     21  N   UNL A   1      34.221  18.749  24.750  1.00  0.00    -0.309 N 
ATOM     22  N   UNL A   1      32.147  18.066  24.581  1.00  0.00    -0.135 NA
ATOM     23  C   UNL A   1      33.399  17.704  24.389  1.00  0.00     0.130 A 
ATOM     24  C   UNL A   1      35.656  18.754  24.624  1.00  0.00     0.154 C 
ATOM     25  C   UNL A   1      33.865  16.389  23.888  1.00  0.00     0.090 C 
ENDBRANCH  18  19
ENDBRANCH  11  18
ENDBRANCH   4   7
ENDBRANCH   2   3
ENDBRANCH   1   2
BRANCH   1  26
ATOM     26  C   UNL A   1      31.844  30.103  26.886  1.00  0.00     0.023 C 
BRANCH  26  27
ATOM     27  C   UNL A   1      33.190  30.785  27.133  1.00  0.00     0.116 C 
BRANCH  27  28
ATOM     28  N   UNL A   1      33.121  32.235  27.164  1.00  0.00    -0.352 N 
ATOM     29  C   UNL A   1      33.947  33.121  27.827  1.00  0.00     0.251 C 
ATOM     30  H   UNL A   1      32.389  32.638  26.644  1.00  0.00     0.163 HD
ATOM     31  O   UNL A   1      33.689  34.313  27.830  1.00  0.00    -0.269 OA
BRANCH  29  32
ATOM     32  C   UNL A   1      35.113  32.597  28.566  1.00  0.00     0.039 A 
ATOM     33  C   UNL A   1      34.914  31.558  29.477  1.00  0.00     0.014 A 
ATOM     34  C   UNL A   1      36.396  33.101  28.339  1.00  0.00     0.014 A 
ATOM     35  C   UNL A   1      36.014  30.974  30.108  1.00  0.00     0.010 A 
ATOM     36  C   UNL A   1      37.497  32.472  28.911  1.00  0.00     0.010 A 
ATOM     37  C   UNL A   1      37.317  31.401  29.801  1.00  0.00    -0.014 A 
BRANCH  37  38
ATOM     38  C   UNL A   1      38.499  30.733  30.402  1.00  0.00     0.031 A 
ATOM     39  C   UNL A   1      38.954  31.105  31.786  1.00  0.00     0.074 A 
ATOM     40  C   UNL A   1      39.191  29.832  29.677  1.00  0.00     0.049 A 
ATOM     41  N   UNL A   1      39.980  30.663  32.468  1.00  0.00    -0.248 NA
ATOM     42  C   UNL A   1      38.169  32.137  32.481  1.00  0.00     0.031 C 
ATOM     43  C   UNL A   1      38.878  29.434  28.302  1.00  0.00     0.029 A 
ATOM     44  N   UNL A   1      40.299  29.087  29.991  1.00  0.00    -0.354 N 
ATOM     45  C   UNL A   1      39.970  31.369  33.666  1.00  0.00     0.074 A 
ATOM     46  C   UNL A   1      38.879  32.316  33.585  1.00  0.00     0.031 C 
ATOM     47  C   UNL A   1      39.753  28.497  27.904  1.00  0.00     0.029 A 
ATOM     48  C   UNL A   1      40.710  28.251  28.978  1.00  0.00     0.049 A 
ATOM     49  H   UNL A   1      40.758  29.145  30.860  1.00  0.00     0.167 HD
ATOM     50  C   UNL A   1      40.780  31.220  34.745  1.00  0.00     0.034 A 
ATOM     51  C   UNL A   1      41.740  27.384  28.924  1.00  0.00     0.034 A 
ATOM     52  C   UNL A   1      41.853  30.258  34.812  1.00  0.00     0.049 A 
ATOM     53  C   UNL A   1      42.621  27.230  30.137  1.00  0.00     0.074 A 
ATOM     54  C   UNL A   1      42.701  29.982  35.869  1.00  0.00     0.029 A 
ATOM     55  N   UNL A   1      42.230  29.415  33.773  1.00  0.00    -0.354 N 
ATOM     56  N   UNL A   1      42.563  27.862  31.286  1.00  0.00    -0.248 NA
ATOM     57  C   UNL A   1      43.693  26.232  30.051  1.00  0.00     0.031 C 
ATOM     58  C   UNL A   1      43.627  29.018  35.452  1.00  0.00     0.029 A 
ATOM     59  C   UNL A   1      43.312  28.637  34.158  1.00  0.00     0.049 A 
ATOM     60  H   UNL A   1      41.792  29.375  32.892  1.00  0.00     0.167 HD
ATOM     61  C   UNL A   1      43.574  27.315  32.070  1.00  0.00     0.074 A 
ATOM     62  C   UNL A   1      44.211  26.290  31.269  1.00  0.00     0.031 C 
ATOM     63  C   UNL A   1      43.944  27.629  33.339  1.00  0.00     0.034 A 
BRANCH  50  64
ATOM     64  C   UNL A   1      40.537  32.135  35.923  1.00  0.00     0.023 A 
ATOM     65  C   UNL A   1      39.488  31.907  36.830  1.00  0.00     0.031 A 
ATOM     66  C   UNL A   1      41.340  33.273  36.122  1.00  0.00     0.131 A 
ATOM     67  C   UNL A   1      39.215  32.843  37.838  1.00  0.00     0.055 A 
ATOM     68  C   UNL A   1      41.117  34.155  37.180  1.00  0.00     0.041 A 
ATOM     69  F   UNL A   1      42.344  33.557  35.278  1.00  0.00    -0.206 F 
ATOM     70  C   UNL A   1      40.038  33.953  38.037  1.00  0.00     0.022 A 
BRANCH  67  71
ATOM     71  S   UNL A   1      37.678  32.670  38.786  1.00  0.00     0.124 S 
ATOM     72  O   UNL A   1      37.932  33.557  39.920  1.00  0.00    -0.237 OA
ATOM     73  O   UNL A   1      36.669  33.121  37.837  1.00  0.00    -0.237 OA
ATOM     74  O   UNL A   1      37.636  31.247  39.115  1.00  0.00    -0.744 OA
ENDBRANCH  67  71
ENDBRANCH  50  64
BRANCH  51  75
ATOM     75  C   UNL A   1      41.994  26.587  27.689  1.00  0.00     0.023 A 
ATOM     76  C   UNL A   1      41.628  25.234  27.614  1.00  0.00     0.031 A 
ATOM     77  C   UNL A   1      42.642  27.159  26.580  1.00  0.00     0.131 A 
ATOM     78  C   UNL A   1      41.956  24.482  26.475  1.00  0.00     0.055 A 
ATOM     79  C   UNL A   1      42.921  26.420  25.428  1.00  0.00     0.041 A 
ATOM     80  F   UNL A   1      43.005  28.451  26.596  1.00  0.00    -0.206 F 
ATOM     81  C   UNL A   1      42.590  25.069  25.377  1.00  0.00     0.022 A 
BRANCH  78  82
ATOM     82  S   UNL A   1      41.615  22.701  26.483  1.00  0.00     0.124 S 
ATOM     83  O   UNL A   1      40.159  22.677  26.406  1.00  0.00    -0.237 OA
ATOM     84  O   UNL A   1      42.329  22.253  25.291  1.00  0.00    -0.237 OA
ATOM     85  O   UNL A   1      42.183  22.252  27.752  1.00  0.00    -0.744 OA
ENDBRANCH  78  82
ENDBRANCH  51  75
BRANCH  63  86
ATOM     86  C   UNL A   1      45.065  26.817  33.941  1.00  0.00     0.023 A 
ATOM     87  C   UNL A   1      44.814  25.674  34.719  1.00  0.00     0.031 A 
ATOM     88  C   UNL A   1      46.402  27.209  33.754  1.00  0.00     0.131 A 
ATOM     89  C   UNL A   1      45.879  25.001  35.336  1.00  0.00     0.055 A 
ATOM     90  C   UNL A   1      47.462  26.500  34.318  1.00  0.00     0.041 A 
ATOM     91  F   UNL A   1      46.699  28.295  33.021  1.00  0.00    -0.206 F 
ATOM     92  C   UNL A   1      47.203  25.398  35.128  1.00  0.00     0.022 A 
BRANCH  89  93
ATOM     93  S   UNL A   1      45.504  23.664  36.503  1.00  0.00     0.124 S 
ATOM     94  O   UNL A   1      46.838  23.234  36.912  1.00  0.00    -0.237 OA
ATOM     95  O   UNL A   1      44.717  24.351  37.522  1.00  0.00    -0.237 OA
ATOM     96  O   UNL A   1      44.763  22.699  35.693  1.00  0.00    -0.744 OA
ENDBRANCH  89  93
ENDBRANCH  63  86
ENDBRANCH  37  38
ENDBRANCH  29  32
ENDBRANCH  27  28
ENDBRANCH  26  27
ENDBRANCH   1  26
TORSDOF 19
ENDMDL
MODEL 3
REMARK VINA RESULT:     -10.9      2.177      3.851
REMARK SMILES CCC[NH2+][C@]1(C(=O)NCCCCNC(=O)c2ccc(-c3c4nc(c(-c5cc(S(=O)(=O)[O-])ccc5F)c5ccc([nH]5)c(-c5cc(S(=O)(=O)[O-])ccc5F)c5nc(c(-c6cc(S(=O)(=O)[O-])ccc6F)c6ccc3[nH]6)C=C5)C=C4)cc2)CC[C@@H](Sc2nnc(C)n2C)C1
REMARK SMILES IDX 10 1 9 2 8 3 6 4 7 5 5 7 79 8 90 9 80 10 81 11 4 12 3 15
REMARK SMILES IDX 2 16 1 17 82 18 83 19 84 20 88 21 85 22 86 23 89 24 87 25
REMARK SMILES IDX 11 26 12 27 13 28 14 29 15 31 16 32 17 33 78 34 18 35 77 36
REMARK SMILES IDX 19 37 20 38 21 39 71 40 22 41 76 42 70 43 72 44 23 45 75 46
REMARK SMILES IDX 69 47 68 48 24 50 56 51 36 52 55 53 37 54 40 55 54 56 73 57
REMARK SMILES IDX 38 58 39 59 53 61 74 62 41 63 25 64 26 65 34 66 27 67 33 68
REMARK SMILES IDX 35 69 32 70 28 71 29 72 30 73 31 74 57 75 58 76 66 77 59 78
REMARK SMILES IDX 65 79 67 80 64 81 60 82 61 83 62 84 63 85 42 86 43 87 51 88
REMARK SMILES IDX 44 89 50 90 52 91 49 92 45 93 46 94 47 95 48 96
REMARK H PARENT 8 6 4 13 4 14 13 30 72 49 40 60
REMARK Flexibility Score: inf
ROOT
ATOM      1  C   UNL A   1      34.699  30.880  27.768  1.00  0.00     0.023 C 
ENDROOT
BRANCH   1   2
ATOM      2  C   UNL A   1      34.439  29.435  27.357  1.00  0.00     0.116 C 
BRANCH   2   3
ATOM      3  N   UNL A   1      33.132  28.967  27.774  1.00  0.00    -0.351 N 
ATOM      4  C   UNL A   1      32.245  28.077  27.273  1.00  0.00     0.281 C 
ATOM      5  O   UNL A   1      31.222  27.912  27.960  1.00  0.00    -0.268 OA
ATOM      6  H   UNL A   1      32.821  29.391  28.607  1.00  0.00     0.163 HD
BRANCH   4   7
ATOM      7  C   UNL A   1      32.371  27.291  25.928  1.00  0.00     0.176 C 
ATOM      8  C   UNL A   1      33.565  26.378  25.650  1.00  0.00     0.080 C 
ATOM      9  C   UNL A   1      31.178  26.286  25.906  1.00  0.00     0.094 C 
ATOM     10  C   UNL A   1      33.061  25.324  24.677  1.00  0.00     0.022 C 
ATOM     11  C   UNL A   1      31.644  25.029  25.163  1.00  0.00     0.062 C 
BRANCH   7  12
ATOM     12  N   UNL A   1      32.098  28.232  24.799  1.00  0.00    -0.334 N 
ATOM     13  H   UNL A   1      32.288  29.180  25.124  1.00  0.00     0.347 HD
ATOM     14  H   UNL A   1      32.702  27.941  24.031  1.00  0.00     0.347 HD
BRANCH  12  15
ATOM     15  C   UNL A   1      30.727  28.192  24.286  1.00  0.00     0.261 C 
BRANCH  15  16
ATOM     16  C   UNL A   1      30.532  29.257  23.198  1.00  0.00     0.058 C 
ATOM     17  C   UNL A   1      29.131  29.858  23.168  1.00  0.00     0.010 C 
ENDBRANCH  15  16
ENDBRANCH  12  15
ENDBRANCH   7  12
BRANCH  11  18
ATOM     18  S   UNL A   1      31.431  23.509  26.167  1.00  0.00    -0.082 SA
BRANCH  18  19
ATOM     19  C   UNL A   1      32.483  22.356  25.425  1.00  0.00     0.191 A 
ATOM     20  N   UNL A   1      32.150  21.557  24.440  1.00  0.00    -0.123 NA
ATOM     21  N   UNL A   1      33.770  22.095  25.811  1.00  0.00    -0.309 N 
ATOM     22  N   UNL A   1      33.235  20.760  24.159  1.00  0.00    -0.135 NA
ATOM     23  C   UNL A   1      34.202  21.070  24.998  1.00  0.00     0.130 A 
ATOM     24  C   UNL A   1      34.570  22.748  26.814  1.00  0.00     0.154 C 
ATOM     25  C   UNL A   1      35.533  20.423  25.080  1.00  0.00     0.090 C 
ENDBRANCH  18  19
ENDBRANCH  11  18
ENDBRANCH   4   7
ENDBRANCH   2   3
ENDBRANCH   1   2
BRANCH   1  26
ATOM     26  C   UNL A   1      33.456  31.774  27.739  1.00  0.00     0.023 C 
BRANCH  26  27
ATOM     27  C   UNL A   1      33.704  33.239  27.374  1.00  0.00     0.116 C 
BRANCH  27  28
ATOM     28  N   UNL A   1      33.014  34.186  28.229  1.00  0.00    -0.352 N 
ATOM     29  C   UNL A   1      33.316  34.554  29.525  1.00  0.00     0.251 C 
ATOM     30  H   UNL A   1      32.226  34.623  27.833  1.00  0.00     0.163 HD
ATOM     31  O   UNL A   1      32.569  35.294  30.142  1.00  0.00    -0.269 OA
BRANCH  29  32
ATOM     32  C   UNL A   1      34.528  33.999  30.163  1.00  0.00     0.039 A 
ATOM     33  C   UNL A   1      34.375  33.039  31.164  1.00  0.00     0.014 A 
ATOM     34  C   UNL A   1      35.804  34.396  29.752  1.00  0.00     0.014 A 
ATOM     35  C   UNL A   1      35.505  32.421  31.706  1.00  0.00     0.010 A 
ATOM     36  C   UNL A   1      36.924  33.729  30.239  1.00  0.00     0.010 A 
ATOM     37  C   UNL A   1      36.786  32.734  31.219  1.00  0.00    -0.014 A 
BRANCH  37  38
ATOM     38  C   UNL A   1      37.987  32.026  31.728  1.00  0.00     0.031 A 
ATOM     39  C   UNL A   1      38.627  32.455  33.019  1.00  0.00     0.074 A 
ATOM     40  C   UNL A   1      38.530  31.033  30.996  1.00  0.00     0.049 A 
ATOM     41  N   UNL A   1      39.697  31.988  33.609  1.00  0.00    -0.248 NA
ATOM     42  C   UNL A   1      37.996  33.583  33.723  1.00  0.00     0.031 C 
ATOM     43  C   UNL A   1      38.031  30.569  29.699  1.00  0.00     0.029 A 
ATOM     44  N   UNL A   1      39.620  30.234  31.234  1.00  0.00    -0.354 N 
ATOM     45  C   UNL A   1      39.875  32.769  34.746  1.00  0.00     0.074 A 
ATOM     46  C   UNL A   1      38.842  33.784  34.721  1.00  0.00     0.031 C 
ATOM     47  C   UNL A   1      38.793  29.549  29.273  1.00  0.00     0.029 A 
ATOM     48  C   UNL A   1      39.854  29.307  30.246  1.00  0.00     0.049 A 
ATOM     49  H   UNL A   1      40.182  30.317  32.038  1.00  0.00     0.167 HD
ATOM     50  C   UNL A   1      40.797  32.635  35.733  1.00  0.00     0.034 A 
ATOM     51  C   UNL A   1      40.814  28.369  30.136  1.00  0.00     0.034 A 
ATOM     52  C   UNL A   1      41.809  31.607  35.746  1.00  0.00     0.049 A 
ATOM     53  C   UNL A   1      41.823  28.233  31.248  1.00  0.00     0.074 A 
ATOM     54  C   UNL A   1      42.759  31.342  36.716  1.00  0.00     0.029 A 
ATOM     55  N   UNL A   1      42.006  30.673  34.735  1.00  0.00    -0.354 N 
ATOM     56  N   UNL A   1      41.942  28.942  32.347  1.00  0.00    -0.248 NA
ATOM     57  C   UNL A   1      42.813  27.158  31.113  1.00  0.00     0.031 C 
ATOM     58  C   UNL A   1      43.567  30.290  36.267  1.00  0.00     0.029 A 
ATOM     59  C   UNL A   1      43.076  29.848  35.049  1.00  0.00     0.049 A 
ATOM     60  H   UNL A   1      41.464  30.607  33.916  1.00  0.00     0.167 HD
ATOM     61  C   UNL A   1      43.004  28.378  33.047  1.00  0.00     0.074 A 
ATOM     62  C   UNL A   1      43.475  27.260  32.256  1.00  0.00     0.031 C 
ATOM     63  C   UNL A   1      43.541  28.747  34.239  1.00  0.00     0.034 A 
BRANCH  50  64
ATOM     64  C   UNL A   1      40.754  33.640  36.860  1.00  0.00     0.023 A 
ATOM     65  C   UNL A   1      41.613  34.753  36.890  1.00  0.00     0.031 A 
ATOM     66  C   UNL A   1      39.871  33.464  37.941  1.00  0.00     0.131 A 
ATOM     67  C   UNL A   1      41.632  35.596  38.011  1.00  0.00     0.055 A 
ATOM     68  C   UNL A   1      39.835  34.357  39.014  1.00  0.00     0.041 A 
ATOM     69  F   UNL A   1      39.042  32.410  37.983  1.00  0.00    -0.206 F 
ATOM     70  C   UNL A   1      40.730  35.422  39.063  1.00  0.00     0.022 A 
BRANCH  67  71
ATOM     71  S   UNL A   1      42.957  36.828  38.144  1.00  0.00     0.124 S 
ATOM     72  O   UNL A   1      42.351  37.814  39.036  1.00  0.00    -0.237 OA
ATOM     73  O   UNL A   1      44.056  36.051  38.702  1.00  0.00    -0.237 OA
ATOM     74  O   UNL A   1      43.145  37.279  36.766  1.00  0.00    -0.744 OA
ENDBRANCH  67  71
ENDBRANCH  50  64
BRANCH  51  75
ATOM     75  C   UNL A   1      40.869  27.477  28.943  1.00  0.00     0.023 A 
ATOM     76  C   UNL A   1      41.815  27.687  27.926  1.00  0.00     0.031 A 
ATOM     77  C   UNL A   1      39.949  26.425  28.782  1.00  0.00     0.131 A 
ATOM     78  C   UNL A   1      41.791  26.889  26.772  1.00  0.00     0.055 A 
ATOM     79  C   UNL A   1      39.961  25.601  27.655  1.00  0.00     0.041 A 
ATOM     80  F   UNL A   1      39.030  26.176  29.728  1.00  0.00    -0.206 F 
ATOM     81  C   UNL A   1      40.878  25.840  26.634  1.00  0.00     0.022 A 
BRANCH  78  82
ATOM     82  S   UNL A   1      42.920  27.295  25.412  1.00  0.00     0.124 S 
ATOM     83  O   UNL A   1      44.121  27.702  26.134  1.00  0.00    -0.237 OA
ATOM     84  O   UNL A   1      42.999  26.025  24.697  1.00  0.00    -0.237 OA
ATOM     85  O   UNL A   1      42.224  28.365  24.702  1.00  0.00    -0.744 OA
ENDBRANCH  78  82
ENDBRANCH  51  75
BRANCH  63  86
ATOM     86  C   UNL A   1      44.674  27.899  34.766  1.00  0.00     0.023 A 
ATOM     87  C   UNL A   1      44.439  26.713  35.481  1.00  0.00     0.031 A 
ATOM     88  C   UNL A   1      46.007  28.300  34.570  1.00  0.00     0.131 A 
ATOM     89  C   UNL A   1      45.515  26.004  36.033  1.00  0.00     0.055 A 
ATOM     90  C   UNL A   1      47.078  27.557  35.068  1.00  0.00     0.041 A 
ATOM     91  F   UNL A   1      46.291  29.426  33.895  1.00  0.00    -0.206 F 
ATOM     92  C   UNL A   1      46.835  26.410  35.817  1.00  0.00     0.022 A 
BRANCH  89  93
ATOM     93  S   UNL A   1      45.164  24.601  37.128  1.00  0.00     0.124 S 
ATOM     94  O   UNL A   1      44.342  25.221  38.163  1.00  0.00    -0.237 OA
ATOM     95  O   UNL A   1      44.473  23.675  36.236  1.00  0.00    -0.237 OA
ATOM     96  O   UNL A   1      46.490  24.167  37.565  1.00  0.00    -0.744 OA
ENDBRANCH  89  93
ENDBRANCH  63  86
ENDBRANCH  37  38
ENDBRANCH  29  32
ENDBRANCH  27  28
ENDBRANCH  26  27
ENDBRANCH   1  26
TORSDOF 19
ENDMDL
