MODEL 1
REMARK VINA RESULT:     -13.3      0.000      0.000
REMARK SMILES Cc1cccc(CC(=O)N2CCC3(CCC(=O)N([C@H](C)C(=O)NCCCCNC(=O)c4ccc(-c5c6nc(c(-c7cc(S(=O)(=O)[O-])ccc7F)c7ccc([nH]7)c(-c7cc(S(=O)(=O)[O-])ccc7F)c7nc(c(-c8cc(S(=O)(=O)[O-])ccc8F)c8ccc5[nH]8)C=C7)C=C6)cc4)C3)CC2)c1
REMARK SMILES IDX 25 1 24 2 23 3 21 4 22 5 19 7 20 8 18 9 8 10 9 11 10 12
REMARK SMILES IDX 11 13 96 14 12 15 95 16 13 17 14 18 94 19 15 20 16 21 17 22
REMARK SMILES IDX 7 23 6 24 1 25 2 26 3 27 97 28 4 29 5 30 26 31 27 32 28 33
REMARK SMILES IDX 29 34 30 36 31 37 32 38 93 39 33 40 92 41 34 42 35 43 36 44
REMARK SMILES IDX 86 45 37 46 91 47 85 48 87 49 38 50 90 51 84 52 83 53 39 55
REMARK SMILES IDX 71 56 51 57 70 58 52 59 55 60 69 61 88 62 53 63 54 64 68 66
REMARK SMILES IDX 89 67 56 68 40 69 41 70 49 71 42 72 48 73 50 74 47 75 43 76
REMARK SMILES IDX 44 77 45 78 46 79 72 80 73 81 81 82 74 83 80 84 82 85 79 86
REMARK SMILES IDX 75 87 76 88 77 89 78 90 57 91 58 92 66 93 59 94 65 95 67 96
REMARK SMILES IDX 64 97 60 98 61 99 62 100 63 101
REMARK H PARENT 23 6 28 35 87 54 55 65
REMARK Flexibility Score: inf
ROOT
ATOM      1  C   UNL A   1      38.063  20.945  24.992  1.00  0.00     0.023 C 
ENDROOT
BRANCH   1   2
ATOM      2  C   UNL A   1      36.556  21.203  25.008  1.00  0.00     0.116 C 
BRANCH   2   3
ATOM      3  N   UNL A   1      36.089  21.964  23.853  1.00  0.00    -0.354 N 
ATOM      4  C   UNL A   1      35.268  23.056  23.791  1.00  0.00     0.242 C 
ATOM      5  O   UNL A   1      35.158  23.631  22.700  1.00  0.00    -0.273 OA
ATOM      6  H   UNL A   1      36.415  21.640  22.982  1.00  0.00     0.163 HD
BRANCH   4   7
ATOM      7  C   UNL A   1      34.412  23.515  25.000  1.00  0.00     0.171 C 
ATOM      8  C   UNL A   1      34.983  24.784  25.640  1.00  0.00     0.042 C 
BRANCH   7   9
ATOM      9  N   UNL A   1      32.947  23.577  24.869  1.00  0.00    -0.330 N 
ATOM     10  C   UNL A   1      30.203  29.050  22.588  1.00  0.00     0.226 C 
ATOM     11  O   UNL A   1      30.690  29.528  21.555  1.00  0.00    -0.275 OA
ATOM     12  N   UNL A   1      30.232  27.683  22.821  1.00  0.00    -0.342 N 
ATOM     13  C   UNL A   1      31.143  26.830  22.057  1.00  0.00     0.120 C 
ATOM     14  C   UNL A   1      29.387  26.936  23.742  1.00  0.00     0.120 C 
ATOM     15  C   UNL A   1      32.030  26.012  23.013  1.00  0.00     0.030 C 
ATOM     16  C   UNL A   1      30.255  26.266  24.792  1.00  0.00     0.030 C 
ATOM     17  C   UNL A   1      31.246  25.270  24.137  1.00  0.00    -0.008 C 
ATOM     18  C   UNL A   1      30.438  24.059  23.599  1.00  0.00     0.019 C 
ATOM     19  C   UNL A   1      32.228  24.785  25.227  1.00  0.00     0.127 C 
ATOM     20  C   UNL A   1      31.283  22.837  23.295  1.00  0.00     0.101 C 
ATOM     21  C   UNL A   1      32.198  22.496  24.444  1.00  0.00     0.223 C 
ATOM     22  O   UNL A   1      32.344  21.358  24.871  1.00  0.00    -0.275 OA
BRANCH  10  23
ATOM     23  C   UNL A   1      29.787  30.023  23.693  1.00  0.00     0.135 C 
BRANCH  23  24
ATOM     24  C   UNL A   1      30.778  30.394  24.764  1.00  0.00    -0.038 A 
ATOM     25  C   UNL A   1      33.780  28.780  26.484  1.00  0.00     0.044 C 
ATOM     26  C   UNL A   1      32.706  29.765  26.124  1.00  0.00    -0.051 A 
ATOM     27  C   UNL A   1      32.499  30.901  26.913  1.00  0.00     0.003 A 
ATOM     28  C   UNL A   1      31.858  29.534  25.035  1.00  0.00     0.007 A 
ATOM     29  C   UNL A   1      31.463  31.790  26.619  1.00  0.00     0.001 A 
ATOM     30  C   UNL A   1      30.604  31.541  25.547  1.00  0.00     0.004 A 
ENDBRANCH  23  24
ENDBRANCH  10  23
ENDBRANCH   7   9
ENDBRANCH   4   7
ENDBRANCH   2   3
ENDBRANCH   1   2
BRANCH   1  31
ATOM     31  C   UNL A   1      38.810  21.389  26.248  1.00  0.00     0.023 C 
BRANCH  31  32
ATOM     32  C   UNL A   1      39.303  22.830  26.223  1.00  0.00     0.116 C 
BRANCH  32  33
ATOM     33  N   UNL A   1      40.743  23.004  26.344  1.00  0.00    -0.352 N 
ATOM     34  C   UNL A   1      41.460  24.169  26.585  1.00  0.00     0.251 C 
ATOM     35  H   UNL A   1      41.280  22.186  26.242  1.00  0.00     0.163 HD
ATOM     36  O   UNL A   1      42.677  24.184  26.493  1.00  0.00    -0.269 OA
BRANCH  34  37
ATOM     37  C   UNL A   1      40.741  25.380  27.065  1.00  0.00     0.039 A 
ATOM     38  C   UNL A   1      40.792  26.528  26.262  1.00  0.00     0.014 A 
ATOM     39  C   UNL A   1      40.220  25.456  28.352  1.00  0.00     0.014 A 
ATOM     40  C   UNL A   1      40.550  27.778  26.832  1.00  0.00     0.010 A 
ATOM     41  C   UNL A   1      40.097  26.692  28.948  1.00  0.00     0.010 A 
ATOM     42  C   UNL A   1      40.317  27.854  28.203  1.00  0.00    -0.014 A 
BRANCH  42  43
ATOM     43  C   UNL A   1      40.392  29.088  28.974  1.00  0.00     0.031 A 
ATOM     44  C   UNL A   1      39.300  30.077  28.919  1.00  0.00     0.074 A 
ATOM     45  C   UNL A   1      41.404  29.256  29.852  1.00  0.00     0.049 A 
ATOM     46  N   UNL A   1      39.415  31.314  29.262  1.00  0.00    -0.248 NA
ATOM     47  C   UNL A   1      37.973  29.746  28.418  1.00  0.00     0.031 C 
ATOM     48  C   UNL A   1      41.507  30.245  30.922  1.00  0.00     0.029 A 
ATOM     49  N   UNL A   1      42.680  28.699  29.770  1.00  0.00    -0.354 N 
ATOM     50  C   UNL A   1      38.149  31.846  29.343  1.00  0.00     0.074 A 
ATOM     51  C   UNL A   1      37.298  30.857  28.724  1.00  0.00     0.031 C 
ATOM     52  C   UNL A   1      42.804  30.443  31.201  1.00  0.00     0.029 A 
ATOM     53  C   UNL A   1      43.568  29.698  30.217  1.00  0.00     0.049 A 
ATOM     54  H   UNL A   1      42.913  27.794  29.462  1.00  0.00     0.167 HD
ATOM     55  C   UNL A   1      37.957  32.992  30.058  1.00  0.00     0.034 A 
ATOM     56  C   UNL A   1      44.500  30.230  29.374  1.00  0.00     0.034 A 
ATOM     57  C   UNL A   1      39.230  33.550  30.526  1.00  0.00     0.049 A 
ATOM     58  C   UNL A   1      44.367  31.727  29.190  1.00  0.00     0.074 A 
ATOM     59  C   UNL A   1      39.867  33.571  31.756  1.00  0.00     0.029 A 
ATOM     60  N   UNL A   1      40.177  33.961  29.593  1.00  0.00    -0.354 N 
ATOM     61  N   UNL A   1      43.310  32.424  29.508  1.00  0.00    -0.248 NA
ATOM     62  C   UNL A   1      45.422  32.555  28.622  1.00  0.00     0.031 C 
ATOM     63  C   UNL A   1      41.217  33.969  31.549  1.00  0.00     0.029 A 
ATOM     64  C   UNL A   1      41.394  34.214  30.198  1.00  0.00     0.049 A 
ATOM     65  H   UNL A   1      40.004  34.059  28.629  1.00  0.00     0.167 HD
ATOM     66  C   UNL A   1      43.506  33.750  29.196  1.00  0.00     0.074 A 
ATOM     67  C   UNL A   1      44.856  33.776  28.658  1.00  0.00     0.031 C 
ATOM     68  C   UNL A   1      42.528  34.689  29.408  1.00  0.00     0.034 A 
BRANCH  55  69
ATOM     69  C   UNL A   1      36.608  33.449  30.586  1.00  0.00     0.023 A 
ATOM     70  C   UNL A   1      35.723  34.132  29.722  1.00  0.00     0.031 A 
ATOM     71  C   UNL A   1      36.149  33.306  31.910  1.00  0.00     0.131 A 
ATOM     72  C   UNL A   1      34.534  34.722  30.194  1.00  0.00     0.055 A 
ATOM     73  C   UNL A   1      34.998  33.943  32.396  1.00  0.00     0.041 A 
ATOM     74  F   UNL A   1      36.751  32.490  32.784  1.00  0.00    -0.206 F 
ATOM     75  C   UNL A   1      34.189  34.669  31.539  1.00  0.00     0.022 A 
BRANCH  72  76
ATOM     76  S   UNL A   1      33.432  35.557  29.019  1.00  0.00     0.124 S 
ATOM     77  O   UNL A   1      34.372  36.275  28.165  1.00  0.00    -0.237 OA
ATOM     78  O   UNL A   1      32.728  34.437  28.407  1.00  0.00    -0.237 OA
ATOM     79  O   UNL A   1      32.605  36.407  29.876  1.00  0.00    -0.744 OA
ENDBRANCH  72  76
ENDBRANCH  55  69
BRANCH  56  80
ATOM     80  C   UNL A   1      44.985  29.250  28.355  1.00  0.00     0.023 A 
ATOM     81  C   UNL A   1      45.937  28.298  28.791  1.00  0.00     0.031 A 
ATOM     82  C   UNL A   1      44.275  28.970  27.181  1.00  0.00     0.131 A 
ATOM     83  C   UNL A   1      46.006  27.035  28.188  1.00  0.00     0.055 A 
ATOM     84  C   UNL A   1      44.419  27.740  26.523  1.00  0.00     0.041 A 
ATOM     85  F   UNL A   1      43.345  29.820  26.724  1.00  0.00    -0.206 F 
ATOM     86  C   UNL A   1      45.249  26.747  27.054  1.00  0.00     0.022 A 
BRANCH  83  87
ATOM     87  S   UNL A   1      46.882  25.714  29.082  1.00  0.00     0.124 S 
ATOM     88  O   UNL A   1      48.279  26.104  28.915  1.00  0.00    -0.237 OA
ATOM     89  O   UNL A   1      46.359  25.835  30.442  1.00  0.00    -0.237 OA
ATOM     90  O   UNL A   1      46.484  24.494  28.386  1.00  0.00    -0.744 OA
ENDBRANCH  83  87
ENDBRANCH  56  80
BRANCH  68  91
ATOM     91  C   UNL A   1      42.528  36.152  28.964  1.00  0.00     0.023 A 
ATOM     92  C   UNL A   1      43.133  37.197  29.676  1.00  0.00     0.031 A 
ATOM     93  C   UNL A   1      41.920  36.546  27.740  1.00  0.00     0.131 A 
ATOM     94  C   UNL A   1      43.099  38.529  29.214  1.00  0.00     0.055 A 
ATOM     95  C   UNL A   1      41.926  37.860  27.258  1.00  0.00     0.041 A 
ATOM     96  F   UNL A   1      41.296  35.673  26.938  1.00  0.00    -0.206 F 
ATOM     97  C   UNL A   1      42.514  38.868  28.000  1.00  0.00     0.022 A 
BRANCH  94  98
ATOM     98  S   UNL A   1      43.813  39.820  30.270  1.00  0.00     0.124 S 
ATOM     99  O   UNL A   1      43.176  41.026  29.747  1.00  0.00    -0.237 OA
ATOM    100  O   UNL A   1      43.384  39.404  31.601  1.00  0.00    -0.237 OA
ATOM    101  O   UNL A   1      45.249  39.717  30.019  1.00  0.00    -0.744 OA
ENDBRANCH  94  98
ENDBRANCH  68  91
ENDBRANCH  42  43
ENDBRANCH  34  37
ENDBRANCH  32  33
ENDBRANCH  31  32
ENDBRANCH   1  31
TORSDOF 17
ENDMDL
MODEL 2
REMARK VINA RESULT:     -13.1      2.650      3.783
REMARK SMILES Cc1cccc(CC(=O)N2CCC3(CCC(=O)N([C@H](C)C(=O)NCCCCNC(=O)c4ccc(-c5c6nc(c(-c7cc(S(=O)(=O)[O-])ccc7F)c7ccc([nH]7)c(-c7cc(S(=O)(=O)[O-])ccc7F)c7nc(c(-c8cc(S(=O)(=O)[O-])ccc8F)c8ccc5[nH]8)C=C7)C=C6)cc4)C3)CC2)c1
REMARK SMILES IDX 25 1 24 2 23 3 21 4 22 5 19 7 20 8 18 9 8 10 9 11 10 12
REMARK SMILES IDX 11 13 96 14 12 15 95 16 13 17 14 18 94 19 15 20 16 21 17 22
REMARK SMILES IDX 7 23 6 24 1 25 2 26 3 27 97 28 4 29 5 30 26 31 27 32 28 33
REMARK SMILES IDX 29 34 30 36 31 37 32 38 93 39 33 40 92 41 34 42 35 43 36 44
REMARK SMILES IDX 86 45 37 46 91 47 85 48 87 49 38 50 90 51 84 52 83 53 39 55
REMARK SMILES IDX 71 56 51 57 70 58 52 59 55 60 69 61 88 62 53 63 54 64 68 66
REMARK SMILES IDX 89 67 56 68 40 69 41 70 49 71 42 72 48 73 50 74 47 75 43 76
REMARK SMILES IDX 44 77 45 78 46 79 72 80 73 81 81 82 74 83 80 84 82 85 79 86
REMARK SMILES IDX 75 87 76 88 77 89 78 90 57 91 58 92 66 93 59 94 65 95 67 96
REMARK SMILES IDX 64 97 60 98 61 99 62 100 63 101
REMARK H PARENT 23 6 28 35 87 54 55 65
REMARK Flexibility Score: inf
ROOT
ATOM      1  C   UNL A   1      37.931  23.831  26.273  1.00  0.00     0.023 C 
ENDROOT
BRANCH   1   2
ATOM      2  C   UNL A   1      36.503  23.305  26.126  1.00  0.00     0.116 C 
BRANCH   2   3
ATOM      3  N   UNL A   1      36.443  21.917  25.675  1.00  0.00    -0.354 N 
ATOM      4  C   UNL A   1      35.375  21.069  25.576  1.00  0.00     0.242 C 
ATOM      5  O   UNL A   1      35.551  19.988  24.999  1.00  0.00    -0.273 OA
ATOM      6  H   UNL A   1      37.306  21.531  25.400  1.00  0.00     0.163 HD
BRANCH   4   7
ATOM      7  C   UNL A   1      34.011  21.377  26.247  1.00  0.00     0.171 C 
ATOM      8  C   UNL A   1      34.180  22.282  27.470  1.00  0.00     0.042 C 
BRANCH   7   9
ATOM      9  N   UNL A   1      32.870  21.789  25.412  1.00  0.00    -0.330 N 
ATOM     10  C   UNL A   1      33.000  27.662  22.552  1.00  0.00     0.226 C 
ATOM     11  O   UNL A   1      34.035  27.960  21.941  1.00  0.00    -0.275 OA
ATOM     12  N   UNL A   1      32.589  26.341  22.650  1.00  0.00    -0.342 N 
ATOM     13  C   UNL A   1      33.533  25.258  22.367  1.00  0.00     0.120 C 
ATOM     14  C   UNL A   1      31.250  25.863  22.962  1.00  0.00     0.120 C 
ATOM     15  C   UNL A   1      33.602  24.291  23.564  1.00  0.00     0.030 C 
ATOM     16  C   UNL A   1      31.291  25.048  24.243  1.00  0.00     0.030 C 
ATOM     17  C   UNL A   1      32.213  23.812  24.082  1.00  0.00    -0.008 C 
ATOM     18  C   UNL A   1      31.528  22.813  23.112  1.00  0.00     0.019 C 
ATOM     19  C   UNL A   1      32.372  23.151  25.470  1.00  0.00     0.127 C 
ATOM     20  C   UNL A   1      32.100  21.410  23.164  1.00  0.00     0.101 C 
ATOM     21  C   UNL A   1      32.207  20.906  24.580  1.00  0.00     0.223 C 
ATOM     22  O   UNL A   1      31.850  19.787  24.925  1.00  0.00    -0.275 OA
BRANCH  10  23
ATOM     23  C   UNL A   1      32.327  28.754  23.384  1.00  0.00     0.135 C 
BRANCH  23  24
ATOM     24  C   UNL A   1      32.479  28.744  24.882  1.00  0.00    -0.038 A 
ATOM     25  C   UNL A   1      35.319  29.083  27.410  1.00  0.00     0.044 C 
ATOM     26  C   UNL A   1      33.952  28.888  26.825  1.00  0.00    -0.051 A 
ATOM     27  C   UNL A   1      32.887  28.490  27.640  1.00  0.00     0.003 A 
ATOM     28  C   UNL A   1      33.732  29.040  25.451  1.00  0.00     0.007 A 
ATOM     29  C   UNL A   1      31.626  28.248  27.092  1.00  0.00     0.001 A 
ATOM     30  C   UNL A   1      31.419  28.377  25.717  1.00  0.00     0.004 A 
ENDBRANCH  23  24
ENDBRANCH  10  23
ENDBRANCH   7   9
ENDBRANCH   4   7
ENDBRANCH   2   3
ENDBRANCH   1   2
BRANCH   1  31
ATOM     31  C   UNL A   1      39.021  22.907  25.733  1.00  0.00     0.023 C 
BRANCH  31  32
ATOM     32  C   UNL A   1      39.630  21.965  26.766  1.00  0.00     0.116 C 
BRANCH  32  33
ATOM     33  N   UNL A   1      40.577  20.991  26.246  1.00  0.00    -0.352 N 
ATOM     34  C   UNL A   1      41.955  21.102  26.118  1.00  0.00     0.251 C 
ATOM     35  H   UNL A   1      40.189  20.138  25.946  1.00  0.00     0.163 HD
ATOM     36  O   UNL A   1      42.597  20.261  25.507  1.00  0.00    -0.269 OA
BRANCH  34  37
ATOM     37  C   UNL A   1      42.665  22.201  26.826  1.00  0.00     0.039 A 
ATOM     38  C   UNL A   1      42.665  22.179  28.228  1.00  0.00     0.014 A 
ATOM     39  C   UNL A   1      43.126  23.326  26.150  1.00  0.00     0.014 A 
ATOM     40  C   UNL A   1      42.895  23.360  28.935  1.00  0.00     0.010 A 
ATOM     41  C   UNL A   1      43.236  24.516  26.836  1.00  0.00     0.010 A 
ATOM     42  C   UNL A   1      43.065  24.544  28.223  1.00  0.00    -0.014 A 
BRANCH  42  43
ATOM     43  C   UNL A   1      42.969  25.872  28.816  1.00  0.00     0.031 A 
ATOM     44  C   UNL A   1      41.774  26.707  28.599  1.00  0.00     0.074 A 
ATOM     45  C   UNL A   1      43.922  26.276  29.683  1.00  0.00     0.049 A 
ATOM     46  N   UNL A   1      41.734  27.984  28.770  1.00  0.00    -0.248 NA
ATOM     47  C   UNL A   1      40.514  26.155  28.121  1.00  0.00     0.031 C 
ATOM     48  C   UNL A   1      43.870  27.406  30.607  1.00  0.00     0.029 A 
ATOM     49  N   UNL A   1      45.255  25.868  29.707  1.00  0.00    -0.354 N 
ATOM     50  C   UNL A   1      40.413  28.367  28.748  1.00  0.00     0.074 A 
ATOM     51  C   UNL A   1      39.704  27.210  28.255  1.00  0.00     0.031 C 
ATOM     52  C   UNL A   1      45.124  27.793  30.884  1.00  0.00     0.029 A 
ATOM     53  C   UNL A   1      46.005  27.017  30.030  1.00  0.00     0.049 A 
ATOM     54  H   UNL A   1      45.602  24.964  29.534  1.00  0.00     0.167 HD
ATOM     55  C   UNL A   1      40.063  29.569  29.292  1.00  0.00     0.034 A 
ATOM     56  C   UNL A   1      46.901  27.537  29.141  1.00  0.00     0.034 A 
ATOM     57  C   UNL A   1      41.246  30.332  29.705  1.00  0.00     0.049 A 
ATOM     58  C   UNL A   1      46.605  28.969  28.748  1.00  0.00     0.074 A 
ATOM     59  C   UNL A   1      41.829  30.596  30.934  1.00  0.00     0.029 A 
ATOM     60  N   UNL A   1      42.174  30.723  28.745  1.00  0.00    -0.354 N 
ATOM     61  N   UNL A   1      45.463  29.571  28.943  1.00  0.00    -0.248 NA
ATOM     62  C   UNL A   1      47.578  29.832  28.093  1.00  0.00     0.031 C 
ATOM     63  C   UNL A   1      43.131  31.120  30.703  1.00  0.00     0.029 A 
ATOM     64  C   UNL A   1      43.330  31.198  29.335  1.00  0.00     0.049 A 
ATOM     65  H   UNL A   1      42.027  30.668  27.774  1.00  0.00     0.167 HD
ATOM     66  C   UNL A   1      45.517  30.857  28.454  1.00  0.00     0.074 A 
ATOM     67  C   UNL A   1      46.875  30.969  27.946  1.00  0.00     0.031 C 
ATOM     68  C   UNL A   1      44.431  31.693  28.511  1.00  0.00     0.034 A 
BRANCH  55  69
ATOM     69  C   UNL A   1      38.652  29.930  29.722  1.00  0.00     0.023 A 
ATOM     70  C   UNL A   1      38.050  31.099  29.205  1.00  0.00     0.031 A 
ATOM     71  C   UNL A   1      37.869  29.226  30.658  1.00  0.00     0.131 A 
ATOM     72  C   UNL A   1      36.814  31.572  29.688  1.00  0.00     0.055 A 
ATOM     73  C   UNL A   1      36.670  29.725  31.185  1.00  0.00     0.041 A 
ATOM     74  F   UNL A   1      38.188  27.990  31.060  1.00  0.00    -0.206 F 
ATOM     75  C   UNL A   1      36.141  30.913  30.710  1.00  0.00     0.022 A 
BRANCH  72  76
ATOM     76  S   UNL A   1      36.088  33.064  28.954  1.00  0.00     0.124 S 
ATOM     77  O   UNL A   1      34.997  33.365  29.874  1.00  0.00    -0.237 OA
ATOM     78  O   UNL A   1      37.214  33.991  28.961  1.00  0.00    -0.237 OA
ATOM     79  O   UNL A   1      35.669  32.618  27.625  1.00  0.00    -0.744 OA
ENDBRANCH  72  76
ENDBRANCH  55  69
BRANCH  56  80
ATOM     80  C   UNL A   1      47.534  26.492  28.280  1.00  0.00     0.023 A 
ATOM     81  C   UNL A   1      47.257  26.556  26.894  1.00  0.00     0.031 A 
ATOM     82  C   UNL A   1      48.657  25.760  28.687  1.00  0.00     0.131 A 
ATOM     83  C   UNL A   1      48.191  26.086  25.961  1.00  0.00     0.055 A 
ATOM     84  C   UNL A   1      49.540  25.206  27.748  1.00  0.00     0.041 A 
ATOM     85  F   UNL A   1      48.987  25.676  29.983  1.00  0.00    -0.206 F 
ATOM     86  C   UNL A   1      49.337  25.411  26.380  1.00  0.00     0.022 A 
BRANCH  83  87
ATOM     87  S   UNL A   1      48.009  26.625  24.232  1.00  0.00     0.124 S 
ATOM     88  O   UNL A   1      47.901  25.353  23.524  1.00  0.00    -0.237 OA
ATOM     89  O   UNL A   1      46.786  27.427  24.266  1.00  0.00    -0.237 OA
ATOM     90  O   UNL A   1      49.226  27.388  23.971  1.00  0.00    -0.744 OA
ENDBRANCH  83  87
ENDBRANCH  56  80
BRANCH  68  91
ATOM     91  C   UNL A   1      44.280  33.072  27.868  1.00  0.00     0.023 A 
ATOM     92  C   UNL A   1      44.450  34.286  28.546  1.00  0.00     0.031 A 
ATOM     93  C   UNL A   1      43.980  33.205  26.484  1.00  0.00     0.131 A 
ATOM     94  C   UNL A   1      44.297  35.529  27.896  1.00  0.00     0.055 A 
ATOM     95  C   UNL A   1      43.874  34.437  25.828  1.00  0.00     0.041 A 
ATOM     96  F   UNL A   1      43.785  32.145  25.689  1.00  0.00    -0.206 F 
ATOM     97  C   UNL A   1      44.026  35.615  26.536  1.00  0.00     0.022 A 
BRANCH  94  98
ATOM     98  S   UNL A   1      44.427  37.038  28.894  1.00  0.00     0.124 S 
ATOM     99  O   UNL A   1      45.757  36.902  29.479  1.00  0.00    -0.237 OA
ATOM    100  O   UNL A   1      44.282  38.088  27.889  1.00  0.00    -0.237 OA
ATOM    101  O   UNL A   1      43.318  36.926  29.839  1.00  0.00    -0.744 OA
ENDBRANCH  94  98
ENDBRANCH  68  91
ENDBRANCH  42  43
ENDBRANCH  34  37
ENDBRANCH  32  33
ENDBRANCH  31  32
ENDBRANCH   1  31
TORSDOF 17
ENDMDL
MODEL 3
REMARK VINA RESULT:     -11.6      1.832      2.272
REMARK SMILES Cc1cccc(CC(=O)N2CCC3(CCC(=O)N([C@H](C)C(=O)NCCCCNC(=O)c4ccc(-c5c6nc(c(-c7cc(S(=O)(=O)[O-])ccc7F)c7ccc([nH]7)c(-c7cc(S(=O)(=O)[O-])ccc7F)c7nc(c(-c8cc(S(=O)(=O)[O-])ccc8F)c8ccc5[nH]8)C=C7)C=C6)cc4)C3)CC2)c1
REMARK SMILES IDX 25 1 24 2 23 3 21 4 22 5 19 7 20 8 18 9 8 10 9 11 10 12
REMARK SMILES IDX 11 13 96 14 12 15 95 16 13 17 14 18 94 19 15 20 16 21 17 22
REMARK SMILES IDX 7 23 6 24 1 25 2 26 3 27 97 28 4 29 5 30 26 31 27 32 28 33
REMARK SMILES IDX 29 34 30 36 31 37 32 38 93 39 33 40 92 41 34 42 35 43 36 44
REMARK SMILES IDX 86 45 37 46 91 47 85 48 87 49 38 50 90 51 84 52 83 53 39 55
REMARK SMILES IDX 71 56 51 57 70 58 52 59 55 60 69 61 88 62 53 63 54 64 68 66
REMARK SMILES IDX 89 67 56 68 40 69 41 70 49 71 42 72 48 73 50 74 47 75 43 76
REMARK SMILES IDX 44 77 45 78 46 79 72 80 73 81 81 82 74 83 80 84 82 85 79 86
REMARK SMILES IDX 75 87 76 88 77 89 78 90 57 91 58 92 66 93 59 94 65 95 67 96
REMARK SMILES IDX 64 97 60 98 61 99 62 100 63 101
REMARK H PARENT 23 6 28 35 87 54 55 65
REMARK Flexibility Score: inf
ROOT
ATOM      1  C   UNL A   1      36.338  21.880  25.780  1.00  0.00     0.023 C 
ENDROOT
BRANCH   1   2
ATOM      2  C   UNL A   1      36.486  20.566  25.013  1.00  0.00     0.116 C 
BRANCH   2   3
ATOM      3  N   UNL A   1      35.285  19.736  25.052  1.00  0.00    -0.354 N 
ATOM      4  C   UNL A   1      34.016  20.002  24.620  1.00  0.00     0.242 C 
ATOM      5  O   UNL A   1      33.205  19.067  24.606  1.00  0.00    -0.273 OA
ATOM      6  H   UNL A   1      35.409  18.845  25.454  1.00  0.00     0.163 HD
BRANCH   4   7
ATOM      7  C   UNL A   1      33.552  21.437  24.256  1.00  0.00     0.171 C 
ATOM      8  C   UNL A   1      32.496  21.419  23.147  1.00  0.00     0.042 C 
BRANCH   7   9
ATOM      9  N   UNL A   1      33.205  22.381  25.331  1.00  0.00    -0.330 N 
ATOM     10  C   UNL A   1      30.177  27.960  23.786  1.00  0.00     0.226 C 
ATOM     11  O   UNL A   1      29.195  27.872  23.037  1.00  0.00    -0.275 OA
ATOM     12  N   UNL A   1      30.505  26.928  24.652  1.00  0.00    -0.342 N 
ATOM     13  C   UNL A   1      29.942  25.592  24.445  1.00  0.00     0.120 C 
ATOM     14  C   UNL A   1      31.341  27.017  25.840  1.00  0.00     0.120 C 
ATOM     15  C   UNL A   1      31.072  24.551  24.353  1.00  0.00     0.030 C 
ATOM     16  C   UNL A   1      32.551  26.114  25.675  1.00  0.00     0.030 C 
ATOM     17  C   UNL A   1      32.118  24.635  25.505  1.00  0.00    -0.008 C 
ATOM     18  C   UNL A   1      31.552  24.133  26.860  1.00  0.00     0.019 C 
ATOM     19  C   UNL A   1      33.370  23.809  25.136  1.00  0.00     0.127 C 
ATOM     20  C   UNL A   1      31.460  22.624  26.971  1.00  0.00     0.101 C 
ATOM     21  C   UNL A   1      32.750  21.958  26.566  1.00  0.00     0.223 C 
ATOM     22  O   UNL A   1      33.272  21.057  27.210  1.00  0.00    -0.275 OA
BRANCH  10  23
ATOM     23  C   UNL A   1      31.139  29.127  23.560  1.00  0.00     0.135 C 
BRANCH  23  24
ATOM     24  C   UNL A   1      31.629  29.923  24.741  1.00  0.00    -0.038 A 
ATOM     25  C   UNL A   1      34.511  29.743  27.238  1.00  0.00     0.044 C 
ATOM     26  C   UNL A   1      33.267  30.195  26.533  1.00  0.00    -0.051 A 
ATOM     27  C   UNL A   1      32.465  31.196  27.090  1.00  0.00     0.003 A 
ATOM     28  C   UNL A   1      32.855  29.583  25.343  1.00  0.00     0.007 A 
ATOM     29  C   UNL A   1      31.274  31.578  26.470  1.00  0.00     0.001 A 
ATOM     30  C   UNL A   1      30.856  30.947  25.297  1.00  0.00     0.004 A 
ENDBRANCH  23  24
ENDBRANCH  10  23
ENDBRANCH   7   9
ENDBRANCH   4   7
ENDBRANCH   2   3
ENDBRANCH   1   2
BRANCH   1  31
ATOM     31  C   UNL A   1      37.635  22.447  26.352  1.00  0.00     0.023 C 
BRANCH  31  32
ATOM     32  C   UNL A   1      38.787  22.537  25.358  1.00  0.00     0.116 C 
BRANCH  32  33
ATOM     33  N   UNL A   1      40.117  22.352  25.917  1.00  0.00    -0.352 N 
ATOM     34  C   UNL A   1      40.947  23.292  26.513  1.00  0.00     0.251 C 
ATOM     35  H   UNL A   1      40.476  21.436  25.868  1.00  0.00     0.163 HD
ATOM     36  O   UNL A   1      42.106  23.020  26.784  1.00  0.00    -0.269 OA
BRANCH  34  37
ATOM     37  C   UNL A   1      40.382  24.607  26.921  1.00  0.00     0.039 A 
ATOM     38  C   UNL A   1      40.902  25.756  26.311  1.00  0.00     0.014 A 
ATOM     39  C   UNL A   1      39.532  24.726  28.015  1.00  0.00     0.014 A 
ATOM     40  C   UNL A   1      40.764  26.993  26.941  1.00  0.00     0.010 A 
ATOM     41  C   UNL A   1      39.493  25.921  28.701  1.00  0.00     0.010 A 
ATOM     42  C   UNL A   1      40.156  27.042  28.193  1.00  0.00    -0.014 A 
BRANCH  42  43
ATOM     43  C   UNL A   1      40.251  28.178  29.101  1.00  0.00     0.031 A 
ATOM     44  C   UNL A   1      39.309  29.307  28.992  1.00  0.00     0.074 A 
ATOM     45  C   UNL A   1      41.119  28.125  30.134  1.00  0.00     0.049 A 
ATOM     46  N   UNL A   1      39.513  30.480  29.486  1.00  0.00    -0.248 NA
ATOM     47  C   UNL A   1      38.052  29.206  28.263  1.00  0.00     0.031 C 
ATOM     48  C   UNL A   1      41.162  28.989  31.311  1.00  0.00     0.029 A 
ATOM     49  N   UNL A   1      42.315  27.410  30.183  1.00  0.00    -0.354 N 
ATOM     50  C   UNL A   1      38.324  31.169  29.435  1.00  0.00     0.074 A 
ATOM     51  C   UNL A   1      37.473  30.366  28.588  1.00  0.00     0.031 C 
ATOM     52  C   UNL A   1      42.410  28.982  31.803  1.00  0.00     0.029 A 
ATOM     53  C   UNL A   1      43.230  28.234  30.868  1.00  0.00     0.049 A 
ATOM     54  H   UNL A   1      42.485  26.514  29.814  1.00  0.00     0.167 HD
ATOM     55  C   UNL A   1      38.156  32.260  30.236  1.00  0.00     0.034 A 
ATOM     56  C   UNL A   1      44.345  28.710  30.240  1.00  0.00     0.034 A 
ATOM     57  C   UNL A   1      39.392  32.594  30.950  1.00  0.00     0.049 A 
ATOM     58  C   UNL A   1      44.424  30.222  30.208  1.00  0.00     0.074 A 
ATOM     59  C   UNL A   1      39.817  32.416  32.257  1.00  0.00     0.029 A 
ATOM     60  N   UNL A   1      40.522  32.957  30.223  1.00  0.00    -0.354 N 
ATOM     61  N   UNL A   1      43.420  31.023  30.439  1.00  0.00    -0.248 NA
ATOM     62  C   UNL A   1      45.648  30.948  29.902  1.00  0.00     0.031 C 
ATOM     63  C   UNL A   1      41.221  32.644  32.302  1.00  0.00     0.029 A 
ATOM     64  C   UNL A   1      41.644  32.985  31.029  1.00  0.00     0.049 A 
ATOM     65  H   UNL A   1      40.521  33.166  29.261  1.00  0.00     0.167 HD
ATOM     66  C   UNL A   1      43.821  32.333  30.311  1.00  0.00     0.074 A 
ATOM     67  C   UNL A   1      45.234  32.225  29.988  1.00  0.00     0.031 C 
ATOM     68  C   UNL A   1      42.941  33.373  30.477  1.00  0.00     0.034 A 
BRANCH  55  69
ATOM     69  C   UNL A   1      36.803  32.845  30.603  1.00  0.00     0.023 A 
ATOM     70  C   UNL A   1      36.031  33.481  29.605  1.00  0.00     0.031 A 
ATOM     71  C   UNL A   1      36.237  32.869  31.893  1.00  0.00     0.131 A 
ATOM     72  C   UNL A   1      34.850  34.183  29.916  1.00  0.00     0.055 A 
ATOM     73  C   UNL A   1      35.096  33.617  32.216  1.00  0.00     0.041 A 
ATOM     74  F   UNL A   1      36.717  32.118  32.891  1.00  0.00    -0.206 F 
ATOM     75  C   UNL A   1      34.402  34.292  31.227  1.00  0.00     0.022 A 
BRANCH  72  76
ATOM     76  S   UNL A   1      33.896  34.949  28.576  1.00  0.00     0.124 S 
ATOM     77  O   UNL A   1      34.037  36.372  28.867  1.00  0.00    -0.237 OA
ATOM     78  O   UNL A   1      34.585  34.461  27.388  1.00  0.00    -0.237 OA
ATOM     79  O   UNL A   1      32.549  34.412  28.769  1.00  0.00    -0.744 OA
ENDBRANCH  72  76
ENDBRANCH  55  69
BRANCH  56  80
ATOM     80  C   UNL A   1      44.870  27.770  29.203  1.00  0.00     0.023 A 
ATOM     81  C   UNL A   1      45.002  28.281  27.890  1.00  0.00     0.031 A 
ATOM     82  C   UNL A   1      45.595  26.618  29.529  1.00  0.00     0.131 A 
ATOM     83  C   UNL A   1      45.983  27.775  27.026  1.00  0.00     0.055 A 
ATOM     84  C   UNL A   1      46.507  26.055  28.624  1.00  0.00     0.041 A 
ATOM     85  F   UNL A   1      45.531  26.094  30.761  1.00  0.00    -0.206 F 
ATOM     86  C   UNL A   1      46.742  26.663  27.387  1.00  0.00     0.022 A 
BRANCH  83  87
ATOM     87  S   UNL A   1      46.425  28.771  25.568  1.00  0.00     0.124 S 
ATOM     88  O   UNL A   1      47.884  28.717  25.591  1.00  0.00    -0.237 OA
ATOM     89  O   UNL A   1      45.791  28.044  24.470  1.00  0.00    -0.237 OA
ATOM     90  O   UNL A   1      45.841  30.080  25.845  1.00  0.00    -0.744 OA
ENDBRANCH  83  87
ENDBRANCH  56  80
BRANCH  68  91
ATOM     91  C   UNL A   1      43.189  34.857  30.206  1.00  0.00     0.023 A 
ATOM     92  C   UNL A   1      43.786  35.740  31.114  1.00  0.00     0.031 A 
ATOM     93  C   UNL A   1      42.843  35.440  28.955  1.00  0.00     0.131 A 
ATOM     94  C   UNL A   1      43.988  37.102  30.805  1.00  0.00     0.055 A 
ATOM     95  C   UNL A   1      43.085  36.780  28.630  1.00  0.00     0.041 A 
ATOM     96  F   UNL A   1      42.262  34.737  27.974  1.00  0.00    -0.206 F 
ATOM     97  C   UNL A   1      43.657  37.627  29.562  1.00  0.00     0.022 A 
BRANCH  94  98
ATOM     98  S   UNL A   1      44.666  38.182  32.095  1.00  0.00     0.124 S 
ATOM     99  O   UNL A   1      45.618  38.993  31.342  1.00  0.00    -0.237 OA
ATOM    100  O   UNL A   1      43.476  38.882  32.571  1.00  0.00    -0.237 OA
ATOM    101  O   UNL A   1      45.261  37.250  33.050  1.00  0.00    -0.744 OA
ENDBRANCH  94  98
ENDBRANCH  68  91
ENDBRANCH  42  43
ENDBRANCH  34  37
ENDBRANCH  32  33
ENDBRANCH  31  32
ENDBRANCH   1  31
TORSDOF 17
ENDMDL
