MODEL 1
REMARK VINA RESULT:     -10.9      0.000      0.000
REMARK SMILES CN(CCS(C)(=O)=O)S(=O)(=O)c1cc(C(=O)NCCCCNC(=O)c2ccc(-c3c4nc(c(-c5cc(S(=O)(=O)[O-])ccc5F)c5ccc([nH]5)c(-c5cc(S(=O)(=O)[O-])ccc5F)c5nc(c(-c6cc(S(=O)(=O)[O-])ccc6F)c6ccc3[nH]6)C=C5)C=C4)cc2)ccc1F
REMARK SMILES IDX 18 1 17 2 15 3 16 4 14 6 12 7 13 8 90 9 89 10 91 11 88 12
REMARK SMILES IDX 9 13 10 14 11 15 2 16 1 17 3 18 4 19 5 20 6 21 7 22 8 23
REMARK SMILES IDX 19 24 20 25 21 26 22 27 23 28 24 30 25 31 26 32 87 33 27 34
REMARK SMILES IDX 86 35 28 36 29 37 30 38 80 39 31 40 85 41 79 42 81 43 32 44
REMARK SMILES IDX 84 45 78 46 77 47 33 49 65 50 45 51 64 52 46 53 49 54 63 55
REMARK SMILES IDX 82 56 47 57 48 58 62 60 83 61 50 62 34 63 35 64 43 65 36 66
REMARK SMILES IDX 42 67 44 68 41 69 37 70 38 71 39 72 40 73 66 74 67 75 75 76
REMARK SMILES IDX 68 77 74 78 76 79 73 80 69 81 70 82 71 83 72 84 51 85 52 86
REMARK SMILES IDX 60 87 53 88 59 89 61 90 58 91 54 92 55 93 56 94 57 95
REMARK H PARENT 17 5 22 29 81 48 49 59
REMARK Flexibility Score: inf
ROOT
ATOM      1  C   UNL A   1      37.357  21.840  25.485  1.00  0.00     0.116 C 
ENDROOT
BRANCH   1   2
ATOM      2  N   UNL A   1      36.259  22.194  26.363  1.00  0.00    -0.352 N 
ATOM      3  C   UNL A   1      35.098  22.906  26.237  1.00  0.00     0.251 C 
ATOM      4  O   UNL A   1      34.379  22.949  27.240  1.00  0.00    -0.269 OA
ATOM      5  H   UNL A   1      36.377  21.834  27.271  1.00  0.00     0.163 HD
BRANCH   3   6
ATOM      6  C   UNL A   1      34.606  23.610  25.008  1.00  0.00     0.041 A 
ATOM      7  C   UNL A   1      33.829  25.755  24.096  1.00  0.00     0.119 A 
ATOM      8  C   UNL A   1      34.396  25.000  25.137  1.00  0.00     0.038 A 
ATOM      9  C   UNL A   1      33.540  25.151  22.887  1.00  0.00     0.143 A 
ATOM     10  C   UNL A   1      33.752  23.787  22.732  1.00  0.00     0.041 A 
ATOM     11  F   UNL A   1      33.068  25.838  21.842  1.00  0.00    -0.206 F 
ATOM     12  C   UNL A   1      34.271  23.020  23.787  1.00  0.00     0.017 A 
BRANCH   7  13
ATOM     13  S   UNL A   1      33.451  27.455  24.346  1.00  0.00     0.245 S 
ATOM     14  O   UNL A   1      34.084  28.282  23.349  1.00  0.00    -0.207 OA
ATOM     15  O   UNL A   1      33.654  27.717  25.759  1.00  0.00    -0.207 OA
BRANCH  13  16
ATOM     16  N   UNL A   1      31.772  27.590  24.050  1.00  0.00    -0.200 NA
ATOM     17  C   UNL A   1      30.946  27.077  25.171  1.00  0.00     0.124 C 
BRANCH  16  18
ATOM     18  C   UNL A   1      31.185  28.776  23.361  1.00  0.00     0.118 C 
BRANCH  18  19
ATOM     19  C   UNL A   1      30.046  28.557  22.385  1.00  0.00     0.153 C 
BRANCH  19  20
ATOM     20  S   UNL A   1      28.665  29.690  22.471  1.00  0.00     0.148 S 
ATOM     21  C   UNL A   1      27.271  28.812  23.138  1.00  0.00     0.158 C 
ATOM     22  O   UNL A   1      29.017  30.702  23.453  1.00  0.00    -0.229 OA
ATOM     23  O   UNL A   1      28.296  30.086  21.132  1.00  0.00    -0.229 OA
ENDBRANCH  19  20
ENDBRANCH  18  19
ENDBRANCH  16  18
ENDBRANCH  13  16
ENDBRANCH   7  13
ENDBRANCH   3   6
ENDBRANCH   1   2
BRANCH   1  24
ATOM     24  C   UNL A   1      37.106  20.530  24.743  1.00  0.00     0.023 C 
BRANCH  24  25
ATOM     25  C   UNL A   1      38.147  19.442  25.027  1.00  0.00     0.023 C 
BRANCH  25  26
ATOM     26  C   UNL A   1      39.247  19.828  26.014  1.00  0.00     0.116 C 
BRANCH  26  27
ATOM     27  N   UNL A   1      40.492  19.093  25.825  1.00  0.00    -0.352 N 
ATOM     28  C   UNL A   1      41.775  19.565  25.984  1.00  0.00     0.251 C 
ATOM     29  H   UNL A   1      40.403  18.151  25.553  1.00  0.00     0.163 HD
ATOM     30  O   UNL A   1      42.741  18.864  25.707  1.00  0.00    -0.269 OA
BRANCH  28  31
ATOM     31  C   UNL A   1      41.950  20.951  26.457  1.00  0.00     0.039 A 
ATOM     32  C   UNL A   1      42.200  21.184  27.811  1.00  0.00     0.014 A 
ATOM     33  C   UNL A   1      41.988  21.996  25.531  1.00  0.00     0.014 A 
ATOM     34  C   UNL A   1      42.580  22.463  28.225  1.00  0.00     0.010 A 
ATOM     35  C   UNL A   1      42.435  23.248  25.936  1.00  0.00     0.010 A 
ATOM     36  C   UNL A   1      42.748  23.491  27.283  1.00  0.00    -0.014 A 
BRANCH  36  37
ATOM     37  C   UNL A   1      43.253  24.835  27.662  1.00  0.00     0.031 A 
ATOM     38  C   UNL A   1      42.306  25.833  28.270  1.00  0.00     0.074 A 
ATOM     39  C   UNL A   1      44.521  25.190  27.373  1.00  0.00     0.049 A 
ATOM     40  N   UNL A   1      42.475  27.111  28.481  1.00  0.00    -0.248 NA
ATOM     41  C   UNL A   1      40.980  25.326  28.656  1.00  0.00     0.031 C 
ATOM     42  C   UNL A   1      45.534  24.317  26.775  1.00  0.00     0.029 A 
ATOM     43  N   UNL A   1      45.171  26.390  27.531  1.00  0.00    -0.354 N 
ATOM     44  C   UNL A   1      41.272  27.568  29.005  1.00  0.00     0.074 A 
ATOM     45  C   UNL A   1      40.367  26.438  29.033  1.00  0.00     0.031 C 
ATOM     46  C   UNL A   1      46.680  25.004  26.637  1.00  0.00     0.029 A 
ATOM     47  C   UNL A   1      46.470  26.378  27.078  1.00  0.00     0.049 A 
ATOM     48  H   UNL A   1      44.746  27.184  27.929  1.00  0.00     0.167 HD
ATOM     49  C   UNL A   1      40.958  28.811  29.440  1.00  0.00     0.034 A 
ATOM     50  C   UNL A   1      47.381  27.369  27.004  1.00  0.00     0.034 A 
ATOM     51  C   UNL A   1      41.877  29.921  29.434  1.00  0.00     0.049 A 
ATOM     52  C   UNL A   1      46.996  28.753  27.459  1.00  0.00     0.074 A 
ATOM     53  C   UNL A   1      41.669  31.211  29.890  1.00  0.00     0.029 A 
ATOM     54  N   UNL A   1      43.179  29.873  28.954  1.00  0.00    -0.354 N 
ATOM     55  N   UNL A   1      45.848  29.174  27.936  1.00  0.00    -0.248 NA
ATOM     56  C   UNL A   1      48.027  29.794  27.358  1.00  0.00     0.031 C 
ATOM     57  C   UNL A   1      42.823  31.957  29.632  1.00  0.00     0.029 A 
ATOM     58  C   UNL A   1      43.777  31.117  29.080  1.00  0.00     0.049 A 
ATOM     59  H   UNL A   1      43.614  29.073  28.580  1.00  0.00     0.167 HD
ATOM     60  C   UNL A   1      46.025  30.527  28.207  1.00  0.00     0.074 A 
ATOM     61  C   UNL A   1      47.394  30.846  27.856  1.00  0.00     0.031 C 
ATOM     62  C   UNL A   1      45.135  31.426  28.703  1.00  0.00     0.034 A 
BRANCH  49  63
ATOM     63  C   UNL A   1      39.557  29.039  29.944  1.00  0.00     0.023 A 
ATOM     64  C   UNL A   1      38.557  29.578  29.118  1.00  0.00     0.031 A 
ATOM     65  C   UNL A   1      39.215  28.702  31.266  1.00  0.00     0.131 A 
ATOM     66  C   UNL A   1      37.274  29.809  29.635  1.00  0.00     0.055 A 
ATOM     67  C   UNL A   1      37.919  28.870  31.754  1.00  0.00     0.041 A 
ATOM     68  F   UNL A   1      40.138  28.205  32.103  1.00  0.00    -0.206 F 
ATOM     69  C   UNL A   1      36.940  29.434  30.939  1.00  0.00     0.022 A 
BRANCH  66  70
ATOM     70  S   UNL A   1      36.066  30.683  28.604  1.00  0.00     0.124 S 
ATOM     71  O   UNL A   1      36.931  31.571  27.831  1.00  0.00    -0.237 OA
ATOM     72  O   UNL A   1      35.438  29.598  27.860  1.00  0.00    -0.237 OA
ATOM     73  O   UNL A   1      35.205  31.352  29.578  1.00  0.00    -0.744 OA
ENDBRANCH  66  70
ENDBRANCH  49  63
BRANCH  50  74
ATOM     74  C   UNL A   1      48.741  27.099  26.458  1.00  0.00     0.023 A 
ATOM     75  C   UNL A   1      49.050  27.395  25.122  1.00  0.00     0.031 A 
ATOM     76  C   UNL A   1      49.747  26.535  27.262  1.00  0.00     0.131 A 
ATOM     77  C   UNL A   1      50.327  27.103  24.619  1.00  0.00     0.055 A 
ATOM     78  C   UNL A   1      51.028  26.283  26.768  1.00  0.00     0.041 A 
ATOM     79  F   UNL A   1      49.502  26.243  28.549  1.00  0.00    -0.206 F 
ATOM     80  C   UNL A   1      51.322  26.561  25.436  1.00  0.00     0.022 A 
BRANCH  77  81
ATOM     81  S   UNL A   1      50.666  27.417  22.865  1.00  0.00     0.124 S 
ATOM     82  O   UNL A   1      51.984  26.813  22.706  1.00  0.00    -0.237 OA
ATOM     83  O   UNL A   1      49.559  26.726  22.212  1.00  0.00    -0.237 OA
ATOM     84  O   UNL A   1      50.628  28.875  22.767  1.00  0.00    -0.744 OA
ENDBRANCH  77  81
ENDBRANCH  50  74
BRANCH  62  85
ATOM     85  C   UNL A   1      45.625  32.836  28.911  1.00  0.00     0.023 A 
ATOM     86  C   UNL A   1      45.577  33.787  27.877  1.00  0.00     0.031 A 
ATOM     87  C   UNL A   1      46.131  33.237  30.159  1.00  0.00     0.131 A 
ATOM     88  C   UNL A   1      46.073  35.081  28.097  1.00  0.00     0.055 A 
ATOM     89  C   UNL A   1      46.568  34.542  30.389  1.00  0.00     0.041 A 
ATOM     90  F   UNL A   1      46.197  32.368  31.181  1.00  0.00    -0.206 F 
ATOM     91  C   UNL A   1      46.551  35.469  29.351  1.00  0.00     0.022 A 
BRANCH  88  92
ATOM     92  S   UNL A   1      46.149  36.231  26.699  1.00  0.00     0.124 S 
ATOM     93  O   UNL A   1      47.426  36.901  26.928  1.00  0.00    -0.237 OA
ATOM     94  O   UNL A   1      46.098  35.332  25.549  1.00  0.00    -0.237 OA
ATOM     95  O   UNL A   1      44.967  37.071  26.879  1.00  0.00    -0.744 OA
ENDBRANCH  88  92
ENDBRANCH  62  85
ENDBRANCH  36  37
ENDBRANCH  28  31
ENDBRANCH  26  27
ENDBRANCH  25  26
ENDBRANCH  24  25
ENDBRANCH   1  24
TORSDOF 19
ENDMDL
MODEL 2
REMARK VINA RESULT:     -10.9      5.459     10.787
REMARK SMILES CN(CCS(C)(=O)=O)S(=O)(=O)c1cc(C(=O)NCCCCNC(=O)c2ccc(-c3c4nc(c(-c5cc(S(=O)(=O)[O-])ccc5F)c5ccc([nH]5)c(-c5cc(S(=O)(=O)[O-])ccc5F)c5nc(c(-c6cc(S(=O)(=O)[O-])ccc6F)c6ccc3[nH]6)C=C5)C=C4)cc2)ccc1F
REMARK SMILES IDX 18 1 17 2 15 3 16 4 14 6 12 7 13 8 90 9 89 10 91 11 88 12
REMARK SMILES IDX 9 13 10 14 11 15 2 16 1 17 3 18 4 19 5 20 6 21 7 22 8 23
REMARK SMILES IDX 19 24 20 25 21 26 22 27 23 28 24 30 25 31 26 32 87 33 27 34
REMARK SMILES IDX 86 35 28 36 29 37 30 38 80 39 31 40 85 41 79 42 81 43 32 44
REMARK SMILES IDX 84 45 78 46 77 47 33 49 65 50 45 51 64 52 46 53 49 54 63 55
REMARK SMILES IDX 82 56 47 57 48 58 62 60 83 61 50 62 34 63 35 64 43 65 36 66
REMARK SMILES IDX 42 67 44 68 41 69 37 70 38 71 39 72 40 73 66 74 67 75 75 76
REMARK SMILES IDX 68 77 74 78 76 79 73 80 69 81 70 82 71 83 72 84 51 85 52 86
REMARK SMILES IDX 60 87 53 88 59 89 61 90 58 91 54 92 55 93 56 94 57 95
REMARK H PARENT 17 5 22 29 81 48 49 59
REMARK Flexibility Score: inf
ROOT
ATOM      1  C   UNL A   1      32.124  28.604  22.981  1.00  0.00     0.116 C 
ENDROOT
BRANCH   1   2
ATOM      2  N   UNL A   1      32.832  27.658  22.141  1.00  0.00    -0.352 N 
ATOM      3  C   UNL A   1      32.960  26.297  22.095  1.00  0.00     0.251 C 
ATOM      4  O   UNL A   1      33.645  25.851  21.170  1.00  0.00    -0.269 OA
ATOM      5  H   UNL A   1      33.346  28.104  21.431  1.00  0.00     0.163 HD
BRANCH   3   6
ATOM      6  C   UNL A   1      32.336  25.305  23.030  1.00  0.00     0.041 A 
ATOM      7  C   UNL A   1      32.779  23.631  24.773  1.00  0.00     0.119 A 
ATOM      8  C   UNL A   1      33.218  24.663  23.925  1.00  0.00     0.038 A 
ATOM      9  C   UNL A   1      31.442  23.283  24.796  1.00  0.00     0.143 A 
ATOM     10  C   UNL A   1      30.552  23.911  23.934  1.00  0.00     0.041 A 
ATOM     11  F   UNL A   1      30.962  22.360  25.636  1.00  0.00    -0.206 F 
ATOM     12  C   UNL A   1      30.996  24.907  23.051  1.00  0.00     0.017 A 
BRANCH   7  13
ATOM     13  S   UNL A   1      33.937  22.759  25.770  1.00  0.00     0.245 S 
ATOM     14  O   UNL A   1      33.293  22.158  26.910  1.00  0.00    -0.207 OA
ATOM     15  O   UNL A   1      35.075  23.642  25.945  1.00  0.00    -0.207 OA
BRANCH  13  16
ATOM     16  N   UNL A   1      34.466  21.450  24.804  1.00  0.00    -0.200 NA
ATOM     17  C   UNL A   1      35.929  21.469  24.558  1.00  0.00     0.124 C 
BRANCH  16  18
ATOM     18  C   UNL A   1      33.896  20.080  24.952  1.00  0.00     0.118 C 
BRANCH  18  19
ATOM     19  C   UNL A   1      34.740  18.894  24.525  1.00  0.00     0.153 C 
BRANCH  19  20
ATOM     20  S   UNL A   1      33.896  17.338  24.271  1.00  0.00     0.148 S 
ATOM     21  C   UNL A   1      32.431  17.333  25.278  1.00  0.00     0.158 C 
ATOM     22  O   UNL A   1      33.441  17.332  22.890  1.00  0.00    -0.229 OA
ATOM     23  O   UNL A   1      34.730  16.264  24.757  1.00  0.00    -0.229 OA
ENDBRANCH  19  20
ENDBRANCH  18  19
ENDBRANCH  16  18
ENDBRANCH  13  16
ENDBRANCH   7  13
ENDBRANCH   3   6
ENDBRANCH   1   2
BRANCH   1  24
ATOM     24  C   UNL A   1      32.781  28.768  24.349  1.00  0.00     0.023 C 
BRANCH  24  25
ATOM     25  C   UNL A   1      31.859  29.370  25.416  1.00  0.00     0.023 C 
BRANCH  25  26
ATOM     26  C   UNL A   1      32.565  29.963  26.634  1.00  0.00     0.116 C 
BRANCH  26  27
ATOM     27  N   UNL A   1      32.301  31.383  26.834  1.00  0.00    -0.352 N 
ATOM     28  C   UNL A   1      33.129  32.315  27.418  1.00  0.00     0.251 C 
ATOM     29  H   UNL A   1      31.430  31.712  26.514  1.00  0.00     0.163 HD
ATOM     30  O   UNL A   1      32.749  33.465  27.605  1.00  0.00    -0.269 OA
BRANCH  28  31
ATOM     31  C   UNL A   1      34.471  31.876  27.848  1.00  0.00     0.039 A 
ATOM     32  C   UNL A   1      35.497  32.817  27.948  1.00  0.00     0.014 A 
ATOM     33  C   UNL A   1      34.663  30.558  28.267  1.00  0.00     0.014 A 
ATOM     34  C   UNL A   1      36.700  32.454  28.558  1.00  0.00     0.010 A 
ATOM     35  C   UNL A   1      35.834  30.221  28.936  1.00  0.00     0.010 A 
ATOM     36  C   UNL A   1      36.858  31.168  29.100  1.00  0.00    -0.014 A 
BRANCH  36  37
ATOM     37  C   UNL A   1      38.076  30.771  29.851  1.00  0.00     0.031 A 
ATOM     38  C   UNL A   1      39.035  29.790  29.234  1.00  0.00     0.074 A 
ATOM     39  C   UNL A   1      38.270  31.209  31.111  1.00  0.00     0.049 A 
ATOM     40  N   UNL A   1      40.035  29.155  29.783  1.00  0.00    -0.248 NA
ATOM     41  C   UNL A   1      38.810  29.457  27.819  1.00  0.00     0.031 C 
ATOM     42  C   UNL A   1      37.408  32.154  31.825  1.00  0.00     0.029 A 
ATOM     43  N   UNL A   1      39.249  30.902  32.023  1.00  0.00    -0.354 N 
ATOM     44  C   UNL A   1      40.547  28.330  28.788  1.00  0.00     0.074 A 
ATOM     45  C   UNL A   1      39.715  28.511  27.618  1.00  0.00     0.031 C 
ATOM     46  C   UNL A   1      37.910  32.364  33.054  1.00  0.00     0.029 A 
ATOM     47  C   UNL A   1      39.090  31.527  33.238  1.00  0.00     0.049 A 
ATOM     48  H   UNL A   1      39.996  30.290  31.826  1.00  0.00     0.167 HD
ATOM     49  C   UNL A   1      41.624  27.510  28.843  1.00  0.00     0.034 A 
ATOM     50  C   UNL A   1      39.799  31.420  34.380  1.00  0.00     0.034 A 
ATOM     51  C   UNL A   1      42.462  27.360  30.005  1.00  0.00     0.049 A 
ATOM     52  C   UNL A   1      40.970  30.473  34.426  1.00  0.00     0.074 A 
ATOM     53  C   UNL A   1      43.600  26.586  30.149  1.00  0.00     0.029 A 
ATOM     54  N   UNL A   1      42.259  27.999  31.220  1.00  0.00    -0.354 N 
ATOM     55  N   UNL A   1      41.433  29.686  33.483  1.00  0.00    -0.248 NA
ATOM     56  C   UNL A   1      41.710  30.397  35.693  1.00  0.00     0.031 C 
ATOM     57  C   UNL A   1      44.050  26.711  31.467  1.00  0.00     0.029 A 
ATOM     58  C   UNL A   1      43.236  27.617  32.126  1.00  0.00     0.049 A 
ATOM     59  H   UNL A   1      41.529  28.631  31.411  1.00  0.00     0.167 HD
ATOM     60  C   UNL A   1      42.528  29.032  34.040  1.00  0.00     0.074 A 
ATOM     61  C   UNL A   1      42.666  29.530  35.393  1.00  0.00     0.031 C 
ATOM     62  C   UNL A   1      43.346  28.103  33.480  1.00  0.00     0.034 A 
BRANCH  49  63
ATOM     63  C   UNL A   1      41.946  26.702  27.613  1.00  0.00     0.023 A 
ATOM     64  C   UNL A   1      41.631  25.336  27.527  1.00  0.00     0.031 A 
ATOM     65  C   UNL A   1      42.566  27.310  26.507  1.00  0.00     0.131 A 
ATOM     66  C   UNL A   1      41.980  24.610  26.379  1.00  0.00     0.055 A 
ATOM     67  C   UNL A   1      42.850  26.598  25.341  1.00  0.00     0.041 A 
ATOM     68  F   UNL A   1      42.909  28.607  26.545  1.00  0.00    -0.206 F 
ATOM     69  C   UNL A   1      42.562  25.236  25.275  1.00  0.00     0.022 A 
BRANCH  66  70
ATOM     70  S   UNL A   1      41.736  22.814  26.381  1.00  0.00     0.124 S 
ATOM     71  O   UNL A   1      42.466  22.419  25.178  1.00  0.00    -0.237 OA
ATOM     72  O   UNL A   1      42.332  22.412  27.649  1.00  0.00    -0.237 OA
ATOM     73  O   UNL A   1      40.284  22.666  26.299  1.00  0.00    -0.744 OA
ENDBRANCH  66  70
ENDBRANCH  49  63
BRANCH  50  74
ATOM     74  C   UNL A   1      39.413  32.211  35.581  1.00  0.00     0.023 A 
ATOM     75  C   UNL A   1      38.619  31.645  36.589  1.00  0.00     0.031 A 
ATOM     76  C   UNL A   1      39.826  33.546  35.734  1.00  0.00     0.131 A 
ATOM     77  C   UNL A   1      38.239  32.418  37.696  1.00  0.00     0.055 A 
ATOM     78  C   UNL A   1      39.479  34.300  36.857  1.00  0.00     0.041 A 
ATOM     79  F   UNL A   1      40.595  34.130  34.801  1.00  0.00    -0.206 F 
ATOM     80  C   UNL A   1      38.674  33.738  37.844  1.00  0.00     0.022 A 
BRANCH  77  81
ATOM     81  S   UNL A   1      37.140  31.682  38.938  1.00  0.00     0.124 S 
ATOM     82  O   UNL A   1      35.955  32.523  38.820  1.00  0.00    -0.237 OA
ATOM     83  O   UNL A   1      37.006  30.312  38.454  1.00  0.00    -0.237 OA
ATOM     84  O   UNL A   1      37.890  31.827  40.184  1.00  0.00    -0.744 OA
ENDBRANCH  77  81
ENDBRANCH  50  74
BRANCH  62  85
ATOM     85  C   UNL A   1      44.475  27.580  34.331  1.00  0.00     0.023 A 
ATOM     86  C   UNL A   1      45.722  28.229  34.372  1.00  0.00     0.031 A 
ATOM     87  C   UNL A   1      44.299  26.429  35.118  1.00  0.00     0.131 A 
ATOM     88  C   UNL A   1      46.760  27.694  35.149  1.00  0.00     0.055 A 
ATOM     89  C   UNL A   1      45.317  25.936  35.935  1.00  0.00     0.041 A 
ATOM     90  F   UNL A   1      43.128  25.773  35.117  1.00  0.00    -0.206 F 
ATOM     91  C   UNL A   1      46.560  26.563  35.944  1.00  0.00     0.022 A 
BRANCH  88  92
ATOM     92  S   UNL A   1      48.400  28.459  35.051  1.00  0.00     0.124 S 
ATOM     93  O   UNL A   1      48.089  29.869  35.269  1.00  0.00    -0.237 OA
ATOM     94  O   UNL A   1      49.123  27.792  36.129  1.00  0.00    -0.237 OA
ATOM     95  O   UNL A   1      48.855  28.126  33.703  1.00  0.00    -0.744 OA
ENDBRANCH  88  92
ENDBRANCH  62  85
ENDBRANCH  36  37
ENDBRANCH  28  31
ENDBRANCH  26  27
ENDBRANCH  25  26
ENDBRANCH  24  25
ENDBRANCH   1  24
TORSDOF 19
ENDMDL
MODEL 3
REMARK VINA RESULT:     -10.9      5.476     10.696
REMARK SMILES CN(CCS(C)(=O)=O)S(=O)(=O)c1cc(C(=O)NCCCCNC(=O)c2ccc(-c3c4nc(c(-c5cc(S(=O)(=O)[O-])ccc5F)c5ccc([nH]5)c(-c5cc(S(=O)(=O)[O-])ccc5F)c5nc(c(-c6cc(S(=O)(=O)[O-])ccc6F)c6ccc3[nH]6)C=C5)C=C4)cc2)ccc1F
REMARK SMILES IDX 18 1 17 2 15 3 16 4 14 6 12 7 13 8 90 9 89 10 91 11 88 12
REMARK SMILES IDX 9 13 10 14 11 15 2 16 1 17 3 18 4 19 5 20 6 21 7 22 8 23
REMARK SMILES IDX 19 24 20 25 21 26 22 27 23 28 24 30 25 31 26 32 87 33 27 34
REMARK SMILES IDX 86 35 28 36 29 37 30 38 80 39 31 40 85 41 79 42 81 43 32 44
REMARK SMILES IDX 84 45 78 46 77 47 33 49 65 50 45 51 64 52 46 53 49 54 63 55
REMARK SMILES IDX 82 56 47 57 48 58 62 60 83 61 50 62 34 63 35 64 43 65 36 66
REMARK SMILES IDX 42 67 44 68 41 69 37 70 38 71 39 72 40 73 66 74 67 75 75 76
REMARK SMILES IDX 68 77 74 78 76 79 73 80 69 81 70 82 71 83 72 84 51 85 52 86
REMARK SMILES IDX 60 87 53 88 59 89 61 90 58 91 54 92 55 93 56 94 57 95
REMARK H PARENT 17 5 22 29 81 48 49 59
REMARK Flexibility Score: inf
ROOT
ATOM      1  C   UNL A   1      32.374  28.535  22.538  1.00  0.00     0.116 C 
ENDROOT
BRANCH   1   2
ATOM      2  N   UNL A   1      32.817  27.463  21.669  1.00  0.00    -0.352 N 
ATOM      3  C   UNL A   1      32.846  26.097  21.738  1.00  0.00     0.251 C 
ATOM      4  O   UNL A   1      33.279  25.516  20.738  1.00  0.00    -0.269 OA
ATOM      5  H   UNL A   1      33.186  27.800  20.821  1.00  0.00     0.163 HD
BRANCH   3   6
ATOM      6  C   UNL A   1      32.386  25.247  22.883  1.00  0.00     0.041 A 
ATOM      7  C   UNL A   1      33.114  23.887  24.796  1.00  0.00     0.119 A 
ATOM      8  C   UNL A   1      33.399  24.784  23.752  1.00  0.00     0.038 A 
ATOM      9  C   UNL A   1      31.809  23.504  25.036  1.00  0.00     0.143 A 
ATOM     10  C   UNL A   1      30.794  23.958  24.204  1.00  0.00     0.041 A 
ATOM     11  F   UNL A   1      31.476  22.711  26.060  1.00  0.00    -0.206 F 
ATOM     12  C   UNL A   1      31.081  24.815  23.130  1.00  0.00     0.017 A 
BRANCH   7  13
ATOM     13  S   UNL A   1      34.423  23.221  25.765  1.00  0.00     0.245 S 
ATOM     14  O   UNL A   1      33.971  22.893  27.094  1.00  0.00    -0.207 OA
ATOM     15  O   UNL A   1      35.564  24.095  25.569  1.00  0.00    -0.207 OA
BRANCH  13  16
ATOM     16  N   UNL A   1      34.809  21.724  25.033  1.00  0.00    -0.200 NA
ATOM     17  C   UNL A   1      36.232  21.345  25.211  1.00  0.00     0.124 C 
BRANCH  16  18
ATOM     18  C   UNL A   1      33.868  20.567  25.060  1.00  0.00     0.118 C 
BRANCH  18  19
ATOM     19  C   UNL A   1      34.433  19.170  24.897  1.00  0.00     0.153 C 
BRANCH  19  20
ATOM     20  S   UNL A   1      33.280  17.863  24.496  1.00  0.00     0.148 S 
ATOM     21  C   UNL A   1      33.942  16.942  23.128  1.00  0.00     0.158 C 
ATOM     22  O   UNL A   1      33.267  16.955  25.631  1.00  0.00    -0.229 OA
ATOM     23  O   UNL A   1      32.043  18.450  24.033  1.00  0.00    -0.229 OA
ENDBRANCH  19  20
ENDBRANCH  18  19
ENDBRANCH  16  18
ENDBRANCH  13  16
ENDBRANCH   7  13
ENDBRANCH   3   6
ENDBRANCH   1   2
BRANCH   1  24
ATOM     24  C   UNL A   1      33.126  28.551  23.867  1.00  0.00     0.023 C 
BRANCH  24  25
ATOM     25  C   UNL A   1      32.216  28.612  25.098  1.00  0.00     0.023 C 
BRANCH  25  26
ATOM     26  C   UNL A   1      32.846  29.220  26.350  1.00  0.00     0.116 C 
BRANCH  26  27
ATOM     27  N   UNL A   1      32.449  30.601  26.598  1.00  0.00    -0.352 N 
ATOM     28  C   UNL A   1      33.171  31.576  27.249  1.00  0.00     0.251 C 
ATOM     29  H   UNL A   1      31.563  30.866  26.260  1.00  0.00     0.163 HD
ATOM     30  O   UNL A   1      32.683  32.679  27.468  1.00  0.00    -0.269 OA
BRANCH  28  31
ATOM     31  C   UNL A   1      34.532  31.239  27.709  1.00  0.00     0.039 A 
ATOM     32  C   UNL A   1      35.470  32.260  27.872  1.00  0.00     0.014 A 
ATOM     33  C   UNL A   1      34.824  29.929  28.094  1.00  0.00     0.014 A 
ATOM     34  C   UNL A   1      36.681  31.980  28.510  1.00  0.00     0.010 A 
ATOM     35  C   UNL A   1      35.999  29.670  28.790  1.00  0.00     0.010 A 
ATOM     36  C   UNL A   1      36.932  30.695  29.017  1.00  0.00    -0.014 A 
BRANCH  36  37
ATOM     37  C   UNL A   1      38.156  30.379  29.795  1.00  0.00     0.031 A 
ATOM     38  C   UNL A   1      39.152  29.400  29.236  1.00  0.00     0.074 A 
ATOM     39  C   UNL A   1      38.325  30.887  31.033  1.00  0.00     0.049 A 
ATOM     40  N   UNL A   1      40.168  28.827  29.824  1.00  0.00    -0.248 NA
ATOM     41  C   UNL A   1      38.950  28.986  27.839  1.00  0.00     0.031 C 
ATOM     42  C   UNL A   1      37.427  31.838  31.691  1.00  0.00     0.029 A 
ATOM     43  N   UNL A   1      39.307  30.660  31.966  1.00  0.00    -0.354 N 
ATOM     44  C   UNL A   1      40.716  27.970  28.877  1.00  0.00     0.074 A 
ATOM     45  C   UNL A   1      39.888  28.063  27.693  1.00  0.00     0.031 C 
ATOM     46  C   UNL A   1      37.911  32.128  32.911  1.00  0.00     0.029 A 
ATOM     47  C   UNL A   1      39.117  31.341  33.145  1.00  0.00     0.049 A 
ATOM     48  H   UNL A   1      40.075  30.065  31.805  1.00  0.00     0.167 HD
ATOM     49  C   UNL A   1      41.818  27.190  28.980  1.00  0.00     0.034 A 
ATOM     50  C   UNL A   1      39.820  31.317  34.296  1.00  0.00     0.034 A 
ATOM     51  C   UNL A   1      42.651  27.128  30.154  1.00  0.00     0.049 A 
ATOM     52  C   UNL A   1      41.021  30.414  34.398  1.00  0.00     0.074 A 
ATOM     53  C   UNL A   1      43.813  26.401  30.345  1.00  0.00     0.029 A 
ATOM     54  N   UNL A   1      42.417  27.822  31.333  1.00  0.00    -0.354 N 
ATOM     55  N   UNL A   1      41.517  29.595  33.500  1.00  0.00    -0.248 NA
ATOM     56  C   UNL A   1      41.753  30.428  35.673  1.00  0.00     0.031 C 
ATOM     57  C   UNL A   1      44.248  26.609  31.658  1.00  0.00     0.029 A 
ATOM     58  C   UNL A   1      43.399  27.520  32.264  1.00  0.00     0.049 A 
ATOM     59  H   UNL A   1      41.665  28.439  31.486  1.00  0.00     0.167 HD
ATOM     60  C   UNL A   1      42.629  29.007  34.097  1.00  0.00     0.074 A 
ATOM     61  C   UNL A   1      42.739  29.579  35.424  1.00  0.00     0.031 C 
ATOM     62  C   UNL A   1      43.482  28.079  33.592  1.00  0.00     0.034 A 
BRANCH  49  63
ATOM     63  C   UNL A   1      42.177  26.331  27.796  1.00  0.00     0.023 A 
ATOM     64  C   UNL A   1      41.733  25.003  27.690  1.00  0.00     0.031 A 
ATOM     65  C   UNL A   1      42.964  26.853  26.754  1.00  0.00     0.131 A 
ATOM     66  C   UNL A   1      42.119  24.224  26.589  1.00  0.00     0.055 A 
ATOM     67  C   UNL A   1      43.288  26.094  25.628  1.00  0.00     0.041 A 
ATOM     68  F   UNL A   1      43.433  28.109  26.816  1.00  0.00    -0.206 F 
ATOM     69  C   UNL A   1      42.870  24.768  25.544  1.00  0.00     0.022 A 
BRANCH  66  70
ATOM     70  S   UNL A   1      41.693  22.462  26.580  1.00  0.00     0.124 S 
ATOM     71  O   UNL A   1      42.285  22.013  27.838  1.00  0.00    -0.237 OA
ATOM     72  O   UNL A   1      40.236  22.488  26.533  1.00  0.00    -0.237 OA
ATOM     73  O   UNL A   1      42.347  21.958  25.374  1.00  0.00    -0.744 OA
ENDBRANCH  66  70
ENDBRANCH  49  63
BRANCH  50  74
ATOM     74  C   UNL A   1      39.398  32.156  35.452  1.00  0.00     0.023 A 
ATOM     75  C   UNL A   1      39.926  33.442  35.636  1.00  0.00     0.031 A 
ATOM     76  C   UNL A   1      38.467  31.680  36.391  1.00  0.00     0.131 A 
ATOM     77  C   UNL A   1      39.540  34.203  36.750  1.00  0.00     0.055 A 
ATOM     78  C   UNL A   1      38.055  32.457  37.476  1.00  0.00     0.041 A 
ATOM     79  F   UNL A   1      37.926  30.460  36.253  1.00  0.00    -0.206 F 
ATOM     80  C   UNL A   1      38.598  33.724  37.664  1.00  0.00     0.022 A 
BRANCH  77  81
ATOM     81  S   UNL A   1      40.308  35.826  37.006  1.00  0.00     0.124 S 
ATOM     82  O   UNL A   1      39.278  36.525  37.766  1.00  0.00    -0.237 OA
ATOM     83  O   UNL A   1      41.521  35.478  37.738  1.00  0.00    -0.237 OA
ATOM     84  O   UNL A   1      40.525  36.317  35.647  1.00  0.00    -0.744 OA
ENDBRANCH  77  81
ENDBRANCH  50  74
BRANCH  62  85
ATOM     85  C   UNL A   1      44.621  27.639  34.476  1.00  0.00     0.023 A 
ATOM     86  C   UNL A   1      44.508  26.511  35.308  1.00  0.00     0.031 A 
ATOM     87  C   UNL A   1      45.836  28.345  34.476  1.00  0.00     0.131 A 
ATOM     88  C   UNL A   1      45.577  26.151  36.142  1.00  0.00     0.055 A 
ATOM     89  C   UNL A   1      46.916  27.947  35.264  1.00  0.00     0.041 A 
ATOM     90  F   UNL A   1      45.997  29.428  33.698  1.00  0.00    -0.206 F 
ATOM     91  C   UNL A   1      46.786  26.850  36.112  1.00  0.00     0.022 A 
BRANCH  88  92
ATOM     92  S   UNL A   1      45.339  24.795  37.321  1.00  0.00     0.124 S 
ATOM     93  O   UNL A   1      44.000  25.071  37.832  1.00  0.00    -0.237 OA
ATOM     94  O   UNL A   1      45.467  23.615  36.472  1.00  0.00    -0.237 OA
ATOM     95  O   UNL A   1      46.422  24.984  38.284  1.00  0.00    -0.744 OA
ENDBRANCH  88  92
ENDBRANCH  62  85
ENDBRANCH  36  37
ENDBRANCH  28  31
ENDBRANCH  26  27
ENDBRANCH  25  26
ENDBRANCH  24  25
ENDBRANCH   1  24
TORSDOF 19
ENDMDL
