MODEL 1
REMARK VINA RESULT:     -11.9      0.000      0.000
REMARK SMILES C[C@@H]1CCC[C@H]1NC(=O)c1csc(/C=C/C(=O)NCCCCNC(=O)c2ccc(-c3c4nc(c(-c5cc(S(=O)(=O)[O-])ccc5F)c5ccc([nH]5)c(-c5cc(S(=O)(=O)[O-])ccc5F)c5nc(c(-c6cc(S(=O)(=O)[O-])ccc6F)c6ccc3[nH]6)C=C5)C=C4)cc2)c1
REMARK SMILES IDX 20 1 19 2 18 3 16 4 17 5 15 7 14 8 13 9 10 10 11 11 89 12
REMARK SMILES IDX 12 13 8 14 7 15 9 17 6 18 1 19 2 20 3 21 4 22 5 23 21 24
REMARK SMILES IDX 22 25 23 26 24 27 25 29 26 30 27 31 88 32 28 33 87 34 29 35
REMARK SMILES IDX 30 36 31 37 81 38 32 39 86 40 80 41 82 42 33 43 85 44 79 45
REMARK SMILES IDX 78 46 34 48 66 49 46 50 65 51 47 52 50 53 64 54 83 55 48 56
REMARK SMILES IDX 49 57 63 59 84 60 51 61 35 62 36 63 44 64 37 65 43 66 45 67
REMARK SMILES IDX 42 68 38 69 39 70 40 71 41 72 67 73 68 74 76 75 69 76 75 77
REMARK SMILES IDX 77 78 74 79 70 80 71 81 72 82 73 83 52 84 53 85 61 86 54 87
REMARK SMILES IDX 60 88 62 89 59 90 55 91 56 92 57 93 58 94
REMARK H PARENT 18 6 7 16 23 28 82 47 50 58
REMARK Flexibility Score: inf
ROOT
ATOM      1  C   UNL A   1      31.985  28.417  23.078  1.00  0.00     0.023 C 
ENDROOT
BRANCH   1   2
ATOM      2  C   UNL A   1      31.114  27.289  22.525  1.00  0.00     0.116 C 
BRANCH   2   3
ATOM      3  N   UNL A   1      31.699  26.737  21.316  1.00  0.00    -0.353 N 
ATOM      4  C   UNL A   1      32.576  25.713  21.137  1.00  0.00     0.244 C 
ATOM      5  O   UNL A   1      32.902  25.378  20.000  1.00  0.00    -0.270 OA
ATOM      6  H   UNL A   1      31.412  27.178  20.484  1.00  0.00     0.163 HD
BRANCH   4   7
ATOM      7  C   UNL A   1      33.067  24.924  22.287  1.00  0.00     0.072 C 
ATOM      8  C   UNL A   1      32.342  23.992  22.921  1.00  0.00     0.024 C 
BRANCH   8   9
ATOM      9  C   UNL A   1      32.855  23.174  23.966  1.00  0.00     0.028 A 
ATOM     10  C   UNL A   1      34.123  21.501  25.046  1.00  0.00     0.051 A 
ATOM     11  C   UNL A   1      33.335  21.972  26.078  1.00  0.00     0.079 A 
ATOM     12  C   UNL A   1      33.878  22.248  23.850  1.00  0.00     0.033 A 
ATOM     13  S   UNL A   1      32.246  23.187  25.572  1.00  0.00    -0.144 S 
BRANCH  10  14
ATOM     14  C   UNL A   1      35.111  20.438  25.153  1.00  0.00     0.252 C 
ATOM     15  N   UNL A   1      34.723  19.141  24.935  1.00  0.00    -0.349 N 
ATOM     16  H   UNL A   1      35.421  18.464  25.082  1.00  0.00     0.164 HD
ATOM     17  O   UNL A   1      36.294  20.675  25.377  1.00  0.00    -0.269 OA
BRANCH  15  18
ATOM     18  C   UNL A   1      33.428  18.614  24.515  1.00  0.00     0.085 C 
ATOM     19  C   UNL A   1      32.160  17.879  22.450  1.00  0.00     0.010 C 
ATOM     20  C   UNL A   1      33.520  17.920  23.149  1.00  0.00     0.008 C 
ATOM     21  C   UNL A   1      34.021  16.521  23.500  1.00  0.00     0.005 C 
ATOM     22  C   UNL A   1      33.384  16.187  24.846  1.00  0.00     0.002 C 
ATOM     23  C   UNL A   1      32.974  17.517  25.480  1.00  0.00     0.025 C 
ENDBRANCH  15  18
ENDBRANCH  10  14
ENDBRANCH   8   9
ENDBRANCH   4   7
ENDBRANCH   2   3
ENDBRANCH   1   2
BRANCH   1  24
ATOM     24  C   UNL A   1      32.876  27.997  24.250  1.00  0.00     0.023 C 
BRANCH  24  25
ATOM     25  C   UNL A   1      33.652  29.136  24.902  1.00  0.00     0.116 C 
BRANCH  25  26
ATOM     26  N   UNL A   1      32.798  30.219  25.362  1.00  0.00    -0.352 N 
ATOM     27  C   UNL A   1      32.897  30.944  26.525  1.00  0.00     0.251 C 
ATOM     28  H   UNL A   1      32.054  30.464  24.765  1.00  0.00     0.163 HD
ATOM     29  O   UNL A   1      32.014  31.737  26.833  1.00  0.00    -0.269 OA
BRANCH  27  30
ATOM     30  C   UNL A   1      34.057  30.721  27.414  1.00  0.00     0.039 A 
ATOM     31  C   UNL A   1      34.231  29.467  27.999  1.00  0.00     0.014 A 
ATOM     32  C   UNL A   1      34.992  31.738  27.627  1.00  0.00     0.014 A 
ATOM     33  C   UNL A   1      35.378  29.214  28.755  1.00  0.00     0.010 A 
ATOM     34  C   UNL A   1      36.171  31.458  28.308  1.00  0.00     0.010 A 
ATOM     35  C   UNL A   1      36.373  30.197  28.888  1.00  0.00    -0.014 A 
BRANCH  35  36
ATOM     36  C   UNL A   1      37.616  29.937  29.659  1.00  0.00     0.031 A 
ATOM     37  C   UNL A   1      38.673  29.031  29.089  1.00  0.00     0.074 A 
ATOM     38  C   UNL A   1      37.771  30.471  30.887  1.00  0.00     0.049 A 
ATOM     39  N   UNL A   1      39.791  28.618  29.628  1.00  0.00    -0.248 NA
ATOM     40  C   UNL A   1      38.418  28.489  27.746  1.00  0.00     0.031 C 
ATOM     41  C   UNL A   1      36.800  31.337  31.561  1.00  0.00     0.029 A 
ATOM     42  N   UNL A   1      38.799  30.362  31.790  1.00  0.00    -0.354 N 
ATOM     43  C   UNL A   1      40.366  27.761  28.694  1.00  0.00     0.074 A 
ATOM     44  C   UNL A   1      39.432  27.653  27.595  1.00  0.00     0.031 C 
ATOM     45  C   UNL A   1      37.296  31.708  32.754  1.00  0.00     0.029 A 
ATOM     46  C   UNL A   1      38.593  31.069  32.952  1.00  0.00     0.049 A 
ATOM     47  H   UNL A   1      39.608  29.828  31.621  1.00  0.00     0.167 HD
ATOM     48  C   UNL A   1      41.575  27.146  28.735  1.00  0.00     0.034 A 
ATOM     49  C   UNL A   1      39.360  31.182  34.056  1.00  0.00     0.034 A 
ATOM     50  C   UNL A   1      42.496  27.271  29.839  1.00  0.00     0.049 A 
ATOM     51  C   UNL A   1      40.684  30.460  34.096  1.00  0.00     0.074 A 
ATOM     52  C   UNL A   1      43.759  26.722  29.975  1.00  0.00     0.029 A 
ATOM     53  N   UNL A   1      42.251  27.992  31.002  1.00  0.00    -0.354 N 
ATOM     54  N   UNL A   1      41.233  29.683  33.190  1.00  0.00    -0.248 NA
ATOM     55  C   UNL A   1      41.499  30.643  35.304  1.00  0.00     0.031 C 
ATOM     56  C   UNL A   1      44.245  27.048  31.245  1.00  0.00     0.029 A 
ATOM     57  C   UNL A   1      43.328  27.879  31.868  1.00  0.00     0.049 A 
ATOM     58  H   UNL A   1      41.432  28.508  31.183  1.00  0.00     0.167 HD
ATOM     59  C   UNL A   1      42.477  29.322  33.702  1.00  0.00     0.074 A 
ATOM     60  C   UNL A   1      42.598  29.974  34.990  1.00  0.00     0.031 C 
ATOM     61  C   UNL A   1      43.436  28.533  33.153  1.00  0.00     0.034 A 
BRANCH  48  62
ATOM     62  C   UNL A   1      41.945  26.268  27.561  1.00  0.00     0.023 A 
ATOM     63  C   UNL A   1      41.573  24.912  27.508  1.00  0.00     0.031 A 
ATOM     64  C   UNL A   1      42.720  26.776  26.505  1.00  0.00     0.131 A 
ATOM     65  C   UNL A   1      42.052  24.092  26.476  1.00  0.00     0.055 A 
ATOM     66  C   UNL A   1      43.113  25.976  25.429  1.00  0.00     0.041 A 
ATOM     67  F   UNL A   1      43.127  28.055  26.506  1.00  0.00    -0.206 F 
ATOM     68  C   UNL A   1      42.796  24.621  25.420  1.00  0.00     0.022 A 
BRANCH  65  69
ATOM     69  S   UNL A   1      41.836  22.298  26.627  1.00  0.00     0.124 S 
ATOM     70  O   UNL A   1      42.424  21.824  25.376  1.00  0.00    -0.237 OA
ATOM     71  O   UNL A   1      42.584  21.991  27.841  1.00  0.00    -0.237 OA
ATOM     72  O   UNL A   1      40.387  22.134  26.727  1.00  0.00    -0.744 OA
ENDBRANCH  65  69
ENDBRANCH  48  62
BRANCH  49  73
ATOM     73  C   UNL A   1      38.909  32.012  35.211  1.00  0.00     0.023 A 
ATOM     74  C   UNL A   1      38.379  31.416  36.366  1.00  0.00     0.031 A 
ATOM     75  C   UNL A   1      38.958  33.416  35.159  1.00  0.00     0.131 A 
ATOM     76  C   UNL A   1      37.872  32.218  37.399  1.00  0.00     0.055 A 
ATOM     77  C   UNL A   1      38.505  34.210  36.214  1.00  0.00     0.041 A 
ATOM     78  F   UNL A   1      39.458  34.041  34.080  1.00  0.00    -0.206 F 
ATOM     79  C   UNL A   1      37.945  33.611  37.337  1.00  0.00     0.022 A 
BRANCH  76  80
ATOM     80  S   UNL A   1      37.028  31.413  38.789  1.00  0.00     0.124 S 
ATOM     81  O   UNL A   1      35.799  32.193  38.880  1.00  0.00    -0.237 OA
ATOM     82  O   UNL A   1      36.886  30.043  38.305  1.00  0.00    -0.237 OA
ATOM     83  O   UNL A   1      37.962  31.585  39.899  1.00  0.00    -0.744 OA
ENDBRANCH  76  80
ENDBRANCH  49  73
BRANCH  61  84
ATOM     84  C   UNL A   1      44.732  28.390  33.918  1.00  0.00     0.023 A 
ATOM     85  C   UNL A   1      45.801  29.287  33.753  1.00  0.00     0.031 A 
ATOM     86  C   UNL A   1      44.898  27.324  34.821  1.00  0.00     0.131 A 
ATOM     87  C   UNL A   1      47.011  29.063  34.428  1.00  0.00     0.055 A 
ATOM     88  C   UNL A   1      46.079  27.147  35.542  1.00  0.00     0.041 A 
ATOM     89  F   UNL A   1      43.912  26.432  35.017  1.00  0.00    -0.206 F 
ATOM     90  C   UNL A   1      47.150  28.010  35.337  1.00  0.00     0.022 A 
BRANCH  87  91
ATOM     91  S   UNL A   1      48.441  30.102  34.020  1.00  0.00     0.124 S 
ATOM     92  O   UNL A   1      48.648  30.834  35.265  1.00  0.00    -0.237 OA
ATOM     93  O   UNL A   1      49.461  29.112  33.686  1.00  0.00    -0.237 OA
ATOM     94  O   UNL A   1      47.970  30.909  32.896  1.00  0.00    -0.744 OA
ENDBRANCH  87  91
ENDBRANCH  61  84
ENDBRANCH  35  36
ENDBRANCH  27  30
ENDBRANCH  25  26
ENDBRANCH  24  25
ENDBRANCH   1  24
TORSDOF 17
ENDMDL
MODEL 2
REMARK VINA RESULT:     -11.9      4.702      7.969
REMARK SMILES C[C@@H]1CCC[C@H]1NC(=O)c1csc(/C=C/C(=O)NCCCCNC(=O)c2ccc(-c3c4nc(c(-c5cc(S(=O)(=O)[O-])ccc5F)c5ccc([nH]5)c(-c5cc(S(=O)(=O)[O-])ccc5F)c5nc(c(-c6cc(S(=O)(=O)[O-])ccc6F)c6ccc3[nH]6)C=C5)C=C4)cc2)c1
REMARK SMILES IDX 20 1 19 2 18 3 16 4 17 5 15 7 14 8 13 9 10 10 11 11 89 12
REMARK SMILES IDX 12 13 8 14 7 15 9 17 6 18 1 19 2 20 3 21 4 22 5 23 21 24
REMARK SMILES IDX 22 25 23 26 24 27 25 29 26 30 27 31 88 32 28 33 87 34 29 35
REMARK SMILES IDX 30 36 31 37 81 38 32 39 86 40 80 41 82 42 33 43 85 44 79 45
REMARK SMILES IDX 78 46 34 48 66 49 46 50 65 51 47 52 50 53 64 54 83 55 48 56
REMARK SMILES IDX 49 57 63 59 84 60 51 61 35 62 36 63 44 64 37 65 43 66 45 67
REMARK SMILES IDX 42 68 38 69 39 70 40 71 41 72 67 73 68 74 76 75 69 76 75 77
REMARK SMILES IDX 77 78 74 79 70 80 71 81 72 82 73 83 52 84 53 85 61 86 54 87
REMARK SMILES IDX 60 88 62 89 59 90 55 91 56 92 57 93 58 94
REMARK H PARENT 18 6 7 16 23 28 82 47 50 58
REMARK Flexibility Score: inf
ROOT
ATOM      1  C   UNL A   1      34.407  21.348  26.045  1.00  0.00     0.023 C 
ENDROOT
BRANCH   1   2
ATOM      2  C   UNL A   1      34.033  22.381  27.108  1.00  0.00     0.116 C 
BRANCH   2   3
ATOM      3  N   UNL A   1      32.609  22.329  27.393  1.00  0.00    -0.353 N 
ATOM      4  C   UNL A   1      31.630  23.256  27.217  1.00  0.00     0.244 C 
ATOM      5  O   UNL A   1      30.464  22.974  27.484  1.00  0.00    -0.270 OA
ATOM      6  H   UNL A   1      32.300  21.477  27.778  1.00  0.00     0.163 HD
BRANCH   4   7
ATOM      7  C   UNL A   1      31.930  24.571  26.609  1.00  0.00     0.072 C 
ATOM      8  C   UNL A   1      31.807  24.837  25.301  1.00  0.00     0.024 C 
BRANCH   8   9
ATOM      9  C   UNL A   1      32.008  26.130  24.741  1.00  0.00     0.028 A 
ATOM     10  C   UNL A   1      31.833  28.465  24.447  1.00  0.00     0.051 A 
ATOM     11  C   UNL A   1      32.577  28.093  23.344  1.00  0.00     0.079 A 
ATOM     12  C   UNL A   1      31.567  27.328  25.274  1.00  0.00     0.033 A 
ATOM     13  S   UNL A   1      32.826  26.406  23.256  1.00  0.00    -0.144 S 
BRANCH  10  14
ATOM     14  C   UNL A   1      31.419  29.822  24.771  1.00  0.00     0.252 C 
ATOM     15  N   UNL A   1      30.332  30.359  24.130  1.00  0.00    -0.349 N 
ATOM     16  H   UNL A   1      30.140  31.299  24.348  1.00  0.00     0.164 HD
ATOM     17  O   UNL A   1      31.980  30.478  25.643  1.00  0.00    -0.269 OA
BRANCH  15  18
ATOM     18  C   UNL A   1      29.416  29.745  23.175  1.00  0.00     0.085 C 
ATOM     19  C   UNL A   1      27.021  28.950  22.951  1.00  0.00     0.010 C 
ATOM     20  C   UNL A   1      27.951  30.005  23.554  1.00  0.00     0.008 C 
ATOM     21  C   UNL A   1      27.682  31.394  22.980  1.00  0.00     0.005 C 
ATOM     22  C   UNL A   1      28.499  31.467  21.694  1.00  0.00     0.002 C 
ATOM     23  C   UNL A   1      29.584  30.395  21.800  1.00  0.00     0.025 C 
ENDBRANCH  15  18
ENDBRANCH  10  14
ENDBRANCH   8   9
ENDBRANCH   4   7
ENDBRANCH   2   3
ENDBRANCH   1   2
BRANCH   1  24
ATOM     24  C   UNL A   1      35.512  21.810  25.091  1.00  0.00     0.023 C 
BRANCH  24  25
ATOM     25  C   UNL A   1      36.783  22.300  25.777  1.00  0.00     0.116 C 
BRANCH  25  26
ATOM     26  N   UNL A   1      37.821  21.283  25.849  1.00  0.00    -0.352 N 
ATOM     27  C   UNL A   1      39.137  21.438  26.212  1.00  0.00     0.251 C 
ATOM     28  H   UNL A   1      37.546  20.369  25.608  1.00  0.00     0.163 HD
ATOM     29  O   UNL A   1      39.922  20.504  26.090  1.00  0.00    -0.269 OA
BRANCH  27  30
ATOM     30  C   UNL A   1      39.596  22.753  26.707  1.00  0.00     0.039 A 
ATOM     31  C   UNL A   1      40.545  22.800  27.728  1.00  0.00     0.014 A 
ATOM     32  C   UNL A   1      39.121  23.933  26.128  1.00  0.00     0.014 A 
ATOM     33  C   UNL A   1      41.062  24.033  28.130  1.00  0.00     0.010 A 
ATOM     34  C   UNL A   1      39.698  25.150  26.470  1.00  0.00     0.010 A 
ATOM     35  C   UNL A   1      40.667  25.215  27.482  1.00  0.00    -0.014 A 
BRANCH  35  36
ATOM     36  C   UNL A   1      41.230  26.534  27.871  1.00  0.00     0.031 A 
ATOM     37  C   UNL A   1      42.657  26.867  27.530  1.00  0.00     0.074 A 
ATOM     38  C   UNL A   1      40.480  27.406  28.573  1.00  0.00     0.049 A 
ATOM     39  N   UNL A   1      43.360  27.926  27.840  1.00  0.00    -0.248 NA
ATOM     40  C   UNL A   1      43.403  25.854  26.768  1.00  0.00     0.031 C 
ATOM     41  C   UNL A   1      39.095  27.183  28.994  1.00  0.00     0.029 A 
ATOM     42  N   UNL A   1      40.775  28.655  29.060  1.00  0.00    -0.354 N 
ATOM     43  C   UNL A   1      44.631  27.702  27.320  1.00  0.00     0.074 A 
ATOM     44  C   UNL A   1      44.620  26.372  26.749  1.00  0.00     0.031 C 
ATOM     45  C   UNL A   1      38.651  28.271  29.644  1.00  0.00     0.029 A 
ATOM     46  C   UNL A   1      39.732  29.249  29.732  1.00  0.00     0.049 A 
ATOM     47  H   UNL A   1      41.652  29.084  28.941  1.00  0.00     0.167 HD
ATOM     48  C   UNL A   1      45.699  28.538  27.293  1.00  0.00     0.034 A 
ATOM     49  C   UNL A   1      39.656  30.443  30.354  1.00  0.00     0.034 A 
ATOM     50  C   UNL A   1      45.688  29.863  27.864  1.00  0.00     0.049 A 
ATOM     51  C   UNL A   1      40.867  31.343  30.344  1.00  0.00     0.074 A 
ATOM     52  C   UNL A   1      46.698  30.809  27.868  1.00  0.00     0.029 A 
ATOM     53  N   UNL A   1      44.614  30.430  28.540  1.00  0.00    -0.354 N 
ATOM     54  N   UNL A   1      42.052  31.133  29.816  1.00  0.00    -0.248 NA
ATOM     55  C   UNL A   1      40.726  32.647  31.004  1.00  0.00     0.031 C 
ATOM     56  C   UNL A   1      46.262  31.914  28.606  1.00  0.00     0.029 A 
ATOM     57  C   UNL A   1      44.947  31.700  28.986  1.00  0.00     0.049 A 
ATOM     58  H   UNL A   1      43.742  29.992  28.681  1.00  0.00     0.167 HD
ATOM     59  C   UNL A   1      42.780  32.300  30.041  1.00  0.00     0.074 A 
ATOM     60  C   UNL A   1      41.898  33.208  30.745  1.00  0.00     0.031 C 
ATOM     61  C   UNL A   1      44.057  32.596  29.690  1.00  0.00     0.034 A 
BRANCH  48  62
ATOM     62  C   UNL A   1      46.965  28.023  26.647  1.00  0.00     0.023 A 
ATOM     63  C   UNL A   1      47.207  28.181  25.270  1.00  0.00     0.031 A 
ATOM     64  C   UNL A   1      47.921  27.324  27.403  1.00  0.00     0.131 A 
ATOM     65  C   UNL A   1      48.322  27.569  24.678  1.00  0.00     0.055 A 
ATOM     66  C   UNL A   1      49.079  26.799  26.824  1.00  0.00     0.041 A 
ATOM     67  F   UNL A   1      47.740  27.120  28.717  1.00  0.00    -0.206 F 
ATOM     68  C   UNL A   1      49.275  26.903  25.450  1.00  0.00     0.022 A 
BRANCH  65  69
ATOM     69  S   UNL A   1      48.412  27.506  22.868  1.00  0.00     0.124 S 
ATOM     70  O   UNL A   1      48.378  26.066  22.621  1.00  0.00    -0.237 OA
ATOM     71  O   UNL A   1      47.225  28.252  22.466  1.00  0.00    -0.237 OA
ATOM     72  O   UNL A   1      49.688  28.151  22.566  1.00  0.00    -0.744 OA
ENDBRANCH  65  69
ENDBRANCH  48  62
BRANCH  49  73
ATOM     73  C   UNL A   1      38.397  30.868  31.031  1.00  0.00     0.023 A 
ATOM     74  C   UNL A   1      37.375  31.515  30.318  1.00  0.00     0.031 A 
ATOM     75  C   UNL A   1      38.214  30.674  32.412  1.00  0.00     0.131 A 
ATOM     76  C   UNL A   1      36.242  31.992  30.994  1.00  0.00     0.055 A 
ATOM     77  C   UNL A   1      37.059  31.099  33.070  1.00  0.00     0.041 A 
ATOM     78  F   UNL A   1      39.157  30.057  33.143  1.00  0.00    -0.206 F 
ATOM     79  C   UNL A   1      36.070  31.775  32.363  1.00  0.00     0.022 A 
BRANCH  76  80
ATOM     80  S   UNL A   1      35.035  32.985  30.073  1.00  0.00     0.124 S 
ATOM     81  O   UNL A   1      35.866  34.074  29.576  1.00  0.00    -0.237 OA
ATOM     82  O   UNL A   1      34.557  32.032  29.076  1.00  0.00    -0.237 OA
ATOM     83  O   UNL A   1      34.056  33.359  31.091  1.00  0.00    -0.744 OA
ENDBRANCH  76  80
ENDBRANCH  49  73
BRANCH  61  84
ATOM     84  C   UNL A   1      44.552  33.990  30.001  1.00  0.00     0.023 A 
ATOM     85  C   UNL A   1      44.388  35.060  29.104  1.00  0.00     0.031 A 
ATOM     86  C   UNL A   1      45.212  34.244  31.217  1.00  0.00     0.131 A 
ATOM     87  C   UNL A   1      44.936  36.316  29.408  1.00  0.00     0.055 A 
ATOM     88  C   UNL A   1      45.693  35.512  31.544  1.00  0.00     0.041 A 
ATOM     89  F   UNL A   1      45.401  33.259  32.112  1.00  0.00    -0.206 F 
ATOM     90  C   UNL A   1      45.570  36.554  30.631  1.00  0.00     0.022 A 
BRANCH  87  91
ATOM     91  S   UNL A   1      44.907  37.610  28.136  1.00  0.00     0.124 S 
ATOM     92  O   UNL A   1      44.545  36.853  26.943  1.00  0.00    -0.237 OA
ATOM     93  O   UNL A   1      43.889  38.524  28.645  1.00  0.00    -0.237 OA
ATOM     94  O   UNL A   1      46.272  38.133  28.149  1.00  0.00    -0.744 OA
ENDBRANCH  87  91
ENDBRANCH  61  84
ENDBRANCH  35  36
ENDBRANCH  27  30
ENDBRANCH  25  26
ENDBRANCH  24  25
ENDBRANCH   1  24
TORSDOF 17
ENDMDL
MODEL 3
REMARK VINA RESULT:     -11.8      4.618      8.085
REMARK SMILES C[C@@H]1CCC[C@H]1NC(=O)c1csc(/C=C/C(=O)NCCCCNC(=O)c2ccc(-c3c4nc(c(-c5cc(S(=O)(=O)[O-])ccc5F)c5ccc([nH]5)c(-c5cc(S(=O)(=O)[O-])ccc5F)c5nc(c(-c6cc(S(=O)(=O)[O-])ccc6F)c6ccc3[nH]6)C=C5)C=C4)cc2)c1
REMARK SMILES IDX 20 1 19 2 18 3 16 4 17 5 15 7 14 8 13 9 10 10 11 11 89 12
REMARK SMILES IDX 12 13 8 14 7 15 9 17 6 18 1 19 2 20 3 21 4 22 5 23 21 24
REMARK SMILES IDX 22 25 23 26 24 27 25 29 26 30 27 31 88 32 28 33 87 34 29 35
REMARK SMILES IDX 30 36 31 37 81 38 32 39 86 40 80 41 82 42 33 43 85 44 79 45
REMARK SMILES IDX 78 46 34 48 66 49 46 50 65 51 47 52 50 53 64 54 83 55 48 56
REMARK SMILES IDX 49 57 63 59 84 60 51 61 35 62 36 63 44 64 37 65 43 66 45 67
REMARK SMILES IDX 42 68 38 69 39 70 40 71 41 72 67 73 68 74 76 75 69 76 75 77
REMARK SMILES IDX 77 78 74 79 70 80 71 81 72 82 73 83 52 84 53 85 61 86 54 87
REMARK SMILES IDX 60 88 62 89 59 90 55 91 56 92 57 93 58 94
REMARK H PARENT 18 6 7 16 23 28 82 47 50 58
REMARK Flexibility Score: inf
ROOT
ATOM      1  C   UNL A   1      34.653  22.030  26.334  1.00  0.00     0.023 C 
ENDROOT
BRANCH   1   2
ATOM      2  C   UNL A   1      33.697  22.424  27.461  1.00  0.00     0.116 C 
BRANCH   2   3
ATOM      3  N   UNL A   1      32.338  22.023  27.142  1.00  0.00    -0.353 N 
ATOM      4  C   UNL A   1      31.385  22.626  26.382  1.00  0.00     0.244 C 
ATOM      5  O   UNL A   1      30.302  22.071  26.204  1.00  0.00    -0.270 OA
ATOM      6  H   UNL A   1      32.059  21.169  27.544  1.00  0.00     0.163 HD
BRANCH   4   7
ATOM      7  C   UNL A   1      31.666  23.895  25.677  1.00  0.00     0.072 C 
ATOM      8  C   UNL A   1      31.414  25.107  26.189  1.00  0.00     0.024 C 
BRANCH   8   9
ATOM      9  C   UNL A   1      31.774  26.323  25.542  1.00  0.00     0.028 A 
ATOM     10  C   UNL A   1      31.751  28.612  24.963  1.00  0.00     0.051 A 
ATOM     11  C   UNL A   1      32.684  28.103  24.081  1.00  0.00     0.079 A 
ATOM     12  C   UNL A   1      31.282  27.582  25.840  1.00  0.00     0.033 A 
ATOM     13  S   UNL A   1      32.879  26.413  24.231  1.00  0.00    -0.144 S 
BRANCH  10  14
ATOM     14  C   UNL A   1      31.335  30.003  25.046  1.00  0.00     0.252 C 
ATOM     15  N   UNL A   1      30.325  30.447  24.232  1.00  0.00    -0.349 N 
ATOM     16  H   UNL A   1      30.131  31.410  24.291  1.00  0.00     0.164 HD
ATOM     17  O   UNL A   1      31.822  30.777  25.865  1.00  0.00    -0.269 OA
BRANCH  15  18
ATOM     18  C   UNL A   1      29.493  29.705  23.290  1.00  0.00     0.085 C 
ATOM     19  C   UNL A   1      27.124  28.869  22.966  1.00  0.00     0.010 C 
ATOM     20  C   UNL A   1      28.002  30.002  23.503  1.00  0.00     0.008 C 
ATOM     21  C   UNL A   1      27.789  31.301  22.729  1.00  0.00     0.005 C 
ATOM     22  C   UNL A   1      28.715  31.211  21.521  1.00  0.00     0.002 C 
ATOM     23  C   UNL A   1      29.782  30.170  21.861  1.00  0.00     0.025 C 
ENDBRANCH  15  18
ENDBRANCH  10  14
ENDBRANCH   8   9
ENDBRANCH   4   7
ENDBRANCH   2   3
ENDBRANCH   1   2
BRANCH   1  24
ATOM     24  C   UNL A   1      35.214  23.219  25.550  1.00  0.00     0.023 C 
BRANCH  24  25
ATOM     25  C   UNL A   1      36.607  23.666  25.978  1.00  0.00     0.116 C 
BRANCH  25  26
ATOM     26  N   UNL A   1      37.564  22.572  26.038  1.00  0.00    -0.352 N 
ATOM     27  C   UNL A   1      38.895  22.625  26.375  1.00  0.00     0.251 C 
ATOM     28  H   UNL A   1      37.214  21.681  25.809  1.00  0.00     0.163 HD
ATOM     29  O   UNL A   1      39.602  21.632  26.246  1.00  0.00    -0.269 OA
BRANCH  27  30
ATOM     30  C   UNL A   1      39.465  23.903  26.851  1.00  0.00     0.039 A 
ATOM     31  C   UNL A   1      40.006  24.792  25.922  1.00  0.00     0.014 A 
ATOM     32  C   UNL A   1      39.420  24.237  28.208  1.00  0.00     0.014 A 
ATOM     33  C   UNL A   1      40.451  26.046  26.349  1.00  0.00     0.010 A 
ATOM     34  C   UNL A   1      39.785  25.515  28.615  1.00  0.00     0.010 A 
ATOM     35  C   UNL A   1      40.314  26.430  27.692  1.00  0.00    -0.014 A 
BRANCH  35  36
ATOM     36  C   UNL A   1      40.750  27.771  28.161  1.00  0.00     0.031 A 
ATOM     37  C   UNL A   1      42.216  28.102  28.214  1.00  0.00     0.074 A 
ATOM     38  C   UNL A   1      39.836  28.667  28.585  1.00  0.00     0.049 A 
ATOM     39  N   UNL A   1      42.808  29.182  28.657  1.00  0.00    -0.248 NA
ATOM     40  C   UNL A   1      43.142  27.063  27.738  1.00  0.00     0.031 C 
ATOM     41  C   UNL A   1      38.388  28.448  28.614  1.00  0.00     0.029 A 
ATOM     42  N   UNL A   1      39.988  29.939  29.076  1.00  0.00    -0.354 N 
ATOM     43  C   UNL A   1      44.173  28.947  28.522  1.00  0.00     0.074 A 
ATOM     44  C   UNL A   1      44.317  27.592  28.033  1.00  0.00     0.031 C 
ATOM     45  C   UNL A   1      37.784  29.561  29.063  1.00  0.00     0.029 A 
ATOM     46  C   UNL A   1      38.801  30.553  29.402  1.00  0.00     0.049 A 
ATOM     47  H   UNL A   1      40.865  30.372  29.185  1.00  0.00     0.167 HD
ATOM     48  C   UNL A   1      45.209  29.792  28.754  1.00  0.00     0.034 A 
ATOM     49  C   UNL A   1      38.559  31.773  29.922  1.00  0.00     0.034 A 
ATOM     50  C   UNL A   1      45.044  31.142  29.237  1.00  0.00     0.049 A 
ATOM     51  C   UNL A   1      39.728  32.684  30.207  1.00  0.00     0.074 A 
ATOM     52  C   UNL A   1      46.015  32.097  29.476  1.00  0.00     0.029 A 
ATOM     53  N   UNL A   1      43.825  31.728  29.560  1.00  0.00    -0.354 N 
ATOM     54  N   UNL A   1      41.012  32.463  30.039  1.00  0.00    -0.248 NA
ATOM     55  C   UNL A   1      39.412  34.015  30.740  1.00  0.00     0.031 C 
ATOM     56  C   UNL A   1      45.395  33.230  30.012  1.00  0.00     0.029 A 
ATOM     57  C   UNL A   1      44.025  33.020  30.021  1.00  0.00     0.049 A 
ATOM     58  H   UNL A   1      42.948  31.288  29.474  1.00  0.00     0.167 HD
ATOM     59  C   UNL A   1      41.652  33.645  30.403  1.00  0.00     0.074 A 
ATOM     60  C   UNL A   1      40.611  34.575  30.791  1.00  0.00     0.031 C 
ATOM     61  C   UNL A   1      42.977  33.939  30.407  1.00  0.00     0.034 A 
BRANCH  48  62
ATOM     62  C   UNL A   1      46.603  29.261  28.510  1.00  0.00     0.023 A 
ATOM     63  C   UNL A   1      47.090  29.037  27.209  1.00  0.00     0.031 A 
ATOM     64  C   UNL A   1      47.441  28.928  29.588  1.00  0.00     0.131 A 
ATOM     65  C   UNL A   1      48.332  28.413  27.021  1.00  0.00     0.055 A 
ATOM     66  C   UNL A   1      48.717  28.394  29.392  1.00  0.00     0.041 A 
ATOM     67  F   UNL A   1      47.028  29.095  30.854  1.00  0.00    -0.206 F 
ATOM     68  C   UNL A   1      49.161  28.116  28.103  1.00  0.00     0.022 A 
BRANCH  65  69
ATOM     69  S   UNL A   1      48.765  27.837  25.357  1.00  0.00     0.124 S 
ATOM     70  O   UNL A   1      50.069  28.467  25.158  1.00  0.00    -0.237 OA
ATOM     71  O   UNL A   1      48.774  26.387  25.516  1.00  0.00    -0.237 OA
ATOM     72  O   UNL A   1      47.692  28.367  24.520  1.00  0.00    -0.744 OA
ENDBRANCH  65  69
ENDBRANCH  48  62
BRANCH  49  73
ATOM     73  C   UNL A   1      37.162  32.215  30.202  1.00  0.00     0.023 A 
ATOM     74  C   UNL A   1      36.380  32.817  29.203  1.00  0.00     0.031 A 
ATOM     75  C   UNL A   1      36.603  32.085  31.486  1.00  0.00     0.131 A 
ATOM     76  C   UNL A   1      35.105  33.313  29.515  1.00  0.00     0.055 A 
ATOM     77  C   UNL A   1      35.311  32.528  31.776  1.00  0.00     0.041 A 
ATOM     78  F   UNL A   1      37.304  31.515  32.479  1.00  0.00    -0.206 F 
ATOM     79  C   UNL A   1      34.560  33.159  30.791  1.00  0.00     0.022 A 
BRANCH  76  80
ATOM     80  S   UNL A   1      34.203  34.247  28.248  1.00  0.00     0.124 S 
ATOM     81  O   UNL A   1      33.110  33.337  27.931  1.00  0.00    -0.237 OA
ATOM     82  O   UNL A   1      33.840  35.463  28.969  1.00  0.00    -0.237 OA
ATOM     83  O   UNL A   1      35.194  34.427  27.189  1.00  0.00    -0.744 OA
ENDBRANCH  76  80
ENDBRANCH  49  73
BRANCH  61  84
ATOM     84  C   UNL A   1      43.370  35.350  30.778  1.00  0.00     0.023 A 
ATOM     85  C   UNL A   1      43.565  35.746  32.112  1.00  0.00     0.031 A 
ATOM     86  C   UNL A   1      43.539  36.318  29.771  1.00  0.00     0.131 A 
ATOM     87  C   UNL A   1      43.852  37.088  32.408  1.00  0.00     0.055 A 
ATOM     88  C   UNL A   1      43.893  37.635  30.067  1.00  0.00     0.041 A 
ATOM     89  F   UNL A   1      43.362  35.999  28.478  1.00  0.00    -0.206 F 
ATOM     90  C   UNL A   1      44.037  38.030  31.392  1.00  0.00     0.022 A 
BRANCH  87  91
ATOM     91  S   UNL A   1      43.871  37.613  34.144  1.00  0.00     0.124 S 
ATOM     92  O   UNL A   1      42.720  38.509  34.202  1.00  0.00    -0.237 OA
ATOM     93  O   UNL A   1      43.729  36.346  34.855  1.00  0.00    -0.237 OA
ATOM     94  O   UNL A   1      45.172  38.264  34.292  1.00  0.00    -0.744 OA
ENDBRANCH  87  91
ENDBRANCH  61  84
ENDBRANCH  35  36
ENDBRANCH  27  30
ENDBRANCH  25  26
ENDBRANCH  24  25
ENDBRANCH   1  24
TORSDOF 17
ENDMDL
