MODEL 1
REMARK VINA RESULT:     -13.1      0.000      0.000
REMARK SMILES Cc1c(NC(=O)c2ccc(Br)cc2N)cccc1C(=O)NCCCCNC(=O)c1ccc(-c2c3nc(c(-c4cc(S(=O)(=O)[O-])ccc4F)c4ccc([nH]4)c(-c4cc(S(=O)(=O)[O-])ccc4F)c4nc(c(-c5cc(S(=O)(=O)[O-])ccc5F)c5ccc2[nH]5)C=C4)C=C3)cc1
REMARK SMILES IDX 23 1 22 2 21 3 19 4 20 5 18 7 1 8 2 9 3 10 15 11 17 12 16 13
REMARK SMILES IDX 4 14 5 15 6 17 7 18 8 19 13 20 9 21 12 22 10 23 11 24 14 25
REMARK SMILES IDX 24 28 25 29 26 30 27 31 28 33 29 34 30 35 91 36 31 37 90 38
REMARK SMILES IDX 32 39 33 40 34 41 84 42 35 43 89 44 83 45 85 46 36 47 88 48
REMARK SMILES IDX 82 49 81 50 37 52 69 53 49 54 68 55 50 56 53 57 67 58 86 59
REMARK SMILES IDX 51 60 52 61 66 63 87 64 54 65 38 66 39 67 47 68 40 69 46 70
REMARK SMILES IDX 48 71 45 72 41 73 42 74 43 75 44 76 70 77 71 78 79 79 72 80
REMARK SMILES IDX 78 81 80 82 77 83 73 84 74 85 75 86 76 87 55 88 56 89 64 90
REMARK SMILES IDX 57 91 63 92 65 93 62 94 58 95 59 96 60 97 61 98
REMARK H PARENT 21 6 4 16 14 26 14 27 26 32 85 51 53 62
REMARK Flexibility Score: inf
ROOT
ATOM      1  C   UNL A   1      32.159  30.196  26.946  1.00  0.00     0.023 C 
ENDROOT
BRANCH   1   2
ATOM      2  C   UNL A   1      32.453  29.420  25.645  1.00  0.00     0.116 C 
BRANCH   2   3
ATOM      3  N   UNL A   1      31.418  29.677  24.658  1.00  0.00    -0.352 N 
ATOM      4  C   UNL A   1      30.742  28.933  23.731  1.00  0.00     0.251 C 
ATOM      5  O   UNL A   1      29.959  29.585  23.026  1.00  0.00    -0.269 OA
ATOM      6  H   UNL A   1      31.132  30.619  24.658  1.00  0.00     0.163 HD
BRANCH   4   7
ATOM      7  C   UNL A   1      30.799  27.444  23.500  1.00  0.00     0.044 A 
ATOM      8  C   UNL A   1      30.108  26.576  25.815  1.00  0.00     0.047 C 
ATOM      9  C   UNL A   1      30.514  26.376  24.384  1.00  0.00    -0.015 A 
ATOM     10  C   UNL A   1      30.793  25.039  23.982  1.00  0.00     0.045 A 
ATOM     11  C   UNL A   1      31.405  24.761  22.760  1.00  0.00     0.026 A 
ATOM     12  C   UNL A   1      31.389  27.114  22.253  1.00  0.00     0.014 A 
ATOM     13  C   UNL A   1      31.702  25.802  21.893  1.00  0.00     0.003 A 
BRANCH  10  14
ATOM     14  N   UNL A   1      30.439  23.993  24.855  1.00  0.00    -0.322 N 
ATOM     15  C   UNL A   1      31.179  22.953  25.365  1.00  0.00     0.257 C 
ATOM     16  H   UNL A   1      29.500  24.008  25.150  1.00  0.00     0.170 HD
ATOM     17  O   UNL A   1      30.602  21.999  25.890  1.00  0.00    -0.269 OA
BRANCH  15  18
ATOM     18  C   UNL A   1      32.668  22.960  25.376  1.00  0.00     0.063 A 
ATOM     19  C   UNL A   1      33.247  24.014  26.105  1.00  0.00     0.017 A 
ATOM     20  C   UNL A   1      33.492  22.073  24.648  1.00  0.00     0.045 A 
ATOM     21  C   UNL A   1      34.630  24.177  26.152  1.00  0.00     0.016 A 
ATOM     22  C   UNL A   1      34.884  22.242  24.728  1.00  0.00     0.042 A 
ATOM     23  C   UNL A   1      35.443  23.279  25.472  1.00  0.00     0.020 A 
ATOM     24  Br  UNL A   1      37.321  23.499  25.512  1.00  0.00    -0.051 Br
BRANCH  20  25
ATOM     25  N   UNL A   1      33.020  21.158  23.713  1.00  0.00    -0.398 N 
ATOM     26  H   UNL A   1      33.616  20.831  23.001  1.00  0.00     0.156 HD
ATOM     27  H   UNL A   1      32.092  20.836  23.765  1.00  0.00     0.156 HD
ENDBRANCH  20  25
ENDBRANCH  15  18
ENDBRANCH  10  14
ENDBRANCH   4   7
ENDBRANCH   2   3
ENDBRANCH   1   2
BRANCH   1  28
ATOM     28  C   UNL A   1      33.192  31.252  27.323  1.00  0.00     0.023 C 
BRANCH  28  29
ATOM     29  C   UNL A   1      34.487  30.640  27.819  1.00  0.00     0.116 C 
BRANCH  29  30
ATOM     30  N   UNL A   1      35.350  31.540  28.577  1.00  0.00    -0.352 N 
ATOM     31  C   UNL A   1      36.535  31.231  29.226  1.00  0.00     0.251 C 
ATOM     32  H   UNL A   1      35.056  32.478  28.635  1.00  0.00     0.163 HD
ATOM     33  O   UNL A   1      37.116  32.047  29.939  1.00  0.00    -0.269 OA
BRANCH  31  34
ATOM     34  C   UNL A   1      37.162  29.918  28.944  1.00  0.00     0.039 A 
ATOM     35  C   UNL A   1      37.363  29.059  30.030  1.00  0.00     0.014 A 
ATOM     36  C   UNL A   1      37.824  29.707  27.740  1.00  0.00     0.014 A 
ATOM     37  C   UNL A   1      38.426  28.161  29.992  1.00  0.00     0.010 A 
ATOM     38  C   UNL A   1      38.958  28.920  27.754  1.00  0.00     0.010 A 
ATOM     39  C   UNL A   1      39.299  28.196  28.905  1.00  0.00    -0.014 A 
BRANCH  39  40
ATOM     40  C   UNL A   1      40.656  27.657  28.962  1.00  0.00     0.031 A 
ATOM     41  C   UNL A   1      40.942  26.267  28.551  1.00  0.00     0.074 A 
ATOM     42  C   UNL A   1      41.682  28.454  29.339  1.00  0.00     0.049 A 
ATOM     43  N   UNL A   1      41.958  25.579  28.954  1.00  0.00    -0.248 NA
ATOM     44  C   UNL A   1      40.057  25.512  27.675  1.00  0.00     0.031 C 
ATOM     45  C   UNL A   1      43.111  28.184  29.210  1.00  0.00     0.029 A 
ATOM     46  N   UNL A   1      41.619  29.582  30.152  1.00  0.00    -0.354 N 
ATOM     47  C   UNL A   1      42.038  24.449  28.172  1.00  0.00     0.074 A 
ATOM     48  C   UNL A   1      40.784  24.414  27.459  1.00  0.00     0.031 C 
ATOM     49  C   UNL A   1      43.777  28.932  30.102  1.00  0.00     0.029 A 
ATOM     50  C   UNL A   1      42.794  29.615  30.922  1.00  0.00     0.049 A 
ATOM     51  H   UNL A   1      40.885  30.238  30.182  1.00  0.00     0.167 HD
ATOM     52  C   UNL A   1      43.217  23.763  28.107  1.00  0.00     0.034 A 
ATOM     53  C   UNL A   1      42.741  29.581  32.285  1.00  0.00     0.034 A 
ATOM     54  C   UNL A   1      44.201  24.294  29.058  1.00  0.00     0.049 A 
ATOM     55  C   UNL A   1      43.411  28.366  32.887  1.00  0.00     0.074 A 
ATOM     56  C   UNL A   1      45.324  25.093  28.913  1.00  0.00     0.029 A 
ATOM     57  N   UNL A   1      43.939  24.237  30.426  1.00  0.00    -0.354 N 
ATOM     58  N   UNL A   1      43.789  27.322  32.200  1.00  0.00    -0.248 NA
ATOM     59  C   UNL A   1      43.691  28.218  34.312  1.00  0.00     0.031 C 
ATOM     60  C   UNL A   1      45.693  25.573  30.198  1.00  0.00     0.029 A 
ATOM     61  C   UNL A   1      44.817  25.041  31.128  1.00  0.00     0.049 A 
ATOM     62  H   UNL A   1      43.227  23.697  30.835  1.00  0.00     0.167 HD
ATOM     63  C   UNL A   1      44.311  26.373  33.042  1.00  0.00     0.074 A 
ATOM     64  C   UNL A   1      44.258  26.999  34.351  1.00  0.00     0.031 C 
ATOM     65  C   UNL A   1      44.726  25.153  32.581  1.00  0.00     0.034 A 
BRANCH  52  66
ATOM     66  C   UNL A   1      43.591  22.834  26.961  1.00  0.00     0.023 A 
ATOM     67  C   UNL A   1      43.002  21.551  26.894  1.00  0.00     0.031 A 
ATOM     68  C   UNL A   1      44.549  23.094  25.962  1.00  0.00     0.131 A 
ATOM     69  C   UNL A   1      43.449  20.577  25.979  1.00  0.00     0.055 A 
ATOM     70  C   UNL A   1      45.038  22.110  25.090  1.00  0.00     0.041 A 
ATOM     71  F   UNL A   1      45.013  24.326  25.728  1.00  0.00    -0.206 F 
ATOM     72  C   UNL A   1      44.500  20.835  25.108  1.00  0.00     0.022 A 
BRANCH  69  73
ATOM     73  S   UNL A   1      42.633  18.957  25.942  1.00  0.00     0.124 S 
ATOM     74  O   UNL A   1      43.494  18.196  25.045  1.00  0.00    -0.237 OA
ATOM     75  O   UNL A   1      42.657  18.569  27.348  1.00  0.00    -0.237 OA
ATOM     76  O   UNL A   1      41.304  19.259  25.411  1.00  0.00    -0.744 OA
ENDBRANCH  69  73
ENDBRANCH  52  66
BRANCH  53  77
ATOM     77  C   UNL A   1      41.559  30.304  32.835  1.00  0.00     0.023 A 
ATOM     78  C   UNL A   1      41.585  31.714  32.742  1.00  0.00     0.031 A 
ATOM     79  C   UNL A   1      40.320  29.682  33.031  1.00  0.00     0.131 A 
ATOM     80  C   UNL A   1      40.391  32.440  32.660  1.00  0.00     0.055 A 
ATOM     81  C   UNL A   1      39.129  30.423  33.030  1.00  0.00     0.041 A 
ATOM     82  F   UNL A   1      40.226  28.345  33.088  1.00  0.00    -0.206 F 
ATOM     83  C   UNL A   1      39.158  31.801  32.795  1.00  0.00     0.022 A 
BRANCH  80  84
ATOM     84  S   UNL A   1      40.465  34.166  32.083  1.00  0.00     0.124 S 
ATOM     85  O   UNL A   1      39.118  34.640  32.373  1.00  0.00    -0.237 OA
ATOM     86  O   UNL A   1      41.534  34.743  32.899  1.00  0.00    -0.237 OA
ATOM     87  O   UNL A   1      40.803  34.035  30.668  1.00  0.00    -0.744 OA
ENDBRANCH  80  84
ENDBRANCH  53  77
BRANCH  65  88
ATOM     88  C   UNL A   1      45.160  23.975  33.435  1.00  0.00     0.023 A 
ATOM     89  C   UNL A   1      46.453  23.824  33.957  1.00  0.00     0.031 A 
ATOM     90  C   UNL A   1      44.228  22.978  33.819  1.00  0.00     0.131 A 
ATOM     91  C   UNL A   1      46.800  22.702  34.735  1.00  0.00     0.055 A 
ATOM     92  C   UNL A   1      44.554  21.907  34.657  1.00  0.00     0.041 A 
ATOM     93  F   UNL A   1      42.954  23.001  33.401  1.00  0.00    -0.206 F 
ATOM     94  C   UNL A   1      45.854  21.753  35.109  1.00  0.00     0.022 A 
BRANCH  91  95
ATOM     95  S   UNL A   1      48.539  22.479  35.198  1.00  0.00     0.124 S 
ATOM     96  O   UNL A   1      48.555  22.995  36.564  1.00  0.00    -0.237 OA
ATOM     97  O   UNL A   1      48.717  21.037  35.063  1.00  0.00    -0.237 OA
ATOM     98  O   UNL A   1      49.264  23.289  34.221  1.00  0.00    -0.744 OA
ENDBRANCH  91  95
ENDBRANCH  65  88
ENDBRANCH  39  40
ENDBRANCH  31  34
ENDBRANCH  29  30
ENDBRANCH  28  29
ENDBRANCH   1  28
TORSDOF 17
ENDMDL
MODEL 2
REMARK VINA RESULT:     -12.7      2.659      3.732
REMARK SMILES Cc1c(NC(=O)c2ccc(Br)cc2N)cccc1C(=O)NCCCCNC(=O)c1ccc(-c2c3nc(c(-c4cc(S(=O)(=O)[O-])ccc4F)c4ccc([nH]4)c(-c4cc(S(=O)(=O)[O-])ccc4F)c4nc(c(-c5cc(S(=O)(=O)[O-])ccc5F)c5ccc2[nH]5)C=C4)C=C3)cc1
REMARK SMILES IDX 23 1 22 2 21 3 19 4 20 5 18 7 1 8 2 9 3 10 15 11 17 12 16 13
REMARK SMILES IDX 4 14 5 15 6 17 7 18 8 19 13 20 9 21 12 22 10 23 11 24 14 25
REMARK SMILES IDX 24 28 25 29 26 30 27 31 28 33 29 34 30 35 91 36 31 37 90 38
REMARK SMILES IDX 32 39 33 40 34 41 84 42 35 43 89 44 83 45 85 46 36 47 88 48
REMARK SMILES IDX 82 49 81 50 37 52 69 53 49 54 68 55 50 56 53 57 67 58 86 59
REMARK SMILES IDX 51 60 52 61 66 63 87 64 54 65 38 66 39 67 47 68 40 69 46 70
REMARK SMILES IDX 48 71 45 72 41 73 42 74 43 75 44 76 70 77 71 78 79 79 72 80
REMARK SMILES IDX 78 81 80 82 77 83 73 84 74 85 75 86 76 87 55 88 56 89 64 90
REMARK SMILES IDX 57 91 63 92 65 93 62 94 58 95 59 96 60 97 61 98
REMARK H PARENT 21 6 4 16 14 26 14 27 26 32 85 51 53 62
REMARK Flexibility Score: inf
ROOT
ATOM      1  C   UNL A   1      33.243  30.066  26.465  1.00  0.00     0.023 C 
ENDROOT
BRANCH   1   2
ATOM      2  C   UNL A   1      33.193  29.493  25.033  1.00  0.00     0.116 C 
BRANCH   2   3
ATOM      3  N   UNL A   1      31.883  29.716  24.446  1.00  0.00    -0.352 N 
ATOM      4  C   UNL A   1      30.834  28.926  24.062  1.00  0.00     0.251 C 
ATOM      5  O   UNL A   1      29.901  29.541  23.528  1.00  0.00    -0.269 OA
ATOM      6  H   UNL A   1      31.706  30.671  24.285  1.00  0.00     0.163 HD
BRANCH   4   7
ATOM      7  C   UNL A   1      30.662  27.439  24.247  1.00  0.00     0.044 A 
ATOM      8  C   UNL A   1      31.095  27.221  26.768  1.00  0.00     0.047 C 
ATOM      9  C   UNL A   1      30.754  26.654  25.421  1.00  0.00    -0.015 A 
ATOM     10  C   UNL A   1      30.706  25.234  25.321  1.00  0.00     0.045 A 
ATOM     11  C   UNL A   1      30.637  24.596  24.083  1.00  0.00     0.026 A 
ATOM     12  C   UNL A   1      30.559  26.750  23.013  1.00  0.00     0.014 A 
ATOM     13  C   UNL A   1      30.562  25.357  22.926  1.00  0.00     0.003 A 
BRANCH  10  14
ATOM     14  N   UNL A   1      30.733  24.481  26.510  1.00  0.00    -0.322 N 
ATOM     15  C   UNL A   1      31.513  23.414  26.885  1.00  0.00     0.257 C 
ATOM     16  H   UNL A   1      30.080  24.768  27.189  1.00  0.00     0.170 HD
ATOM     17  O   UNL A   1      31.184  22.735  27.859  1.00  0.00    -0.269 OA
BRANCH  15  18
ATOM     18  C   UNL A   1      32.793  23.080  26.202  1.00  0.00     0.063 A 
ATOM     19  C   UNL A   1      33.719  24.137  26.134  1.00  0.00     0.017 A 
ATOM     20  C   UNL A   1      33.079  21.854  25.560  1.00  0.00     0.045 A 
ATOM     21  C   UNL A   1      34.935  23.983  25.471  1.00  0.00     0.016 A 
ATOM     22  C   UNL A   1      34.320  21.713  24.918  1.00  0.00     0.042 A 
ATOM     23  C   UNL A   1      35.235  22.764  24.878  1.00  0.00     0.020 A 
ATOM     24  Br  UNL A   1      36.873  22.546  23.960  1.00  0.00    -0.051 Br
BRANCH  20  25
ATOM     25  N   UNL A   1      32.147  20.841  25.362  1.00  0.00    -0.398 N 
ATOM     26  H   UNL A   1      32.341  19.927  25.672  1.00  0.00     0.156 HD
ATOM     27  H   UNL A   1      31.294  21.038  24.912  1.00  0.00     0.156 HD
ENDBRANCH  20  25
ENDBRANCH  15  18
ENDBRANCH  10  14
ENDBRANCH   4   7
ENDBRANCH   2   3
ENDBRANCH   1   2
BRANCH   1  28
ATOM     28  C   UNL A   1      34.463  29.664  27.286  1.00  0.00     0.023 C 
BRANCH  28  29
ATOM     29  C   UNL A   1      35.109  30.850  27.975  1.00  0.00     0.116 C 
BRANCH  29  30
ATOM     30  N   UNL A   1      34.223  31.982  28.226  1.00  0.00    -0.352 N 
ATOM     31  C   UNL A   1      34.391  33.002  29.150  1.00  0.00     0.251 C 
ATOM     32  H   UNL A   1      33.408  32.027  27.674  1.00  0.00     0.163 HD
ATOM     33  O   UNL A   1      33.516  33.839  29.358  1.00  0.00    -0.269 OA
BRANCH  31  34
ATOM     34  C   UNL A   1      35.714  33.136  29.804  1.00  0.00     0.039 A 
ATOM     35  C   UNL A   1      36.742  33.717  29.054  1.00  0.00     0.014 A 
ATOM     36  C   UNL A   1      35.999  32.410  30.955  1.00  0.00     0.014 A 
ATOM     37  C   UNL A   1      38.058  33.341  29.307  1.00  0.00     0.010 A 
ATOM     38  C   UNL A   1      37.283  31.930  31.117  1.00  0.00     0.010 A 
ATOM     39  C   UNL A   1      38.303  32.343  30.250  1.00  0.00    -0.014 A 
BRANCH  39  40
ATOM     40  C   UNL A   1      39.539  31.562  30.271  1.00  0.00     0.031 A 
ATOM     41  C   UNL A   1      39.603  30.222  29.652  1.00  0.00     0.074 A 
ATOM     42  C   UNL A   1      40.661  32.091  30.809  1.00  0.00     0.049 A 
ATOM     43  N   UNL A   1      40.454  29.306  29.976  1.00  0.00    -0.248 NA
ATOM     44  C   UNL A   1      38.659  29.783  28.634  1.00  0.00     0.031 C 
ATOM     45  C   UNL A   1      42.026  31.586  30.692  1.00  0.00     0.029 A 
ATOM     46  N   UNL A   1      40.743  33.075  31.790  1.00  0.00    -0.354 N 
ATOM     47  C   UNL A   1      40.386  28.313  29.026  1.00  0.00     0.074 A 
ATOM     48  C   UNL A   1      39.194  28.616  28.271  1.00  0.00     0.031 C 
ATOM     49  C   UNL A   1      42.753  32.055  31.716  1.00  0.00     0.029 A 
ATOM     50  C   UNL A   1      41.852  32.774  32.599  1.00  0.00     0.049 A 
ATOM     51  H   UNL A   1      40.135  33.842  31.898  1.00  0.00     0.167 HD
ATOM     52  C   UNL A   1      41.428  27.440  28.896  1.00  0.00     0.034 A 
ATOM     53  C   UNL A   1      41.705  32.544  33.935  1.00  0.00     0.034 A 
ATOM     54  C   UNL A   1      42.424  27.631  29.956  1.00  0.00     0.049 A 
ATOM     55  C   UNL A   1      42.111  31.150  34.359  1.00  0.00     0.074 A 
ATOM     56  C   UNL A   1      43.677  28.223  29.983  1.00  0.00     0.029 A 
ATOM     57  N   UNL A   1      42.068  27.416  31.286  1.00  0.00    -0.354 N 
ATOM     58  N   UNL A   1      42.344  30.171  33.527  1.00  0.00    -0.248 NA
ATOM     59  C   UNL A   1      42.267  30.739  35.751  1.00  0.00     0.031 C 
ATOM     60  C   UNL A   1      44.040  28.426  31.342  1.00  0.00     0.029 A 
ATOM     61  C   UNL A   1      43.024  27.930  32.140  1.00  0.00     0.049 A 
ATOM     62  H   UNL A   1      41.246  26.960  31.576  1.00  0.00     0.167 HD
ATOM     63  C   UNL A   1      42.636  29.026  34.224  1.00  0.00     0.074 A 
ATOM     64  C   UNL A   1      42.607  29.444  35.614  1.00  0.00     0.031 C 
ATOM     65  C   UNL A   1      42.860  27.834  33.589  1.00  0.00     0.034 A 
BRANCH  52  66
ATOM     66  C   UNL A   1      41.708  26.643  27.630  1.00  0.00     0.023 A 
ATOM     67  C   UNL A   1      41.635  25.232  27.674  1.00  0.00     0.031 A 
ATOM     68  C   UNL A   1      42.117  27.171  26.391  1.00  0.00     0.131 A 
ATOM     69  C   UNL A   1      42.071  24.433  26.598  1.00  0.00     0.055 A 
ATOM     70  C   UNL A   1      42.608  26.381  25.341  1.00  0.00     0.041 A 
ATOM     71  F   UNL A   1      42.000  28.472  26.101  1.00  0.00    -0.206 F 
ATOM     72  C   UNL A   1      42.604  25.001  25.448  1.00  0.00     0.022 A 
BRANCH  69  73
ATOM     73  S   UNL A   1      41.931  22.628  26.722  1.00  0.00     0.124 S 
ATOM     74  O   UNL A   1      42.268  22.197  25.370  1.00  0.00    -0.237 OA
ATOM     75  O   UNL A   1      42.904  22.316  27.763  1.00  0.00    -0.237 OA
ATOM     76  O   UNL A   1      40.534  22.422  27.105  1.00  0.00    -0.744 OA
ENDBRANCH  69  73
ENDBRANCH  52  66
BRANCH  53  77
ATOM     77  C   UNL A   1      40.635  33.380  34.550  1.00  0.00     0.023 A 
ATOM     78  C   UNL A   1      39.606  32.687  35.227  1.00  0.00     0.031 A 
ATOM     79  C   UNL A   1      40.814  34.737  34.843  1.00  0.00     0.131 A 
ATOM     80  C   UNL A   1      38.922  33.293  36.287  1.00  0.00     0.055 A 
ATOM     81  C   UNL A   1      40.070  35.365  35.851  1.00  0.00     0.041 A 
ATOM     82  F   UNL A   1      41.799  35.439  34.262  1.00  0.00    -0.206 F 
ATOM     83  C   UNL A   1      39.153  34.631  36.611  1.00  0.00     0.022 A 
BRANCH  80  84
ATOM     84  S   UNL A   1      37.955  32.237  37.412  1.00  0.00     0.124 S 
ATOM     85  O   UNL A   1      36.645  32.876  37.376  1.00  0.00    -0.237 OA
ATOM     86  O   UNL A   1      38.039  30.918  36.783  1.00  0.00    -0.237 OA
ATOM     87  O   UNL A   1      38.678  32.340  38.676  1.00  0.00    -0.744 OA
ENDBRANCH  80  84
ENDBRANCH  53  77
BRANCH  65  88
ATOM     88  C   UNL A   1      43.023  26.481  34.257  1.00  0.00     0.023 A 
ATOM     89  C   UNL A   1      44.229  25.765  34.286  1.00  0.00     0.031 A 
ATOM     90  C   UNL A   1      41.948  25.892  34.971  1.00  0.00     0.131 A 
ATOM     91  C   UNL A   1      44.317  24.508  34.914  1.00  0.00     0.055 A 
ATOM     92  C   UNL A   1      42.060  24.680  35.660  1.00  0.00     0.041 A 
ATOM     93  F   UNL A   1      40.740  26.470  35.035  1.00  0.00    -0.206 F 
ATOM     94  C   UNL A   1      43.247  23.970  35.622  1.00  0.00     0.022 A 
BRANCH  91  95
ATOM     95  S   UNL A   1      45.850  23.558  34.729  1.00  0.00     0.124 S 
ATOM     96  O   UNL A   1      45.416  22.446  33.887  1.00  0.00    -0.237 OA
ATOM     97  O   UNL A   1      46.742  24.522  34.094  1.00  0.00    -0.237 OA
ATOM     98  O   UNL A   1      46.201  23.196  36.101  1.00  0.00    -0.744 OA
ENDBRANCH  91  95
ENDBRANCH  65  88
ENDBRANCH  39  40
ENDBRANCH  31  34
ENDBRANCH  29  30
ENDBRANCH  28  29
ENDBRANCH   1  28
TORSDOF 17
ENDMDL
MODEL 3
REMARK VINA RESULT:     -12.6      1.942      2.270
REMARK SMILES Cc1c(NC(=O)c2ccc(Br)cc2N)cccc1C(=O)NCCCCNC(=O)c1ccc(-c2c3nc(c(-c4cc(S(=O)(=O)[O-])ccc4F)c4ccc([nH]4)c(-c4cc(S(=O)(=O)[O-])ccc4F)c4nc(c(-c5cc(S(=O)(=O)[O-])ccc5F)c5ccc2[nH]5)C=C4)C=C3)cc1
REMARK SMILES IDX 23 1 22 2 21 3 19 4 20 5 18 7 1 8 2 9 3 10 15 11 17 12 16 13
REMARK SMILES IDX 4 14 5 15 6 17 7 18 8 19 13 20 9 21 12 22 10 23 11 24 14 25
REMARK SMILES IDX 24 28 25 29 26 30 27 31 28 33 29 34 30 35 91 36 31 37 90 38
REMARK SMILES IDX 32 39 33 40 34 41 84 42 35 43 89 44 83 45 85 46 36 47 88 48
REMARK SMILES IDX 82 49 81 50 37 52 69 53 49 54 68 55 50 56 53 57 67 58 86 59
REMARK SMILES IDX 51 60 52 61 66 63 87 64 54 65 38 66 39 67 47 68 40 69 46 70
REMARK SMILES IDX 48 71 45 72 41 73 42 74 43 75 44 76 70 77 71 78 79 79 72 80
REMARK SMILES IDX 78 81 80 82 77 83 73 84 74 85 75 86 76 87 55 88 56 89 64 90
REMARK SMILES IDX 57 91 63 92 65 93 62 94 58 95 59 96 60 97 61 98
REMARK H PARENT 21 6 4 16 14 26 14 27 26 32 85 51 53 62
REMARK Flexibility Score: inf
ROOT
ATOM      1  C   UNL A   1      31.742  29.668  25.995  1.00  0.00     0.023 C 
ENDROOT
BRANCH   1   2
ATOM      2  C   UNL A   1      32.389  29.394  24.622  1.00  0.00     0.116 C 
BRANCH   2   3
ATOM      3  N   UNL A   1      31.375  29.374  23.581  1.00  0.00    -0.352 N 
ATOM      4  C   UNL A   1      30.810  28.418  22.782  1.00  0.00     0.251 C 
ATOM      5  O   UNL A   1      29.998  28.859  21.956  1.00  0.00    -0.269 OA
ATOM      6  H   UNL A   1      31.002  30.269  23.410  1.00  0.00     0.163 HD
BRANCH   4   7
ATOM      7  C   UNL A   1      31.017  26.925  22.815  1.00  0.00     0.044 A 
ATOM      8  C   UNL A   1      29.959  26.348  25.081  1.00  0.00     0.047 C 
ATOM      9  C   UNL A   1      30.645  25.978  23.799  1.00  0.00    -0.015 A 
ATOM     10  C   UNL A   1      31.091  24.631  23.681  1.00  0.00     0.045 A 
ATOM     11  C   UNL A   1      31.943  24.237  22.650  1.00  0.00     0.026 A 
ATOM     12  C   UNL A   1      31.856  26.473  21.765  1.00  0.00     0.014 A 
ATOM     13  C   UNL A   1      32.326  25.161  21.689  1.00  0.00     0.003 A 
BRANCH  10  14
ATOM     14  N   UNL A   1      30.651  23.697  24.638  1.00  0.00    -0.322 N 
ATOM     15  C   UNL A   1      31.329  22.711  25.314  1.00  0.00     0.257 C 
ATOM     16  H   UNL A   1      29.695  23.761  24.861  1.00  0.00     0.170 HD
ATOM     17  O   UNL A   1      30.694  21.832  25.900  1.00  0.00    -0.269 OA
BRANCH  15  18
ATOM     18  C   UNL A   1      32.813  22.695  25.430  1.00  0.00     0.063 A 
ATOM     19  C   UNL A   1      33.384  23.911  25.847  1.00  0.00     0.017 A 
ATOM     20  C   UNL A   1      33.648  21.614  25.068  1.00  0.00     0.045 A 
ATOM     21  C   UNL A   1      34.767  24.057  25.942  1.00  0.00     0.016 A 
ATOM     22  C   UNL A   1      35.037  21.775  25.194  1.00  0.00     0.042 A 
ATOM     23  C   UNL A   1      35.587  22.981  25.628  1.00  0.00     0.020 A 
ATOM     24  Br  UNL A   1      37.465  23.170  25.736  1.00  0.00    -0.051 Br
BRANCH  20  25
ATOM     25  N   UNL A   1      33.202  20.466  24.423  1.00  0.00    -0.398 N 
ATOM     26  H   UNL A   1      33.816  19.956  23.846  1.00  0.00     0.156 HD
ATOM     27  H   UNL A   1      32.274  20.163  24.543  1.00  0.00     0.156 HD
ENDBRANCH  20  25
ENDBRANCH  15  18
ENDBRANCH  10  14
ENDBRANCH   4   7
ENDBRANCH   2   3
ENDBRANCH   1   2
BRANCH   1  28
ATOM     28  C   UNL A   1      32.379  30.792  26.804  1.00  0.00     0.023 C 
BRANCH  28  29
ATOM     29  C   UNL A   1      33.533  30.304  27.658  1.00  0.00     0.116 C 
BRANCH  29  30
ATOM     30  N   UNL A   1      34.269  31.348  28.365  1.00  0.00    -0.352 N 
ATOM     31  C   UNL A   1      35.451  31.218  29.076  1.00  0.00     0.251 C 
ATOM     32  H   UNL A   1      33.879  32.252  28.333  1.00  0.00     0.163 HD
ATOM     33  O   UNL A   1      35.917  32.145  29.735  1.00  0.00    -0.269 OA
BRANCH  31  34
ATOM     34  C   UNL A   1      36.218  29.958  28.928  1.00  0.00     0.039 A 
ATOM     35  C   UNL A   1      36.712  29.369  30.097  1.00  0.00     0.014 A 
ATOM     36  C   UNL A   1      36.711  29.587  27.682  1.00  0.00     0.014 A 
ATOM     37  C   UNL A   1      37.880  28.615  30.031  1.00  0.00     0.010 A 
ATOM     38  C   UNL A   1      37.940  28.959  27.633  1.00  0.00     0.010 A 
ATOM     39  C   UNL A   1      38.559  28.531  28.815  1.00  0.00    -0.014 A 
BRANCH  39  40
ATOM     40  C   UNL A   1      39.975  28.179  28.723  1.00  0.00     0.031 A 
ATOM     41  C   UNL A   1      40.399  26.796  28.426  1.00  0.00     0.074 A 
ATOM     42  C   UNL A   1      40.918  29.142  28.851  1.00  0.00     0.049 A 
ATOM     43  N   UNL A   1      41.549  26.299  28.742  1.00  0.00    -0.248 NA
ATOM     44  C   UNL A   1      39.521  25.828  27.783  1.00  0.00     0.031 C 
ATOM     45  C   UNL A   1      42.339  29.040  28.535  1.00  0.00     0.029 A 
ATOM     46  N   UNL A   1      40.804  30.348  29.536  1.00  0.00    -0.354 N 
ATOM     47  C   UNL A   1      41.683  25.098  28.084  1.00  0.00     0.074 A 
ATOM     48  C   UNL A   1      40.362  24.813  27.579  1.00  0.00     0.031 C 
ATOM     49  C   UNL A   1      43.006  29.975  29.228  1.00  0.00     0.029 A 
ATOM     50  C   UNL A   1      42.056  30.627  30.110  1.00  0.00     0.049 A 
ATOM     51  H   UNL A   1      39.994  30.904  29.607  1.00  0.00     0.167 HD
ATOM     52  C   UNL A   1      42.929  24.564  27.915  1.00  0.00     0.034 A 
ATOM     53  C   UNL A   1      42.195  30.761  31.460  1.00  0.00     0.034 A 
ATOM     54  C   UNL A   1      43.946  25.332  28.642  1.00  0.00     0.049 A 
ATOM     55  C   UNL A   1      43.108  29.729  32.081  1.00  0.00     0.074 A 
ATOM     56  C   UNL A   1      44.912  26.242  28.241  1.00  0.00     0.029 A 
ATOM     57  N   UNL A   1      43.884  25.418  30.031  1.00  0.00    -0.354 N 
ATOM     58  N   UNL A   1      43.535  28.661  31.462  1.00  0.00    -0.248 NA
ATOM     59  C   UNL A   1      43.599  29.802  33.455  1.00  0.00     0.031 C 
ATOM     60  C   UNL A   1      45.381  26.925  29.395  1.00  0.00     0.029 A 
ATOM     61  C   UNL A   1      44.724  26.411  30.499  1.00  0.00     0.049 A 
ATOM     62  H   UNL A   1      43.319  24.849  30.601  1.00  0.00     0.167 HD
ATOM     63  C   UNL A   1      44.298  27.902  32.312  1.00  0.00     0.074 A 
ATOM     64  C   UNL A   1      44.335  28.679  33.539  1.00  0.00     0.031 C 
ATOM     65  C   UNL A   1      44.818  26.695  31.929  1.00  0.00     0.034 A 
BRANCH  52  66
ATOM     66  C   UNL A   1      43.273  23.550  26.833  1.00  0.00     0.023 A 
ATOM     67  C   UNL A   1      42.802  22.223  26.958  1.00  0.00     0.031 A 
ATOM     68  C   UNL A   1      44.098  23.778  25.715  1.00  0.00     0.131 A 
ATOM     69  C   UNL A   1      43.245  21.196  26.100  1.00  0.00     0.055 A 
ATOM     70  C   UNL A   1      44.588  22.749  24.898  1.00  0.00     0.041 A 
ATOM     71  F   UNL A   1      44.420  25.012  25.311  1.00  0.00    -0.206 F 
ATOM     72  C   UNL A   1      44.176  21.444  25.099  1.00  0.00     0.022 A 
BRANCH  69  73
ATOM     73  S   UNL A   1      42.584  19.519  26.312  1.00  0.00     0.124 S 
ATOM     74  O   UNL A   1      41.423  19.529  25.430  1.00  0.00    -0.237 OA
ATOM     75  O   UNL A   1      43.710  18.691  25.894  1.00  0.00    -0.237 OA
ATOM     76  O   UNL A   1      42.272  19.457  27.741  1.00  0.00    -0.744 OA
ENDBRANCH  69  73
ENDBRANCH  52  66
BRANCH  53  77
ATOM     77  C   UNL A   1      41.007  31.394  32.102  1.00  0.00     0.023 A 
ATOM     78  C   UNL A   1      40.471  30.729  33.228  1.00  0.00     0.031 A 
ATOM     79  C   UNL A   1      40.685  32.745  31.924  1.00  0.00     0.131 A 
ATOM     80  C   UNL A   1      39.801  31.448  34.223  1.00  0.00     0.055 A 
ATOM     81  C   UNL A   1      39.943  33.446  32.885  1.00  0.00     0.041 A 
ATOM     82  F   UNL A   1      41.195  33.441  30.897  1.00  0.00    -0.206 F 
ATOM     83  C   UNL A   1      39.539  32.810  34.063  1.00  0.00     0.022 A 
BRANCH  80  84
ATOM     84  S   UNL A   1      39.542  30.654  35.842  1.00  0.00     0.124 S 
ATOM     85  O   UNL A   1      40.336  29.438  35.712  1.00  0.00    -0.237 OA
ATOM     86  O   UNL A   1      40.051  31.651  36.785  1.00  0.00    -0.237 OA
ATOM     87  O   UNL A   1      38.096  30.466  35.899  1.00  0.00    -0.744 OA
ENDBRANCH  80  84
ENDBRANCH  53  77
BRANCH  65  88
ATOM     88  C   UNL A   1      45.529  25.701  32.829  1.00  0.00     0.023 A 
ATOM     89  C   UNL A   1      44.873  24.687  33.542  1.00  0.00     0.031 A 
ATOM     90  C   UNL A   1      46.943  25.705  32.938  1.00  0.00     0.131 A 
ATOM     91  C   UNL A   1      45.586  23.799  34.372  1.00  0.00     0.055 A 
ATOM     92  C   UNL A   1      47.655  24.773  33.700  1.00  0.00     0.041 A 
ATOM     93  F   UNL A   1      47.699  26.613  32.304  1.00  0.00    -0.206 F 
ATOM     94  C   UNL A   1      46.975  23.820  34.438  1.00  0.00     0.022 A 
BRANCH  91  95
ATOM     95  S   UNL A   1      44.646  22.652  35.415  1.00  0.00     0.124 S 
ATOM     96  O   UNL A   1      44.626  21.445  34.593  1.00  0.00    -0.237 OA
ATOM     97  O   UNL A   1      45.464  22.583  36.621  1.00  0.00    -0.237 OA
ATOM     98  O   UNL A   1      43.352  23.313  35.578  1.00  0.00    -0.744 OA
ENDBRANCH  91  95
ENDBRANCH  65  88
ENDBRANCH  39  40
ENDBRANCH  31  34
ENDBRANCH  29  30
ENDBRANCH  28  29
ENDBRANCH   1  28
TORSDOF 17
ENDMDL
