MODEL 1
REMARK VINA RESULT:     -12.7      0.000      0.000
REMARK SMILES CC(=O)N/C(=C/c1c[nH]c(-c2ccccc2)n1)C(=O)NCCCCNC(=O)c1ccc(-c2c3nc(c(-c4cc(S(=O)(=O)[O-])ccc4F)c4ccc([nH]4)c(-c4cc(S(=O)(=O)[O-])ccc4F)c4nc(c(-c5cc(S(=O)(=O)[O-])ccc5F)c5ccc2[nH]5)C=C4)C=C3)cc1
REMARK SMILES IDX 23 1 22 2 21 3 20 4 18 5 19 6 5 8 6 9 4 10 1 11 2 12 3 13
REMARK SMILES IDX 7 15 8 16 17 17 9 18 10 19 11 21 12 22 16 23 13 24 15 25
REMARK SMILES IDX 14 26 24 27 25 28 26 29 27 31 28 32 29 33 90 34 30 35 89 36
REMARK SMILES IDX 31 37 32 38 33 39 83 40 34 41 88 42 82 43 84 44 35 45 87 46
REMARK SMILES IDX 81 47 80 48 36 50 68 51 48 52 67 53 49 54 52 55 66 56 85 57
REMARK SMILES IDX 50 58 51 59 65 61 86 62 53 63 37 64 38 65 46 66 39 67 45 68
REMARK SMILES IDX 47 69 44 70 40 71 41 72 42 73 43 74 69 75 70 76 78 77 71 78
REMARK SMILES IDX 77 79 79 80 76 81 72 82 73 83 74 84 75 85 54 86 55 87 63 88
REMARK SMILES IDX 56 89 62 90 64 91 61 92 57 93 58 94 59 95 60 96
REMARK H PARENT 20 7 4 14 9 20 25 30 84 49 52 60
REMARK Flexibility Score: inf
ROOT
ATOM      1  C   UNL A   1      36.519  21.860  24.035  1.00  0.00     0.023 C 
ENDROOT
BRANCH   1   2
ATOM      2  C   UNL A   1      36.429  23.363  23.759  1.00  0.00     0.023 C 
BRANCH   2   3
ATOM      3  C   UNL A   1      35.039  23.956  23.562  1.00  0.00     0.116 C 
BRANCH   3   4
ATOM      4  N   UNL A   1      34.577  24.856  24.599  1.00  0.00    -0.351 N 
ATOM      5  C   UNL A   1      33.287  25.156  24.965  1.00  0.00     0.267 C 
ATOM      6  O   UNL A   1      33.098  25.715  26.045  1.00  0.00    -0.268 OA
ATOM      7  H   UNL A   1      35.282  25.314  25.112  1.00  0.00     0.163 HD
BRANCH   5   8
ATOM      8  C   UNL A   1      32.132  24.936  24.019  1.00  0.00     0.109 C 
ATOM      9  C   UNL A   1      31.587  23.717  23.814  1.00  0.00     0.062 C 
BRANCH   8  10
ATOM     10  N   UNL A   1      31.525  26.001  23.361  1.00  0.00    -0.322 N 
ATOM     11  C   UNL A   1      32.356  25.916  20.989  1.00  0.00     0.114 C 
ATOM     12  C   UNL A   1      31.546  26.508  22.100  1.00  0.00     0.221 C 
ATOM     13  O   UNL A   1      30.852  27.511  21.891  1.00  0.00    -0.275 OA
ATOM     14  H   UNL A   1      30.932  26.515  23.957  1.00  0.00     0.170 HD
ENDBRANCH   8  10
BRANCH   9  15
ATOM     15  C   UNL A   1      31.948  22.467  24.370  1.00  0.00     0.084 A 
ATOM     16  C   UNL A   1      31.669  22.047  25.647  1.00  0.00     0.112 A 
ATOM     17  N   UNL A   1      32.584  21.497  23.656  1.00  0.00    -0.229 NA
ATOM     18  N   UNL A   1      32.108  20.752  25.683  1.00  0.00    -0.344 N 
ATOM     19  C   UNL A   1      32.653  20.447  24.455  1.00  0.00     0.138 A 
ATOM     20  H   UNL A   1      32.044  20.144  26.454  1.00  0.00     0.168 HD
BRANCH  19  21
ATOM     21  C   UNL A   1      33.188  19.131  24.119  1.00  0.00     0.017 A 
ATOM     22  C   UNL A   1      32.558  18.307  23.176  1.00  0.00     0.012 A 
ATOM     23  C   UNL A   1      34.370  18.684  24.720  1.00  0.00     0.012 A 
ATOM     24  C   UNL A   1      33.106  17.069  22.831  1.00  0.00     0.001 A 
ATOM     25  C   UNL A   1      34.909  17.438  24.390  1.00  0.00     0.001 A 
ATOM     26  C   UNL A   1      34.280  16.635  23.439  1.00  0.00     0.000 A 
ENDBRANCH  19  21
ENDBRANCH   9  15
ENDBRANCH   5   8
ENDBRANCH   3   4
ENDBRANCH   2   3
ENDBRANCH   1   2
BRANCH   1  27
ATOM     27  C   UNL A   1      37.013  21.407  25.410  1.00  0.00     0.116 C 
BRANCH  27  28
ATOM     28  N   UNL A   1      38.260  20.660  25.405  1.00  0.00    -0.352 N 
ATOM     29  C   UNL A   1      39.464  20.935  26.031  1.00  0.00     0.251 C 
ATOM     30  H   UNL A   1      38.247  19.832  24.874  1.00  0.00     0.163 HD
ATOM     31  O   UNL A   1      40.375  20.125  25.934  1.00  0.00    -0.269 OA
BRANCH  29  32
ATOM     32  C   UNL A   1      39.685  22.217  26.760  1.00  0.00     0.039 A 
ATOM     33  C   UNL A   1      40.748  22.274  27.671  1.00  0.00     0.014 A 
ATOM     34  C   UNL A   1      38.924  23.364  26.524  1.00  0.00     0.014 A 
ATOM     35  C   UNL A   1      41.158  23.505  28.193  1.00  0.00     0.010 A 
ATOM     36  C   UNL A   1      39.368  24.603  26.994  1.00  0.00     0.010 A 
ATOM     37  C   UNL A   1      40.532  24.688  27.771  1.00  0.00    -0.014 A 
BRANCH  37  38
ATOM     38  C   UNL A   1      41.221  25.999  27.924  1.00  0.00     0.031 A 
ATOM     39  C   UNL A   1      42.625  26.222  27.455  1.00  0.00     0.074 A 
ATOM     40  C   UNL A   1      40.571  26.965  28.609  1.00  0.00     0.049 A 
ATOM     41  N   UNL A   1      43.364  27.298  27.560  1.00  0.00    -0.248 NA
ATOM     42  C   UNL A   1      43.293  25.091  26.800  1.00  0.00     0.031 C 
ATOM     43  C   UNL A   1      39.224  26.831  29.174  1.00  0.00     0.029 A 
ATOM     44  N   UNL A   1      40.950  28.235  28.964  1.00  0.00    -0.354 N 
ATOM     45  C   UNL A   1      44.586  26.982  26.976  1.00  0.00     0.074 A 
ATOM     46  C   UNL A   1      44.498  25.595  26.564  1.00  0.00     0.031 C 
ATOM     47  C   UNL A   1      38.887  27.973  29.791  1.00  0.00     0.029 A 
ATOM     48  C   UNL A   1      40.004  28.905  29.707  1.00  0.00     0.049 A 
ATOM     49  H   UNL A   1      41.816  28.629  28.713  1.00  0.00     0.167 HD
ATOM     50  C   UNL A   1      45.667  27.782  26.792  1.00  0.00     0.034 A 
ATOM     51  C   UNL A   1      40.032  30.125  30.274  1.00  0.00     0.034 A 
ATOM     52  C   UNL A   1      45.737  29.157  27.236  1.00  0.00     0.049 A 
ATOM     53  C   UNL A   1      41.258  30.976  30.093  1.00  0.00     0.074 A 
ATOM     54  C   UNL A   1      46.750  30.080  27.034  1.00  0.00     0.029 A 
ATOM     55  N   UNL A   1      44.769  29.799  28.000  1.00  0.00    -0.354 N 
ATOM     56  N   UNL A   1      42.368  30.692  29.453  1.00  0.00    -0.248 NA
ATOM     57  C   UNL A   1      41.233  32.311  30.703  1.00  0.00     0.031 C 
ATOM     58  C   UNL A   1      46.428  31.250  27.732  1.00  0.00     0.029 A 
ATOM     59  C   UNL A   1      45.182  31.087  28.314  1.00  0.00     0.049 A 
ATOM     60  H   UNL A   1      43.913  29.399  28.277  1.00  0.00     0.167 HD
ATOM     61  C   UNL A   1      43.171  31.822  29.572  1.00  0.00     0.074 A 
ATOM     62  C   UNL A   1      42.406  32.797  30.324  1.00  0.00     0.031 C 
ATOM     63  C   UNL A   1      44.425  32.035  29.099  1.00  0.00     0.034 A 
BRANCH  50  64
ATOM     64  C   UNL A   1      46.868  27.181  26.102  1.00  0.00     0.023 A 
ATOM     65  C   UNL A   1      47.866  26.501  26.822  1.00  0.00     0.031 A 
ATOM     66  C   UNL A   1      47.023  27.290  24.708  1.00  0.00     0.131 A 
ATOM     67  C   UNL A   1      49.005  26.018  26.159  1.00  0.00     0.055 A 
ATOM     68  C   UNL A   1      48.123  26.743  24.044  1.00  0.00     0.041 A 
ATOM     69  F   UNL A   1      46.111  27.940  23.968  1.00  0.00    -0.206 F 
ATOM     70  C   UNL A   1      49.130  26.115  24.772  1.00  0.00     0.022 A 
BRANCH  67  71
ATOM     71  S   UNL A   1      50.379  25.373  27.153  1.00  0.00     0.124 S 
ATOM     72  O   UNL A   1      49.712  24.344  27.947  1.00  0.00    -0.237 OA
ATOM     73  O   UNL A   1      51.306  24.893  26.136  1.00  0.00    -0.237 OA
ATOM     74  O   UNL A   1      50.830  26.538  27.910  1.00  0.00    -0.744 OA
ENDBRANCH  67  71
ENDBRANCH  50  64
BRANCH  51  75
ATOM     75  C   UNL A   1      38.874  30.606  31.077  1.00  0.00     0.023 A 
ATOM     76  C   UNL A   1      37.778  31.231  30.463  1.00  0.00     0.031 A 
ATOM     77  C   UNL A   1      38.851  30.454  32.475  1.00  0.00     0.131 A 
ATOM     78  C   UNL A   1      36.720  31.714  31.247  1.00  0.00     0.055 A 
ATOM     79  C   UNL A   1      37.775  30.895  33.247  1.00  0.00     0.041 A 
ATOM     80  F   UNL A   1      39.869  29.851  33.109  1.00  0.00    -0.206 F 
ATOM     81  C   UNL A   1      36.705  31.540  32.634  1.00  0.00     0.022 A 
BRANCH  78  82
ATOM     82  S   UNL A   1      35.385  32.633  30.433  1.00  0.00     0.124 S 
ATOM     83  O   UNL A   1      34.329  32.576  31.436  1.00  0.00    -0.237 OA
ATOM     84  O   UNL A   1      36.002  33.938  30.224  1.00  0.00    -0.237 OA
ATOM     85  O   UNL A   1      35.135  31.862  29.217  1.00  0.00    -0.744 OA
ENDBRANCH  78  82
ENDBRANCH  51  75
BRANCH  63  86
ATOM     86  C   UNL A   1      45.030  33.385  29.385  1.00  0.00     0.023 A 
ATOM     87  C   UNL A   1      44.886  34.458  28.488  1.00  0.00     0.031 A 
ATOM     88  C   UNL A   1      45.788  33.593  30.551  1.00  0.00     0.131 A 
ATOM     89  C   UNL A   1      45.536  35.674  28.743  1.00  0.00     0.055 A 
ATOM     90  C   UNL A   1      46.385  34.824  30.827  1.00  0.00     0.041 A 
ATOM     91  F   UNL A   1      45.962  32.601  31.438  1.00  0.00    -0.206 F 
ATOM     92  C   UNL A   1      46.272  35.869  29.914  1.00  0.00     0.022 A 
BRANCH  89  93
ATOM     93  S   UNL A   1      45.479  36.974  27.479  1.00  0.00     0.124 S 
ATOM     94  O   UNL A   1      46.258  36.379  26.398  1.00  0.00    -0.237 OA
ATOM     95  O   UNL A   1      44.047  37.110  27.233  1.00  0.00    -0.237 OA
ATOM     96  O   UNL A   1      46.104  38.120  28.136  1.00  0.00    -0.744 OA
ENDBRANCH  89  93
ENDBRANCH  63  86
ENDBRANCH  37  38
ENDBRANCH  29  32
ENDBRANCH  27  28
ENDBRANCH   1  27
TORSDOF 17
ENDMDL
MODEL 2
REMARK VINA RESULT:     -12.7      1.826      2.180
REMARK SMILES CC(=O)N/C(=C/c1c[nH]c(-c2ccccc2)n1)C(=O)NCCCCNC(=O)c1ccc(-c2c3nc(c(-c4cc(S(=O)(=O)[O-])ccc4F)c4ccc([nH]4)c(-c4cc(S(=O)(=O)[O-])ccc4F)c4nc(c(-c5cc(S(=O)(=O)[O-])ccc5F)c5ccc2[nH]5)C=C4)C=C3)cc1
REMARK SMILES IDX 23 1 22 2 21 3 20 4 18 5 19 6 5 8 6 9 4 10 1 11 2 12 3 13
REMARK SMILES IDX 7 15 8 16 17 17 9 18 10 19 11 21 12 22 16 23 13 24 15 25
REMARK SMILES IDX 14 26 24 27 25 28 26 29 27 31 28 32 29 33 90 34 30 35 89 36
REMARK SMILES IDX 31 37 32 38 33 39 83 40 34 41 88 42 82 43 84 44 35 45 87 46
REMARK SMILES IDX 81 47 80 48 36 50 68 51 48 52 67 53 49 54 52 55 66 56 85 57
REMARK SMILES IDX 50 58 51 59 65 61 86 62 53 63 37 64 38 65 46 66 39 67 45 68
REMARK SMILES IDX 47 69 44 70 40 71 41 72 42 73 43 74 69 75 70 76 78 77 71 78
REMARK SMILES IDX 77 79 79 80 76 81 72 82 73 83 74 84 75 85 54 86 55 87 63 88
REMARK SMILES IDX 56 89 62 90 64 91 61 92 57 93 58 94 59 95 60 96
REMARK H PARENT 20 7 4 14 9 20 25 30 84 49 52 60
REMARK Flexibility Score: inf
ROOT
ATOM      1  C   UNL A   1      36.756  22.214  24.197  1.00  0.00     0.023 C 
ENDROOT
BRANCH   1   2
ATOM      2  C   UNL A   1      35.444  23.004  24.166  1.00  0.00     0.023 C 
BRANCH   2   3
ATOM      3  C   UNL A   1      35.206  24.009  25.286  1.00  0.00     0.116 C 
BRANCH   3   4
ATOM      4  N   UNL A   1      34.792  23.457  26.560  1.00  0.00    -0.351 N 
ATOM      5  C   UNL A   1      33.532  23.094  26.971  1.00  0.00     0.267 C 
ATOM      6  O   UNL A   1      33.422  22.385  27.971  1.00  0.00    -0.268 OA
ATOM      7  H   UNL A   1      35.510  23.323  27.221  1.00  0.00     0.163 HD
BRANCH   5   8
ATOM      8  C   UNL A   1      32.298  23.654  26.306  1.00  0.00     0.109 C 
ATOM      9  C   UNL A   1      31.679  23.024  25.283  1.00  0.00     0.062 C 
BRANCH   8  10
ATOM     10  N   UNL A   1      31.695  24.820  26.766  1.00  0.00    -0.322 N 
ATOM     11  C   UNL A   1      32.694  26.695  25.419  1.00  0.00     0.114 C 
ATOM     12  C   UNL A   1      31.784  26.145  26.473  1.00  0.00     0.221 C 
ATOM     13  O   UNL A   1      31.066  26.909  27.130  1.00  0.00    -0.275 OA
ATOM     14  H   UNL A   1      31.042  24.642  27.481  1.00  0.00     0.170 HD
ENDBRANCH   8  10
BRANCH   9  15
ATOM     15  C   UNL A   1      32.019  21.811  24.637  1.00  0.00     0.084 A 
ATOM     16  C   UNL A   1      32.178  21.642  23.284  1.00  0.00     0.112 A 
ATOM     17  N   UNL A   1      32.285  20.662  25.317  1.00  0.00    -0.229 NA
ATOM     18  N   UNL A   1      32.610  20.350  23.152  1.00  0.00    -0.344 N 
ATOM     19  C   UNL A   1      32.670  19.784  24.406  1.00  0.00     0.138 A 
ATOM     20  H   UNL A   1      32.838  19.903  22.305  1.00  0.00     0.168 HD
BRANCH  19  21
ATOM     21  C   UNL A   1      33.130  18.420  24.652  1.00  0.00     0.017 A 
ATOM     22  C   UNL A   1      34.324  17.942  24.094  1.00  0.00     0.012 A 
ATOM     23  C   UNL A   1      32.389  17.573  25.483  1.00  0.00     0.012 A 
ATOM     24  C   UNL A   1      34.774  16.650  24.373  1.00  0.00     0.001 A 
ATOM     25  C   UNL A   1      32.829  16.274  25.748  1.00  0.00     0.001 A 
ATOM     26  C   UNL A   1      34.025  15.817  25.199  1.00  0.00     0.000 A 
ENDBRANCH  19  21
ENDBRANCH   9  15
ENDBRANCH   5   8
ENDBRANCH   3   4
ENDBRANCH   2   3
ENDBRANCH   1   2
BRANCH   1  27
ATOM     27  C   UNL A   1      37.199  21.601  25.526  1.00  0.00     0.116 C 
BRANCH  27  28
ATOM     28  N   UNL A   1      38.516  20.987  25.517  1.00  0.00    -0.352 N 
ATOM     29  C   UNL A   1      39.692  21.395  26.122  1.00  0.00     0.251 C 
ATOM     30  H   UNL A   1      38.581  20.151  25.001  1.00  0.00     0.163 HD
ATOM     31  O   UNL A   1      40.680  20.681  26.026  1.00  0.00    -0.269 OA
BRANCH  29  32
ATOM     32  C   UNL A   1      39.789  22.707  26.825  1.00  0.00     0.039 A 
ATOM     33  C   UNL A   1      40.761  22.839  27.825  1.00  0.00     0.014 A 
ATOM     34  C   UNL A   1      39.003  23.809  26.483  1.00  0.00     0.014 A 
ATOM     35  C   UNL A   1      41.066  24.103  28.342  1.00  0.00     0.010 A 
ATOM     36  C   UNL A   1      39.348  25.081  26.950  1.00  0.00     0.010 A 
ATOM     37  C   UNL A   1      40.430  25.243  27.825  1.00  0.00    -0.014 A 
BRANCH  37  38
ATOM     38  C   UNL A   1      41.044  26.588  27.997  1.00  0.00     0.031 A 
ATOM     39  C   UNL A   1      42.464  26.873  27.614  1.00  0.00     0.074 A 
ATOM     40  C   UNL A   1      40.307  27.532  28.621  1.00  0.00     0.049 A 
ATOM     41  N   UNL A   1      43.142  27.985  27.744  1.00  0.00    -0.248 NA
ATOM     42  C   UNL A   1      43.226  25.765  27.025  1.00  0.00     0.031 C 
ATOM     43  C   UNL A   1      38.934  27.341  29.102  1.00  0.00     0.029 A 
ATOM     44  N   UNL A   1      40.600  28.824  28.974  1.00  0.00    -0.354 N 
ATOM     45  C   UNL A   1      44.412  27.720  27.246  1.00  0.00     0.074 A 
ATOM     46  C   UNL A   1      44.418  26.323  26.856  1.00  0.00     0.031 C 
ATOM     47  C   UNL A   1      38.504  28.475  29.674  1.00  0.00     0.029 A 
ATOM     48  C   UNL A   1      39.577  29.459  29.643  1.00  0.00     0.049 A 
ATOM     49  H   UNL A   1      41.461  29.257  28.771  1.00  0.00     0.167 HD
ATOM     50  C   UNL A   1      45.463  28.569  27.116  1.00  0.00     0.034 A 
ATOM     51  C   UNL A   1      39.510  30.689  30.187  1.00  0.00     0.034 A 
ATOM     52  C   UNL A   1      45.439  29.952  27.537  1.00  0.00     0.049 A 
ATOM     53  C   UNL A   1      40.704  31.595  30.068  1.00  0.00     0.074 A 
ATOM     54  C   UNL A   1      46.418  30.921  27.382  1.00  0.00     0.029 A 
ATOM     55  N   UNL A   1      44.394  30.559  28.225  1.00  0.00    -0.354 N 
ATOM     56  N   UNL A   1      41.865  31.356  29.505  1.00  0.00    -0.248 NA
ATOM     57  C   UNL A   1      40.575  32.937  30.649  1.00  0.00     0.031 C 
ATOM     58  C   UNL A   1      45.995  32.085  28.034  1.00  0.00     0.029 A 
ATOM     59  C   UNL A   1      44.724  31.870  28.540  1.00  0.00     0.049 A 
ATOM     60  H   UNL A   1      43.542  30.121  28.455  1.00  0.00     0.167 HD
ATOM     61  C   UNL A   1      42.603  32.526  29.653  1.00  0.00     0.074 A 
ATOM     62  C   UNL A   1      41.745  33.473  30.337  1.00  0.00     0.031 C 
ATOM     63  C   UNL A   1      43.873  32.792  29.257  1.00  0.00     0.034 A 
BRANCH  50  64
ATOM     64  C   UNL A   1      46.735  28.017  26.514  1.00  0.00     0.023 A 
ATOM     65  C   UNL A   1      46.999  28.112  25.137  1.00  0.00     0.031 A 
ATOM     66  C   UNL A   1      47.694  27.382  27.325  1.00  0.00     0.131 A 
ATOM     67  C   UNL A   1      48.155  27.524  24.601  1.00  0.00     0.055 A 
ATOM     68  C   UNL A   1      48.877  26.864  26.796  1.00  0.00     0.041 A 
ATOM     69  F   UNL A   1      47.491  27.248  28.646  1.00  0.00    -0.206 F 
ATOM     70  C   UNL A   1      49.107  26.920  25.424  1.00  0.00     0.022 A 
BRANCH  67  71
ATOM     71  S   UNL A   1      48.334  27.451  22.797  1.00  0.00     0.124 S 
ATOM     72  O   UNL A   1      49.626  28.105  22.601  1.00  0.00    -0.237 OA
ATOM     73  O   UNL A   1      48.298  26.017  22.535  1.00  0.00    -0.237 OA
ATOM     74  O   UNL A   1      47.182  28.205  22.308  1.00  0.00    -0.744 OA
ENDBRANCH  67  71
ENDBRANCH  50  64
BRANCH  51  75
ATOM     75  C   UNL A   1      38.282  31.124  30.906  1.00  0.00     0.023 A 
ATOM     76  C   UNL A   1      37.247  31.789  30.230  1.00  0.00     0.031 A 
ATOM     77  C   UNL A   1      38.128  30.890  32.284  1.00  0.00     0.131 A 
ATOM     78  C   UNL A   1      36.119  32.228  30.940  1.00  0.00     0.055 A 
ATOM     79  C   UNL A   1      36.984  31.288  32.977  1.00  0.00     0.041 A 
ATOM     80  F   UNL A   1      39.084  30.245  32.973  1.00  0.00    -0.206 F 
ATOM     81  C   UNL A   1      35.975  31.972  32.306  1.00  0.00     0.022 A 
BRANCH  78  82
ATOM     82  S   UNL A   1      34.865  33.199  30.061  1.00  0.00     0.124 S 
ATOM     83  O   UNL A   1      34.029  33.671  31.159  1.00  0.00    -0.237 OA
ATOM     84  O   UNL A   1      35.678  34.209  29.394  1.00  0.00    -0.237 OA
ATOM     85  O   UNL A   1      34.238  32.222  29.174  1.00  0.00    -0.744 OA
ENDBRANCH  78  82
ENDBRANCH  51  75
BRANCH  63  86
ATOM     86  C   UNL A   1      44.394  34.175  29.555  1.00  0.00     0.023 A 
ATOM     87  C   UNL A   1      44.177  35.246  28.670  1.00  0.00     0.031 A 
ATOM     88  C   UNL A   1      45.143  34.418  30.719  1.00  0.00     0.131 A 
ATOM     89  C   UNL A   1      44.750  36.498  28.935  1.00  0.00     0.055 A 
ATOM     90  C   UNL A   1      45.663  35.681  31.006  1.00  0.00     0.041 A 
ATOM     91  F   UNL A   1      45.384  33.430  31.595  1.00  0.00    -0.206 F 
ATOM     92  C   UNL A   1      45.478  36.727  30.105  1.00  0.00     0.022 A 
BRANCH  89  93
ATOM     93  S   UNL A   1      44.604  37.805  27.686  1.00  0.00     0.124 S 
ATOM     94  O   UNL A   1      44.465  39.000  28.513  1.00  0.00    -0.237 OA
ATOM     95  O   UNL A   1      45.859  37.680  26.952  1.00  0.00    -0.237 OA
ATOM     96  O   UNL A   1      43.408  37.430  26.934  1.00  0.00    -0.744 OA
ENDBRANCH  89  93
ENDBRANCH  63  86
ENDBRANCH  37  38
ENDBRANCH  29  32
ENDBRANCH  27  28
ENDBRANCH   1  27
TORSDOF 17
ENDMDL
MODEL 3
REMARK VINA RESULT:     -12.7      5.063      7.907
REMARK SMILES CC(=O)N/C(=C/c1c[nH]c(-c2ccccc2)n1)C(=O)NCCCCNC(=O)c1ccc(-c2c3nc(c(-c4cc(S(=O)(=O)[O-])ccc4F)c4ccc([nH]4)c(-c4cc(S(=O)(=O)[O-])ccc4F)c4nc(c(-c5cc(S(=O)(=O)[O-])ccc5F)c5ccc2[nH]5)C=C4)C=C3)cc1
REMARK SMILES IDX 23 1 22 2 21 3 20 4 18 5 19 6 5 8 6 9 4 10 1 11 2 12 3 13
REMARK SMILES IDX 7 15 8 16 17 17 9 18 10 19 11 21 12 22 16 23 13 24 15 25
REMARK SMILES IDX 14 26 24 27 25 28 26 29 27 31 28 32 29 33 90 34 30 35 89 36
REMARK SMILES IDX 31 37 32 38 33 39 83 40 34 41 88 42 82 43 84 44 35 45 87 46
REMARK SMILES IDX 81 47 80 48 36 50 68 51 48 52 67 53 49 54 52 55 66 56 85 57
REMARK SMILES IDX 50 58 51 59 65 61 86 62 53 63 37 64 38 65 46 66 39 67 45 68
REMARK SMILES IDX 47 69 44 70 40 71 41 72 42 73 43 74 69 75 70 76 78 77 71 78
REMARK SMILES IDX 77 79 79 80 76 81 72 82 73 83 74 84 75 85 54 86 55 87 63 88
REMARK SMILES IDX 56 89 62 90 64 91 61 92 57 93 58 94 59 95 60 96
REMARK H PARENT 20 7 4 14 9 20 25 30 84 49 52 60
REMARK Flexibility Score: inf
ROOT
ATOM      1  C   UNL A   1      31.550  31.788  26.831  1.00  0.00     0.023 C 
ENDROOT
BRANCH   1   2
ATOM      2  C   UNL A   1      32.305  30.456  26.860  1.00  0.00     0.023 C 
BRANCH   2   3
ATOM      3  C   UNL A   1      32.086  29.503  25.692  1.00  0.00     0.116 C 
BRANCH   3   4
ATOM      4  N   UNL A   1      33.229  29.275  24.832  1.00  0.00    -0.351 N 
ATOM      5  C   UNL A   1      33.251  28.872  23.519  1.00  0.00     0.267 C 
ATOM      6  O   UNL A   1      34.295  29.009  22.880  1.00  0.00    -0.268 OA
ATOM      7  H   UNL A   1      34.110  29.428  25.245  1.00  0.00     0.163 HD
BRANCH   5   8
ATOM      8  C   UNL A   1      32.078  28.154  22.898  1.00  0.00     0.109 C 
ATOM      9  C   UNL A   1      31.792  26.863  23.174  1.00  0.00     0.062 C 
BRANCH   8  10
ATOM     10  N   UNL A   1      31.187  28.816  22.059  1.00  0.00    -0.322 N 
ATOM     11  C   UNL A   1      29.580  30.026  23.570  1.00  0.00     0.114 C 
ATOM     12  C   UNL A   1      30.105  29.622  22.227  1.00  0.00     0.221 C 
ATOM     13  O   UNL A   1      29.547  30.025  21.199  1.00  0.00    -0.275 OA
ATOM     14  H   UNL A   1      31.392  28.664  21.108  1.00  0.00     0.170 HD
ENDBRANCH   8  10
BRANCH   9  15
ATOM     15  C   UNL A   1      32.473  25.952  24.017  1.00  0.00     0.084 A 
ATOM     16  C   UNL A   1      32.140  25.661  25.317  1.00  0.00     0.112 A 
ATOM     17  N   UNL A   1      33.532  25.207  23.596  1.00  0.00    -0.229 NA
ATOM     18  N   UNL A   1      33.001  24.660  25.673  1.00  0.00    -0.344 N 
ATOM     19  C   UNL A   1      33.831  24.403  24.603  1.00  0.00     0.138 A 
ATOM     20  H   UNL A   1      33.024  24.202  26.544  1.00  0.00     0.168 HD
BRANCH  19  21
ATOM     21  C   UNL A   1      34.854  23.362  24.611  1.00  0.00     0.017 A 
ATOM     22  C   UNL A   1      35.873  23.333  23.648  1.00  0.00     0.012 A 
ATOM     23  C   UNL A   1      34.848  22.386  25.614  1.00  0.00     0.012 A 
ATOM     24  C   UNL A   1      36.871  22.358  23.695  1.00  0.00     0.001 A 
ATOM     25  C   UNL A   1      35.835  21.399  25.650  1.00  0.00     0.001 A 
ATOM     26  C   UNL A   1      36.851  21.391  24.695  1.00  0.00     0.000 A 
ENDBRANCH  19  21
ENDBRANCH   9  15
ENDBRANCH   5   8
ENDBRANCH   3   4
ENDBRANCH   2   3
ENDBRANCH   1   2
BRANCH   1  27
ATOM     27  C   UNL A   1      32.349  33.066  26.571  1.00  0.00     0.116 C 
BRANCH  27  28
ATOM     28  N   UNL A   1      32.438  33.981  27.696  1.00  0.00    -0.352 N 
ATOM     29  C   UNL A   1      33.438  34.135  28.641  1.00  0.00     0.251 C 
ATOM     30  H   UNL A   1      31.668  34.585  27.803  1.00  0.00     0.163 HD
ATOM     31  O   UNL A   1      33.326  35.021  29.476  1.00  0.00    -0.269 OA
BRANCH  29  32
ATOM     32  C   UNL A   1      34.604  33.207  28.695  1.00  0.00     0.039 A 
ATOM     33  C   UNL A   1      35.862  33.719  28.348  1.00  0.00     0.014 A 
ATOM     34  C   UNL A   1      34.501  31.885  29.134  1.00  0.00     0.014 A 
ATOM     35  C   UNL A   1      37.018  32.979  28.615  1.00  0.00     0.010 A 
ATOM     36  C   UNL A   1      35.656  31.168  29.460  1.00  0.00     0.010 A 
ATOM     37  C   UNL A   1      36.921  31.741  29.271  1.00  0.00    -0.014 A 
BRANCH  37  38
ATOM     38  C   UNL A   1      38.101  31.170  29.975  1.00  0.00     0.031 A 
ATOM     39  C   UNL A   1      38.967  30.116  29.358  1.00  0.00     0.074 A 
ATOM     40  C   UNL A   1      38.309  31.557  31.253  1.00  0.00     0.049 A 
ATOM     41  N   UNL A   1      40.002  29.499  29.869  1.00  0.00    -0.248 NA
ATOM     42  C   UNL A   1      38.618  29.685  27.998  1.00  0.00     0.031 C 
ATOM     43  C   UNL A   1      37.483  32.527  31.980  1.00  0.00     0.029 A 
ATOM     44  N   UNL A   1      39.254  31.179  32.172  1.00  0.00    -0.354 N 
ATOM     45  C   UNL A   1      40.440  28.611  28.895  1.00  0.00     0.074 A 
ATOM     46  C   UNL A   1      39.522  28.739  27.779  1.00  0.00     0.031 C 
ATOM     47  C   UNL A   1      37.964  32.675  33.222  1.00  0.00     0.029 A 
ATOM     48  C   UNL A   1      39.103  31.783  33.400  1.00  0.00     0.049 A 
ATOM     49  H   UNL A   1      39.972  30.535  31.973  1.00  0.00     0.167 HD
ATOM     50  C   UNL A   1      41.514  27.781  28.928  1.00  0.00     0.034 A 
ATOM     51  C   UNL A   1      39.789  31.629  34.548  1.00  0.00     0.034 A 
ATOM     52  C   UNL A   1      42.399  27.653  30.065  1.00  0.00     0.049 A 
ATOM     53  C   UNL A   1      40.947  30.671  34.572  1.00  0.00     0.074 A 
ATOM     54  C   UNL A   1      43.558  26.903  30.178  1.00  0.00     0.029 A 
ATOM     55  N   UNL A   1      42.207  28.267  31.298  1.00  0.00    -0.354 N 
ATOM     56  N   UNL A   1      41.404  29.909  33.606  1.00  0.00    -0.248 NA
ATOM     57  C   UNL A   1      41.684  30.558  35.836  1.00  0.00     0.031 C 
ATOM     58  C   UNL A   1      44.025  27.007  31.493  1.00  0.00     0.029 A 
ATOM     59  C   UNL A   1      43.199  27.876  32.187  1.00  0.00     0.049 A 
ATOM     60  H   UNL A   1      41.475  28.889  31.509  1.00  0.00     0.167 HD
ATOM     61  C   UNL A   1      42.495  29.235  34.143  1.00  0.00     0.074 A 
ATOM     62  C   UNL A   1      42.638  29.698  35.509  1.00  0.00     0.031 C 
ATOM     63  C   UNL A   1      43.307  28.317  33.559  1.00  0.00     0.034 A 
BRANCH  50  64
ATOM     64  C   UNL A   1      41.774  26.929  27.708  1.00  0.00     0.023 A 
ATOM     65  C   UNL A   1      41.496  25.551  27.700  1.00  0.00     0.031 A 
ATOM     66  C   UNL A   1      42.309  27.498  26.538  1.00  0.00     0.131 A 
ATOM     67  C   UNL A   1      41.818  24.776  26.574  1.00  0.00     0.055 A 
ATOM     68  C   UNL A   1      42.559  26.735  25.395  1.00  0.00     0.041 A 
ATOM     69  F   UNL A   1      42.608  28.807  26.489  1.00  0.00    -0.206 F 
ATOM     70  C   UNL A   1      42.326  25.363  25.414  1.00  0.00     0.022 A 
BRANCH  67  71
ATOM     71  S   UNL A   1      41.678  22.972  26.696  1.00  0.00     0.124 S 
ATOM     72  O   UNL A   1      42.694  22.662  27.699  1.00  0.00    -0.237 OA
ATOM     73  O   UNL A   1      40.293  22.791  27.113  1.00  0.00    -0.237 OA
ATOM     74  O   UNL A   1      41.988  22.512  25.344  1.00  0.00    -0.744 OA
ENDBRANCH  67  71
ENDBRANCH  50  64
BRANCH  51  75
ATOM     75  C   UNL A   1      39.388  32.383  35.767  1.00  0.00     0.023 A 
ATOM     76  C   UNL A   1      38.567  31.797  36.743  1.00  0.00     0.031 A 
ATOM     77  C   UNL A   1      39.814  33.708  35.970  1.00  0.00     0.131 A 
ATOM     78  C   UNL A   1      38.168  32.545  37.861  1.00  0.00     0.055 A 
ATOM     79  C   UNL A   1      39.452  34.433  37.107  1.00  0.00     0.041 A 
ATOM     80  F   UNL A   1      40.612  34.310  35.073  1.00  0.00    -0.206 F 
ATOM     81  C   UNL A   1      38.615  33.855  38.056  1.00  0.00     0.022 A 
BRANCH  78  82
ATOM     82  S   UNL A   1      37.001  31.800  39.032  1.00  0.00     0.124 S 
ATOM     83  O   UNL A   1      36.923  30.428  38.544  1.00  0.00    -0.237 OA
ATOM     84  O   UNL A   1      37.687  31.991  40.304  1.00  0.00    -0.237 OA
ATOM     85  O   UNL A   1      35.788  32.596  38.855  1.00  0.00    -0.744 OA
ENDBRANCH  78  82
ENDBRANCH  51  75
BRANCH  63  86
ATOM     86  C   UNL A   1      44.424  27.769  34.410  1.00  0.00     0.023 A 
ATOM     87  C   UNL A   1      44.258  26.599  35.172  1.00  0.00     0.031 A 
ATOM     88  C   UNL A   1      45.655  28.443  34.488  1.00  0.00     0.131 A 
ATOM     89  C   UNL A   1      45.287  26.167  36.021  1.00  0.00     0.055 A 
ATOM     90  C   UNL A   1      46.697  27.976  35.291  1.00  0.00     0.041 A 
ATOM     91  F   UNL A   1      45.864  29.568  33.786  1.00  0.00    -0.206 F 
ATOM     92  C   UNL A   1      46.511  26.839  36.073  1.00  0.00     0.022 A 
BRANCH  89  93
ATOM     93  S   UNL A   1      44.975  24.761  37.123  1.00  0.00     0.124 S 
ATOM     94  O   UNL A   1      43.787  25.202  37.847  1.00  0.00    -0.237 OA
ATOM     95  O   UNL A   1      44.777  23.663  36.182  1.00  0.00    -0.237 OA
ATOM     96  O   UNL A   1      46.194  24.675  37.925  1.00  0.00    -0.744 OA
ENDBRANCH  89  93
ENDBRANCH  63  86
ENDBRANCH  37  38
ENDBRANCH  29  32
ENDBRANCH  27  28
ENDBRANCH   1  27
TORSDOF 17
ENDMDL
