MODEL 1
REMARK VINA RESULT:     -11.3      0.000      0.000
REMARK SMILES O=C(NCCCCNC(=O)[C@H](CO)NC(=O)[C@H](Cc1c[nH]c2ccccc12)NC(=O)c1ccc(F)cc1)c1ccc(-c2c3nc(c(-c4cc(S(=O)(=O)[O-])ccc4F)c4ccc([nH]4)c(-c4cc(S(=O)(=O)[O-])ccc4F)c4nc(c(-c5cc(S(=O)(=O)[O-])ccc5F)c5ccc2[nH]5)C=C4)C=C3)cc1
REMARK SMILES IDX 6 1 5 2 4 3 3 4 1 5 2 6 38 8 39 9 100 10 40 11 99 12 41 13
REMARK SMILES IDX 42 14 43 15 93 16 44 17 98 18 92 19 94 20 45 21 97 22 91 23
REMARK SMILES IDX 90 24 46 26 78 27 58 28 77 29 59 30 62 31 76 32 95 33 60 34
REMARK SMILES IDX 61 35 75 37 96 38 63 39 47 40 48 41 56 42 49 43 55 44 57 45
REMARK SMILES IDX 54 46 50 47 51 48 52 49 53 50 79 51 80 52 88 53 81 54 87 55
REMARK SMILES IDX 89 56 86 57 82 58 83 59 84 60 85 61 64 62 65 63 73 64 66 65
REMARK SMILES IDX 72 66 74 67 71 68 67 69 68 70 69 71 70 72 7 73 8 74 9 75
REMARK SMILES IDX 10 77 11 78 14 79 15 80 16 82 17 83 28 84 29 85 30 87 31 88
REMARK SMILES IDX 32 89 37 90 33 91 36 92 34 93 35 94 18 95 19 96 20 97 27 98
REMARK SMILES IDX 21 99 22 100 26 101 23 103 25 104 24 105 12 106 13 107
REMARK H PARENT 3 7 94 25 62 36 8 76 14 81 28 86 21 102 13 108
REMARK Flexibility Score: inf
ROOT
ATOM      1  C   UNL A   1      39.816  20.424  25.768  1.00  0.00     0.023 C 
ENDROOT
BRANCH   1   2
ATOM      2  C   UNL A   1      40.791  19.251  26.010  1.00  0.00     0.023 C 
BRANCH   2   3
ATOM      3  C   UNL A   1      42.246  19.633  26.287  1.00  0.00     0.116 C 
BRANCH   3   4
ATOM      4  N   UNL A   1      43.161  19.178  25.247  1.00  0.00    -0.352 N 
ATOM      5  O   UNL A   1      44.718  19.405  23.618  1.00  0.00    -0.269 OA
ATOM      6  C   UNL A   1      44.124  19.901  24.572  1.00  0.00     0.251 C 
ATOM      7  H   UNL A   1      43.081  18.230  24.993  1.00  0.00     0.163 HD
BRANCH   6   8
ATOM      8  C   UNL A   1      44.412  21.287  24.992  1.00  0.00     0.039 A 
ATOM      9  C   UNL A   1      45.211  21.521  26.113  1.00  0.00     0.014 A 
ATOM     10  C   UNL A   1      43.849  22.357  24.289  1.00  0.00     0.014 A 
ATOM     11  C   UNL A   1      45.330  22.812  26.613  1.00  0.00     0.010 A 
ATOM     12  C   UNL A   1      44.037  23.664  24.750  1.00  0.00     0.010 A 
ATOM     13  C   UNL A   1      44.760  23.900  25.930  1.00  0.00    -0.014 A 
BRANCH  13  14
ATOM     14  C   UNL A   1      45.023  25.281  26.411  1.00  0.00     0.031 A 
ATOM     15  C   UNL A   1      46.354  25.950  26.211  1.00  0.00     0.074 A 
ATOM     16  C   UNL A   1      44.013  25.947  27.005  1.00  0.00     0.049 A 
ATOM     17  N   UNL A   1      46.745  27.137  26.600  1.00  0.00    -0.248 NA
ATOM     18  C   UNL A   1      47.377  25.189  25.480  1.00  0.00     0.031 C 
ATOM     19  C   UNL A   1      42.669  25.405  27.222  1.00  0.00     0.029 A 
ATOM     20  N   UNL A   1      43.943  27.221  27.501  1.00  0.00    -0.354 N 
ATOM     21  C   UNL A   1      48.061  27.268  26.173  1.00  0.00     0.074 A 
ATOM     22  C   UNL A   1      48.408  26.023  25.515  1.00  0.00     0.031 C 
ATOM     23  C   UNL A   1      41.889  26.364  27.737  1.00  0.00     0.029 A 
ATOM     24  C   UNL A   1      42.697  27.553  27.973  1.00  0.00     0.049 A 
ATOM     25  H   UNL A   1      44.710  27.838  27.517  1.00  0.00     0.167 HD
ATOM     26  C   UNL A   1      48.896  28.328  26.320  1.00  0.00     0.034 A 
ATOM     27  C   UNL A   1      42.249  28.681  28.554  1.00  0.00     0.034 A 
ATOM     28  C   UNL A   1      48.532  29.552  26.998  1.00  0.00     0.049 A 
ATOM     29  C   UNL A   1      43.210  29.809  28.776  1.00  0.00     0.074 A 
ATOM     30  C   UNL A   1      49.311  30.673  27.238  1.00  0.00     0.029 A 
ATOM     31  N   UNL A   1      47.284  29.820  27.547  1.00  0.00    -0.354 N 
ATOM     32  N   UNL A   1      44.478  29.884  28.448  1.00  0.00    -0.248 NA
ATOM     33  C   UNL A   1      42.684  30.996  29.458  1.00  0.00     0.031 C 
ATOM     34  C   UNL A   1      48.553  31.590  27.978  1.00  0.00     0.029 A 
ATOM     35  C   UNL A   1      47.276  31.076  28.137  1.00  0.00     0.049 A 
ATOM     36  H   UNL A   1      46.514  29.206  27.521  1.00  0.00     0.167 HD
ATOM     37  C   UNL A   1      44.903  31.136  28.873  1.00  0.00     0.074 A 
ATOM     38  C   UNL A   1      43.752  31.782  29.476  1.00  0.00     0.031 C 
ATOM     39  C   UNL A   1      46.132  31.700  28.762  1.00  0.00     0.034 A 
BRANCH  26  40
ATOM     40  C   UNL A   1      50.302  28.187  25.780  1.00  0.00     0.023 A 
ATOM     41  C   UNL A   1      50.634  28.574  24.470  1.00  0.00     0.031 A 
ATOM     42  C   UNL A   1      51.322  27.646  26.584  1.00  0.00     0.131 A 
ATOM     43  C   UNL A   1      51.934  28.363  23.985  1.00  0.00     0.055 A 
ATOM     44  C   UNL A   1      52.631  27.505  26.119  1.00  0.00     0.041 A 
ATOM     45  F   UNL A   1      51.061  27.240  27.836  1.00  0.00    -0.206 F 
ATOM     46  C   UNL A   1      52.941  27.853  24.807  1.00  0.00     0.022 A 
BRANCH  43  47
ATOM     47  S   UNL A   1      52.263  28.651  22.223  1.00  0.00     0.124 S 
ATOM     48  O   UNL A   1      52.190  27.294  21.684  1.00  0.00    -0.237 OA
ATOM     49  O   UNL A   1      51.179  29.548  21.841  1.00  0.00    -0.237 OA
ATOM     50  O   UNL A   1      53.598  29.246  22.215  1.00  0.00    -0.744 OA
ENDBRANCH  43  47
ENDBRANCH  26  40
BRANCH  27  51
ATOM     51  C   UNL A   1      40.827  28.761  28.970  1.00  0.00     0.023 A 
ATOM     52  C   UNL A   1      40.475  28.726  30.326  1.00  0.00     0.031 A 
ATOM     53  C   UNL A   1      39.811  28.976  28.020  1.00  0.00     0.131 A 
ATOM     54  C   UNL A   1      39.137  28.913  30.700  1.00  0.00     0.055 A 
ATOM     55  C   UNL A   1      38.487  29.195  28.399  1.00  0.00     0.041 A 
ATOM     56  F   UNL A   1      40.109  29.041  26.713  1.00  0.00    -0.206 F 
ATOM     57  C   UNL A   1      38.144  29.164  29.748  1.00  0.00     0.022 A 
BRANCH  54  58
ATOM     58  S   UNL A   1      38.708  28.856  32.461  1.00  0.00     0.124 S 
ATOM     59  O   UNL A   1      39.805  28.067  33.008  1.00  0.00    -0.237 OA
ATOM     60  O   UNL A   1      38.692  30.271  32.820  1.00  0.00    -0.237 OA
ATOM     61  O   UNL A   1      37.401  28.201  32.471  1.00  0.00    -0.744 OA
ENDBRANCH  54  58
ENDBRANCH  27  51
BRANCH  39  62
ATOM     62  C   UNL A   1      46.279  33.107  29.278  1.00  0.00     0.023 A 
ATOM     63  C   UNL A   1      46.044  34.224  28.458  1.00  0.00     0.031 A 
ATOM     64  C   UNL A   1      46.678  33.329  30.607  1.00  0.00     0.131 A 
ATOM     65  C   UNL A   1      46.258  35.515  28.963  1.00  0.00     0.055 A 
ATOM     66  C   UNL A   1      46.837  34.617  31.119  1.00  0.00     0.041 A 
ATOM     67  F   UNL A   1      46.919  32.295  31.429  1.00  0.00    -0.206 F 
ATOM     68  C   UNL A   1      46.637  35.719  30.293  1.00  0.00     0.022 A 
BRANCH  65  69
ATOM     69  S   UNL A   1      46.102  36.930  27.838  1.00  0.00     0.124 S 
ATOM     70  O   UNL A   1      47.456  37.475  27.851  1.00  0.00    -0.237 OA
ATOM     71  O   UNL A   1      45.682  36.295  26.593  1.00  0.00    -0.237 OA
ATOM     72  O   UNL A   1      45.090  37.767  28.478  1.00  0.00    -0.744 OA
ENDBRANCH  65  69
ENDBRANCH  39  62
ENDBRANCH  13  14
ENDBRANCH   6   8
ENDBRANCH   3   4
ENDBRANCH   2   3
ENDBRANCH   1   2
BRANCH   1  73
ATOM     73  C   UNL A   1      40.028  21.592  26.733  1.00  0.00     0.116 C 
BRANCH  73  74
ATOM     74  N   UNL A   1      39.358  22.844  26.397  1.00  0.00    -0.354 N 
ATOM     75  C   UNL A   1      38.114  23.263  26.067  1.00  0.00     0.244 C 
ATOM     76  H   UNL A   1      39.991  23.598  26.414  1.00  0.00     0.163 HD
ATOM     77  O   UNL A   1      37.938  24.487  26.209  1.00  0.00    -0.273 OA
BRANCH  75  78
ATOM     78  C   UNL A   1      36.961  22.432  25.444  1.00  0.00     0.197 C 
BRANCH  78  79
ATOM     79  N   UNL A   1      35.908  22.468  26.506  1.00  0.00    -0.340 N 
ATOM     80  C   UNL A   1      34.687  22.004  26.826  1.00  0.00     0.243 C 
ATOM     81  H   UNL A   1      36.227  23.042  27.240  1.00  0.00     0.164 HD
ATOM     82  O   UNL A   1      34.282  22.415  27.931  1.00  0.00    -0.273 OA
BRANCH  80  83
ATOM     83  C   UNL A   1      33.716  21.100  26.025  1.00  0.00     0.176 C 
BRANCH  83  84
ATOM     84  N   UNL A   1      32.294  21.403  26.212  1.00  0.00    -0.340 N 
ATOM     85  C   UNL A   1      31.602  22.507  25.760  1.00  0.00     0.251 C 
ATOM     86  H   UNL A   1      31.771  20.739  26.720  1.00  0.00     0.164 HD
ATOM     87  O   UNL A   1      30.480  22.764  26.188  1.00  0.00    -0.269 OA
BRANCH  85  88
ATOM     88  C   UNL A   1      32.218  23.433  24.777  1.00  0.00     0.040 A 
ATOM     89  C   UNL A   1      32.039  23.250  23.398  1.00  0.00     0.017 A 
ATOM     90  C   UNL A   1      32.959  24.527  25.248  1.00  0.00     0.017 A 
ATOM     91  C   UNL A   1      32.656  24.121  22.495  1.00  0.00     0.040 A 
ATOM     92  C   UNL A   1      33.567  25.400  24.340  1.00  0.00     0.040 A 
ATOM     93  C   UNL A   1      33.418  25.182  22.974  1.00  0.00     0.123 A 
ATOM     94  F   UNL A   1      34.013  26.012  22.105  1.00  0.00    -0.207 F 
ENDBRANCH  85  88
ENDBRANCH  83  84
BRANCH  83  95
ATOM     95  C   UNL A   1      34.085  20.679  24.593  1.00  0.00     0.072 C 
BRANCH  95  96
ATOM     96  C   UNL A   1      33.547  19.360  24.183  1.00  0.00    -0.020 A 
ATOM     97  C   UNL A   1      32.379  19.169  23.476  1.00  0.00     0.087 A 
ATOM     98  C   UNL A   1      34.085  18.065  24.467  1.00  0.00     0.003 A 
ATOM     99  N   UNL A   1      32.129  17.828  23.461  1.00  0.00    -0.361 N 
ATOM    100  C   UNL A   1      33.069  17.155  24.194  1.00  0.00     0.046 A 
ATOM    101  C   UNL A   1      35.289  17.571  25.004  1.00  0.00     0.010 A 
ATOM    102  H   UNL A   1      31.376  17.404  22.989  1.00  0.00     0.166 HD
ATOM    103  C   UNL A   1      33.102  15.823  24.610  1.00  0.00     0.026 A 
ATOM    104  C   UNL A   1      35.386  16.209  25.321  1.00  0.00     0.001 A 
ATOM    105  C   UNL A   1      34.288  15.363  25.181  1.00  0.00     0.002 A 
ENDBRANCH  95  96
ENDBRANCH  83  95
ENDBRANCH  80  83
ENDBRANCH  78  79
BRANCH  78 106
ATOM    106  C   UNL A   1      36.494  23.217  24.204  1.00  0.00     0.191 C 
BRANCH 106 107
ATOM    107  O   UNL A   1      37.027  22.665  23.001  1.00  0.00    -0.394 OA
ATOM    108  H   UNL A   1      36.601  23.085  22.236  1.00  0.00     0.210 HD
ENDBRANCH 106 107
ENDBRANCH  78 106
ENDBRANCH  75  78
ENDBRANCH  73  74
ENDBRANCH   1  73
TORSDOF 22
ENDMDL
MODEL 2
REMARK VINA RESULT:     -11.2      1.452      2.151
REMARK SMILES O=C(NCCCCNC(=O)[C@H](CO)NC(=O)[C@H](Cc1c[nH]c2ccccc12)NC(=O)c1ccc(F)cc1)c1ccc(-c2c3nc(c(-c4cc(S(=O)(=O)[O-])ccc4F)c4ccc([nH]4)c(-c4cc(S(=O)(=O)[O-])ccc4F)c4nc(c(-c5cc(S(=O)(=O)[O-])ccc5F)c5ccc2[nH]5)C=C4)C=C3)cc1
REMARK SMILES IDX 6 1 5 2 4 3 3 4 1 5 2 6 38 8 39 9 100 10 40 11 99 12 41 13
REMARK SMILES IDX 42 14 43 15 93 16 44 17 98 18 92 19 94 20 45 21 97 22 91 23
REMARK SMILES IDX 90 24 46 26 78 27 58 28 77 29 59 30 62 31 76 32 95 33 60 34
REMARK SMILES IDX 61 35 75 37 96 38 63 39 47 40 48 41 56 42 49 43 55 44 57 45
REMARK SMILES IDX 54 46 50 47 51 48 52 49 53 50 79 51 80 52 88 53 81 54 87 55
REMARK SMILES IDX 89 56 86 57 82 58 83 59 84 60 85 61 64 62 65 63 73 64 66 65
REMARK SMILES IDX 72 66 74 67 71 68 67 69 68 70 69 71 70 72 7 73 8 74 9 75
REMARK SMILES IDX 10 77 11 78 14 79 15 80 16 82 17 83 28 84 29 85 30 87 31 88
REMARK SMILES IDX 32 89 37 90 33 91 36 92 34 93 35 94 18 95 19 96 20 97 27 98
REMARK SMILES IDX 21 99 22 100 26 101 23 103 25 104 24 105 12 106 13 107
REMARK H PARENT 3 7 94 25 62 36 8 76 14 81 28 86 21 102 13 108
REMARK Flexibility Score: inf
ROOT
ATOM      1  C   UNL A   1      39.696  19.315  25.514  1.00  0.00     0.023 C 
ENDROOT
BRANCH   1   2
ATOM      2  C   UNL A   1      40.591  20.132  26.472  1.00  0.00     0.023 C 
BRANCH   2   3
ATOM      3  C   UNL A   1      41.889  19.456  26.918  1.00  0.00     0.116 C 
BRANCH   3   4
ATOM      4  N   UNL A   1      42.775  19.137  25.804  1.00  0.00    -0.352 N 
ATOM      5  O   UNL A   1      44.201  19.584  24.102  1.00  0.00    -0.269 OA
ATOM      6  C   UNL A   1      43.624  19.978  25.113  1.00  0.00     0.251 C 
ATOM      7  H   UNL A   1      42.766  18.198  25.507  1.00  0.00     0.163 HD
BRANCH   6   8
ATOM      8  C   UNL A   1      43.810  21.364  25.586  1.00  0.00     0.039 A 
ATOM      9  C   UNL A   1      43.403  22.432  24.783  1.00  0.00     0.014 A 
ATOM     10  C   UNL A   1      44.429  21.601  26.818  1.00  0.00     0.014 A 
ATOM     11  C   UNL A   1      43.744  23.730  25.145  1.00  0.00     0.010 A 
ATOM     12  C   UNL A   1      44.699  22.914  27.216  1.00  0.00     0.010 A 
ATOM     13  C   UNL A   1      44.380  23.989  26.372  1.00  0.00    -0.014 A 
BRANCH  13  14
ATOM     14  C   UNL A   1      44.603  25.395  26.794  1.00  0.00     0.031 A 
ATOM     15  C   UNL A   1      45.927  26.079  26.601  1.00  0.00     0.074 A 
ATOM     16  C   UNL A   1      43.564  26.069  27.325  1.00  0.00     0.049 A 
ATOM     17  N   UNL A   1      46.285  27.291  26.945  1.00  0.00    -0.248 NA
ATOM     18  C   UNL A   1      46.985  25.305  25.938  1.00  0.00     0.031 C 
ATOM     19  C   UNL A   1      42.224  25.512  27.529  1.00  0.00     0.029 A 
ATOM     20  N   UNL A   1      43.456  27.363  27.758  1.00  0.00    -0.354 N 
ATOM     21  C   UNL A   1      47.612  27.427  26.550  1.00  0.00     0.074 A 
ATOM     22  C   UNL A   1      48.000  26.159  25.963  1.00  0.00     0.031 C 
ATOM     23  C   UNL A   1      41.412  26.479  27.974  1.00  0.00     0.029 A 
ATOM     24  C   UNL A   1      42.191  27.693  28.177  1.00  0.00     0.049 A 
ATOM     25  H   UNL A   1      44.212  27.995  27.767  1.00  0.00     0.167 HD
ATOM     26  C   UNL A   1      48.423  28.509  26.671  1.00  0.00     0.034 A 
ATOM     27  C   UNL A   1      41.706  28.838  28.691  1.00  0.00     0.034 A 
ATOM     28  C   UNL A   1      48.016  29.756  27.279  1.00  0.00     0.049 A 
ATOM     29  C   UNL A   1      42.639  29.994  28.886  1.00  0.00     0.074 A 
ATOM     30  C   UNL A   1      48.768  30.902  27.488  1.00  0.00     0.029 A 
ATOM     31  N   UNL A   1      46.747  30.026  27.778  1.00  0.00    -0.354 N 
ATOM     32  N   UNL A   1      43.915  30.078  28.592  1.00  0.00    -0.248 NA
ATOM     33  C   UNL A   1      42.072  31.202  29.495  1.00  0.00     0.031 C 
ATOM     34  C   UNL A   1      47.971  31.838  28.161  1.00  0.00     0.029 A 
ATOM     35  C   UNL A   1      46.699  31.308  28.307  1.00  0.00     0.049 A 
ATOM     36  H   UNL A   1      45.990  29.396  27.759  1.00  0.00     0.167 HD
ATOM     37  C   UNL A   1      44.304  31.356  28.969  1.00  0.00     0.074 A 
ATOM     38  C   UNL A   1      43.124  32.008  29.507  1.00  0.00     0.031 C 
ATOM     39  C   UNL A   1      45.526  31.938  28.868  1.00  0.00     0.034 A 
BRANCH  26  40
ATOM     40  C   UNL A   1      49.846  28.369  26.180  1.00  0.00     0.023 A 
ATOM     41  C   UNL A   1      50.188  28.579  24.832  1.00  0.00     0.031 A 
ATOM     42  C   UNL A   1      50.874  28.011  27.070  1.00  0.00     0.131 A 
ATOM     43  C   UNL A   1      51.509  28.372  24.404  1.00  0.00     0.055 A 
ATOM     44  C   UNL A   1      52.200  27.878  26.652  1.00  0.00     0.041 A 
ATOM     45  F   UNL A   1      50.606  27.779  28.365  1.00  0.00    -0.206 F 
ATOM     46  C   UNL A   1      52.522  28.046  25.308  1.00  0.00     0.022 A 
BRANCH  43  47
ATOM     47  S   UNL A   1      51.863  28.416  22.624  1.00  0.00     0.124 S 
ATOM     48  O   UNL A   1      51.220  29.668  22.227  1.00  0.00    -0.237 OA
ATOM     49  O   UNL A   1      53.321  28.409  22.591  1.00  0.00    -0.237 OA
ATOM     50  O   UNL A   1      51.220  27.206  22.115  1.00  0.00    -0.744 OA
ENDBRANCH  43  47
ENDBRANCH  26  40
BRANCH  27  51
ATOM     51  C   UNL A   1      40.271  28.911  29.060  1.00  0.00     0.023 A 
ATOM     52  C   UNL A   1      39.871  28.807  30.400  1.00  0.00     0.031 A 
ATOM     53  C   UNL A   1      39.291  29.187  28.089  1.00  0.00     0.131 A 
ATOM     54  C   UNL A   1      38.521  28.987  30.736  1.00  0.00     0.055 A 
ATOM     55  C   UNL A   1      37.956  29.398  28.432  1.00  0.00     0.041 A 
ATOM     56  F   UNL A   1      39.636  29.318  26.798  1.00  0.00    -0.206 F 
ATOM     57  C   UNL A   1      37.565  29.298  29.765  1.00  0.00     0.022 A 
BRANCH  54  58
ATOM     58  S   UNL A   1      38.030  28.840  32.476  1.00  0.00     0.124 S 
ATOM     59  O   UNL A   1      39.006  29.700  33.133  1.00  0.00    -0.237 OA
ATOM     60  O   UNL A   1      36.655  29.330  32.449  1.00  0.00    -0.237 OA
ATOM     61  O   UNL A   1      38.171  27.411  32.747  1.00  0.00    -0.744 OA
ENDBRANCH  54  58
ENDBRANCH  27  51
BRANCH  39  62
ATOM     62  C   UNL A   1      45.633  33.371  29.320  1.00  0.00     0.023 A 
ATOM     63  C   UNL A   1      45.373  34.443  28.449  1.00  0.00     0.031 A 
ATOM     64  C   UNL A   1      46.017  33.663  30.640  1.00  0.00     0.131 A 
ATOM     65  C   UNL A   1      45.549  35.761  28.897  1.00  0.00     0.055 A 
ATOM     66  C   UNL A   1      46.139  34.977  31.094  1.00  0.00     0.041 A 
ATOM     67  F   UNL A   1      46.280  32.674  31.509  1.00  0.00    -0.206 F 
ATOM     68  C   UNL A   1      45.914  36.035  30.218  1.00  0.00     0.022 A 
BRANCH  65  69
ATOM     69  S   UNL A   1      45.363  37.118  27.707  1.00  0.00     0.124 S 
ATOM     70  O   UNL A   1      44.248  36.651  26.889  1.00  0.00    -0.237 OA
ATOM     71  O   UNL A   1      45.084  38.259  28.574  1.00  0.00    -0.237 OA
ATOM     72  O   UNL A   1      46.657  37.158  27.028  1.00  0.00    -0.744 OA
ENDBRANCH  65  69
ENDBRANCH  39  62
ENDBRANCH  13  14
ENDBRANCH   6   8
ENDBRANCH   3   4
ENDBRANCH   2   3
ENDBRANCH   1   2
BRANCH   1  73
ATOM     73  C   UNL A   1      38.319  19.943  25.295  1.00  0.00     0.116 C 
BRANCH  73  74
ATOM     74  N   UNL A   1      38.176  21.346  25.667  1.00  0.00    -0.354 N 
ATOM     75  C   UNL A   1      37.241  22.321  25.579  1.00  0.00     0.244 C 
ATOM     76  H   UNL A   1      38.991  21.679  26.108  1.00  0.00     0.163 HD
ATOM     77  O   UNL A   1      37.432  23.277  26.354  1.00  0.00    -0.273 OA
BRANCH  75  78
ATOM     78  C   UNL A   1      36.065  22.427  24.572  1.00  0.00     0.197 C 
BRANCH  78  79
ATOM     79  N   UNL A   1      35.109  23.344  25.267  1.00  0.00    -0.340 N 
ATOM     80  C   UNL A   1      33.880  23.883  25.180  1.00  0.00     0.243 C 
ATOM     81  H   UNL A   1      35.537  23.673  26.091  1.00  0.00     0.164 HD
ATOM     82  O   UNL A   1      33.610  24.644  26.130  1.00  0.00    -0.273 OA
BRANCH  80  83
ATOM     83  C   UNL A   1      32.799  23.743  24.078  1.00  0.00     0.176 C 
BRANCH  83  84
ATOM     84  N   UNL A   1      33.255  24.060  22.721  1.00  0.00    -0.340 N 
ATOM     85  C   UNL A   1      33.011  25.210  21.999  1.00  0.00     0.251 C 
ATOM     86  H   UNL A   1      33.800  23.373  22.273  1.00  0.00     0.164 HD
ATOM     87  O   UNL A   1      33.238  25.256  20.794  1.00  0.00    -0.269 OA
BRANCH  85  88
ATOM     88  C   UNL A   1      32.428  26.406  22.659  1.00  0.00     0.040 A 
ATOM     89  C   UNL A   1      31.041  26.611  22.692  1.00  0.00     0.017 A 
ATOM     90  C   UNL A   1      33.286  27.320  23.287  1.00  0.00     0.017 A 
ATOM     91  C   UNL A   1      30.521  27.761  23.294  1.00  0.00     0.040 A 
ATOM     92  C   UNL A   1      32.760  28.465  23.895  1.00  0.00     0.040 A 
ATOM     93  C   UNL A   1      31.385  28.678  23.884  1.00  0.00     0.123 A 
ATOM     94  F   UNL A   1      30.884  29.783  24.454  1.00  0.00    -0.207 F 
ENDBRANCH  85  88
ENDBRANCH  83  84
BRANCH  83  95
ATOM     95  C   UNL A   1      31.798  22.578  24.146  1.00  0.00     0.072 C 
BRANCH  95  96
ATOM     96  C   UNL A   1      32.335  21.343  24.766  1.00  0.00    -0.020 A 
ATOM     97  C   UNL A   1      32.787  21.245  26.065  1.00  0.00     0.087 A 
ATOM     98  C   UNL A   1      32.528  20.064  24.154  1.00  0.00     0.003 A 
ATOM     99  N   UNL A   1      33.371  20.020  26.199  1.00  0.00    -0.361 N 
ATOM    100  C   UNL A   1      33.365  19.350  25.005  1.00  0.00     0.046 A 
ATOM    101  C   UNL A   1      32.155  19.465  22.936  1.00  0.00     0.010 A 
ATOM    102  H   UNL A   1      33.745  19.666  27.039  1.00  0.00     0.166 HD
ATOM    103  C   UNL A   1      34.015  18.173  24.629  1.00  0.00     0.026 A 
ATOM    104  C   UNL A   1      32.706  18.223  22.591  1.00  0.00     0.001 A 
ATOM    105  C   UNL A   1      33.666  17.618  23.399  1.00  0.00     0.002 A 
ENDBRANCH  95  96
ENDBRANCH  83  95
ENDBRANCH  80  83
ENDBRANCH  78  79
BRANCH  78 106
ATOM    106  C   UNL A   1      36.641  23.109  23.317  1.00  0.00     0.191 C 
BRANCH 106 107
ATOM    107  O   UNL A   1      35.776  22.958  22.193  1.00  0.00    -0.394 OA
ATOM    108  H   UNL A   1      35.121  22.267  22.379  1.00  0.00     0.210 HD
ENDBRANCH 106 107
ENDBRANCH  78 106
ENDBRANCH  75  78
ENDBRANCH  73  74
ENDBRANCH   1  73
TORSDOF 22
ENDMDL
MODEL 3
REMARK VINA RESULT:     -11.2      2.784      7.893
REMARK SMILES O=C(NCCCCNC(=O)[C@H](CO)NC(=O)[C@H](Cc1c[nH]c2ccccc12)NC(=O)c1ccc(F)cc1)c1ccc(-c2c3nc(c(-c4cc(S(=O)(=O)[O-])ccc4F)c4ccc([nH]4)c(-c4cc(S(=O)(=O)[O-])ccc4F)c4nc(c(-c5cc(S(=O)(=O)[O-])ccc5F)c5ccc2[nH]5)C=C4)C=C3)cc1
REMARK SMILES IDX 6 1 5 2 4 3 3 4 1 5 2 6 38 8 39 9 100 10 40 11 99 12 41 13
REMARK SMILES IDX 42 14 43 15 93 16 44 17 98 18 92 19 94 20 45 21 97 22 91 23
REMARK SMILES IDX 90 24 46 26 78 27 58 28 77 29 59 30 62 31 76 32 95 33 60 34
REMARK SMILES IDX 61 35 75 37 96 38 63 39 47 40 48 41 56 42 49 43 55 44 57 45
REMARK SMILES IDX 54 46 50 47 51 48 52 49 53 50 79 51 80 52 88 53 81 54 87 55
REMARK SMILES IDX 89 56 86 57 82 58 83 59 84 60 85 61 64 62 65 63 73 64 66 65
REMARK SMILES IDX 72 66 74 67 71 68 67 69 68 70 69 71 70 72 7 73 8 74 9 75
REMARK SMILES IDX 10 77 11 78 14 79 15 80 16 82 17 83 28 84 29 85 30 87 31 88
REMARK SMILES IDX 32 89 37 90 33 91 36 92 34 93 35 94 18 95 19 96 20 97 27 98
REMARK SMILES IDX 21 99 22 100 26 101 23 103 25 104 24 105 12 106 13 107
REMARK H PARENT 3 7 94 25 62 36 8 76 14 81 28 86 21 102 13 108
REMARK Flexibility Score: inf
ROOT
ATOM      1  C   UNL A   1      40.731  21.164  27.142  1.00  0.00     0.023 C 
ENDROOT
BRANCH   1   2
ATOM      2  C   UNL A   1      42.098  21.246  26.429  1.00  0.00     0.023 C 
BRANCH   2   3
ATOM      3  C   UNL A   1      42.373  22.532  25.648  1.00  0.00     0.116 C 
BRANCH   3   4
ATOM      4  N   UNL A   1      43.601  22.470  24.866  1.00  0.00    -0.352 N 
ATOM      5  O   UNL A   1      45.456  23.293  23.859  1.00  0.00    -0.269 OA
ATOM      6  C   UNL A   1      44.544  23.459  24.665  1.00  0.00     0.251 C 
ATOM      7  H   UNL A   1      43.783  21.609  24.423  1.00  0.00     0.163 HD
BRANCH   6   8
ATOM      8  C   UNL A   1      44.427  24.729  25.409  1.00  0.00     0.039 A 
ATOM      9  C   UNL A   1      43.833  25.837  24.801  1.00  0.00     0.014 A 
ATOM     10  C   UNL A   1      44.948  24.826  26.703  1.00  0.00     0.014 A 
ATOM     11  C   UNL A   1      43.889  27.075  25.430  1.00  0.00     0.010 A 
ATOM     12  C   UNL A   1      44.930  26.058  27.366  1.00  0.00     0.010 A 
ATOM     13  C   UNL A   1      44.422  27.198  26.725  1.00  0.00    -0.014 A 
BRANCH  13  14
ATOM     14  C   UNL A   1      44.339  28.505  27.426  1.00  0.00     0.031 A 
ATOM     15  C   UNL A   1      43.077  28.964  28.101  1.00  0.00     0.074 A 
ATOM     16  C   UNL A   1      45.450  29.266  27.479  1.00  0.00     0.049 A 
ATOM     17  N   UNL A   1      42.841  30.090  28.726  1.00  0.00    -0.248 NA
ATOM     18  C   UNL A   1      41.934  28.041  28.071  1.00  0.00     0.031 C 
ATOM     19  C   UNL A   1      46.740  28.903  26.886  1.00  0.00     0.029 A 
ATOM     20  N   UNL A   1      45.688  30.473  28.079  1.00  0.00    -0.354 N 
ATOM     21  C   UNL A   1      41.521  30.021  29.158  1.00  0.00     0.074 A 
ATOM     22  C   UNL A   1      41.002  28.747  28.698  1.00  0.00     0.031 C 
ATOM     23  C   UNL A   1      47.649  29.829  27.216  1.00  0.00     0.029 A 
ATOM     24  C   UNL A   1      46.990  30.893  27.961  1.00  0.00     0.049 A 
ATOM     25  H   UNL A   1      44.993  30.989  28.550  1.00  0.00     0.167 HD
ATOM     26  C   UNL A   1      40.815  30.936  29.869  1.00  0.00     0.034 A 
ATOM     27  C   UNL A   1      47.591  32.020  28.382  1.00  0.00     0.034 A 
ATOM     28  C   UNL A   1      41.351  32.209  30.299  1.00  0.00     0.049 A 
ATOM     29  C   UNL A   1      46.773  33.052  29.098  1.00  0.00     0.074 A 
ATOM     30  C   UNL A   1      40.713  33.228  30.990  1.00  0.00     0.029 A 
ATOM     31  N   UNL A   1      42.653  32.642  30.081  1.00  0.00    -0.354 N 
ATOM     32  N   UNL A   1      45.502  33.012  29.419  1.00  0.00    -0.248 NA
ATOM     33  C   UNL A   1      47.465  34.283  29.492  1.00  0.00     0.031 C 
ATOM     34  C   UNL A   1      41.610  34.293  31.138  1.00  0.00     0.029 A 
ATOM     35  C   UNL A   1      42.833  33.914  30.607  1.00  0.00     0.049 A 
ATOM     36  H   UNL A   1      43.350  32.121  29.619  1.00  0.00     0.167 HD
ATOM     37  C   UNL A   1      45.241  34.211  30.069  1.00  0.00     0.074 A 
ATOM     38  C   UNL A   1      46.491  34.949  30.096  1.00  0.00     0.031 C 
ATOM     39  C   UNL A   1      44.074  34.654  30.603  1.00  0.00     0.034 A 
BRANCH  26  40
ATOM     40  C   UNL A   1      39.371  30.613  30.180  1.00  0.00     0.023 A 
ATOM     41  C   UNL A   1      38.319  31.078  29.372  1.00  0.00     0.031 A 
ATOM     42  C   UNL A   1      39.042  29.837  31.306  1.00  0.00     0.131 A 
ATOM     43  C   UNL A   1      36.988  30.813  29.733  1.00  0.00     0.055 A 
ATOM     44  C   UNL A   1      37.720  29.516  31.620  1.00  0.00     0.041 A 
ATOM     45  F   UNL A   1      40.002  29.382  32.126  1.00  0.00    -0.206 F 
ATOM     46  C   UNL A   1      36.682  30.015  30.838  1.00  0.00     0.022 A 
BRANCH  43  47
ATOM     47  S   UNL A   1      35.656  31.627  28.807  1.00  0.00     0.124 S 
ATOM     48  O   UNL A   1      36.379  32.712  28.144  1.00  0.00    -0.237 OA
ATOM     49  O   UNL A   1      35.174  30.559  27.940  1.00  0.00    -0.237 OA
ATOM     50  O   UNL A   1      34.724  32.055  29.849  1.00  0.00    -0.744 OA
ENDBRANCH  43  47
ENDBRANCH  26  40
BRANCH  27  51
ATOM     51  C   UNL A   1      49.038  32.210  28.110  1.00  0.00     0.023 A 
ATOM     52  C   UNL A   1      49.472  32.732  26.884  1.00  0.00     0.031 A 
ATOM     53  C   UNL A   1      49.996  31.966  29.111  1.00  0.00     0.131 A 
ATOM     54  C   UNL A   1      50.834  33.004  26.690  1.00  0.00     0.055 A 
ATOM     55  C   UNL A   1      51.345  32.268  28.925  1.00  0.00     0.041 A 
ATOM     56  F   UNL A   1      49.618  31.488  30.307  1.00  0.00    -0.206 F 
ATOM     57  C   UNL A   1      51.770  32.792  27.707  1.00  0.00     0.022 A 
BRANCH  54  58
ATOM     58  S   UNL A   1      51.370  33.672  25.092  1.00  0.00     0.124 S 
ATOM     59  O   UNL A   1      52.671  34.238  25.428  1.00  0.00    -0.237 OA
ATOM     60  O   UNL A   1      51.387  32.479  24.250  1.00  0.00    -0.237 OA
ATOM     61  O   UNL A   1      50.329  34.644  24.764  1.00  0.00    -0.744 OA
ENDBRANCH  54  58
ENDBRANCH  27  51
BRANCH  39  62
ATOM     62  C   UNL A   1      44.112  35.990  31.296  1.00  0.00     0.023 A 
ATOM     63  C   UNL A   1      43.894  37.192  30.601  1.00  0.00     0.031 A 
ATOM     64  C   UNL A   1      44.387  36.058  32.673  1.00  0.00     0.131 A 
ATOM     65  C   UNL A   1      44.003  38.416  31.276  1.00  0.00     0.055 A 
ATOM     66  C   UNL A   1      44.442  37.277  33.350  1.00  0.00     0.041 A 
ATOM     67  F   UNL A   1      44.606  34.939  33.381  1.00  0.00    -0.206 F 
ATOM     68  C   UNL A   1      44.260  38.465  32.649  1.00  0.00     0.022 A 
BRANCH  65  69
ATOM     69  S   UNL A   1      43.876  39.953  30.322  1.00  0.00     0.124 S 
ATOM     70  O   UNL A   1      43.708  39.451  28.962  1.00  0.00    -0.237 OA
ATOM     71  O   UNL A   1      42.706  40.594  30.914  1.00  0.00    -0.237 OA
ATOM     72  O   UNL A   1      45.147  40.625  30.583  1.00  0.00    -0.744 OA
ENDBRANCH  65  69
ENDBRANCH  39  62
ENDBRANCH  13  14
ENDBRANCH   6   8
ENDBRANCH   3   4
ENDBRANCH   2   3
ENDBRANCH   1   2
BRANCH   1  73
ATOM     73  C   UNL A   1      39.544  21.228  26.179  1.00  0.00     0.116 C 
BRANCH  73  74
ATOM     74  N   UNL A   1      38.851  22.509  26.085  1.00  0.00    -0.354 N 
ATOM     75  C   UNL A   1      37.578  22.961  26.006  1.00  0.00     0.244 C 
ATOM     76  H   UNL A   1      39.492  23.257  26.076  1.00  0.00     0.163 HD
ATOM     77  O   UNL A   1      37.449  24.164  26.297  1.00  0.00    -0.273 OA
BRANCH  75  78
ATOM     78  C   UNL A   1      36.325  22.200  25.497  1.00  0.00     0.197 C 
BRANCH  78  79
ATOM     79  N   UNL A   1      35.325  22.436  26.583  1.00  0.00    -0.340 N 
ATOM     80  C   UNL A   1      34.010  22.384  26.864  1.00  0.00     0.243 C 
ATOM     81  H   UNL A   1      35.804  22.739  27.387  1.00  0.00     0.164 HD
ATOM     82  O   UNL A   1      33.745  22.732  28.032  1.00  0.00    -0.273 OA
BRANCH  80  83
ATOM     83  C   UNL A   1      32.805  22.014  25.962  1.00  0.00     0.176 C 
BRANCH  83  84
ATOM     84  N   UNL A   1      31.492  22.150  26.599  1.00  0.00    -0.340 N 
ATOM     85  C   UNL A   1      30.736  23.296  26.732  1.00  0.00     0.251 C 
ATOM     86  H   UNL A   1      31.103  21.326  26.975  1.00  0.00     0.164 HD
ATOM     87  O   UNL A   1      29.774  23.329  27.494  1.00  0.00    -0.269 OA
BRANCH  85  88
ATOM     88  C   UNL A   1      31.096  24.529  25.987  1.00  0.00     0.040 A 
ATOM     89  C   UNL A   1      32.030  25.440  26.503  1.00  0.00     0.017 A 
ATOM     90  C   UNL A   1      30.515  24.758  24.732  1.00  0.00     0.017 A 
ATOM     91  C   UNL A   1      32.327  26.608  25.795  1.00  0.00     0.040 A 
ATOM     92  C   UNL A   1      30.823  25.924  24.023  1.00  0.00     0.040 A 
ATOM     93  C   UNL A   1      31.718  26.840  24.566  1.00  0.00     0.123 A 
ATOM     94  F   UNL A   1      32.001  27.964  23.892  1.00  0.00    -0.207 F 
ENDBRANCH  85  88
ENDBRANCH  83  84
BRANCH  83  95
ATOM     95  C   UNL A   1      32.826  22.409  24.476  1.00  0.00     0.072 C 
BRANCH  95  96
ATOM     96  C   UNL A   1      32.650  21.275  23.538  1.00  0.00    -0.020 A 
ATOM     97  C   UNL A   1      31.947  21.334  22.353  1.00  0.00     0.087 A 
ATOM     98  C   UNL A   1      33.116  19.931  23.686  1.00  0.00     0.003 A 
ATOM     99  N   UNL A   1      31.852  20.059  21.876  1.00  0.00    -0.361 N 
ATOM    100  C   UNL A   1      32.418  19.173  22.752  1.00  0.00     0.046 A 
ATOM    101  C   UNL A   1      33.989  19.259  24.563  1.00  0.00     0.010 A 
ATOM    102  H   UNL A   1      31.433  19.811  21.019  1.00  0.00     0.166 HD
ATOM    103  C   UNL A   1      32.379  17.778  22.773  1.00  0.00     0.026 A 
ATOM    104  C   UNL A   1      34.055  17.860  24.522  1.00  0.00     0.001 A 
ATOM    105  C   UNL A   1      33.217  17.131  23.680  1.00  0.00     0.002 A 
ENDBRANCH  95  96
ENDBRANCH  83  95
ENDBRANCH  80  83
ENDBRANCH  78  79
BRANCH  78 106
ATOM    106  C   UNL A   1      35.888  22.916  24.205  1.00  0.00     0.191 C 
BRANCH 106 107
ATOM    107  O   UNL A   1      37.011  23.336  23.432  1.00  0.00    -0.394 OA
ATOM    108  H   UNL A   1      37.249  24.245  23.676  1.00  0.00     0.210 HD
ENDBRANCH 106 107
ENDBRANCH  78 106
ENDBRANCH  75  78
ENDBRANCH  73  74
ENDBRANCH   1  73
TORSDOF 22
ENDMDL
