MODEL 1
REMARK VINA RESULT:     -14.2      0.000      0.000
REMARK SMILES CC1=Nc2c(c(C)nn2-c2ccc(F)cc2)[C@H](c2ccc(C(=O)NCCCCNC(=O)c3ccc(-c4c5nc(c(-c6cc(S(=O)(=O)[O-])ccc6F)c6ccc([nH]6)c(-c6cc(S(=O)(=O)[O-])ccc6F)c6nc(c(-c7cc(S(=O)(=O)[O-])ccc7F)c7ccc4[nH]7)C=C6)C=C5)cc3)cc2)S1
REMARK SMILES IDX 27 1 26 2 25 3 24 4 22 5 23 6 21 8 18 9 19 10 96 11 20 12
REMARK SMILES IDX 95 13 17 14 1 15 2 16 3 17 97 18 4 19 5 20 9 21 6 22 8 23
REMARK SMILES IDX 7 24 10 25 11 26 16 27 12 28 15 29 13 30 14 31 28 32 29 33
REMARK SMILES IDX 30 34 31 36 32 37 33 38 94 39 34 40 93 41 35 42 36 43 37 44
REMARK SMILES IDX 87 45 38 46 92 47 86 48 88 49 39 50 91 51 85 52 84 53 40 55
REMARK SMILES IDX 72 56 52 57 71 58 53 59 56 60 70 61 89 62 54 63 55 64 69 66
REMARK SMILES IDX 90 67 57 68 41 69 42 70 50 71 43 72 49 73 51 74 48 75 44 76
REMARK SMILES IDX 45 77 46 78 47 79 73 80 74 81 82 82 75 83 81 84 83 85 80 86
REMARK SMILES IDX 76 87 77 88 78 89 79 90 58 91 59 92 67 93 60 94 66 95 68 96
REMARK SMILES IDX 65 97 61 98 62 99 63 100 64 101
REMARK H PARENT 24 7 29 35 88 54 56 65
REMARK Flexibility Score: inf
ROOT
ATOM      1  C   UNL A   1      33.696  28.885  27.248  1.00  0.00     0.023 C 
ENDROOT
BRANCH   1   2
ATOM      2  C   UNL A   1      32.795  29.868  26.486  1.00  0.00     0.023 C 
BRANCH   2   3
ATOM      3  C   UNL A   1      32.836  29.743  24.959  1.00  0.00     0.116 C 
BRANCH   3   4
ATOM      4  N   UNL A   1      31.499  29.795  24.397  1.00  0.00    -0.352 N 
ATOM      5  C   UNL A   1      30.615  28.813  24.035  1.00  0.00     0.251 C 
ATOM      6  O   UNL A   1      29.523  29.158  23.582  1.00  0.00    -0.269 OA
ATOM      7  H   UNL A   1      31.164  30.708  24.249  1.00  0.00     0.163 HD
BRANCH   5   8
ATOM      8  C   UNL A   1      30.893  27.362  24.198  1.00  0.00     0.039 A 
ATOM      9  C   UNL A   1      31.450  24.581  24.300  1.00  0.00    -0.030 A 
ATOM     10  C   UNL A   1      31.002  25.186  23.114  1.00  0.00     0.006 A 
ATOM     11  C   UNL A   1      31.616  25.399  25.431  1.00  0.00     0.006 A 
ATOM     12  C   UNL A   1      30.741  26.558  23.062  1.00  0.00     0.014 A 
ATOM     13  C   UNL A   1      31.353  26.774  25.375  1.00  0.00     0.014 A 
BRANCH   9  14
ATOM     14  C   UNL A   1      31.812  23.104  24.286  1.00  0.00     0.119 C 
ATOM     15  C   UNL A   1      32.811  22.141  28.202  1.00  0.00     0.075 C 
ATOM     16  C   UNL A   1      32.916  22.295  26.708  1.00  0.00     0.074 C 
ATOM     17  N   UNL A   1      34.101  22.458  26.213  1.00  0.00    -0.227 NA
ATOM     18  S   UNL A   1      31.399  22.222  25.826  1.00  0.00    -0.098 SA
ATOM     19  C   UNL A   1      34.220  22.707  24.887  1.00  0.00     0.161 A 
ATOM     20  C   UNL A   1      33.260  23.051  23.967  1.00  0.00     0.038 A 
ATOM     21  N   UNL A   1      35.435  22.783  24.230  1.00  0.00    -0.215 N 
ATOM     22  C   UNL A   1      33.984  23.352  22.780  1.00  0.00     0.067 A 
ATOM     23  N   UNL A   1      35.309  23.280  22.975  1.00  0.00    -0.171 NA
ATOM     24  C   UNL A   1      33.457  23.761  21.453  1.00  0.00     0.069 C 
BRANCH  21  25
ATOM     25  C   UNL A   1      36.688  22.393  24.750  1.00  0.00     0.067 A 
ATOM     26  C   UNL A   1      37.114  21.067  24.578  1.00  0.00     0.031 A 
ATOM     27  C   UNL A   1      37.457  23.307  25.476  1.00  0.00     0.031 A 
ATOM     28  C   UNL A   1      38.311  20.649  25.150  1.00  0.00     0.041 A 
ATOM     29  C   UNL A   1      38.628  22.863  26.093  1.00  0.00     0.041 A 
ATOM     30  C   UNL A   1      39.045  21.543  25.921  1.00  0.00     0.123 A 
ATOM     31  F   UNL A   1      40.169  21.124  26.515  1.00  0.00    -0.207 F 
ENDBRANCH  21  25
ENDBRANCH   9  14
ENDBRANCH   5   8
ENDBRANCH   3   4
ENDBRANCH   2   3
ENDBRANCH   1   2
BRANCH   1  32
ATOM     32  C   UNL A   1      35.144  29.335  27.413  1.00  0.00     0.116 C 
BRANCH  32  33
ATOM     33  N   UNL A   1      35.374  30.045  28.671  1.00  0.00    -0.352 N 
ATOM     34  C   UNL A   1      36.380  29.834  29.600  1.00  0.00     0.251 C 
ATOM     35  H   UNL A   1      34.736  30.764  28.883  1.00  0.00     0.163 HD
ATOM     36  O   UNL A   1      36.230  30.173  30.763  1.00  0.00    -0.269 OA
BRANCH  34  37
ATOM     37  C   UNL A   1      37.636  29.207  29.145  1.00  0.00     0.039 A 
ATOM     38  C   UNL A   1      38.274  29.603  27.967  1.00  0.00     0.014 A 
ATOM     39  C   UNL A   1      38.188  28.219  29.955  1.00  0.00     0.014 A 
ATOM     40  C   UNL A   1      39.522  29.056  27.666  1.00  0.00     0.010 A 
ATOM     41  C   UNL A   1      39.473  27.790  29.736  1.00  0.00     0.010 A 
ATOM     42  C   UNL A   1      40.128  28.166  28.569  1.00  0.00    -0.014 A 
BRANCH  42  43
ATOM     43  C   UNL A   1      41.509  27.725  28.392  1.00  0.00     0.031 A 
ATOM     44  C   UNL A   1      41.651  26.448  27.644  1.00  0.00     0.074 A 
ATOM     45  C   UNL A   1      42.580  28.505  28.660  1.00  0.00     0.049 A 
ATOM     46  N   UNL A   1      42.009  25.300  28.114  1.00  0.00    -0.248 NA
ATOM     47  C   UNL A   1      41.195  26.394  26.245  1.00  0.00     0.031 C 
ATOM     48  C   UNL A   1      42.599  29.896  29.128  1.00  0.00     0.029 A 
ATOM     49  N   UNL A   1      43.903  28.243  28.469  1.00  0.00    -0.354 N 
ATOM     50  C   UNL A   1      42.076  24.441  27.023  1.00  0.00     0.074 A 
ATOM     51  C   UNL A   1      41.362  25.100  25.960  1.00  0.00     0.031 C 
ATOM     52  C   UNL A   1      43.838  30.416  28.970  1.00  0.00     0.029 A 
ATOM     53  C   UNL A   1      44.739  29.356  28.556  1.00  0.00     0.049 A 
ATOM     54  H   UNL A   1      44.243  27.338  28.282  1.00  0.00     0.167 HD
ATOM     55  C   UNL A   1      42.932  23.381  27.016  1.00  0.00     0.034 A 
ATOM     56  C   UNL A   1      46.078  29.398  28.314  1.00  0.00     0.034 A 
ATOM     57  C   UNL A   1      43.430  23.108  28.346  1.00  0.00     0.049 A 
ATOM     58  C   UNL A   1      46.570  28.014  28.519  1.00  0.00     0.074 A 
ATOM     59  C   UNL A   1      42.842  22.794  29.557  1.00  0.00     0.029 A 
ATOM     60  N   UNL A   1      44.692  23.561  28.658  1.00  0.00    -0.354 N 
ATOM     61  N   UNL A   1      46.522  27.399  29.668  1.00  0.00    -0.248 NA
ATOM     62  C   UNL A   1      46.676  27.153  27.353  1.00  0.00     0.031 C 
ATOM     63  C   UNL A   1      43.571  23.548  30.525  1.00  0.00     0.029 A 
ATOM     64  C   UNL A   1      44.617  24.204  29.871  1.00  0.00     0.049 A 
ATOM     65  H   UNL A   1      45.502  23.444  28.112  1.00  0.00     0.167 HD
ATOM     66  C   UNL A   1      46.140  26.104  29.357  1.00  0.00     0.074 A 
ATOM     67  C   UNL A   1      46.346  25.986  27.914  1.00  0.00     0.031 C 
ATOM     68  C   UNL A   1      45.432  25.345  30.244  1.00  0.00     0.034 A 
BRANCH  55  69
ATOM     69  C   UNL A   1      43.602  22.820  25.781  1.00  0.00     0.023 A 
ATOM     70  C   UNL A   1      43.621  21.421  25.620  1.00  0.00     0.031 A 
ATOM     71  C   UNL A   1      44.442  23.550  24.909  1.00  0.00     0.131 A 
ATOM     72  C   UNL A   1      44.480  20.811  24.687  1.00  0.00     0.055 A 
ATOM     73  C   UNL A   1      45.248  22.944  23.941  1.00  0.00     0.041 A 
ATOM     74  F   UNL A   1      44.605  24.875  25.005  1.00  0.00    -0.206 F 
ATOM     75  C   UNL A   1      45.292  21.565  23.843  1.00  0.00     0.022 A 
BRANCH  72  76
ATOM     76  S   UNL A   1      44.622  19.005  24.687  1.00  0.00     0.124 S 
ATOM     77  O   UNL A   1      45.751  18.797  25.588  1.00  0.00    -0.237 OA
ATOM     78  O   UNL A   1      43.313  18.600  25.190  1.00  0.00    -0.237 OA
ATOM     79  O   UNL A   1      44.874  18.684  23.284  1.00  0.00    -0.744 OA
ENDBRANCH  72  76
ENDBRANCH  55  69
BRANCH  56  80
ATOM     80  C   UNL A   1      46.879  30.434  27.599  1.00  0.00     0.023 A 
ATOM     81  C   UNL A   1      46.257  31.527  26.949  1.00  0.00     0.031 A 
ATOM     82  C   UNL A   1      48.273  30.533  27.796  1.00  0.00     0.131 A 
ATOM     83  C   UNL A   1      47.009  32.663  26.570  1.00  0.00     0.055 A 
ATOM     84  C   UNL A   1      49.011  31.659  27.420  1.00  0.00     0.041 A 
ATOM     85  F   UNL A   1      48.953  29.579  28.450  1.00  0.00    -0.206 F 
ATOM     86  C   UNL A   1      48.380  32.739  26.823  1.00  0.00     0.022 A 
BRANCH  83  87
ATOM     87  S   UNL A   1      46.189  34.134  25.869  1.00  0.00     0.124 S 
ATOM     88  O   UNL A   1      45.744  34.834  27.069  1.00  0.00    -0.237 OA
ATOM     89  O   UNL A   1      47.259  34.769  25.109  1.00  0.00    -0.237 OA
ATOM     90  O   UNL A   1      45.117  33.563  25.053  1.00  0.00    -0.744 OA
ENDBRANCH  83  87
ENDBRANCH  56  80
BRANCH  68  91
ATOM     91  C   UNL A   1      45.349  25.811  31.686  1.00  0.00     0.023 A 
ATOM     92  C   UNL A   1      44.194  26.324  32.324  1.00  0.00     0.031 A 
ATOM     93  C   UNL A   1      46.494  25.609  32.475  1.00  0.00     0.131 A 
ATOM     94  C   UNL A   1      44.225  26.617  33.706  1.00  0.00     0.055 A 
ATOM     95  C   UNL A   1      46.514  25.880  33.842  1.00  0.00     0.041 A 
ATOM     96  F   UNL A   1      47.614  25.105  31.932  1.00  0.00    -0.206 F 
ATOM     97  C   UNL A   1      45.380  26.388  34.463  1.00  0.00     0.022 A 
BRANCH  94  98
ATOM     98  S   UNL A   1      42.759  27.297  34.556  1.00  0.00     0.124 S 
ATOM     99  O   UNL A   1      42.129  26.119  35.139  1.00  0.00    -0.237 OA
ATOM    100  O   UNL A   1      43.344  28.244  35.501  1.00  0.00    -0.237 OA
ATOM    101  O   UNL A   1      41.993  27.921  33.473  1.00  0.00    -0.744 OA
ENDBRANCH  94  98
ENDBRANCH  68  91
ENDBRANCH  42  43
ENDBRANCH  34  37
ENDBRANCH  32  33
ENDBRANCH   1  32
TORSDOF 16
ENDMDL
MODEL 2
REMARK VINA RESULT:     -13.8      2.847      7.089
REMARK SMILES CC1=Nc2c(c(C)nn2-c2ccc(F)cc2)[C@H](c2ccc(C(=O)NCCCCNC(=O)c3ccc(-c4c5nc(c(-c6cc(S(=O)(=O)[O-])ccc6F)c6ccc([nH]6)c(-c6cc(S(=O)(=O)[O-])ccc6F)c6nc(c(-c7cc(S(=O)(=O)[O-])ccc7F)c7ccc4[nH]7)C=C6)C=C5)cc3)cc2)S1
REMARK SMILES IDX 27 1 26 2 25 3 24 4 22 5 23 6 21 8 18 9 19 10 96 11 20 12
REMARK SMILES IDX 95 13 17 14 1 15 2 16 3 17 97 18 4 19 5 20 9 21 6 22 8 23
REMARK SMILES IDX 7 24 10 25 11 26 16 27 12 28 15 29 13 30 14 31 28 32 29 33
REMARK SMILES IDX 30 34 31 36 32 37 33 38 94 39 34 40 93 41 35 42 36 43 37 44
REMARK SMILES IDX 87 45 38 46 92 47 86 48 88 49 39 50 91 51 85 52 84 53 40 55
REMARK SMILES IDX 72 56 52 57 71 58 53 59 56 60 70 61 89 62 54 63 55 64 69 66
REMARK SMILES IDX 90 67 57 68 41 69 42 70 50 71 43 72 49 73 51 74 48 75 44 76
REMARK SMILES IDX 45 77 46 78 47 79 73 80 74 81 82 82 75 83 81 84 83 85 80 86
REMARK SMILES IDX 76 87 77 88 78 89 79 90 58 91 59 92 67 93 60 94 66 95 68 96
REMARK SMILES IDX 65 97 61 98 62 99 63 100 64 101
REMARK H PARENT 24 7 29 35 88 54 56 65
REMARK Flexibility Score: inf
ROOT
ATOM      1  C   UNL A   1      32.656  30.446  26.975  1.00  0.00     0.023 C 
ENDROOT
BRANCH   1   2
ATOM      2  C   UNL A   1      32.423  30.059  25.507  1.00  0.00     0.023 C 
BRANCH   2   3
ATOM      3  C   UNL A   1      30.985  30.233  25.005  1.00  0.00     0.116 C 
BRANCH   3   4
ATOM      4  N   UNL A   1      30.821  29.654  23.686  1.00  0.00    -0.352 N 
ATOM      5  C   UNL A   1      31.060  28.397  23.196  1.00  0.00     0.251 C 
ATOM      6  O   UNL A   1      30.814  28.183  22.009  1.00  0.00    -0.269 OA
ATOM      7  H   UNL A   1      30.469  30.282  23.015  1.00  0.00     0.163 HD
BRANCH   5   8
ATOM      8  C   UNL A   1      31.563  27.275  24.034  1.00  0.00     0.039 A 
ATOM      9  C   UNL A   1      32.717  25.186  25.567  1.00  0.00    -0.030 A 
ATOM     10  C   UNL A   1      33.393  25.732  24.464  1.00  0.00     0.006 A 
ATOM     11  C   UNL A   1      31.453  25.711  25.887  1.00  0.00     0.006 A 
ATOM     12  C   UNL A   1      32.830  26.771  23.718  1.00  0.00     0.014 A 
ATOM     13  C   UNL A   1      30.890  26.752  25.137  1.00  0.00     0.014 A 
BRANCH   9  14
ATOM     14  C   UNL A   1      33.408  24.123  26.408  1.00  0.00     0.119 C 
ATOM     15  C   UNL A   1      36.958  23.243  24.437  1.00  0.00     0.075 C 
ATOM     16  C   UNL A   1      35.619  23.056  25.100  1.00  0.00     0.074 C 
ATOM     17  N   UNL A   1      34.888  22.070  24.686  1.00  0.00    -0.227 NA
ATOM     18  S   UNL A   1      35.228  24.209  26.366  1.00  0.00    -0.098 SA
ATOM     19  C   UNL A   1      33.636  21.940  25.186  1.00  0.00     0.161 A 
ATOM     20  C   UNL A   1      32.884  22.824  25.919  1.00  0.00     0.038 A 
ATOM     21  N   UNL A   1      32.810  20.865  24.907  1.00  0.00    -0.215 N 
ATOM     22  C   UNL A   1      31.600  22.221  26.014  1.00  0.00     0.067 A 
ATOM     23  N   UNL A   1      31.536  21.078  25.315  1.00  0.00    -0.171 NA
ATOM     24  C   UNL A   1      30.391  22.721  26.717  1.00  0.00     0.069 C 
BRANCH  21  25
ATOM     25  C   UNL A   1      33.198  19.659  24.282  1.00  0.00     0.067 A 
ATOM     26  C   UNL A   1      32.397  19.136  23.256  1.00  0.00     0.031 A 
ATOM     27  C   UNL A   1      34.333  18.976  24.729  1.00  0.00     0.031 A 
ATOM     28  C   UNL A   1      32.725  17.911  22.683  1.00  0.00     0.041 A 
ATOM     29  C   UNL A   1      34.621  17.723  24.186  1.00  0.00     0.041 A 
ATOM     30  C   UNL A   1      33.820  17.206  23.169  1.00  0.00     0.123 A 
ATOM     31  F   UNL A   1      34.102  16.002  22.653  1.00  0.00    -0.207 F 
ENDBRANCH  21  25
ENDBRANCH   9  14
ENDBRANCH   5   8
ENDBRANCH   3   4
ENDBRANCH   2   3
ENDBRANCH   1   2
BRANCH   1  32
ATOM     32  C   UNL A   1      34.024  31.054  27.270  1.00  0.00     0.116 C 
BRANCH  32  33
ATOM     33  N   UNL A   1      34.014  31.925  28.445  1.00  0.00    -0.352 N 
ATOM     34  C   UNL A   1      34.839  31.871  29.556  1.00  0.00     0.251 C 
ATOM     35  H   UNL A   1      33.336  32.639  28.446  1.00  0.00     0.163 HD
ATOM     36  O   UNL A   1      34.478  32.347  30.619  1.00  0.00    -0.269 OA
BRANCH  34  37
ATOM     37  C   UNL A   1      36.166  31.241  29.415  1.00  0.00     0.039 A 
ATOM     38  C   UNL A   1      37.348  31.980  29.510  1.00  0.00     0.014 A 
ATOM     39  C   UNL A   1      36.203  29.864  29.215  1.00  0.00     0.014 A 
ATOM     40  C   UNL A   1      38.566  31.299  29.493  1.00  0.00     0.010 A 
ATOM     41  C   UNL A   1      37.388  29.183  29.343  1.00  0.00     0.010 A 
ATOM     42  C   UNL A   1      38.578  29.895  29.433  1.00  0.00    -0.014 A 
BRANCH  42  43
ATOM     43  C   UNL A   1      39.813  29.137  29.612  1.00  0.00     0.031 A 
ATOM     44  C   UNL A   1      40.166  28.869  31.031  1.00  0.00     0.074 A 
ATOM     45  C   UNL A   1      40.461  28.519  28.598  1.00  0.00     0.049 A 
ATOM     46  N   UNL A   1      41.132  29.392  31.710  1.00  0.00    -0.248 NA
ATOM     47  C   UNL A   1      39.255  28.046  31.843  1.00  0.00     0.031 C 
ATOM     48  C   UNL A   1      40.078  28.446  27.184  1.00  0.00     0.029 A 
ATOM     49  N   UNL A   1      41.568  27.727  28.642  1.00  0.00    -0.354 N 
ATOM     50  C   UNL A   1      41.109  28.770  32.953  1.00  0.00     0.074 A 
ATOM     51  C   UNL A   1      39.823  28.131  33.049  1.00  0.00     0.031 C 
ATOM     52  C   UNL A   1      40.799  27.484  26.562  1.00  0.00     0.029 A 
ATOM     53  C   UNL A   1      41.811  26.995  27.480  1.00  0.00     0.049 A 
ATOM     54  H   UNL A   1      42.151  27.674  29.435  1.00  0.00     0.167 HD
ATOM     55  C   UNL A   1      42.249  28.622  33.684  1.00  0.00     0.034 A 
ATOM     56  C   UNL A   1      42.783  26.061  27.287  1.00  0.00     0.034 A 
ATOM     57  C   UNL A   1      43.305  29.469  33.177  1.00  0.00     0.049 A 
ATOM     58  C   UNL A   1      43.849  26.377  28.267  1.00  0.00     0.074 A 
ATOM     59  C   UNL A   1      43.450  30.830  32.982  1.00  0.00     0.029 A 
ATOM     60  N   UNL A   1      44.264  28.882  32.382  1.00  0.00    -0.354 N 
ATOM     61  N   UNL A   1      44.534  27.486  28.249  1.00  0.00    -0.248 NA
ATOM     62  C   UNL A   1      43.828  25.676  29.540  1.00  0.00     0.031 C 
ATOM     63  C   UNL A   1      44.113  30.952  31.724  1.00  0.00     0.029 A 
ATOM     64  C   UNL A   1      44.420  29.669  31.266  1.00  0.00     0.049 A 
ATOM     65  H   UNL A   1      44.750  28.049  32.578  1.00  0.00     0.167 HD
ATOM     66  C   UNL A   1      44.646  27.851  29.581  1.00  0.00     0.074 A 
ATOM     67  C   UNL A   1      44.280  26.651  30.332  1.00  0.00     0.031 C 
ATOM     68  C   UNL A   1      44.750  29.162  29.947  1.00  0.00     0.034 A 
BRANCH  55  69
ATOM     69  C   UNL A   1      42.531  27.467  34.620  1.00  0.00     0.023 A 
ATOM     70  C   UNL A   1      43.313  26.401  34.134  1.00  0.00     0.031 A 
ATOM     71  C   UNL A   1      41.865  27.231  35.844  1.00  0.00     0.131 A 
ATOM     72  C   UNL A   1      43.357  25.168  34.811  1.00  0.00     0.055 A 
ATOM     73  C   UNL A   1      41.960  26.026  36.545  1.00  0.00     0.041 A 
ATOM     74  F   UNL A   1      41.010  28.110  36.382  1.00  0.00    -0.206 F 
ATOM     75  C   UNL A   1      42.687  24.975  36.017  1.00  0.00     0.022 A 
BRANCH  72  76
ATOM     76  S   UNL A   1      44.194  23.770  34.018  1.00  0.00     0.124 S 
ATOM     77  O   UNL A   1      44.968  23.221  35.126  1.00  0.00    -0.237 OA
ATOM     78  O   UNL A   1      43.067  22.966  33.557  1.00  0.00    -0.237 OA
ATOM     79  O   UNL A   1      44.979  24.402  32.960  1.00  0.00    -0.744 OA
ENDBRANCH  72  76
ENDBRANCH  55  69
BRANCH  56  80
ATOM     80  C   UNL A   1      42.705  24.747  26.583  1.00  0.00     0.023 A 
ATOM     81  C   UNL A   1      43.779  24.270  25.794  1.00  0.00     0.031 A 
ATOM     82  C   UNL A   1      41.705  23.808  26.915  1.00  0.00     0.131 A 
ATOM     83  C   UNL A   1      43.843  22.910  25.411  1.00  0.00     0.055 A 
ATOM     84  C   UNL A   1      41.774  22.465  26.535  1.00  0.00     0.041 A 
ATOM     85  F   UNL A   1      40.672  24.140  27.703  1.00  0.00    -0.206 F 
ATOM     86  C   UNL A   1      42.854  22.003  25.798  1.00  0.00     0.022 A 
BRANCH  83  87
ATOM     87  S   UNL A   1      45.296  22.257  24.524  1.00  0.00     0.124 S 
ATOM     88  O   UNL A   1      46.156  21.829  25.622  1.00  0.00    -0.237 OA
ATOM     89  O   UNL A   1      44.724  21.199  23.700  1.00  0.00    -0.237 OA
ATOM     90  O   UNL A   1      45.781  23.418  23.776  1.00  0.00    -0.744 OA
ENDBRANCH  83  87
ENDBRANCH  56  80
BRANCH  68  91
ATOM     91  C   UNL A   1      45.068  30.187  28.873  1.00  0.00     0.023 A 
ATOM     92  C   UNL A   1      46.360  30.652  28.529  1.00  0.00     0.031 A 
ATOM     93  C   UNL A   1      43.989  30.622  28.085  1.00  0.00     0.131 A 
ATOM     94  C   UNL A   1      46.526  31.526  27.431  1.00  0.00     0.055 A 
ATOM     95  C   UNL A   1      44.158  31.467  26.990  1.00  0.00     0.041 A 
ATOM     96  F   UNL A   1      42.741  30.199  28.348  1.00  0.00    -0.206 F 
ATOM     97  C   UNL A   1      45.427  31.925  26.660  1.00  0.00     0.022 A 
BRANCH  94  98
ATOM     98  S   UNL A   1      48.176  32.158  26.972  1.00  0.00     0.124 S 
ATOM     99  O   UNL A   1      48.666  32.753  28.209  1.00  0.00    -0.237 OA
ATOM    100  O   UNL A   1      48.869  30.953  26.523  1.00  0.00    -0.237 OA
ATOM    101  O   UNL A   1      47.890  33.122  25.907  1.00  0.00    -0.744 OA
ENDBRANCH  94  98
ENDBRANCH  68  91
ENDBRANCH  42  43
ENDBRANCH  34  37
ENDBRANCH  32  33
ENDBRANCH   1  32
TORSDOF 16
ENDMDL
MODEL 3
REMARK VINA RESULT:     -13.4      1.723      2.482
REMARK SMILES CC1=Nc2c(c(C)nn2-c2ccc(F)cc2)[C@H](c2ccc(C(=O)NCCCCNC(=O)c3ccc(-c4c5nc(c(-c6cc(S(=O)(=O)[O-])ccc6F)c6ccc([nH]6)c(-c6cc(S(=O)(=O)[O-])ccc6F)c6nc(c(-c7cc(S(=O)(=O)[O-])ccc7F)c7ccc4[nH]7)C=C6)C=C5)cc3)cc2)S1
REMARK SMILES IDX 27 1 26 2 25 3 24 4 22 5 23 6 21 8 18 9 19 10 96 11 20 12
REMARK SMILES IDX 95 13 17 14 1 15 2 16 3 17 97 18 4 19 5 20 9 21 6 22 8 23
REMARK SMILES IDX 7 24 10 25 11 26 16 27 12 28 15 29 13 30 14 31 28 32 29 33
REMARK SMILES IDX 30 34 31 36 32 37 33 38 94 39 34 40 93 41 35 42 36 43 37 44
REMARK SMILES IDX 87 45 38 46 92 47 86 48 88 49 39 50 91 51 85 52 84 53 40 55
REMARK SMILES IDX 72 56 52 57 71 58 53 59 56 60 70 61 89 62 54 63 55 64 69 66
REMARK SMILES IDX 90 67 57 68 41 69 42 70 50 71 43 72 49 73 51 74 48 75 44 76
REMARK SMILES IDX 45 77 46 78 47 79 73 80 74 81 82 82 75 83 81 84 83 85 80 86
REMARK SMILES IDX 76 87 77 88 78 89 79 90 58 91 59 92 67 93 60 94 66 95 68 96
REMARK SMILES IDX 65 97 61 98 62 99 63 100 64 101
REMARK H PARENT 24 7 29 35 88 54 56 65
REMARK Flexibility Score: inf
ROOT
ATOM      1  C   UNL A   1      33.615  29.257  27.031  1.00  0.00     0.023 C 
ENDROOT
BRANCH   1   2
ATOM      2  C   UNL A   1      33.322  29.592  25.560  1.00  0.00     0.023 C 
BRANCH   2   3
ATOM      3  C   UNL A   1      31.898  30.079  25.272  1.00  0.00     0.116 C 
BRANCH   3   4
ATOM      4  N   UNL A   1      31.357  29.436  24.090  1.00  0.00    -0.352 N 
ATOM      5  C   UNL A   1      31.390  28.138  23.652  1.00  0.00     0.251 C 
ATOM      6  O   UNL A   1      30.826  27.872  22.590  1.00  0.00    -0.269 OA
ATOM      7  H   UNL A   1      30.875  30.048  23.488  1.00  0.00     0.163 HD
BRANCH   5   8
ATOM      8  C   UNL A   1      32.035  27.035  24.412  1.00  0.00     0.039 A 
ATOM      9  C   UNL A   1      33.081  24.902  25.964  1.00  0.00    -0.030 A 
ATOM     10  C   UNL A   1      31.963  25.633  26.399  1.00  0.00     0.006 A 
ATOM     11  C   UNL A   1      33.661  25.261  24.735  1.00  0.00     0.006 A 
ATOM     12  C   UNL A   1      31.440  26.674  25.627  1.00  0.00     0.014 A 
ATOM     13  C   UNL A   1      33.135  26.305  23.963  1.00  0.00     0.014 A 
BRANCH   9  14
ATOM     14  C   UNL A   1      33.559  23.717  26.789  1.00  0.00     0.119 C 
ATOM     15  C   UNL A   1      37.120  22.477  25.046  1.00  0.00     0.075 C 
ATOM     16  C   UNL A   1      35.717  22.434  25.592  1.00  0.00     0.074 C 
ATOM     17  N   UNL A   1      34.904  21.576  25.064  1.00  0.00    -0.227 NA
ATOM     18  S   UNL A   1      35.371  23.564  26.892  1.00  0.00    -0.098 SA
ATOM     19  C   UNL A   1      33.608  21.587  25.458  1.00  0.00     0.161 A 
ATOM     20  C   UNL A   1      32.917  22.525  26.184  1.00  0.00     0.038 A 
ATOM     21  N   UNL A   1      32.679  20.645  25.052  1.00  0.00    -0.215 N 
ATOM     22  C   UNL A   1      31.562  22.091  26.143  1.00  0.00     0.067 A 
ATOM     23  N   UNL A   1      31.412  21.003  25.374  1.00  0.00    -0.171 NA
ATOM     24  C   UNL A   1      30.372  22.711  26.780  1.00  0.00     0.069 C 
BRANCH  21  25
ATOM     25  C   UNL A   1      32.960  19.432  24.387  1.00  0.00     0.067 A 
ATOM     26  C   UNL A   1      33.749  18.468  25.034  1.00  0.00     0.031 A 
ATOM     27  C   UNL A   1      32.504  19.230  23.081  1.00  0.00     0.031 A 
ATOM     28  C   UNL A   1      34.097  17.300  24.362  1.00  0.00     0.041 A 
ATOM     29  C   UNL A   1      32.904  18.081  22.397  1.00  0.00     0.041 A 
ATOM     30  C   UNL A   1      33.691  17.127  23.044  1.00  0.00     0.123 A 
ATOM     31  F   UNL A   1      34.072  16.028  22.381  1.00  0.00    -0.207 F 
ENDBRANCH  21  25
ENDBRANCH   9  14
ENDBRANCH   5   8
ENDBRANCH   3   4
ENDBRANCH   2   3
ENDBRANCH   1   2
BRANCH   1  32
ATOM     32  C   UNL A   1      35.086  29.328  27.425  1.00  0.00     0.116 C 
BRANCH  32  33
ATOM     33  N   UNL A   1      35.297  30.011  28.702  1.00  0.00    -0.352 N 
ATOM     34  C   UNL A   1      36.303  29.797  29.629  1.00  0.00     0.251 C 
ATOM     35  H   UNL A   1      34.643  30.710  28.929  1.00  0.00     0.163 HD
ATOM     36  O   UNL A   1      36.142  30.103  30.799  1.00  0.00    -0.269 OA
BRANCH  34  37
ATOM     37  C   UNL A   1      37.574  29.209  29.164  1.00  0.00     0.039 A 
ATOM     38  C   UNL A   1      38.205  29.643  27.996  1.00  0.00     0.014 A 
ATOM     39  C   UNL A   1      38.148  28.218  29.955  1.00  0.00     0.014 A 
ATOM     40  C   UNL A   1      39.465  29.131  27.685  1.00  0.00     0.010 A 
ATOM     41  C   UNL A   1      39.443  27.823  29.729  1.00  0.00     0.010 A 
ATOM     42  C   UNL A   1      40.090  28.237  28.572  1.00  0.00    -0.014 A 
BRANCH  42  43
ATOM     43  C   UNL A   1      41.481  27.832  28.388  1.00  0.00     0.031 A 
ATOM     44  C   UNL A   1      41.652  26.551  27.651  1.00  0.00     0.074 A 
ATOM     45  C   UNL A   1      42.533  28.643  28.640  1.00  0.00     0.049 A 
ATOM     46  N   UNL A   1      42.045  25.419  28.130  1.00  0.00    -0.248 NA
ATOM     47  C   UNL A   1      41.188  26.471  26.257  1.00  0.00     0.031 C 
ATOM     48  C   UNL A   1      42.518  30.038  29.095  1.00  0.00     0.029 A 
ATOM     49  N   UNL A   1      43.861  28.415  28.441  1.00  0.00    -0.354 N 
ATOM     50  C   UNL A   1      42.127  24.551  27.047  1.00  0.00     0.074 A 
ATOM     51  C   UNL A   1      41.388  25.179  25.983  1.00  0.00     0.031 C 
ATOM     52  C   UNL A   1      43.742  30.590  28.922  1.00  0.00     0.029 A 
ATOM     53  C   UNL A   1      44.667  29.551  28.511  1.00  0.00     0.049 A 
ATOM     54  H   UNL A   1      44.224  27.517  28.261  1.00  0.00     0.167 HD
ATOM     55  C   UNL A   1      43.011  23.515  27.044  1.00  0.00     0.034 A 
ATOM     56  C   UNL A   1      46.003  29.626  28.259  1.00  0.00     0.034 A 
ATOM     57  C   UNL A   1      43.526  23.267  28.372  1.00  0.00     0.049 A 
ATOM     58  C   UNL A   1      46.534  28.258  28.474  1.00  0.00     0.074 A 
ATOM     59  C   UNL A   1      42.956  22.950  29.591  1.00  0.00     0.029 A 
ATOM     60  N   UNL A   1      44.778  23.758  28.670  1.00  0.00    -0.354 N 
ATOM     61  N   UNL A   1      46.511  27.653  29.629  1.00  0.00    -0.248 NA
ATOM     62  C   UNL A   1      46.654  27.388  27.315  1.00  0.00     0.031 C 
ATOM     63  C   UNL A   1      43.672  23.734  30.546  1.00  0.00     0.029 A 
ATOM     64  C   UNL A   1      44.694  24.410  29.877  1.00  0.00     0.049 A 
ATOM     65  H   UNL A   1      45.587  23.657  28.119  1.00  0.00     0.167 HD
ATOM     66  C   UNL A   1      46.162  26.346  29.333  1.00  0.00     0.074 A 
ATOM     67  C   UNL A   1      46.360  26.219  27.890  1.00  0.00     0.031 C 
ATOM     68  C   UNL A   1      45.481  25.577  30.233  1.00  0.00     0.034 A 
BRANCH  55  69
ATOM     69  C   UNL A   1      43.687  22.959  25.809  1.00  0.00     0.023 A 
ATOM     70  C   UNL A   1      43.720  21.560  25.649  1.00  0.00     0.031 A 
ATOM     71  C   UNL A   1      44.519  23.697  24.936  1.00  0.00     0.131 A 
ATOM     72  C   UNL A   1      44.585  20.959  24.716  1.00  0.00     0.055 A 
ATOM     73  C   UNL A   1      45.331  23.098  23.969  1.00  0.00     0.041 A 
ATOM     74  F   UNL A   1      44.669  25.023  25.031  1.00  0.00    -0.206 F 
ATOM     75  C   UNL A   1      45.389  21.720  23.872  1.00  0.00     0.022 A 
BRANCH  72  76
ATOM     76  S   UNL A   1      44.746  19.154  24.718  1.00  0.00     0.124 S 
ATOM     77  O   UNL A   1      43.725  18.767  25.685  1.00  0.00    -0.237 OA
ATOM     78  O   UNL A   1      44.471  18.826  23.323  1.00  0.00    -0.237 OA
ATOM     79  O   UNL A   1      46.126  18.937  25.146  1.00  0.00    -0.744 OA
ENDBRANCH  72  76
ENDBRANCH  55  69
BRANCH  56  80
ATOM     80  C   UNL A   1      46.770  30.676  27.527  1.00  0.00     0.023 A 
ATOM     81  C   UNL A   1      46.117  31.767  26.906  1.00  0.00     0.031 A 
ATOM     82  C   UNL A   1      48.169  30.789  27.683  1.00  0.00     0.131 A 
ATOM     83  C   UNL A   1      46.845  32.914  26.512  1.00  0.00     0.055 A 
ATOM     84  C   UNL A   1      48.883  31.926  27.292  1.00  0.00     0.041 A 
ATOM     85  F   UNL A   1      48.879  29.838  28.307  1.00  0.00    -0.206 F 
ATOM     86  C   UNL A   1      48.222  33.003  26.723  1.00  0.00     0.022 A 
BRANCH  83  87
ATOM     87  S   UNL A   1      45.988  34.381  25.849  1.00  0.00     0.124 S 
ATOM     88  O   UNL A   1      45.113  33.792  24.841  1.00  0.00    -0.237 OA
ATOM     89  O   UNL A   1      45.335  34.935  27.029  1.00  0.00    -0.237 OA
ATOM     90  O   UNL A   1      47.081  35.197  25.318  1.00  0.00    -0.744 OA
ENDBRANCH  83  87
ENDBRANCH  56  80
BRANCH  68  91
ATOM     91  C   UNL A   1      45.396  26.055  31.671  1.00  0.00     0.023 A 
ATOM     92  C   UNL A   1      44.259  26.632  32.285  1.00  0.00     0.031 A 
ATOM     93  C   UNL A   1      46.514  25.797  32.483  1.00  0.00     0.131 A 
ATOM     94  C   UNL A   1      44.279  26.930  33.666  1.00  0.00     0.055 A 
ATOM     95  C   UNL A   1      46.523  26.074  33.848  1.00  0.00     0.041 A 
ATOM     96  F   UNL A   1      47.616  25.232  31.962  1.00  0.00    -0.206 F 
ATOM     97  C   UNL A   1      45.406  26.645  34.445  1.00  0.00     0.022 A 
BRANCH  94  98
ATOM     98  S   UNL A   1      42.835  27.691  34.485  1.00  0.00     0.124 S 
ATOM     99  O   UNL A   1      43.430  28.704  35.347  1.00  0.00    -0.237 OA
ATOM    100  O   UNL A   1      42.051  28.189  33.358  1.00  0.00    -0.237 OA
ATOM    101  O   UNL A   1      42.218  26.571  35.201  1.00  0.00    -0.744 OA
ENDBRANCH  94  98
ENDBRANCH  68  91
ENDBRANCH  42  43
ENDBRANCH  34  37
ENDBRANCH  32  33
ENDBRANCH   1  32
TORSDOF 16
ENDMDL
