MODEL 1
REMARK VINA RESULT:     -11.9      0.000      0.000
REMARK SMILES CC(C)[C@H](NC(=O)CCC1=c2ccccc2=NC1)C(=O)NCCCCNC(=O)c1ccc(-c2c3nc(c(-c4cc(S(=O)(=O)[O-])ccc4F)c4ccc([nH]4)c(-c4cc(S(=O)(=O)[O-])ccc4F)c4nc(c(-c5cc(S(=O)(=O)[O-])ccc5F)c5ccc2[nH]5)C=C4)C=C3)cc1
REMARK SMILES IDX 23 1 22 2 21 3 19 4 20 5 4 7 2 8 1 9 3 10 5 11 6 12 7 14
REMARK SMILES IDX 8 15 9 16 10 17 11 18 18 19 12 20 16 21 17 22 13 23 15 24
REMARK SMILES IDX 14 25 24 26 25 27 26 28 27 29 28 31 29 32 30 33 91 34 31 35
REMARK SMILES IDX 90 36 32 37 33 38 34 39 84 40 35 41 89 42 83 43 85 44 36 45
REMARK SMILES IDX 88 46 82 47 81 48 37 50 69 51 49 52 68 53 50 54 53 55 67 56
REMARK SMILES IDX 86 57 51 58 52 59 66 61 87 62 54 63 38 64 39 65 47 66 40 67
REMARK SMILES IDX 46 68 48 69 45 70 41 71 42 72 43 73 44 74 70 75 71 76 79 77
REMARK SMILES IDX 72 78 78 79 80 80 77 81 73 82 74 83 75 84 76 85 55 86 56 87
REMARK SMILES IDX 64 88 57 89 63 90 65 91 62 92 58 93 59 94 60 95 61 96
REMARK H PARENT 21 6 5 13 26 30 85 49 53 60
REMARK Flexibility Score: inf
ROOT
ATOM      1  C   UNL A   1      32.005  27.768  27.272  1.00  0.00     0.023 C 
ENDROOT
BRANCH   1   2
ATOM      2  C   UNL A   1      32.353  26.405  26.670  1.00  0.00     0.116 C 
BRANCH   2   3
ATOM      3  N   UNL A   1      31.284  25.422  26.692  1.00  0.00    -0.354 N 
ATOM      4  C   UNL A   1      31.347  24.071  26.634  1.00  0.00     0.242 C 
ATOM      5  O   UNL A   1      30.514  23.461  27.315  1.00  0.00    -0.273 OA
ATOM      6  H   UNL A   1      30.376  25.795  26.760  1.00  0.00     0.163 HD
BRANCH   4   7
ATOM      7  C   UNL A   1      32.450  23.303  25.896  1.00  0.00     0.173 C 
BRANCH   7   8
ATOM      8  C   UNL A   1      33.818  23.992  26.210  1.00  0.00     0.015 C 
ATOM      9  C   UNL A   1      34.723  23.122  27.090  1.00  0.00     0.010 C 
ATOM     10  C   UNL A   1      34.593  24.437  24.966  1.00  0.00     0.010 C 
ENDBRANCH   7   8
BRANCH   7  11
ATOM     11  N   UNL A   1      32.286  23.005  24.470  1.00  0.00    -0.344 N 
ATOM     12  C   UNL A   1      31.371  23.538  23.610  1.00  0.00     0.220 C 
ATOM     13  H   UNL A   1      32.908  22.344  24.088  1.00  0.00     0.164 HD
ATOM     14  O   UNL A   1      30.729  22.735  22.924  1.00  0.00    -0.275 OA
BRANCH  12  15
ATOM     15  C   UNL A   1      31.316  25.024  23.293  1.00  0.00     0.104 C 
BRANCH  15  16
ATOM     16  C   UNL A   1      30.190  25.975  23.693  1.00  0.00     0.043 C 
BRANCH  16  17
ATOM     17  C   UNL A   1      30.207  27.378  23.214  1.00  0.00    -0.039 C 
ATOM     18  C   UNL A   1      29.205  28.242  23.109  1.00  0.00     0.001 A 
ATOM     19  C   UNL A   1      31.484  27.999  22.721  1.00  0.00     0.174 C 
ATOM     20  C   UNL A   1      27.794  28.185  23.295  1.00  0.00     0.010 A 
ATOM     21  C   UNL A   1      29.896  29.489  22.752  1.00  0.00     0.065 A 
ATOM     22  N   UNL A   1      31.171  29.433  22.522  1.00  0.00    -0.280 NA
ATOM     23  C   UNL A   1      27.093  29.326  23.228  1.00  0.00     0.001 A 
ATOM     24  C   UNL A   1      29.066  30.710  22.747  1.00  0.00     0.028 A 
ATOM     25  C   UNL A   1      27.749  30.602  22.991  1.00  0.00     0.002 A 
ENDBRANCH  16  17
ENDBRANCH  15  16
ENDBRANCH  12  15
ENDBRANCH   7  11
ENDBRANCH   4   7
ENDBRANCH   2   3
ENDBRANCH   1   2
BRANCH   1  26
ATOM     26  C   UNL A   1      31.709  28.883  26.273  1.00  0.00     0.023 C 
BRANCH  26  27
ATOM     27  C   UNL A   1      32.896  29.791  25.989  1.00  0.00     0.116 C 
BRANCH  27  28
ATOM     28  N   UNL A   1      32.637  31.164  26.391  1.00  0.00    -0.352 N 
ATOM     29  C   UNL A   1      33.307  31.940  27.310  1.00  0.00     0.251 C 
ATOM     30  H   UNL A   1      31.876  31.600  25.944  1.00  0.00     0.163 HD
ATOM     31  O   UNL A   1      32.810  32.971  27.728  1.00  0.00    -0.269 OA
BRANCH  29  32
ATOM     32  C   UNL A   1      34.623  31.470  27.790  1.00  0.00     0.039 A 
ATOM     33  C   UNL A   1      34.767  30.146  28.202  1.00  0.00     0.014 A 
ATOM     34  C   UNL A   1      35.682  32.371  27.900  1.00  0.00     0.014 A 
ATOM     35  C   UNL A   1      35.892  29.776  28.918  1.00  0.00     0.010 A 
ATOM     36  C   UNL A   1      36.868  31.955  28.506  1.00  0.00     0.010 A 
ATOM     37  C   UNL A   1      36.964  30.669  29.066  1.00  0.00    -0.014 A 
BRANCH  37  38
ATOM     38  C   UNL A   1      38.184  30.232  29.792  1.00  0.00     0.031 A 
ATOM     39  C   UNL A   1      39.170  29.301  29.143  1.00  0.00     0.074 A 
ATOM     40  C   UNL A   1      38.415  30.717  31.028  1.00  0.00     0.049 A 
ATOM     41  N   UNL A   1      40.231  28.738  29.660  1.00  0.00    -0.248 NA
ATOM     42  C   UNL A   1      38.935  28.949  27.732  1.00  0.00     0.031 C 
ATOM     43  C   UNL A   1      37.543  31.663  31.729  1.00  0.00     0.029 A 
ATOM     44  N   UNL A   1      39.448  30.510  31.905  1.00  0.00    -0.354 N 
ATOM     45  C   UNL A   1      40.766  27.936  28.657  1.00  0.00     0.074 A 
ATOM     46  C   UNL A   1      39.906  28.074  27.503  1.00  0.00     0.031 C 
ATOM     47  C   UNL A   1      38.110  32.008  32.889  1.00  0.00     0.029 A 
ATOM     48  C   UNL A   1      39.320  31.216  33.080  1.00  0.00     0.049 A 
ATOM     49  H   UNL A   1      40.208  29.915  31.714  1.00  0.00     0.167 HD
ATOM     50  C   UNL A   1      41.877  27.165  28.705  1.00  0.00     0.034 A 
ATOM     51  C   UNL A   1      40.060  31.198  34.206  1.00  0.00     0.034 A 
ATOM     52  C   UNL A   1      42.735  27.080  29.860  1.00  0.00     0.049 A 
ATOM     53  C   UNL A   1      41.256  30.288  34.255  1.00  0.00     0.074 A 
ATOM     54  C   UNL A   1      43.894  26.340  30.011  1.00  0.00     0.029 A 
ATOM     55  N   UNL A   1      42.539  27.763  31.052  1.00  0.00    -0.354 N 
ATOM     56  N   UNL A   1      41.738  29.517  33.307  1.00  0.00    -0.248 NA
ATOM     57  C   UNL A   1      41.997  30.220  35.520  1.00  0.00     0.031 C 
ATOM     58  C   UNL A   1      44.365  26.530  31.310  1.00  0.00     0.029 A 
ATOM     59  C   UNL A   1      43.540  27.441  31.952  1.00  0.00     0.049 A 
ATOM     60  H   UNL A   1      41.797  28.386  31.232  1.00  0.00     0.167 HD
ATOM     61  C   UNL A   1      42.841  28.877  33.859  1.00  0.00     0.074 A 
ATOM     62  C   UNL A   1      42.972  29.373  35.214  1.00  0.00     0.031 C 
ATOM     63  C   UNL A   1      43.660  27.954  33.297  1.00  0.00     0.034 A 
BRANCH  50  64
ATOM     64  C   UNL A   1      42.251  26.343  27.495  1.00  0.00     0.023 A 
ATOM     65  C   UNL A   1      41.878  24.987  27.426  1.00  0.00     0.031 A 
ATOM     66  C   UNL A   1      43.077  26.856  26.480  1.00  0.00     0.131 A 
ATOM     67  C   UNL A   1      42.359  24.182  26.386  1.00  0.00     0.055 A 
ATOM     68  C   UNL A   1      43.524  26.058  25.424  1.00  0.00     0.041 A 
ATOM     69  F   UNL A   1      43.459  28.143  26.497  1.00  0.00    -0.206 F 
ATOM     70  C   UNL A   1      43.175  24.711  25.382  1.00  0.00     0.022 A 
BRANCH  67  71
ATOM     71  S   UNL A   1      41.997  22.404  26.328  1.00  0.00     0.124 S 
ATOM     72  O   UNL A   1      42.534  21.950  27.610  1.00  0.00    -0.237 OA
ATOM     73  O   UNL A   1      40.541  22.392  26.223  1.00  0.00    -0.237 OA
ATOM     74  O   UNL A   1      42.721  21.936  25.153  1.00  0.00    -0.744 OA
ENDBRANCH  67  71
ENDBRANCH  50  64
BRANCH  51  75
ATOM     75  C   UNL A   1      39.666  32.075  35.347  1.00  0.00     0.023 A 
ATOM     76  C   UNL A   1      38.978  31.548  36.458  1.00  0.00     0.031 A 
ATOM     77  C   UNL A   1      39.833  33.467  35.276  1.00  0.00     0.131 A 
ATOM     78  C   UNL A   1      38.395  32.413  37.393  1.00  0.00     0.055 A 
ATOM     79  C   UNL A   1      39.321  34.320  36.256  1.00  0.00     0.041 A 
ATOM     80  F   UNL A   1      40.474  34.018  34.233  1.00  0.00    -0.206 F 
ATOM     81  C   UNL A   1      38.576  33.795  37.308  1.00  0.00     0.022 A 
BRANCH  78  82
ATOM     82  S   UNL A   1      37.238  31.781  38.642  1.00  0.00     0.124 S 
ATOM     83  O   UNL A   1      36.102  32.685  38.488  1.00  0.00    -0.237 OA
ATOM     84  O   UNL A   1      37.021  30.411  38.183  1.00  0.00    -0.237 OA
ATOM     85  O   UNL A   1      37.980  31.904  39.891  1.00  0.00    -0.744 OA
ENDBRANCH  78  82
ENDBRANCH  51  75
BRANCH  63  86
ATOM     86  C   UNL A   1      44.785  27.396  34.130  1.00  0.00     0.023 A 
ATOM     87  C   UNL A   1      44.575  26.243  34.910  1.00  0.00     0.031 A 
ATOM     88  C   UNL A   1      45.992  28.099  34.286  1.00  0.00     0.131 A 
ATOM     89  C   UNL A   1      45.534  25.860  35.854  1.00  0.00     0.055 A 
ATOM     90  C   UNL A   1      46.966  27.685  35.193  1.00  0.00     0.041 A 
ATOM     91  F   UNL A   1      46.231  29.207  33.566  1.00  0.00    -0.206 F 
ATOM     92  C   UNL A   1      46.731  26.570  35.995  1.00  0.00     0.022 A 
BRANCH  89  93
ATOM     93  S   UNL A   1      45.222  24.486  36.996  1.00  0.00     0.124 S 
ATOM     94  O   UNL A   1      44.284  25.085  37.942  1.00  0.00    -0.237 OA
ATOM     95  O   UNL A   1      44.656  23.475  36.109  1.00  0.00    -0.237 OA
ATOM     96  O   UNL A   1      46.540  24.178  37.543  1.00  0.00    -0.744 OA
ENDBRANCH  89  93
ENDBRANCH  63  86
ENDBRANCH  37  38
ENDBRANCH  29  32
ENDBRANCH  27  28
ENDBRANCH  26  27
ENDBRANCH   1  26
TORSDOF 19
ENDMDL
MODEL 2
REMARK VINA RESULT:     -11.8      2.566      8.564
REMARK SMILES CC(C)[C@H](NC(=O)CCC1=c2ccccc2=NC1)C(=O)NCCCCNC(=O)c1ccc(-c2c3nc(c(-c4cc(S(=O)(=O)[O-])ccc4F)c4ccc([nH]4)c(-c4cc(S(=O)(=O)[O-])ccc4F)c4nc(c(-c5cc(S(=O)(=O)[O-])ccc5F)c5ccc2[nH]5)C=C4)C=C3)cc1
REMARK SMILES IDX 23 1 22 2 21 3 19 4 20 5 4 7 2 8 1 9 3 10 5 11 6 12 7 14
REMARK SMILES IDX 8 15 9 16 10 17 11 18 18 19 12 20 16 21 17 22 13 23 15 24
REMARK SMILES IDX 14 25 24 26 25 27 26 28 27 29 28 31 29 32 30 33 91 34 31 35
REMARK SMILES IDX 90 36 32 37 33 38 34 39 84 40 35 41 89 42 83 43 85 44 36 45
REMARK SMILES IDX 88 46 82 47 81 48 37 50 69 51 49 52 68 53 50 54 53 55 67 56
REMARK SMILES IDX 86 57 51 58 52 59 66 61 87 62 54 63 38 64 39 65 47 66 40 67
REMARK SMILES IDX 46 68 48 69 45 70 41 71 42 72 43 73 44 74 70 75 71 76 79 77
REMARK SMILES IDX 72 78 78 79 80 80 77 81 73 82 74 83 75 84 76 85 55 86 56 87
REMARK SMILES IDX 64 88 57 89 63 90 65 91 62 92 58 93 59 94 60 95 61 96
REMARK H PARENT 21 6 5 13 26 30 85 49 53 60
REMARK Flexibility Score: inf
ROOT
ATOM      1  C   UNL A   1      32.006  30.162  26.929  1.00  0.00     0.023 C 
ENDROOT
BRANCH   1   2
ATOM      2  C   UNL A   1      33.381  29.494  27.003  1.00  0.00     0.116 C 
BRANCH   2   3
ATOM      3  N   UNL A   1      33.935  29.067  25.732  1.00  0.00    -0.354 N 
ATOM      4  C   UNL A   1      33.388  28.296  24.761  1.00  0.00     0.242 C 
ATOM      5  O   UNL A   1      33.675  28.606  23.599  1.00  0.00    -0.273 OA
ATOM      6  H   UNL A   1      34.848  29.384  25.547  1.00  0.00     0.163 HD
BRANCH   4   7
ATOM      7  C   UNL A   1      32.364  27.188  25.033  1.00  0.00     0.173 C 
BRANCH   7   8
ATOM      8  C   UNL A   1      33.042  26.109  25.939  1.00  0.00     0.015 C 
ATOM      9  C   UNL A   1      32.170  24.861  26.114  1.00  0.00     0.010 C 
ATOM     10  C   UNL A   1      34.439  25.692  25.472  1.00  0.00     0.010 C 
ENDBRANCH   7   8
BRANCH   7  11
ATOM     11  N   UNL A   1      31.630  26.598  23.909  1.00  0.00    -0.344 N 
ATOM     12  C   UNL A   1      32.110  26.302  22.667  1.00  0.00     0.220 C 
ATOM     13  H   UNL A   1      30.681  26.391  24.069  1.00  0.00     0.164 HD
ATOM     14  O   UNL A   1      31.446  26.710  21.709  1.00  0.00    -0.275 OA
BRANCH  12  15
ATOM     15  C   UNL A   1      33.234  25.301  22.444  1.00  0.00     0.104 C 
BRANCH  15  16
ATOM     16  C   UNL A   1      33.052  23.810  22.172  1.00  0.00     0.043 C 
BRANCH  16  17
ATOM     17  C   UNL A   1      33.466  22.821  23.196  1.00  0.00    -0.039 C 
ATOM     18  C   UNL A   1      34.678  22.560  23.671  1.00  0.00     0.001 A 
ATOM     19  C   UNL A   1      32.452  21.909  23.829  1.00  0.00     0.174 C 
ATOM     20  C   UNL A   1      35.999  22.996  23.368  1.00  0.00     0.010 A 
ATOM     21  C   UNL A   1      34.396  21.626  24.769  1.00  0.00     0.065 A 
ATOM     22  N   UNL A   1      33.174  21.218  24.922  1.00  0.00    -0.280 NA
ATOM     23  C   UNL A   1      37.001  22.608  24.171  1.00  0.00     0.001 A 
ATOM     24  C   UNL A   1      35.539  21.284  25.639  1.00  0.00     0.028 A 
ATOM     25  C   UNL A   1      36.753  21.776  25.338  1.00  0.00     0.002 A 
ENDBRANCH  16  17
ENDBRANCH  15  16
ENDBRANCH  12  15
ENDBRANCH   7  11
ENDBRANCH   4   7
ENDBRANCH   2   3
ENDBRANCH   1   2
BRANCH   1  26
ATOM     26  C   UNL A   1      32.009  31.671  26.705  1.00  0.00     0.023 C 
BRANCH  26  27
ATOM     27  C   UNL A   1      33.154  32.398  27.396  1.00  0.00     0.116 C 
BRANCH  27  28
ATOM     28  N   UNL A   1      32.837  33.794  27.648  1.00  0.00    -0.352 N 
ATOM     29  C   UNL A   1      33.251  34.605  28.680  1.00  0.00     0.251 C 
ATOM     30  H   UNL A   1      32.243  34.219  26.988  1.00  0.00     0.163 HD
ATOM     31  O   UNL A   1      32.691  35.665  28.897  1.00  0.00    -0.269 OA
BRANCH  29  32
ATOM     32  C   UNL A   1      34.368  34.137  29.526  1.00  0.00     0.039 A 
ATOM     33  C   UNL A   1      35.680  34.423  29.147  1.00  0.00     0.014 A 
ATOM     34  C   UNL A   1      34.106  33.352  30.648  1.00  0.00     0.014 A 
ATOM     35  C   UNL A   1      36.724  33.751  29.757  1.00  0.00     0.010 A 
ATOM     36  C   UNL A   1      35.173  32.781  31.344  1.00  0.00     0.010 A 
ATOM     37  C   UNL A   1      36.488  32.935  30.874  1.00  0.00    -0.014 A 
BRANCH  37  38
ATOM     38  C   UNL A   1      37.632  32.268  31.546  1.00  0.00     0.031 A 
ATOM     39  C   UNL A   1      38.069  32.696  32.920  1.00  0.00     0.074 A 
ATOM     40  C   UNL A   1      38.246  31.243  30.922  1.00  0.00     0.049 A 
ATOM     41  N   UNL A   1      39.104  32.297  33.613  1.00  0.00    -0.248 NA
ATOM     42  C   UNL A   1      37.244  33.706  33.605  1.00  0.00     0.031 C 
ATOM     43  C   UNL A   1      37.868  30.721  29.607  1.00  0.00     0.029 A 
ATOM     44  N   UNL A   1      39.291  30.444  31.306  1.00  0.00    -0.354 N 
ATOM     45  C   UNL A   1      39.079  33.033  34.794  1.00  0.00     0.074 A 
ATOM     46  C   UNL A   1      37.935  33.913  34.718  1.00  0.00     0.031 C 
ATOM     47  C   UNL A   1      38.617  29.649  29.327  1.00  0.00     0.029 A 
ATOM     48  C   UNL A   1      39.615  29.481  30.377  1.00  0.00     0.049 A 
ATOM     49  H   UNL A   1      39.765  30.547  32.163  1.00  0.00     0.167 HD
ATOM     50  C   UNL A   1      39.936  32.967  35.840  1.00  0.00     0.034 A 
ATOM     51  C   UNL A   1      40.628  28.592  30.343  1.00  0.00     0.034 A 
ATOM     52  C   UNL A   1      41.046  32.049  35.900  1.00  0.00     0.049 A 
ATOM     53  C   UNL A   1      41.600  28.580  31.490  1.00  0.00     0.074 A 
ATOM     54  C   UNL A   1      41.967  31.889  36.918  1.00  0.00     0.029 A 
ATOM     55  N   UNL A   1      41.377  31.131  34.912  1.00  0.00    -0.354 N 
ATOM     56  N   UNL A   1      41.578  29.296  32.589  1.00  0.00    -0.248 NA
ATOM     57  C   UNL A   1      42.742  27.663  31.391  1.00  0.00     0.031 C 
ATOM     58  C   UNL A   1      42.887  30.918  36.523  1.00  0.00     0.029 A 
ATOM     59  C   UNL A   1      42.505  30.421  35.286  1.00  0.00     0.049 A 
ATOM     60  H   UNL A   1      40.883  31.004  34.070  1.00  0.00     0.167 HD
ATOM     61  C   UNL A   1      42.700  28.915  33.317  1.00  0.00     0.074 A 
ATOM     62  C   UNL A   1      43.362  27.883  32.544  1.00  0.00     0.031 C 
ATOM     63  C   UNL A   1      43.146  29.387  34.507  1.00  0.00     0.034 A 
BRANCH  50  64
ATOM     64  C   UNL A   1      39.733  33.896  37.012  1.00  0.00     0.023 A 
ATOM     65  C   UNL A   1      39.142  33.412  38.196  1.00  0.00     0.031 A 
ATOM     66  C   UNL A   1      40.000  35.273  36.919  1.00  0.00     0.131 A 
ATOM     67  C   UNL A   1      38.805  34.303  39.223  1.00  0.00     0.055 A 
ATOM     68  C   UNL A   1      39.696  36.152  37.962  1.00  0.00     0.041 A 
ATOM     69  F   UNL A   1      40.565  35.785  35.814  1.00  0.00    -0.206 F 
ATOM     70  C   UNL A   1      39.084  35.668  39.114  1.00  0.00     0.022 A 
BRANCH  67  71
ATOM     71  S   UNL A   1      37.936  33.736  40.711  1.00  0.00     0.124 S 
ATOM     72  O   UNL A   1      38.890  32.777  41.266  1.00  0.00    -0.237 OA
ATOM     73  O   UNL A   1      37.786  34.975  41.469  1.00  0.00    -0.237 OA
ATOM     74  O   UNL A   1      36.702  33.154  40.198  1.00  0.00    -0.744 OA
ENDBRANCH  67  71
ENDBRANCH  50  64
BRANCH  51  75
ATOM     75  C   UNL A   1      40.740  27.665  29.179  1.00  0.00     0.023 A 
ATOM     76  C   UNL A   1      41.687  27.895  28.162  1.00  0.00     0.031 A 
ATOM     77  C   UNL A   1      39.809  26.632  28.990  1.00  0.00     0.131 A 
ATOM     78  C   UNL A   1      41.613  27.175  26.963  1.00  0.00     0.055 A 
ATOM     79  C   UNL A   1      39.793  25.860  27.827  1.00  0.00     0.041 A 
ATOM     80  F   UNL A   1      38.881  26.378  29.926  1.00  0.00    -0.206 F 
ATOM     81  C   UNL A   1      40.682  26.147  26.795  1.00  0.00     0.022 A 
BRANCH  78  82
ATOM     82  S   UNL A   1      42.604  27.671  25.524  1.00  0.00     0.124 S 
ATOM     83  O   UNL A   1      42.543  26.476  24.688  1.00  0.00    -0.237 OA
ATOM     84  O   UNL A   1      41.857  28.825  25.029  1.00  0.00    -0.237 OA
ATOM     85  O   UNL A   1      43.910  27.979  26.095  1.00  0.00    -0.744 OA
ENDBRANCH  78  82
ENDBRANCH  51  75
BRANCH  63  86
ATOM     86  C   UNL A   1      44.416  28.809  35.075  1.00  0.00     0.023 A 
ATOM     87  C   UNL A   1      44.350  27.787  36.041  1.00  0.00     0.031 A 
ATOM     88  C   UNL A   1      45.666  29.386  34.794  1.00  0.00     0.131 A 
ATOM     89  C   UNL A   1      45.507  27.413  36.735  1.00  0.00     0.055 A 
ATOM     90  C   UNL A   1      46.824  28.975  35.453  1.00  0.00     0.041 A 
ATOM     91  F   UNL A   1      45.773  30.368  33.885  1.00  0.00    -0.206 F 
ATOM     92  C   UNL A   1      46.744  27.996  36.440  1.00  0.00     0.022 A 
BRANCH  89  93
ATOM     93  S   UNL A   1      45.431  26.227  38.104  1.00  0.00     0.124 S 
ATOM     94  O   UNL A   1      45.429  24.948  37.397  1.00  0.00    -0.237 OA
ATOM     95  O   UNL A   1      46.654  26.532  38.840  1.00  0.00    -0.237 OA
ATOM     96  O   UNL A   1      44.185  26.558  38.788  1.00  0.00    -0.744 OA
ENDBRANCH  89  93
ENDBRANCH  63  86
ENDBRANCH  37  38
ENDBRANCH  29  32
ENDBRANCH  27  28
ENDBRANCH  26  27
ENDBRANCH   1  26
TORSDOF 19
ENDMDL
MODEL 3
REMARK VINA RESULT:     -11.7      2.375      4.052
REMARK SMILES CC(C)[C@H](NC(=O)CCC1=c2ccccc2=NC1)C(=O)NCCCCNC(=O)c1ccc(-c2c3nc(c(-c4cc(S(=O)(=O)[O-])ccc4F)c4ccc([nH]4)c(-c4cc(S(=O)(=O)[O-])ccc4F)c4nc(c(-c5cc(S(=O)(=O)[O-])ccc5F)c5ccc2[nH]5)C=C4)C=C3)cc1
REMARK SMILES IDX 23 1 22 2 21 3 19 4 20 5 4 7 2 8 1 9 3 10 5 11 6 12 7 14
REMARK SMILES IDX 8 15 9 16 10 17 11 18 18 19 12 20 16 21 17 22 13 23 15 24
REMARK SMILES IDX 14 25 24 26 25 27 26 28 27 29 28 31 29 32 30 33 91 34 31 35
REMARK SMILES IDX 90 36 32 37 33 38 34 39 84 40 35 41 89 42 83 43 85 44 36 45
REMARK SMILES IDX 88 46 82 47 81 48 37 50 69 51 49 52 68 53 50 54 53 55 67 56
REMARK SMILES IDX 86 57 51 58 52 59 66 61 87 62 54 63 38 64 39 65 47 66 40 67
REMARK SMILES IDX 46 68 48 69 45 70 41 71 42 72 43 73 44 74 70 75 71 76 79 77
REMARK SMILES IDX 72 78 78 79 80 80 77 81 73 82 74 83 75 84 76 85 55 86 56 87
REMARK SMILES IDX 64 88 57 89 63 90 65 91 62 92 58 93 59 94 60 95 61 96
REMARK H PARENT 21 6 5 13 26 30 85 49 53 60
REMARK Flexibility Score: inf
ROOT
ATOM      1  C   UNL A   1      31.597  31.055  26.165  1.00  0.00     0.023 C 
ENDROOT
BRANCH   1   2
ATOM      2  C   UNL A   1      31.784  29.787  25.328  1.00  0.00     0.116 C 
BRANCH   2   3
ATOM      3  N   UNL A   1      33.059  29.675  24.642  1.00  0.00    -0.354 N 
ATOM      4  C   UNL A   1      33.523  28.697  23.829  1.00  0.00     0.242 C 
ATOM      5  O   UNL A   1      34.227  29.069  22.883  1.00  0.00    -0.273 OA
ATOM      6  H   UNL A   1      33.680  30.424  24.791  1.00  0.00     0.163 HD
BRANCH   4   7
ATOM      7  C   UNL A   1      33.115  27.224  23.953  1.00  0.00     0.173 C 
BRANCH   7   8
ATOM      8  C   UNL A   1      33.880  26.608  25.170  1.00  0.00     0.015 C 
ATOM      9  C   UNL A   1      32.977  26.418  26.394  1.00  0.00     0.010 C 
ATOM     10  C   UNL A   1      34.593  25.289  24.856  1.00  0.00     0.010 C 
ENDBRANCH   7   8
BRANCH   7  11
ATOM     11  N   UNL A   1      33.160  26.364  22.767  1.00  0.00    -0.344 N 
ATOM     12  C   UNL A   1      32.739  25.071  22.661  1.00  0.00     0.220 C 
ATOM     13  H   UNL A   1      33.538  26.766  21.951  1.00  0.00     0.164 HD
ATOM     14  O   UNL A   1      33.535  24.273  22.155  1.00  0.00    -0.275 OA
BRANCH  12  15
ATOM     15  C   UNL A   1      31.291  24.662  22.887  1.00  0.00     0.104 C 
BRANCH  15  16
ATOM     16  C   UNL A   1      30.830  23.404  23.619  1.00  0.00     0.043 C 
BRANCH  16  17
ATOM     17  C   UNL A   1      31.241  23.178  25.025  1.00  0.00    -0.039 C 
ATOM     18  C   UNL A   1      32.290  22.514  25.497  1.00  0.00     0.001 A 
ATOM     19  C   UNL A   1      30.406  23.706  26.158  1.00  0.00     0.174 C 
ATOM     20  C   UNL A   1      33.325  21.719  24.929  1.00  0.00     0.010 A 
ATOM     21  C   UNL A   1      32.233  22.811  26.935  1.00  0.00     0.065 A 
ATOM     22  N   UNL A   1      31.211  23.474  27.379  1.00  0.00    -0.280 NA
ATOM     23  C   UNL A   1      34.324  21.306  25.722  1.00  0.00     0.001 A 
ATOM     24  C   UNL A   1      33.392  22.366  27.734  1.00  0.00     0.028 A 
ATOM     25  C   UNL A   1      34.370  21.671  27.129  1.00  0.00     0.002 A 
ENDBRANCH  16  17
ENDBRANCH  15  16
ENDBRANCH  12  15
ENDBRANCH   7  11
ENDBRANCH   4   7
ENDBRANCH   2   3
ENDBRANCH   1   2
BRANCH   1  26
ATOM     26  C   UNL A   1      32.523  31.203  27.368  1.00  0.00     0.023 C 
BRANCH  26  27
ATOM     27  C   UNL A   1      33.546  32.321  27.229  1.00  0.00     0.116 C 
BRANCH  27  28
ATOM     28  N   UNL A   1      33.023  33.596  27.693  1.00  0.00    -0.352 N 
ATOM     29  C   UNL A   1      33.319  34.287  28.846  1.00  0.00     0.251 C 
ATOM     30  H   UNL A   1      32.365  34.025  27.100  1.00  0.00     0.163 HD
ATOM     31  O   UNL A   1      32.605  35.202  29.219  1.00  0.00    -0.269 OA
BRANCH  29  32
ATOM     32  C   UNL A   1      34.502  33.867  29.624  1.00  0.00     0.039 A 
ATOM     33  C   UNL A   1      35.769  34.292  29.226  1.00  0.00     0.014 A 
ATOM     34  C   UNL A   1      34.349  32.991  30.698  1.00  0.00     0.014 A 
ATOM     35  C   UNL A   1      36.889  33.678  29.758  1.00  0.00     0.010 A 
ATOM     36  C   UNL A   1      35.486  32.473  31.322  1.00  0.00     0.010 A 
ATOM     37  C   UNL A   1      36.765  32.773  30.823  1.00  0.00    -0.014 A 
BRANCH  37  38
ATOM     38  C   UNL A   1      37.985  32.168  31.414  1.00  0.00     0.031 A 
ATOM     39  C   UNL A   1      38.687  31.030  30.726  1.00  0.00     0.074 A 
ATOM     40  C   UNL A   1      38.480  32.684  32.557  1.00  0.00     0.049 A 
ATOM     41  N   UNL A   1      39.700  30.316  31.144  1.00  0.00    -0.248 NA
ATOM     42  C   UNL A   1      38.184  30.633  29.399  1.00  0.00     0.031 C 
ATOM     43  C   UNL A   1      37.901  33.819  33.278  1.00  0.00     0.029 A 
ATOM     44  N   UNL A   1      39.582  32.349  33.300  1.00  0.00    -0.354 N 
ATOM     45  C   UNL A   1      39.931  29.365  30.156  1.00  0.00     0.074 A 
ATOM     46  C   UNL A   1      38.944  29.581  29.123  1.00  0.00     0.031 C 
ATOM     47  C   UNL A   1      38.687  34.131  34.313  1.00  0.00     0.029 A 
ATOM     48  C   UNL A   1      39.757  33.144  34.411  1.00  0.00     0.049 A 
ATOM     49  H   UNL A   1      40.191  31.613  33.063  1.00  0.00     0.167 HD
ATOM     50  C   UNL A   1      40.887  28.406  30.124  1.00  0.00     0.034 A 
ATOM     51  C   UNL A   1      40.644  33.065  35.422  1.00  0.00     0.034 A 
ATOM     52  C   UNL A   1      41.882  28.242  31.154  1.00  0.00     0.049 A 
ATOM     53  C   UNL A   1      41.658  31.955  35.392  1.00  0.00     0.074 A 
ATOM     54  C   UNL A   1      42.904  27.314  31.214  1.00  0.00     0.029 A 
ATOM     55  N   UNL A   1      41.988  29.029  32.293  1.00  0.00    -0.354 N 
ATOM     56  N   UNL A   1      41.851  31.048  34.463  1.00  0.00    -0.248 NA
ATOM     57  C   UNL A   1      42.558  31.838  36.545  1.00  0.00     0.031 C 
ATOM     58  C   UNL A   1      43.591  27.500  32.413  1.00  0.00     0.029 A 
ATOM     59  C   UNL A   1      43.043  28.589  33.074  1.00  0.00     0.049 A 
ATOM     60  H   UNL A   1      41.401  29.788  32.514  1.00  0.00     0.167 HD
ATOM     61  C   UNL A   1      42.898  30.253  34.916  1.00  0.00     0.074 A 
ATOM     62  C   UNL A   1      43.315  30.806  36.189  1.00  0.00     0.031 C 
ATOM     63  C   UNL A   1      43.451  29.159  34.337  1.00  0.00     0.034 A 
BRANCH  50  64
ATOM     64  C   UNL A   1      40.926  27.451  28.956  1.00  0.00     0.023 A 
ATOM     65  C   UNL A   1      41.877  27.633  27.933  1.00  0.00     0.031 A 
ATOM     66  C   UNL A   1      39.955  26.449  28.787  1.00  0.00     0.131 A 
ATOM     67  C   UNL A   1      41.814  26.851  26.773  1.00  0.00     0.055 A 
ATOM     68  C   UNL A   1      39.919  25.646  27.644  1.00  0.00     0.041 A 
ATOM     69  F   UNL A   1      39.028  26.232  29.733  1.00  0.00    -0.206 F 
ATOM     70  C   UNL A   1      40.844  25.856  26.626  1.00  0.00     0.022 A 
BRANCH  67  71
ATOM     71  S   UNL A   1      42.947  27.136  25.384  1.00  0.00     0.124 S 
ATOM     72  O   UNL A   1      42.277  28.223  24.672  1.00  0.00    -0.237 OA
ATOM     73  O   UNL A   1      44.182  27.509  26.068  1.00  0.00    -0.237 OA
ATOM     74  O   UNL A   1      42.972  25.858  24.683  1.00  0.00    -0.744 OA
ENDBRANCH  67  71
ENDBRANCH  50  64
BRANCH  51  75
ATOM     75  C   UNL A   1      40.584  34.075  36.519  1.00  0.00     0.023 A 
ATOM     76  C   UNL A   1      40.051  33.739  37.780  1.00  0.00     0.031 A 
ATOM     77  C   UNL A   1      40.913  35.418  36.280  1.00  0.00     0.131 A 
ATOM     78  C   UNL A   1      39.767  34.748  38.708  1.00  0.00     0.055 A 
ATOM     79  C   UNL A   1      40.705  36.409  37.242  1.00  0.00     0.041 A 
ATOM     80  F   UNL A   1      41.416  35.790  35.092  1.00  0.00    -0.206 F 
ATOM     81  C   UNL A   1      40.106  36.079  38.454  1.00  0.00     0.022 A 
BRANCH  78  82
ATOM     82  S   UNL A   1      38.788  34.387  40.195  1.00  0.00     0.124 S 
ATOM     83  O   UNL A   1      37.722  33.546  39.661  1.00  0.00    -0.237 OA
ATOM     84  O   UNL A   1      39.767  33.706  41.040  1.00  0.00    -0.237 OA
ATOM     85  O   UNL A   1      38.379  35.706  40.666  1.00  0.00    -0.744 OA
ENDBRANCH  78  82
ENDBRANCH  51  75
BRANCH  63  86
ATOM     86  C   UNL A   1      44.575  28.461  35.057  1.00  0.00     0.023 A 
ATOM     87  C   UNL A   1      44.285  27.525  36.068  1.00  0.00     0.031 A 
ATOM     88  C   UNL A   1      45.912  28.849  34.867  1.00  0.00     0.131 A 
ATOM     89  C   UNL A   1      45.314  27.052  36.891  1.00  0.00     0.055 A 
ATOM     90  C   UNL A   1      46.940  28.337  35.658  1.00  0.00     0.041 A 
ATOM     91  F   UNL A   1      46.232  29.744  33.918  1.00  0.00    -0.206 F 
ATOM     92  C   UNL A   1      46.640  27.447  36.686  1.00  0.00     0.022 A 
BRANCH  89  93
ATOM     93  S   UNL A   1      44.956  25.983  38.311  1.00  0.00     0.124 S 
ATOM     94  O   UNL A   1      43.651  26.479  38.743  1.00  0.00    -0.237 OA
ATOM     95  O   UNL A   1      44.949  24.657  37.700  1.00  0.00    -0.237 OA
ATOM     96  O   UNL A   1      46.055  26.245  39.235  1.00  0.00    -0.744 OA
ENDBRANCH  89  93
ENDBRANCH  63  86
ENDBRANCH  37  38
ENDBRANCH  29  32
ENDBRANCH  27  28
ENDBRANCH  26  27
ENDBRANCH   1  26
TORSDOF 19
ENDMDL
