MODEL 1
REMARK VINA RESULT:     -13.0      0.000      0.000
REMARK SMILES O=C(NCCCCNC(=O)c1ccccc1/C=N/n1cnnc1SCc1ccccc1)c1ccc(-c2c3nc(c(-c4cc(S(=O)(=O)[O-])ccc4F)c4ccc([nH]4)c(-c4cc(S(=O)(=O)[O-])ccc4F)c4nc(c(-c5cc(S(=O)(=O)[O-])ccc5F)c5ccc2[nH]5)C=C4)C=C3)cc1
REMARK SMILES IDX 6 1 5 2 4 3 3 4 1 5 2 6 32 8 33 9 94 10 34 11 93 12 35 13
REMARK SMILES IDX 36 14 37 15 87 16 38 17 92 18 86 19 88 20 39 21 91 22 85 23
REMARK SMILES IDX 84 24 40 26 72 27 52 28 71 29 53 30 56 31 70 32 89 33 54 34
REMARK SMILES IDX 55 35 69 37 90 38 57 39 41 40 42 41 50 42 43 43 49 44 51 45
REMARK SMILES IDX 48 46 44 47 45 48 46 49 47 50 73 51 74 52 82 53 75 54 81 55
REMARK SMILES IDX 83 56 80 57 76 58 77 59 78 60 79 61 58 62 59 63 67 64 60 65
REMARK SMILES IDX 66 66 68 67 65 68 61 69 62 70 63 71 64 72 7 73 8 74 9 75
REMARK SMILES IDX 10 77 11 78 12 79 16 80 13 81 15 82 14 83 17 84 18 85 19 86
REMARK SMILES IDX 20 87 23 88 21 89 22 90 24 91 25 92 26 93 27 94 31 95 28 96
REMARK SMILES IDX 30 97 29 98
REMARK H PARENT 3 7 88 25 56 36 8 76
REMARK Flexibility Score: inf
ROOT
ATOM      1  C   UNL A   1      33.323  29.004  26.786  1.00  0.00     0.023 C 
ENDROOT
BRANCH   1   2
ATOM      2  C   UNL A   1      34.542  29.664  27.434  1.00  0.00     0.023 C 
BRANCH   2   3
ATOM      3  C   UNL A   1      34.504  31.188  27.565  1.00  0.00     0.116 C 
BRANCH   3   4
ATOM      4  N   UNL A   1      34.455  31.715  28.912  1.00  0.00    -0.352 N 
ATOM      5  O   UNL A   1      35.072  32.591  30.849  1.00  0.00    -0.269 OA
ATOM      6  C   UNL A   1      35.387  31.861  29.905  1.00  0.00     0.251 C 
ATOM      7  H   UNL A   1      33.560  32.038  29.170  1.00  0.00     0.163 HD
BRANCH   6   8
ATOM      8  C   UNL A   1      36.687  31.142  29.964  1.00  0.00     0.039 A 
ATOM      9  C   UNL A   1      37.949  31.716  29.806  1.00  0.00     0.014 A 
ATOM     10  C   UNL A   1      36.603  29.753  30.177  1.00  0.00     0.014 A 
ATOM     11  C   UNL A   1      39.085  30.909  29.739  1.00  0.00     0.010 A 
ATOM     12  C   UNL A   1      37.733  28.946  30.128  1.00  0.00     0.010 A 
ATOM     13  C   UNL A   1      38.973  29.520  29.869  1.00  0.00    -0.014 A 
BRANCH  13  14
ATOM     14  C   UNL A   1      40.195  28.721  29.993  1.00  0.00     0.031 A 
ATOM     15  C   UNL A   1      40.599  28.504  31.411  1.00  0.00     0.074 A 
ATOM     16  C   UNL A   1      40.818  28.091  28.974  1.00  0.00     0.049 A 
ATOM     17  N   UNL A   1      41.652  28.952  32.011  1.00  0.00    -0.248 NA
ATOM     18  C   UNL A   1      39.633  27.857  32.316  1.00  0.00     0.031 C 
ATOM     19  C   UNL A   1      40.387  28.010  27.577  1.00  0.00     0.029 A 
ATOM     20  N   UNL A   1      41.932  27.297  28.989  1.00  0.00    -0.354 N 
ATOM     21  C   UNL A   1      41.607  28.426  33.300  1.00  0.00     0.074 A 
ATOM     22  C   UNL A   1      40.262  27.958  33.488  1.00  0.00     0.031 C 
ATOM     23  C   UNL A   1      41.091  27.042  26.944  1.00  0.00     0.029 A 
ATOM     24  C   UNL A   1      42.105  26.514  27.845  1.00  0.00     0.049 A 
ATOM     25  H   UNL A   1      42.562  27.279  29.747  1.00  0.00     0.167 HD
ATOM     26  C   UNL A   1      42.752  28.180  33.996  1.00  0.00     0.034 A 
ATOM     27  C   UNL A   1      42.978  25.478  27.661  1.00  0.00     0.034 A 
ATOM     28  C   UNL A   1      43.865  28.915  33.435  1.00  0.00     0.049 A 
ATOM     29  C   UNL A   1      44.067  25.654  28.652  1.00  0.00     0.074 A 
ATOM     30  C   UNL A   1      44.116  30.252  33.186  1.00  0.00     0.029 A 
ATOM     31  N   UNL A   1      44.788  28.224  32.682  1.00  0.00    -0.354 N 
ATOM     32  N   UNL A   1      44.912  26.647  28.616  1.00  0.00    -0.248 NA
ATOM     33  C   UNL A   1      43.916  25.015  29.950  1.00  0.00     0.031 C 
ATOM     34  C   UNL A   1      44.796  30.268  31.932  1.00  0.00     0.029 A 
ATOM     35  C   UNL A   1      45.006  28.947  31.536  1.00  0.00     0.049 A 
ATOM     36  H   UNL A   1      45.213  27.370  32.922  1.00  0.00     0.167 HD
ATOM     37  C   UNL A   1      45.039  27.050  29.935  1.00  0.00     0.074 A 
ATOM     38  C   UNL A   1      44.479  25.950  30.721  1.00  0.00     0.031 C 
ATOM     39  C   UNL A   1      45.322  28.347  30.254  1.00  0.00     0.034 A 
BRANCH  26  40
ATOM     40  C   UNL A   1      42.963  26.977  34.899  1.00  0.00     0.023 A 
ATOM     41  C   UNL A   1      43.745  25.926  34.380  1.00  0.00     0.031 A 
ATOM     42  C   UNL A   1      42.210  26.662  36.054  1.00  0.00     0.131 A 
ATOM     43  C   UNL A   1      43.638  24.623  34.895  1.00  0.00     0.055 A 
ATOM     44  C   UNL A   1      42.165  25.379  36.607  1.00  0.00     0.041 A 
ATOM     45  F   UNL A   1      41.408  27.540  36.667  1.00  0.00    -0.206 F 
ATOM     46  C   UNL A   1      42.847  24.339  36.002  1.00  0.00     0.022 A 
BRANCH  43  47
ATOM     47  S   UNL A   1      44.390  23.273  33.950  1.00  0.00     0.124 S 
ATOM     48  O   UNL A   1      44.372  22.194  34.931  1.00  0.00    -0.237 OA
ATOM     49  O   UNL A   1      43.466  23.143  32.829  1.00  0.00    -0.237 OA
ATOM     50  O   UNL A   1      45.712  23.794  33.612  1.00  0.00    -0.744 OA
ENDBRANCH  43  47
ENDBRANCH  26  40
BRANCH  27  51
ATOM     51  C   UNL A   1      42.760  24.197  26.915  1.00  0.00     0.023 A 
ATOM     52  C   UNL A   1      43.713  23.627  26.033  1.00  0.00     0.031 A 
ATOM     53  C   UNL A   1      41.676  23.368  27.279  1.00  0.00     0.131 A 
ATOM     54  C   UNL A   1      43.553  22.297  25.562  1.00  0.00     0.055 A 
ATOM     55  C   UNL A   1      41.526  22.059  26.815  1.00  0.00     0.041 A 
ATOM     56  F   UNL A   1      40.764  23.773  28.177  1.00  0.00    -0.206 F 
ATOM     57  C   UNL A   1      42.469  21.513  25.961  1.00  0.00     0.022 A 
BRANCH  54  58
ATOM     58  S   UNL A   1      44.801  21.516  24.477  1.00  0.00     0.124 S 
ATOM     59  O   UNL A   1      44.384  20.118  24.474  1.00  0.00    -0.237 OA
ATOM     60  O   UNL A   1      44.637  22.247  23.226  1.00  0.00    -0.237 OA
ATOM     61  O   UNL A   1      46.066  21.773  25.169  1.00  0.00    -0.744 OA
ENDBRANCH  54  58
ENDBRANCH  27  51
BRANCH  39  62
ATOM     62  C   UNL A   1      45.814  29.276  29.162  1.00  0.00     0.023 A 
ATOM     63  C   UNL A   1      45.013  30.195  28.445  1.00  0.00     0.031 A 
ATOM     64  C   UNL A   1      47.201  29.295  28.924  1.00  0.00     0.131 A 
ATOM     65  C   UNL A   1      45.611  31.077  27.521  1.00  0.00     0.055 A 
ATOM     66  C   UNL A   1      47.789  30.184  28.029  1.00  0.00     0.041 A 
ATOM     67  F   UNL A   1      48.018  28.463  29.592  1.00  0.00    -0.206 F 
ATOM     68  C   UNL A   1      46.995  31.075  27.319  1.00  0.00     0.022 A 
BRANCH  65  69
ATOM     69  S   UNL A   1      44.600  32.237  26.545  1.00  0.00     0.124 S 
ATOM     70  O   UNL A   1      45.562  32.853  25.638  1.00  0.00    -0.237 OA
ATOM     71  O   UNL A   1      43.612  31.355  25.928  1.00  0.00    -0.237 OA
ATOM     72  O   UNL A   1      44.051  33.144  27.556  1.00  0.00    -0.744 OA
ENDBRANCH  65  69
ENDBRANCH  39  62
ENDBRANCH  13  14
ENDBRANCH   6   8
ENDBRANCH   3   4
ENDBRANCH   2   3
ENDBRANCH   1   2
BRANCH   1  73
ATOM     73  C   UNL A   1      32.654  29.805  25.682  1.00  0.00     0.116 C 
BRANCH  73  74
ATOM     74  N   UNL A   1      33.192  29.557  24.352  1.00  0.00    -0.352 N 
ATOM     75  C   UNL A   1      32.709  28.752  23.346  1.00  0.00     0.251 C 
ATOM     76  H   UNL A   1      34.027  30.036  24.140  1.00  0.00     0.163 HD
ATOM     77  O   UNL A   1      33.296  28.662  22.280  1.00  0.00    -0.269 OA
BRANCH  75  78
ATOM     78  C   UNL A   1      31.470  27.973  23.543  1.00  0.00     0.048 A 
ATOM     79  C   UNL A   1      30.253  28.604  23.248  1.00  0.00     0.014 A 
ATOM     80  C   UNL A   1      31.470  26.661  24.014  1.00  0.00     0.007 A 
ATOM     81  C   UNL A   1      29.050  27.905  23.373  1.00  0.00     0.001 A 
ATOM     82  C   UNL A   1      30.266  25.972  24.139  1.00  0.00     0.010 A 
ATOM     83  C   UNL A   1      29.057  26.583  23.810  1.00  0.00     0.001 A 
BRANCH  80  84
ATOM     84  C   UNL A   1      32.724  25.965  24.361  1.00  0.00     0.143 C 
ATOM     85  N   UNL A   1      32.684  24.913  25.111  1.00  0.00    -0.172 NA
BRANCH  85  86
ATOM     86  N   UNL A   1      33.853  24.234  25.350  1.00  0.00    -0.195 N 
ATOM     87  C   UNL A   1      35.158  24.658  25.228  1.00  0.00     0.251 A 
ATOM     88  C   UNL A   1      33.982  22.917  25.772  1.00  0.00     0.212 A 
ATOM     89  N   UNL A   1      36.000  23.697  25.525  1.00  0.00    -0.136 NA
ATOM     90  N   UNL A   1      35.257  22.601  25.866  1.00  0.00    -0.122 NA
BRANCH  88  91
ATOM     91  S   UNL A   1      32.734  21.776  26.162  1.00  0.00    -0.080 SA
BRANCH  91  92
ATOM     92  C   UNL A   1      32.198  20.983  24.642  1.00  0.00     0.113 C 
BRANCH  92  93
ATOM     93  C   UNL A   1      32.917  19.749  24.132  1.00  0.00    -0.038 A 
ATOM     94  C   UNL A   1      32.290  19.015  23.107  1.00  0.00     0.004 A 
ATOM     95  C   UNL A   1      34.098  19.231  24.680  1.00  0.00     0.004 A 
ATOM     96  C   UNL A   1      32.758  17.752  22.736  1.00  0.00     0.000 A 
ATOM     97  C   UNL A   1      34.550  17.957  24.329  1.00  0.00     0.000 A 
ATOM     98  C   UNL A   1      33.867  17.208  23.378  1.00  0.00     0.000 A 
ENDBRANCH  92  93
ENDBRANCH  91  92
ENDBRANCH  88  91
ENDBRANCH  85  86
ENDBRANCH  80  84
ENDBRANCH  75  78
ENDBRANCH  73  74
ENDBRANCH   1  73
TORSDOF 19
ENDMDL
MODEL 2
REMARK VINA RESULT:     -12.8      1.605      2.064
REMARK SMILES O=C(NCCCCNC(=O)c1ccccc1/C=N/n1cnnc1SCc1ccccc1)c1ccc(-c2c3nc(c(-c4cc(S(=O)(=O)[O-])ccc4F)c4ccc([nH]4)c(-c4cc(S(=O)(=O)[O-])ccc4F)c4nc(c(-c5cc(S(=O)(=O)[O-])ccc5F)c5ccc2[nH]5)C=C4)C=C3)cc1
REMARK SMILES IDX 6 1 5 2 4 3 3 4 1 5 2 6 32 8 33 9 94 10 34 11 93 12 35 13
REMARK SMILES IDX 36 14 37 15 87 16 38 17 92 18 86 19 88 20 39 21 91 22 85 23
REMARK SMILES IDX 84 24 40 26 72 27 52 28 71 29 53 30 56 31 70 32 89 33 54 34
REMARK SMILES IDX 55 35 69 37 90 38 57 39 41 40 42 41 50 42 43 43 49 44 51 45
REMARK SMILES IDX 48 46 44 47 45 48 46 49 47 50 73 51 74 52 82 53 75 54 81 55
REMARK SMILES IDX 83 56 80 57 76 58 77 59 78 60 79 61 58 62 59 63 67 64 60 65
REMARK SMILES IDX 66 66 68 67 65 68 61 69 62 70 63 71 64 72 7 73 8 74 9 75
REMARK SMILES IDX 10 77 11 78 12 79 16 80 13 81 15 82 14 83 17 84 18 85 19 86
REMARK SMILES IDX 20 87 23 88 21 89 22 90 24 91 25 92 26 93 27 94 31 95 28 96
REMARK SMILES IDX 30 97 29 98
REMARK H PARENT 3 7 88 25 56 36 8 76
REMARK Flexibility Score: inf
ROOT
ATOM      1  C   UNL A   1      33.096  29.170  26.154  1.00  0.00     0.023 C 
ENDROOT
BRANCH   1   2
ATOM      2  C   UNL A   1      33.028  30.287  27.196  1.00  0.00     0.023 C 
BRANCH   2   3
ATOM      3  C   UNL A   1      34.347  30.982  27.541  1.00  0.00     0.116 C 
BRANCH   3   4
ATOM      4  N   UNL A   1      34.384  31.703  28.795  1.00  0.00    -0.352 N 
ATOM      5  O   UNL A   1      35.127  32.838  30.543  1.00  0.00    -0.269 OA
ATOM      6  C   UNL A   1      35.374  31.969  29.703  1.00  0.00     0.251 C 
ATOM      7  H   UNL A   1      33.512  32.084  29.049  1.00  0.00     0.163 HD
BRANCH   6   8
ATOM      8  C   UNL A   1      36.662  31.233  29.798  1.00  0.00     0.039 A 
ATOM      9  C   UNL A   1      37.930  31.807  29.898  1.00  0.00     0.014 A 
ATOM     10  C   UNL A   1      36.562  29.829  29.759  1.00  0.00     0.014 A 
ATOM     11  C   UNL A   1      39.071  31.008  29.834  1.00  0.00     0.010 A 
ATOM     12  C   UNL A   1      37.695  29.026  29.713  1.00  0.00     0.010 A 
ATOM     13  C   UNL A   1      38.954  29.618  29.711  1.00  0.00    -0.014 A 
BRANCH  13  14
ATOM     14  C   UNL A   1      40.156  28.793  29.845  1.00  0.00     0.031 A 
ATOM     15  C   UNL A   1      40.532  28.551  31.268  1.00  0.00     0.074 A 
ATOM     16  C   UNL A   1      40.784  28.162  28.830  1.00  0.00     0.049 A 
ATOM     17  N   UNL A   1      41.582  28.970  31.891  1.00  0.00    -0.248 NA
ATOM     18  C   UNL A   1      39.537  27.912  32.148  1.00  0.00     0.031 C 
ATOM     19  C   UNL A   1      40.377  28.106  27.425  1.00  0.00     0.029 A 
ATOM     20  N   UNL A   1      41.882  27.345  28.855  1.00  0.00    -0.354 N 
ATOM     21  C   UNL A   1      41.504  28.428  33.173  1.00  0.00     0.074 A 
ATOM     22  C   UNL A   1      40.147  27.987  33.331  1.00  0.00     0.031 C 
ATOM     23  C   UNL A   1      41.073  27.132  26.792  1.00  0.00     0.029 A 
ATOM     24  C   UNL A   1      42.059  26.572  27.704  1.00  0.00     0.049 A 
ATOM     25  H   UNL A   1      42.498  27.305  29.623  1.00  0.00     0.167 HD
ATOM     26  C   UNL A   1      42.631  28.151  33.886  1.00  0.00     0.034 A 
ATOM     27  C   UNL A   1      42.914  25.521  27.523  1.00  0.00     0.034 A 
ATOM     28  C   UNL A   1      43.768  28.870  33.353  1.00  0.00     0.049 A 
ATOM     29  C   UNL A   1      43.988  25.662  28.534  1.00  0.00     0.074 A 
ATOM     30  C   UNL A   1      44.051  30.204  33.125  1.00  0.00     0.029 A 
ATOM     31  N   UNL A   1      44.691  28.169  32.608  1.00  0.00    -0.354 N 
ATOM     32  N   UNL A   1      44.854  26.639  28.525  1.00  0.00    -0.248 NA
ATOM     33  C   UNL A   1      43.802  25.011  29.822  1.00  0.00     0.031 C 
ATOM     34  C   UNL A   1      44.754  30.221  31.883  1.00  0.00     0.029 A 
ATOM     35  C   UNL A   1      44.943  28.901  31.475  1.00  0.00     0.049 A 
ATOM     36  H   UNL A   1      45.093  27.303  32.845  1.00  0.00     0.167 HD
ATOM     37  C   UNL A   1      44.967  27.023  29.852  1.00  0.00     0.074 A 
ATOM     38  C   UNL A   1      44.370  25.925  30.614  1.00  0.00     0.031 C 
ATOM     39  C   UNL A   1      45.270  28.310  30.191  1.00  0.00     0.034 A 
BRANCH  26  40
ATOM     40  C   UNL A   1      42.802  26.933  34.777  1.00  0.00     0.023 A 
ATOM     41  C   UNL A   1      43.621  25.899  34.285  1.00  0.00     0.031 A 
ATOM     42  C   UNL A   1      41.987  26.591  35.881  1.00  0.00     0.131 A 
ATOM     43  C   UNL A   1      43.498  24.586  34.769  1.00  0.00     0.055 A 
ATOM     44  C   UNL A   1      41.922  25.297  36.407  1.00  0.00     0.041 A 
ATOM     45  F   UNL A   1      41.144  27.450  36.463  1.00  0.00    -0.206 F 
ATOM     46  C   UNL A   1      42.648  24.275  35.824  1.00  0.00     0.022 A 
BRANCH  43  47
ATOM     47  S   UNL A   1      44.315  23.260  33.845  1.00  0.00     0.124 S 
ATOM     48  O   UNL A   1      44.339  22.191  34.837  1.00  0.00    -0.237 OA
ATOM     49  O   UNL A   1      43.404  23.076  32.720  1.00  0.00    -0.237 OA
ATOM     50  O   UNL A   1      45.615  23.835  33.508  1.00  0.00    -0.744 OA
ENDBRANCH  43  47
ENDBRANCH  26  40
BRANCH  27  51
ATOM     51  C   UNL A   1      42.683  24.254  26.757  1.00  0.00     0.023 A 
ATOM     52  C   UNL A   1      43.604  23.721  25.820  1.00  0.00     0.031 A 
ATOM     53  C   UNL A   1      41.630  23.399  27.150  1.00  0.00     0.131 A 
ATOM     54  C   UNL A   1      43.444  22.399  25.326  1.00  0.00     0.055 A 
ATOM     55  C   UNL A   1      41.480  22.098  26.662  1.00  0.00     0.041 A 
ATOM     56  F   UNL A   1      40.752  23.767  28.097  1.00  0.00    -0.206 F 
ATOM     57  C   UNL A   1      42.392  21.588  25.755  1.00  0.00     0.022 A 
BRANCH  54  58
ATOM     58  S   UNL A   1      44.655  21.664  24.168  1.00  0.00     0.124 S 
ATOM     59  O   UNL A   1      45.922  22.183  24.668  1.00  0.00    -0.237 OA
ATOM     60  O   UNL A   1      44.426  20.233  24.334  1.00  0.00    -0.237 OA
ATOM     61  O   UNL A   1      44.249  22.197  22.865  1.00  0.00    -0.744 OA
ENDBRANCH  54  58
ENDBRANCH  27  51
BRANCH  39  62
ATOM     62  C   UNL A   1      45.800  29.241  29.120  1.00  0.00     0.023 A 
ATOM     63  C   UNL A   1      45.039  30.210  28.426  1.00  0.00     0.031 A 
ATOM     64  C   UNL A   1      47.186  29.206  28.879  1.00  0.00     0.131 A 
ATOM     65  C   UNL A   1      45.673  31.087  27.521  1.00  0.00     0.055 A 
ATOM     66  C   UNL A   1      47.811  30.089  28.003  1.00  0.00     0.041 A 
ATOM     67  F   UNL A   1      47.967  28.324  29.525  1.00  0.00    -0.206 F 
ATOM     68  C   UNL A   1      47.055  31.030  27.315  1.00  0.00     0.022 A 
BRANCH  65  69
ATOM     69  S   UNL A   1      44.712  32.312  26.574  1.00  0.00     0.124 S 
ATOM     70  O   UNL A   1      43.758  31.500  25.828  1.00  0.00    -0.237 OA
ATOM     71  O   UNL A   1      44.149  33.156  27.626  1.00  0.00    -0.237 OA
ATOM     72  O   UNL A   1      45.724  32.974  25.748  1.00  0.00    -0.744 OA
ENDBRANCH  65  69
ENDBRANCH  39  62
ENDBRANCH  13  14
ENDBRANCH   6   8
ENDBRANCH   3   4
ENDBRANCH   2   3
ENDBRANCH   1   2
BRANCH   1  73
ATOM     73  C   UNL A   1      32.176  29.333  24.957  1.00  0.00     0.116 C 
BRANCH  73  74
ATOM     74  N   UNL A   1      32.462  28.428  23.853  1.00  0.00    -0.352 N 
ATOM     75  C   UNL A   1      31.618  27.923  22.891  1.00  0.00     0.251 C 
ATOM     76  H   UNL A   1      33.399  28.132  23.784  1.00  0.00     0.163 HD
ATOM     77  O   UNL A   1      32.033  27.167  22.028  1.00  0.00    -0.269 OA
BRANCH  75  78
ATOM     78  C   UNL A   1      30.186  28.284  22.890  1.00  0.00     0.048 A 
ATOM     79  C   UNL A   1      29.811  29.453  22.210  1.00  0.00     0.014 A 
ATOM     80  C   UNL A   1      29.216  27.523  23.539  1.00  0.00     0.007 A 
ATOM     81  C   UNL A   1      28.466  29.822  22.137  1.00  0.00     0.001 A 
ATOM     82  C   UNL A   1      27.876  27.901  23.465  1.00  0.00     0.010 A 
ATOM     83  C   UNL A   1      27.496  29.040  22.757  1.00  0.00     0.001 A 
BRANCH  80  84
ATOM     84  C   UNL A   1      29.565  26.300  24.287  1.00  0.00     0.143 C 
ATOM     85  N   UNL A   1      30.310  26.386  25.340  1.00  0.00    -0.172 NA
BRANCH  85  86
ATOM     86  N   UNL A   1      30.551  25.248  26.068  1.00  0.00    -0.195 N 
ATOM     87  C   UNL A   1      29.662  24.333  26.590  1.00  0.00     0.251 A 
ATOM     88  C   UNL A   1      31.787  24.754  26.461  1.00  0.00     0.212 A 
ATOM     89  N   UNL A   1      30.286  23.387  27.251  1.00  0.00    -0.136 NA
ATOM     90  N   UNL A   1      31.625  23.655  27.170  1.00  0.00    -0.122 NA
BRANCH  88  91
ATOM     91  S   UNL A   1      33.366  25.387  26.119  1.00  0.00    -0.080 SA
BRANCH  91  92
ATOM     92  C   UNL A   1      33.909  24.730  24.538  1.00  0.00     0.113 C 
BRANCH  92  93
ATOM     93  C   UNL A   1      34.874  23.563  24.489  1.00  0.00    -0.038 A 
ATOM     94  C   UNL A   1      34.961  22.749  25.635  1.00  0.00     0.004 A 
ATOM     95  C   UNL A   1      35.759  23.303  23.434  1.00  0.00     0.004 A 
ATOM     96  C   UNL A   1      35.976  21.798  25.769  1.00  0.00     0.000 A 
ATOM     97  C   UNL A   1      36.790  22.373  23.578  1.00  0.00     0.000 A 
ATOM     98  C   UNL A   1      36.915  21.639  24.754  1.00  0.00     0.000 A 
ENDBRANCH  92  93
ENDBRANCH  91  92
ENDBRANCH  88  91
ENDBRANCH  85  86
ENDBRANCH  80  84
ENDBRANCH  75  78
ENDBRANCH  73  74
ENDBRANCH   1  73
TORSDOF 19
ENDMDL
MODEL 3
REMARK VINA RESULT:     -12.7      1.827      2.258
REMARK SMILES O=C(NCCCCNC(=O)c1ccccc1/C=N/n1cnnc1SCc1ccccc1)c1ccc(-c2c3nc(c(-c4cc(S(=O)(=O)[O-])ccc4F)c4ccc([nH]4)c(-c4cc(S(=O)(=O)[O-])ccc4F)c4nc(c(-c5cc(S(=O)(=O)[O-])ccc5F)c5ccc2[nH]5)C=C4)C=C3)cc1
REMARK SMILES IDX 6 1 5 2 4 3 3 4 1 5 2 6 32 8 33 9 94 10 34 11 93 12 35 13
REMARK SMILES IDX 36 14 37 15 87 16 38 17 92 18 86 19 88 20 39 21 91 22 85 23
REMARK SMILES IDX 84 24 40 26 72 27 52 28 71 29 53 30 56 31 70 32 89 33 54 34
REMARK SMILES IDX 55 35 69 37 90 38 57 39 41 40 42 41 50 42 43 43 49 44 51 45
REMARK SMILES IDX 48 46 44 47 45 48 46 49 47 50 73 51 74 52 82 53 75 54 81 55
REMARK SMILES IDX 83 56 80 57 76 58 77 59 78 60 79 61 58 62 59 63 67 64 60 65
REMARK SMILES IDX 66 66 68 67 65 68 61 69 62 70 63 71 64 72 7 73 8 74 9 75
REMARK SMILES IDX 10 77 11 78 12 79 16 80 13 81 15 82 14 83 17 84 18 85 19 86
REMARK SMILES IDX 20 87 23 88 21 89 22 90 24 91 25 92 26 93 27 94 31 95 28 96
REMARK SMILES IDX 30 97 29 98
REMARK H PARENT 3 7 88 25 56 36 8 76
REMARK Flexibility Score: inf
ROOT
ATOM      1  C   UNL A   1      31.741  29.219  27.227  1.00  0.00     0.023 C 
ENDROOT
BRANCH   1   2
ATOM      2  C   UNL A   1      32.600  30.350  26.658  1.00  0.00     0.023 C 
BRANCH   2   3
ATOM      3  C   UNL A   1      34.089  30.318  27.008  1.00  0.00     0.116 C 
BRANCH   3   4
ATOM      4  N   UNL A   1      34.624  31.500  27.648  1.00  0.00    -0.352 N 
ATOM      5  O   UNL A   1      36.039  33.048  28.355  1.00  0.00    -0.269 OA
ATOM      6  C   UNL A   1      35.872  31.855  28.087  1.00  0.00     0.251 C 
ATOM      7  H   UNL A   1      33.945  32.198  27.802  1.00  0.00     0.163 HD
BRANCH   6   8
ATOM      8  C   UNL A   1      36.987  30.906  28.342  1.00  0.00     0.039 A 
ATOM      9  C   UNL A   1      37.001  29.550  28.013  1.00  0.00     0.014 A 
ATOM     10  C   UNL A   1      38.107  31.450  28.998  1.00  0.00     0.014 A 
ATOM     11  C   UNL A   1      38.050  28.735  28.437  1.00  0.00     0.010 A 
ATOM     12  C   UNL A   1      39.164  30.646  29.408  1.00  0.00     0.010 A 
ATOM     13  C   UNL A   1      39.118  29.277  29.162  1.00  0.00    -0.014 A 
BRANCH  13  14
ATOM     14  C   UNL A   1      40.293  28.442  29.420  1.00  0.00     0.031 A 
ATOM     15  C   UNL A   1      40.628  28.354  30.870  1.00  0.00     0.074 A 
ATOM     16  C   UNL A   1      40.927  27.685  28.499  1.00  0.00     0.049 A 
ATOM     17  N   UNL A   1      41.676  28.814  31.470  1.00  0.00    -0.248 NA
ATOM     18  C   UNL A   1      39.596  27.845  31.791  1.00  0.00     0.031 C 
ATOM     19  C   UNL A   1      40.551  27.480  27.100  1.00  0.00     0.029 A 
ATOM     20  N   UNL A   1      42.000  26.848  28.645  1.00  0.00    -0.354 N 
ATOM     21  C   UNL A   1      41.553  28.424  32.802  1.00  0.00     0.074 A 
ATOM     22  C   UNL A   1      40.180  28.038  32.974  1.00  0.00     0.031 C 
ATOM     23  C   UNL A   1      41.233  26.423  26.599  1.00  0.00     0.029 A 
ATOM     24  C   UNL A   1      42.182  25.945  27.594  1.00  0.00     0.049 A 
ATOM     25  H   UNL A   1      42.597  26.880  29.428  1.00  0.00     0.167 HD
ATOM     26  C   UNL A   1      42.655  28.202  33.571  1.00  0.00     0.034 A 
ATOM     27  C   UNL A   1      43.011  24.860  27.555  1.00  0.00     0.034 A 
ATOM     28  C   UNL A   1      43.824  28.826  32.990  1.00  0.00     0.049 A 
ATOM     29  C   UNL A   1      44.065  25.088  28.572  1.00  0.00     0.074 A 
ATOM     30  C   UNL A   1      44.149  30.119  32.621  1.00  0.00     0.029 A 
ATOM     31  N   UNL A   1      44.743  28.022  32.354  1.00  0.00    -0.354 N 
ATOM     32  N   UNL A   1      44.958  26.034  28.475  1.00  0.00    -0.248 NA
ATOM     33  C   UNL A   1      43.831  24.591  29.920  1.00  0.00     0.031 C 
ATOM     34  C   UNL A   1      44.881  29.976  31.403  1.00  0.00     0.029 A 
ATOM     35  C   UNL A   1      45.042  28.614  31.152  1.00  0.00     0.049 A 
ATOM     36  H   UNL A   1      45.116  27.179  32.697  1.00  0.00     0.167 HD
ATOM     37  C   UNL A   1      45.050  26.563  29.752  1.00  0.00     0.074 A 
ATOM     38  C   UNL A   1      44.405  25.575  30.618  1.00  0.00     0.031 C 
ATOM     39  C   UNL A   1      45.382  27.873  29.953  1.00  0.00     0.034 A 
BRANCH  26  40
ATOM     40  C   UNL A   1      42.770  27.089  34.598  1.00  0.00     0.023 A 
ATOM     41  C   UNL A   1      43.566  25.981  34.245  1.00  0.00     0.031 A 
ATOM     42  C   UNL A   1      41.926  26.899  35.716  1.00  0.00     0.131 A 
ATOM     43  C   UNL A   1      43.392  24.736  34.872  1.00  0.00     0.055 A 
ATOM     44  C   UNL A   1      41.810  25.676  36.384  1.00  0.00     0.041 A 
ATOM     45  F   UNL A   1      41.099  27.843  36.179  1.00  0.00    -0.206 F 
ATOM     46  C   UNL A   1      42.514  24.573  35.937  1.00  0.00     0.022 A 
BRANCH  43  47
ATOM     47  S   UNL A   1      44.183  23.290  34.122  1.00  0.00     0.124 S 
ATOM     48  O   UNL A   1      45.490  23.831  33.766  1.00  0.00    -0.237 OA
ATOM     49  O   UNL A   1      44.159  22.333  35.222  1.00  0.00    -0.237 OA
ATOM     50  O   UNL A   1      43.307  22.972  32.998  1.00  0.00    -0.744 OA
ENDBRANCH  43  47
ENDBRANCH  26  40
BRANCH  27  51
ATOM     51  C   UNL A   1      42.762  23.520  26.932  1.00  0.00     0.023 A 
ATOM     52  C   UNL A   1      43.751  22.781  26.232  1.00  0.00     0.031 A 
ATOM     53  C   UNL A   1      41.577  22.822  27.256  1.00  0.00     0.131 A 
ATOM     54  C   UNL A   1      43.526  21.420  25.893  1.00  0.00     0.055 A 
ATOM     55  C   UNL A   1      41.364  21.482  26.922  1.00  0.00     0.041 A 
ATOM     56  F   UNL A   1      40.614  23.396  27.993  1.00  0.00    -0.206 F 
ATOM     57  C   UNL A   1      42.341  20.772  26.247  1.00  0.00     0.022 A 
BRANCH  54  58
ATOM     58  S   UNL A   1      44.809  20.426  25.050  1.00  0.00     0.124 S 
ATOM     59  O   UNL A   1      46.042  21.066  25.493  1.00  0.00    -0.237 OA
ATOM     60  O   UNL A   1      44.554  19.082  25.556  1.00  0.00    -0.237 OA
ATOM     61  O   UNL A   1      44.505  20.608  23.629  1.00  0.00    -0.744 OA
ENDBRANCH  54  58
ENDBRANCH  27  51
BRANCH  39  62
ATOM     62  C   UNL A   1      45.962  28.663  28.797  1.00  0.00     0.023 A 
ATOM     63  C   UNL A   1      47.326  28.692  28.426  1.00  0.00     0.031 A 
ATOM     64  C   UNL A   1      45.046  29.333  27.965  1.00  0.00     0.131 A 
ATOM     65  C   UNL A   1      47.725  29.388  27.265  1.00  0.00     0.055 A 
ATOM     66  C   UNL A   1      45.441  29.998  26.807  1.00  0.00     0.041 A 
ATOM     67  F   UNL A   1      43.733  29.322  28.250  1.00  0.00    -0.206 F 
ATOM     68  C   UNL A   1      46.784  30.034  26.456  1.00  0.00     0.022 A 
BRANCH  65  69
ATOM     69  S   UNL A   1      49.482  29.486  26.789  1.00  0.00     0.124 S 
ATOM     70  O   UNL A   1      50.164  28.731  27.832  1.00  0.00    -0.237 OA
ATOM     71  O   UNL A   1      49.483  28.884  25.457  1.00  0.00    -0.237 OA
ATOM     72  O   UNL A   1      49.757  30.925  26.800  1.00  0.00    -0.744 OA
ENDBRANCH  65  69
ENDBRANCH  39  62
ENDBRANCH  13  14
ENDBRANCH   6   8
ENDBRANCH   3   4
ENDBRANCH   2   3
ENDBRANCH   1   2
BRANCH   1  73
ATOM     73  C   UNL A   1      32.339  27.827  27.124  1.00  0.00     0.116 C 
BRANCH  73  74
ATOM     74  N   UNL A   1      31.359  26.750  27.149  1.00  0.00    -0.352 N 
ATOM     75  C   UNL A   1      30.680  26.158  26.109  1.00  0.00     0.251 C 
ATOM     76  H   UNL A   1      31.151  26.392  28.042  1.00  0.00     0.163 HD
ATOM     77  O   UNL A   1      29.885  25.256  26.314  1.00  0.00    -0.269 OA
BRANCH  75  78
ATOM     78  C   UNL A   1      30.897  26.612  24.720  1.00  0.00     0.048 A 
ATOM     79  C   UNL A   1      30.099  27.665  24.249  1.00  0.00     0.014 A 
ATOM     80  C   UNL A   1      31.840  26.031  23.875  1.00  0.00     0.007 A 
ATOM     81  C   UNL A   1      30.287  28.167  22.959  1.00  0.00     0.001 A 
ATOM     82  C   UNL A   1      32.018  26.534  22.588  1.00  0.00     0.010 A 
ATOM     83  C   UNL A   1      31.255  27.607  22.130  1.00  0.00     0.001 A 
BRANCH  80  84
ATOM     84  C   UNL A   1      32.684  24.904  24.317  1.00  0.00     0.143 C 
ATOM     85  N   UNL A   1      33.271  24.161  23.438  1.00  0.00    -0.172 NA
BRANCH  85  86
ATOM     86  N   UNL A   1      34.119  23.174  23.874  1.00  0.00    -0.195 N 
ATOM     87  C   UNL A   1      35.485  23.202  24.053  1.00  0.00     0.251 A 
ATOM     88  C   UNL A   1      33.775  21.878  24.236  1.00  0.00     0.212 A 
ATOM     89  N   UNL A   1      35.935  22.040  24.462  1.00  0.00    -0.136 NA
ATOM     90  N   UNL A   1      34.856  21.207  24.575  1.00  0.00    -0.122 NA
BRANCH  88  91
ATOM     91  S   UNL A   1      32.201  21.148  24.288  1.00  0.00    -0.080 SA
BRANCH  91  92
ATOM     92  C   UNL A   1      32.270  19.592  23.394  1.00  0.00     0.113 C 
BRANCH  92  93
ATOM     93  C   UNL A   1      32.842  18.356  24.059  1.00  0.00    -0.038 A 
ATOM     94  C   UNL A   1      33.623  17.498  23.261  1.00  0.00     0.004 A 
ATOM     95  C   UNL A   1      32.562  17.954  25.372  1.00  0.00     0.004 A 
ATOM     96  C   UNL A   1      33.999  16.232  23.719  1.00  0.00     0.000 A 
ATOM     97  C   UNL A   1      32.913  16.679  25.820  1.00  0.00     0.000 A 
ATOM     98  C   UNL A   1      33.608  15.809  24.986  1.00  0.00     0.000 A 
ENDBRANCH  92  93
ENDBRANCH  91  92
ENDBRANCH  88  91
ENDBRANCH  85  86
ENDBRANCH  80  84
ENDBRANCH  75  78
ENDBRANCH  73  74
ENDBRANCH   1  73
TORSDOF 19
ENDMDL
