MODEL 1
REMARK VINA RESULT:     -12.7      0.000      0.000
REMARK SMILES N#Cc1ccc(C(=O)N2CCC(Oc3ccccc3)(C(=O)NCCCCNC(=O)c3ccc(-c4c5nc(c(-c6cc(S(=O)(=O)[O-])ccc6F)c6ccc([nH]6)c(-c6cc(S(=O)(=O)[O-])ccc6F)c6nc(c(-c7cc(S(=O)(=O)[O-])ccc7F)c7ccc4[nH]7)C=C6)C=C5)cc3)CC2)cc1
REMARK SMILES IDX 25 1 24 2 23 3 22 4 20 5 21 6 12 8 7 9 8 10 9 11 10 12 94 13
REMARK SMILES IDX 11 14 93 15 6 16 3 17 4 18 96 19 5 20 95 21 2 22 1 23 13 24
REMARK SMILES IDX 14 25 15 26 19 27 16 28 18 29 17 30 26 31 27 32 28 33 29 35
REMARK SMILES IDX 30 36 31 37 92 38 32 39 91 40 33 41 34 42 35 43 85 44 36 45
REMARK SMILES IDX 90 46 84 47 86 48 37 49 89 50 83 51 82 52 38 54 70 55 50 56
REMARK SMILES IDX 69 57 51 58 54 59 68 60 87 61 52 62 53 63 67 65 88 66 55 67
REMARK SMILES IDX 39 68 40 69 48 70 41 71 47 72 49 73 46 74 42 75 43 76 44 77
REMARK SMILES IDX 45 78 71 79 72 80 80 81 73 82 79 83 81 84 78 85 74 86 75 87
REMARK SMILES IDX 76 88 77 89 56 90 57 91 65 92 58 93 64 94 66 95 63 96 59 97
REMARK SMILES IDX 60 98 61 99 62 100
REMARK H PARENT 22 7 27 34 86 53 54 64
REMARK Flexibility Score: inf
ROOT
ATOM      1  C   UNL A   1      38.253  20.076  24.983  1.00  0.00     0.023 C 
ENDROOT
BRANCH   1   2
ATOM      2  C   UNL A   1      37.159  21.135  24.868  1.00  0.00     0.023 C 
BRANCH   2   3
ATOM      3  C   UNL A   1      35.742  20.586  25.016  1.00  0.00     0.116 C 
BRANCH   3   4
ATOM      4  N   UNL A   1      35.117  21.080  26.228  1.00  0.00    -0.353 N 
ATOM      5  C   UNL A   1      33.812  21.382  26.486  1.00  0.00     0.264 C 
ATOM      6  O   UNL A   1      33.556  21.750  27.638  1.00  0.00    -0.270 OA
ATOM      7  H   UNL A   1      35.732  21.220  26.984  1.00  0.00     0.163 HD
BRANCH   5   8
ATOM      8  C   UNL A   1      32.719  21.284  25.382  1.00  0.00     0.190 C 
ATOM      9  C   UNL A   1      32.237  25.017  23.512  1.00  0.00     0.253 C 
ATOM     10  O   UNL A   1      32.069  24.839  22.309  1.00  0.00    -0.269 OA
ATOM     11  N   UNL A   1      32.601  23.996  24.372  1.00  0.00    -0.338 N 
ATOM     12  C   UNL A   1      33.705  23.142  23.990  1.00  0.00     0.124 C 
ATOM     13  C   UNL A   1      31.921  23.713  25.634  1.00  0.00     0.124 C 
ATOM     14  C   UNL A   1      33.280  21.692  24.006  1.00  0.00     0.080 C 
ATOM     15  C   UNL A   1      31.545  22.228  25.749  1.00  0.00     0.080 C 
BRANCH   9  16
ATOM     16  C   UNL A   1      32.252  26.406  24.051  1.00  0.00     0.040 A 
ATOM     17  C   UNL A   1      32.206  28.868  25.394  1.00  0.00     0.052 A 
ATOM     18  C   UNL A   1      33.361  28.079  25.413  1.00  0.00     0.020 A 
ATOM     19  C   UNL A   1      31.076  28.430  24.698  1.00  0.00     0.020 A 
ATOM     20  C   UNL A   1      33.384  26.849  24.746  1.00  0.00     0.015 A 
ATOM     21  C   UNL A   1      31.096  27.200  24.039  1.00  0.00     0.015 A 
BRANCH  17  22
ATOM     22  C   UNL A   1      32.166  30.110  26.111  1.00  0.00     0.099 C 
ATOM     23  N   UNL A   1      32.136  31.114  26.688  1.00  0.00    -0.192 NA
ENDBRANCH  17  22
ENDBRANCH   9  16
BRANCH   8  24
ATOM     24  O   UNL A   1      32.325  19.891  25.501  1.00  0.00    -0.477 OA
BRANCH  24  25
ATOM     25  C   UNL A   1      32.783  18.995  24.583  1.00  0.00     0.120 A 
ATOM     26  C   UNL A   1      32.155  18.977  23.340  1.00  0.00     0.046 A 
ATOM     27  C   UNL A   1      33.727  18.020  24.895  1.00  0.00     0.046 A 
ATOM     28  C   UNL A   1      32.544  18.046  22.376  1.00  0.00     0.004 A 
ATOM     29  C   UNL A   1      34.141  17.109  23.924  1.00  0.00     0.004 A 
ATOM     30  C   UNL A   1      33.555  17.128  22.661  1.00  0.00     0.000 A 
ENDBRANCH  24  25
ENDBRANCH   8  24
ENDBRANCH   5   8
ENDBRANCH   3   4
ENDBRANCH   2   3
ENDBRANCH   1   2
BRANCH   1  31
ATOM     31  C   UNL A   1      39.237  20.301  26.124  1.00  0.00     0.116 C 
BRANCH  31  32
ATOM     32  N   UNL A   1      40.362  19.381  26.080  1.00  0.00    -0.352 N 
ATOM     33  C   UNL A   1      41.706  19.664  26.128  1.00  0.00     0.251 C 
ATOM     34  H   UNL A   1      40.130  18.427  26.004  1.00  0.00     0.163 HD
ATOM     35  O   UNL A   1      42.525  18.781  25.889  1.00  0.00    -0.269 OA
BRANCH  33  36
ATOM     36  C   UNL A   1      42.146  21.041  26.437  1.00  0.00     0.039 A 
ATOM     37  C   UNL A   1      42.271  21.963  25.396  1.00  0.00     0.014 A 
ATOM     38  C   UNL A   1      42.404  21.428  27.756  1.00  0.00     0.014 A 
ATOM     39  C   UNL A   1      42.591  23.290  25.689  1.00  0.00     0.010 A 
ATOM     40  C   UNL A   1      42.627  22.768  28.052  1.00  0.00     0.010 A 
ATOM     41  C   UNL A   1      42.733  23.714  27.022  1.00  0.00    -0.014 A 
BRANCH  41  42
ATOM     42  C   UNL A   1      43.012  25.136  27.355  1.00  0.00     0.031 A 
ATOM     43  C   UNL A   1      44.392  25.698  27.144  1.00  0.00     0.074 A 
ATOM     44  C   UNL A   1      42.040  25.908  27.882  1.00  0.00     0.049 A 
ATOM     45  N   UNL A   1      44.854  26.888  27.432  1.00  0.00    -0.248 NA
ATOM     46  C   UNL A   1      45.394  24.795  26.554  1.00  0.00     0.031 C 
ATOM     47  C   UNL A   1      40.668  25.472  28.154  1.00  0.00     0.029 A 
ATOM     48  N   UNL A   1      42.052  27.221  28.282  1.00  0.00    -0.354 N 
ATOM     49  C   UNL A   1      46.193  26.877  27.058  1.00  0.00     0.074 A 
ATOM     50  C   UNL A   1      46.489  25.538  26.597  1.00  0.00     0.031 C 
ATOM     51  C   UNL A   1      39.965  26.507  28.637  1.00  0.00     0.029 A 
ATOM     52  C   UNL A   1      40.844  27.665  28.771  1.00  0.00     0.049 A 
ATOM     53  H   UNL A   1      42.852  27.793  28.225  1.00  0.00     0.167 HD
ATOM     54  C   UNL A   1      47.086  27.896  27.068  1.00  0.00     0.034 A 
ATOM     55  C   UNL A   1      40.490  28.860  29.283  1.00  0.00     0.034 A 
ATOM     56  C   UNL A   1      46.779  29.227  27.530  1.00  0.00     0.049 A 
ATOM     57  C   UNL A   1      41.527  29.956  29.356  1.00  0.00     0.074 A 
ATOM     58  C   UNL A   1      47.604  30.338  27.562  1.00  0.00     0.029 A 
ATOM     59  N   UNL A   1      45.555  29.627  28.050  1.00  0.00    -0.354 N 
ATOM     60  N   UNL A   1      42.782  29.935  28.967  1.00  0.00    -0.248 NA
ATOM     61  C   UNL A   1      41.099  31.239  29.928  1.00  0.00     0.031 C 
ATOM     62  C   UNL A   1      46.909  31.382  28.176  1.00  0.00     0.029 A 
ATOM     63  C   UNL A   1      45.616  30.958  28.434  1.00  0.00     0.049 A 
ATOM     64  H   UNL A   1      44.761  29.052  28.133  1.00  0.00     0.167 HD
ATOM     65  C   UNL A   1      43.273  31.217  29.205  1.00  0.00     0.074 A 
ATOM     66  C   UNL A   1      42.177  31.986  29.756  1.00  0.00     0.031 C 
ATOM     67  C   UNL A   1      44.515  31.718  28.980  1.00  0.00     0.034 A 
BRANCH  54  68
ATOM     68  C   UNL A   1      48.485  27.604  26.579  1.00  0.00     0.023 A 
ATOM     69  C   UNL A   1      48.851  27.803  25.237  1.00  0.00     0.031 A 
ATOM     70  C   UNL A   1      49.463  27.115  27.463  1.00  0.00     0.131 A 
ATOM     71  C   UNL A   1      50.137  27.451  24.802  1.00  0.00     0.055 A 
ATOM     72  C   UNL A   1      50.769  26.852  27.043  1.00  0.00     0.041 A 
ATOM     73  F   UNL A   1      49.167  26.879  28.750  1.00  0.00    -0.206 F 
ATOM     74  C   UNL A   1      51.108  27.007  25.701  1.00  0.00     0.022 A 
BRANCH  71  75
ATOM     75  S   UNL A   1      50.473  27.440  23.020  1.00  0.00     0.124 S 
ATOM     76  O   UNL A   1      50.534  28.869  22.724  1.00  0.00    -0.237 OA
ATOM     77  O   UNL A   1      51.735  26.716  22.941  1.00  0.00    -0.237 OA
ATOM     78  O   UNL A   1      49.316  26.744  22.458  1.00  0.00    -0.744 OA
ENDBRANCH  71  75
ENDBRANCH  54  68
BRANCH  55  79
ATOM     79  C   UNL A   1      39.104  29.100  29.787  1.00  0.00     0.023 A 
ATOM     80  C   UNL A   1      38.182  29.844  29.033  1.00  0.00     0.031 A 
ATOM     81  C   UNL A   1      38.707  28.667  31.064  1.00  0.00     0.131 A 
ATOM     82  C   UNL A   1      36.944  30.199  29.591  1.00  0.00     0.055 A 
ATOM     83  C   UNL A   1      37.444  28.957  31.584  1.00  0.00     0.041 A 
ATOM     84  F   UNL A   1      39.547  27.956  31.834  1.00  0.00    -0.206 F 
ATOM     85  C   UNL A   1      36.561  29.745  30.855  1.00  0.00     0.022 A 
BRANCH  82  86
ATOM     86  S   UNL A   1      35.903  31.387  28.699  1.00  0.00     0.124 S 
ATOM     87  O   UNL A   1      34.898  31.709  29.704  1.00  0.00    -0.237 OA
ATOM     88  O   UNL A   1      36.856  32.445  28.380  1.00  0.00    -0.237 OA
ATOM     89  O   UNL A   1      35.418  30.620  27.554  1.00  0.00    -0.744 OA
ENDBRANCH  82  86
ENDBRANCH  55  79
BRANCH  67  90
ATOM     90  C   UNL A   1      44.736  33.185  29.264  1.00  0.00     0.023 A 
ATOM     91  C   UNL A   1      44.432  34.183  28.323  1.00  0.00     0.031 A 
ATOM     92  C   UNL A   1      45.269  33.588  30.503  1.00  0.00     0.131 A 
ATOM     93  C   UNL A   1      44.724  35.525  28.610  1.00  0.00     0.055 A 
ATOM     94  C   UNL A   1      45.484  34.931  30.811  1.00  0.00     0.041 A 
ATOM     95  F   UNL A   1      45.587  32.679  31.439  1.00  0.00    -0.206 F 
ATOM     96  C   UNL A   1      45.225  35.908  29.855  1.00  0.00     0.022 A 
BRANCH  93  97
ATOM     97  S   UNL A   1      44.549  36.755  27.287  1.00  0.00     0.124 S 
ATOM     98  O   UNL A   1      44.511  38.005  28.039  1.00  0.00    -0.237 OA
ATOM     99  O   UNL A   1      45.750  36.528  26.490  1.00  0.00    -0.237 OA
ATOM    100  O   UNL A   1      43.294  36.382  26.636  1.00  0.00    -0.744 OA
ENDBRANCH  93  97
ENDBRANCH  67  90
ENDBRANCH  41  42
ENDBRANCH  33  36
ENDBRANCH  31  32
ENDBRANCH   1  31
TORSDOF 18
ENDMDL
MODEL 2
REMARK VINA RESULT:     -12.6      1.662      7.474
REMARK SMILES N#Cc1ccc(C(=O)N2CCC(Oc3ccccc3)(C(=O)NCCCCNC(=O)c3ccc(-c4c5nc(c(-c6cc(S(=O)(=O)[O-])ccc6F)c6ccc([nH]6)c(-c6cc(S(=O)(=O)[O-])ccc6F)c6nc(c(-c7cc(S(=O)(=O)[O-])ccc7F)c7ccc4[nH]7)C=C6)C=C5)cc3)CC2)cc1
REMARK SMILES IDX 25 1 24 2 23 3 22 4 20 5 21 6 12 8 7 9 8 10 9 11 10 12 94 13
REMARK SMILES IDX 11 14 93 15 6 16 3 17 4 18 96 19 5 20 95 21 2 22 1 23 13 24
REMARK SMILES IDX 14 25 15 26 19 27 16 28 18 29 17 30 26 31 27 32 28 33 29 35
REMARK SMILES IDX 30 36 31 37 92 38 32 39 91 40 33 41 34 42 35 43 85 44 36 45
REMARK SMILES IDX 90 46 84 47 86 48 37 49 89 50 83 51 82 52 38 54 70 55 50 56
REMARK SMILES IDX 69 57 51 58 54 59 68 60 87 61 52 62 53 63 67 65 88 66 55 67
REMARK SMILES IDX 39 68 40 69 48 70 41 71 47 72 49 73 46 74 42 75 43 76 44 77
REMARK SMILES IDX 45 78 71 79 72 80 80 81 73 82 79 83 81 84 78 85 74 86 75 87
REMARK SMILES IDX 76 88 77 89 56 90 57 91 65 92 58 93 64 94 66 95 63 96 59 97
REMARK SMILES IDX 60 98 61 99 62 100
REMARK H PARENT 22 7 27 34 86 53 54 64
REMARK Flexibility Score: inf
ROOT
ATOM      1  C   UNL A   1      38.264  20.161  25.127  1.00  0.00     0.023 C 
ENDROOT
BRANCH   1   2
ATOM      2  C   UNL A   1      37.166  21.220  25.203  1.00  0.00     0.023 C 
BRANCH   2   3
ATOM      3  C   UNL A   1      35.751  20.649  25.246  1.00  0.00     0.116 C 
BRANCH   3   4
ATOM      4  N   UNL A   1      35.023  21.149  26.395  1.00  0.00    -0.353 N 
ATOM      5  C   UNL A   1      33.691  21.403  26.552  1.00  0.00     0.264 C 
ATOM      6  O   UNL A   1      33.339  21.792  27.671  1.00  0.00    -0.270 OA
ATOM      7  H   UNL A   1      35.575  21.336  27.188  1.00  0.00     0.163 HD
BRANCH   5   8
ATOM      8  C   UNL A   1      32.684  21.228  25.377  1.00  0.00     0.190 C 
ATOM      9  C   UNL A   1      32.220  24.873  23.337  1.00  0.00     0.253 C 
ATOM     10  O   UNL A   1      32.144  24.647  22.133  1.00  0.00    -0.269 OA
ATOM     11  N   UNL A   1      32.553  23.896  24.259  1.00  0.00    -0.338 N 
ATOM     12  C   UNL A   1      33.708  23.067  23.989  1.00  0.00     0.124 C 
ATOM     13  C   UNL A   1      31.794  23.636  25.479  1.00  0.00     0.124 C 
ATOM     14  C   UNL A   1      33.330  21.605  24.031  1.00  0.00     0.080 C 
ATOM     15  C   UNL A   1      31.457  22.144  25.624  1.00  0.00     0.080 C 
BRANCH   9  16
ATOM     16  C   UNL A   1      32.152  26.280  23.823  1.00  0.00     0.040 A 
ATOM     17  C   UNL A   1      31.949  28.785  25.068  1.00  0.00     0.052 A 
ATOM     18  C   UNL A   1      33.142  28.057  25.145  1.00  0.00     0.020 A 
ATOM     19  C   UNL A   1      30.861  28.265  24.363  1.00  0.00     0.020 A 
ATOM     20  C   UNL A   1      33.243  26.806  24.525  1.00  0.00     0.015 A 
ATOM     21  C   UNL A   1      30.959  27.013  23.754  1.00  0.00     0.015 A 
BRANCH  17  22
ATOM     22  C   UNL A   1      31.829  30.050  25.736  1.00  0.00     0.099 C 
ATOM     23  N   UNL A   1      31.736  31.070  26.276  1.00  0.00    -0.192 NA
ENDBRANCH  17  22
ENDBRANCH   9  16
BRANCH   8  24
ATOM     24  O   UNL A   1      32.327  19.828  25.521  1.00  0.00    -0.477 OA
BRANCH  24  25
ATOM     25  C   UNL A   1      32.676  18.953  24.538  1.00  0.00     0.120 A 
ATOM     26  C   UNL A   1      33.761  18.115  24.784  1.00  0.00     0.046 A 
ATOM     27  C   UNL A   1      32.097  18.981  23.271  1.00  0.00     0.046 A 
ATOM     28  C   UNL A   1      34.199  17.234  23.795  1.00  0.00     0.004 A 
ATOM     29  C   UNL A   1      32.511  18.079  22.291  1.00  0.00     0.004 A 
ATOM     30  C   UNL A   1      33.558  17.200  22.556  1.00  0.00     0.000 A 
ENDBRANCH  24  25
ENDBRANCH   8  24
ENDBRANCH   5   8
ENDBRANCH   3   4
ENDBRANCH   2   3
ENDBRANCH   1   2
BRANCH   1  31
ATOM     31  C   UNL A   1      39.430  20.388  26.081  1.00  0.00     0.116 C 
BRANCH  31  32
ATOM     32  N   UNL A   1      40.402  19.307  26.039  1.00  0.00    -0.352 N 
ATOM     33  C   UNL A   1      41.774  19.383  26.066  1.00  0.00     0.251 C 
ATOM     34  H   UNL A   1      40.028  18.399  25.981  1.00  0.00     0.163 HD
ATOM     35  O   UNL A   1      42.446  18.383  25.833  1.00  0.00    -0.269 OA
BRANCH  33  36
ATOM     36  C   UNL A   1      42.422  20.682  26.347  1.00  0.00     0.039 A 
ATOM     37  C   UNL A   1      42.872  21.461  25.280  1.00  0.00     0.014 A 
ATOM     38  C   UNL A   1      42.556  21.142  27.661  1.00  0.00     0.014 A 
ATOM     39  C   UNL A   1      43.396  22.730  25.529  1.00  0.00     0.010 A 
ATOM     40  C   UNL A   1      42.988  22.442  27.897  1.00  0.00     0.010 A 
ATOM     41  C   UNL A   1      43.422  23.250  26.835  1.00  0.00    -0.014 A 
BRANCH  41  42
ATOM     42  C   UNL A   1      43.919  24.624  27.111  1.00  0.00     0.031 A 
ATOM     43  C   UNL A   1      42.972  25.672  27.632  1.00  0.00     0.074 A 
ATOM     44  C   UNL A   1      45.205  24.940  26.856  1.00  0.00     0.049 A 
ATOM     45  N   UNL A   1      43.192  26.939  27.872  1.00  0.00    -0.248 NA
ATOM     46  C   UNL A   1      41.589  25.245  27.896  1.00  0.00     0.031 C 
ATOM     47  C   UNL A   1      46.213  24.017  26.328  1.00  0.00     0.029 A 
ATOM     48  N   UNL A   1      45.887  26.121  27.006  1.00  0.00    -0.354 N 
ATOM     49  C   UNL A   1      41.980  27.458  28.314  1.00  0.00     0.074 A 
ATOM     50  C   UNL A   1      41.011  26.387  28.233  1.00  0.00     0.031 C 
ATOM     51  C   UNL A   1      47.390  24.657  26.238  1.00  0.00     0.029 A 
ATOM     52  C   UNL A   1      47.212  26.049  26.638  1.00  0.00     0.049 A 
ATOM     53  H   UNL A   1      45.468  26.945  27.345  1.00  0.00     0.167 HD
ATOM     54  C   UNL A   1      41.707  28.703  28.775  1.00  0.00     0.034 A 
ATOM     55  C   UNL A   1      48.169  26.998  26.612  1.00  0.00     0.034 A 
ATOM     56  C   UNL A   1      42.681  29.762  28.850  1.00  0.00     0.049 A 
ATOM     57  C   UNL A   1      47.817  28.399  27.056  1.00  0.00     0.074 A 
ATOM     58  C   UNL A   1      42.515  31.053  29.322  1.00  0.00     0.029 A 
ATOM     59  N   UNL A   1      44.003  29.660  28.437  1.00  0.00    -0.354 N 
ATOM     60  N   UNL A   1      46.671  28.862  27.502  1.00  0.00    -0.248 NA
ATOM     61  C   UNL A   1      48.888  29.401  27.003  1.00  0.00     0.031 C 
ATOM     62  C   UNL A   1      43.706  31.753  29.115  1.00  0.00     0.029 A 
ATOM     63  C   UNL A   1      44.651  30.873  28.612  1.00  0.00     0.049 A 
ATOM     64  H   UNL A   1      44.420  28.845  28.073  1.00  0.00     0.167 HD
ATOM     65  C   UNL A   1      46.903  30.197  27.826  1.00  0.00     0.074 A 
ATOM     66  C   UNL A   1      48.297  30.457  27.538  1.00  0.00     0.031 C 
ATOM     67  C   UNL A   1      46.044  31.123  28.325  1.00  0.00     0.034 A 
BRANCH  54  68
ATOM     68  C   UNL A   1      40.291  28.989  29.217  1.00  0.00     0.023 A 
ATOM     69  C   UNL A   1      39.913  28.912  30.568  1.00  0.00     0.031 A 
ATOM     70  C   UNL A   1      39.305  29.337  28.276  1.00  0.00     0.131 A 
ATOM     71  C   UNL A   1      38.573  29.111  30.932  1.00  0.00     0.055 A 
ATOM     72  C   UNL A   1      37.993  29.622  28.657  1.00  0.00     0.041 A 
ATOM     73  F   UNL A   1      39.599  29.400  26.968  1.00  0.00    -0.206 F 
ATOM     74  C   UNL A   1      37.617  29.497  29.992  1.00  0.00     0.022 A 
BRANCH  71  75
ATOM     75  S   UNL A   1      38.072  28.711  32.629  1.00  0.00     0.124 S 
ATOM     76  O   UNL A   1      36.714  29.248  32.669  1.00  0.00    -0.237 OA
ATOM     77  O   UNL A   1      38.187  27.259  32.659  1.00  0.00    -0.237 OA
ATOM     78  O   UNL A   1      39.043  29.432  33.451  1.00  0.00    -0.744 OA
ENDBRANCH  71  75
ENDBRANCH  54  68
BRANCH  55  79
ATOM     79  C   UNL A   1      49.550  26.684  26.137  1.00  0.00     0.023 A 
ATOM     80  C   UNL A   1      50.005  27.142  24.891  1.00  0.00     0.031 A 
ATOM     81  C   UNL A   1      50.405  25.849  26.880  1.00  0.00     0.131 A 
ATOM     82  C   UNL A   1      51.240  26.703  24.390  1.00  0.00     0.055 A 
ATOM     83  C   UNL A   1      51.666  25.476  26.410  1.00  0.00     0.041 A 
ATOM     84  F   UNL A   1      50.023  25.375  28.077  1.00  0.00    -0.206 F 
ATOM     85  C   UNL A   1      52.082  25.887  25.148  1.00  0.00     0.022 A 
BRANCH  82  86
ATOM     86  S   UNL A   1      51.662  27.092  22.669  1.00  0.00     0.124 S 
ATOM     87  O   UNL A   1      52.032  28.499  22.769  1.00  0.00    -0.237 OA
ATOM     88  O   UNL A   1      52.751  26.158  22.405  1.00  0.00    -0.237 OA
ATOM     89  O   UNL A   1      50.421  26.822  21.946  1.00  0.00    -0.744 OA
ENDBRANCH  82  86
ENDBRANCH  55  79
BRANCH  67  90
ATOM     90  C   UNL A   1      46.606  32.485  28.658  1.00  0.00     0.023 A 
ATOM     91  C   UNL A   1      46.632  33.532  27.722  1.00  0.00     0.031 A 
ATOM     92  C   UNL A   1      47.132  32.733  29.940  1.00  0.00     0.131 A 
ATOM     93  C   UNL A   1      47.231  34.756  28.060  1.00  0.00     0.055 A 
ATOM     94  C   UNL A   1      47.655  33.977  30.294  1.00  0.00     0.041 A 
ATOM     95  F   UNL A   1      47.142  31.768  30.874  1.00  0.00    -0.206 F 
ATOM     96  C   UNL A   1      47.721  34.993  29.346  1.00  0.00     0.022 A 
BRANCH  93  97
ATOM     97  S   UNL A   1      47.468  35.996  26.758  1.00  0.00     0.124 S 
ATOM     98  O   UNL A   1      47.261  35.208  25.547  1.00  0.00    -0.237 OA
ATOM     99  O   UNL A   1      46.430  36.974  27.066  1.00  0.00    -0.237 OA
ATOM    100  O   UNL A   1      48.838  36.459  26.971  1.00  0.00    -0.744 OA
ENDBRANCH  93  97
ENDBRANCH  67  90
ENDBRANCH  41  42
ENDBRANCH  33  36
ENDBRANCH  31  32
ENDBRANCH   1  31
TORSDOF 18
ENDMDL
MODEL 3
REMARK VINA RESULT:     -12.5      6.070     10.345
REMARK SMILES N#Cc1ccc(C(=O)N2CCC(Oc3ccccc3)(C(=O)NCCCCNC(=O)c3ccc(-c4c5nc(c(-c6cc(S(=O)(=O)[O-])ccc6F)c6ccc([nH]6)c(-c6cc(S(=O)(=O)[O-])ccc6F)c6nc(c(-c7cc(S(=O)(=O)[O-])ccc7F)c7ccc4[nH]7)C=C6)C=C5)cc3)CC2)cc1
REMARK SMILES IDX 25 1 24 2 23 3 22 4 20 5 21 6 12 8 7 9 8 10 9 11 10 12 94 13
REMARK SMILES IDX 11 14 93 15 6 16 3 17 4 18 96 19 5 20 95 21 2 22 1 23 13 24
REMARK SMILES IDX 14 25 15 26 19 27 16 28 18 29 17 30 26 31 27 32 28 33 29 35
REMARK SMILES IDX 30 36 31 37 92 38 32 39 91 40 33 41 34 42 35 43 85 44 36 45
REMARK SMILES IDX 90 46 84 47 86 48 37 49 89 50 83 51 82 52 38 54 70 55 50 56
REMARK SMILES IDX 69 57 51 58 54 59 68 60 87 61 52 62 53 63 67 65 88 66 55 67
REMARK SMILES IDX 39 68 40 69 48 70 41 71 47 72 49 73 46 74 42 75 43 76 44 77
REMARK SMILES IDX 45 78 71 79 72 80 80 81 73 82 79 83 81 84 78 85 74 86 75 87
REMARK SMILES IDX 76 88 77 89 56 90 57 91 65 92 58 93 64 94 66 95 63 96 59 97
REMARK SMILES IDX 60 98 61 99 62 100
REMARK H PARENT 22 7 27 34 86 53 54 64
REMARK Flexibility Score: inf
ROOT
ATOM      1  C   UNL A   1      31.929  32.106  26.850  1.00  0.00     0.023 C 
ENDROOT
BRANCH   1   2
ATOM      2  C   UNL A   1      32.153  30.597  26.756  1.00  0.00     0.023 C 
BRANCH   2   3
ATOM      3  C   UNL A   1      31.648  29.972  25.458  1.00  0.00     0.116 C 
BRANCH   3   4
ATOM      4  N   UNL A   1      32.748  29.679  24.560  1.00  0.00    -0.353 N 
ATOM      5  C   UNL A   1      32.800  28.864  23.466  1.00  0.00     0.264 C 
ATOM      6  O   UNL A   1      33.875  28.837  22.858  1.00  0.00    -0.270 OA
ATOM      7  H   UNL A   1      33.591  30.140  24.772  1.00  0.00     0.163 HD
BRANCH   5   8
ATOM      8  C   UNL A   1      31.575  28.007  23.030  1.00  0.00     0.190 C 
ATOM      9  C   UNL A   1      31.881  24.145  24.658  1.00  0.00     0.253 C 
ATOM     10  O   UNL A   1      30.765  23.774  25.012  1.00  0.00    -0.269 OA
ATOM     11  N   UNL A   1      32.139  25.440  24.247  1.00  0.00    -0.338 N 
ATOM     12  C   UNL A   1      31.657  26.528  25.071  1.00  0.00     0.124 C 
ATOM     13  C   UNL A   1      32.850  25.777  23.017  1.00  0.00     0.124 C 
ATOM     14  C   UNL A   1      30.807  27.472  24.254  1.00  0.00     0.080 C 
ATOM     15  C   UNL A   1      32.075  26.808  22.183  1.00  0.00     0.080 C 
BRANCH   9  16
ATOM     16  C   UNL A   1      33.050  23.244  24.862  1.00  0.00     0.040 A 
ATOM     17  C   UNL A   1      35.421  21.750  24.988  1.00  0.00     0.052 A 
ATOM     18  C   UNL A   1      35.308  22.950  25.698  1.00  0.00     0.020 A 
ATOM     19  C   UNL A   1      34.346  21.293  24.221  1.00  0.00     0.020 A 
ATOM     20  C   UNL A   1      34.126  23.697  25.634  1.00  0.00     0.015 A 
ATOM     21  C   UNL A   1      33.171  22.042  24.150  1.00  0.00     0.015 A 
BRANCH  17  22
ATOM     22  C   UNL A   1      36.645  21.002  25.020  1.00  0.00     0.099 C 
ATOM     23  N   UNL A   1      37.633  20.398  25.049  1.00  0.00    -0.192 NA
ENDBRANCH  17  22
ENDBRANCH   9  16
BRANCH   8  24
ATOM     24  O   UNL A   1      30.846  28.958  22.210  1.00  0.00    -0.477 OA
BRANCH  24  25
ATOM     25  C   UNL A   1      29.593  29.333  22.589  1.00  0.00     0.120 A 
ATOM     26  C   UNL A   1      29.427  30.638  23.045  1.00  0.00     0.046 A 
ATOM     27  C   UNL A   1      28.537  28.429  22.680  1.00  0.00     0.046 A 
ATOM     28  C   UNL A   1      28.177  31.065  23.497  1.00  0.00     0.004 A 
ATOM     29  C   UNL A   1      27.279  28.860  23.100  1.00  0.00     0.004 A 
ATOM     30  C   UNL A   1      27.098  30.181  23.501  1.00  0.00     0.000 A 
ENDBRANCH  24  25
ENDBRANCH   8  24
ENDBRANCH   5   8
ENDBRANCH   3   4
ENDBRANCH   2   3
ENDBRANCH   1   2
BRANCH   1  31
ATOM     31  C   UNL A   1      33.103  32.886  27.428  1.00  0.00     0.116 C 
BRANCH  31  32
ATOM     32  N   UNL A   1      32.736  34.238  27.818  1.00  0.00    -0.352 N 
ATOM     33  C   UNL A   1      33.204  34.986  28.872  1.00  0.00     0.251 C 
ATOM     34  H   UNL A   1      32.061  34.676  27.251  1.00  0.00     0.163 HD
ATOM     35  O   UNL A   1      32.649  36.040  29.166  1.00  0.00    -0.269 OA
BRANCH  33  36
ATOM     36  C   UNL A   1      34.354  34.491  29.657  1.00  0.00     0.039 A 
ATOM     37  C   UNL A   1      34.121  33.882  30.891  1.00  0.00     0.014 A 
ATOM     38  C   UNL A   1      35.656  34.600  29.159  1.00  0.00     0.014 A 
ATOM     39  C   UNL A   1      35.191  33.325  31.595  1.00  0.00     0.010 A 
ATOM     40  C   UNL A   1      36.702  33.961  29.816  1.00  0.00     0.010 A 
ATOM     41  C   UNL A   1      36.485  33.324  31.046  1.00  0.00    -0.014 A 
BRANCH  41  42
ATOM     42  C   UNL A   1      37.624  32.679  31.753  1.00  0.00     0.031 A 
ATOM     43  C   UNL A   1      38.337  31.515  31.119  1.00  0.00     0.074 A 
ATOM     44  C   UNL A   1      37.990  33.112  32.976  1.00  0.00     0.049 A 
ATOM     45  N   UNL A   1      39.305  30.777  31.599  1.00  0.00    -0.248 NA
ATOM     46  C   UNL A   1      37.885  31.110  29.778  1.00  0.00     0.031 C 
ATOM     47  C   UNL A   1      37.362  34.218  33.704  1.00  0.00     0.029 A 
ATOM     48  N   UNL A   1      38.978  32.680  33.825  1.00  0.00    -0.354 N 
ATOM     49  C   UNL A   1      39.578  29.826  30.622  1.00  0.00     0.074 A 
ATOM     50  C   UNL A   1      38.619  30.031  29.557  1.00  0.00     0.031 C 
ATOM     51  C   UNL A   1      38.005  34.399  34.868  1.00  0.00     0.029 A 
ATOM     52  C   UNL A   1      39.049  33.388  35.003  1.00  0.00     0.049 A 
ATOM     53  H   UNL A   1      39.581  31.931  33.610  1.00  0.00     0.167 HD
ATOM     54  C   UNL A   1      40.556  28.888  30.599  1.00  0.00     0.034 A 
ATOM     55  C   UNL A   1      39.852  33.232  36.074  1.00  0.00     0.034 A 
ATOM     56  C   UNL A   1      41.504  28.693  31.666  1.00  0.00     0.049 A 
ATOM     57  C   UNL A   1      40.882  32.127  36.056  1.00  0.00     0.074 A 
ATOM     58  C   UNL A   1      42.549  27.788  31.735  1.00  0.00     0.029 A 
ATOM     59  N   UNL A   1      41.522  29.408  32.857  1.00  0.00    -0.354 N 
ATOM     60  N   UNL A   1      41.146  31.257  35.108  1.00  0.00    -0.248 NA
ATOM     61  C   UNL A   1      41.729  31.989  37.248  1.00  0.00     0.031 C 
ATOM     62  C   UNL A   1      43.142  27.895  32.995  1.00  0.00     0.029 A 
ATOM     63  C   UNL A   1      42.538  28.939  33.677  1.00  0.00     0.049 A 
ATOM     64  H   UNL A   1      40.905  30.140  33.086  1.00  0.00     0.167 HD
ATOM     65  C   UNL A   1      42.221  30.504  35.574  1.00  0.00     0.074 A 
ATOM     66  C   UNL A   1      42.563  31.031  36.878  1.00  0.00     0.031 C 
ATOM     67  C   UNL A   1      42.874  29.474  34.976  1.00  0.00     0.034 A 
BRANCH  54  68
ATOM     68  C   UNL A   1      40.636  27.992  29.386  1.00  0.00     0.023 A 
ATOM     69  C   UNL A   1      41.575  28.218  28.366  1.00  0.00     0.031 A 
ATOM     70  C   UNL A   1      39.760  26.901  29.244  1.00  0.00     0.131 A 
ATOM     71  C   UNL A   1      41.571  27.410  27.219  1.00  0.00     0.055 A 
ATOM     72  C   UNL A   1      39.822  26.046  28.143  1.00  0.00     0.041 A 
ATOM     73  F   UNL A   1      38.824  26.650  30.173  1.00  0.00    -0.206 F 
ATOM     74  C   UNL A   1      40.723  26.306  27.114  1.00  0.00     0.022 A 
BRANCH  71  75
ATOM     75  S   UNL A   1      42.588  27.915  25.804  1.00  0.00     0.124 S 
ATOM     76  O   UNL A   1      43.937  27.686  26.315  1.00  0.00    -0.237 OA
ATOM     77  O   UNL A   1      42.140  27.009  24.754  1.00  0.00    -0.237 OA
ATOM     78  O   UNL A   1      42.233  29.320  25.612  1.00  0.00    -0.744 OA
ENDBRANCH  71  75
ENDBRANCH  54  68
BRANCH  55  79
ATOM     79  C   UNL A   1      39.720  34.119  37.269  1.00  0.00     0.023 A 
ATOM     80  C   UNL A   1      39.159  33.640  38.464  1.00  0.00     0.031 A 
ATOM     81  C   UNL A   1      40.071  35.480  37.210  1.00  0.00     0.131 A 
ATOM     82  C   UNL A   1      38.892  34.526  39.518  1.00  0.00     0.055 A 
ATOM     83  C   UNL A   1      39.874  36.342  38.291  1.00  0.00     0.041 A 
ATOM     84  F   UNL A   1      40.607  35.997  36.093  1.00  0.00    -0.206 F 
ATOM     85  C   UNL A   1      39.263  35.871  39.448  1.00  0.00     0.022 A 
BRANCH  82  86
ATOM     86  S   UNL A   1      37.918  33.926  40.926  1.00  0.00     0.124 S 
ATOM     87  O   UNL A   1      38.887  33.083  41.615  1.00  0.00    -0.237 OA
ATOM     88  O   UNL A   1      37.555  35.170  41.596  1.00  0.00    -0.237 OA
ATOM     89  O   UNL A   1      36.810  33.214  40.292  1.00  0.00    -0.744 OA
ENDBRANCH  82  86
ENDBRANCH  55  79
BRANCH  67  90
ATOM     90  C   UNL A   1      44.069  28.895  35.695  1.00  0.00     0.023 A 
ATOM     91  C   UNL A   1      43.963  27.785  36.549  1.00  0.00     0.031 A 
ATOM     92  C   UNL A   1      45.340  29.477  35.526  1.00  0.00     0.131 A 
ATOM     93  C   UNL A   1      45.091  27.331  37.250  1.00  0.00     0.055 A 
ATOM     94  C   UNL A   1      46.472  28.972  36.165  1.00  0.00     0.041 A 
ATOM     95  F   UNL A   1      45.502  30.546  34.729  1.00  0.00    -0.206 F 
ATOM     96  C   UNL A   1      46.349  27.903  37.045  1.00  0.00     0.022 A 
BRANCH  93  97
ATOM     97  S   UNL A   1      44.870  26.059  38.523  1.00  0.00     0.124 S 
ATOM     98  O   UNL A   1      43.865  25.193  37.915  1.00  0.00    -0.237 OA
ATOM     99  O   UNL A   1      46.211  25.495  38.637  1.00  0.00    -0.237 OA
ATOM    100  O   UNL A   1      44.415  26.815  39.689  1.00  0.00    -0.744 OA
ENDBRANCH  93  97
ENDBRANCH  67  90
ENDBRANCH  41  42
ENDBRANCH  33  36
ENDBRANCH  31  32
ENDBRANCH   1  31
TORSDOF 18
ENDMDL
