MODEL 1
REMARK VINA RESULT:     -10.5      0.000      0.000
REMARK SMILES CCCCCCCNC(=O)Oc1cccc(-c2ccc([C@@H](C)C(=O)NCCCCNC(=O)c3ccc(-c4c5nc(c(-c6cc(S(=O)(=O)[O-])ccc6F)c6ccc([nH]6)c(-c6cc(S(=O)(=O)[O-])ccc6F)c6nc(c(-c7cc(S(=O)(=O)[O-])ccc7F)c7ccc4[nH]7)C=C6)C=C5)cc3)cc2F)c1
REMARK SMILES IDX 21 1 22 2 20 3 17 4 18 5 97 6 19 7 96 8 98 9 16 10 12 11
REMARK SMILES IDX 13 12 99 13 14 14 15 15 11 16 9 17 8 18 10 20 7 21 6 22 5 23
REMARK SMILES IDX 4 24 3 25 2 26 1 27 23 28 24 29 25 30 26 32 27 33 28 34
REMARK SMILES IDX 29 35 30 36 31 37 32 39 33 40 34 41 95 42 35 43 94 44 36 45
REMARK SMILES IDX 37 46 38 47 88 48 39 49 93 50 87 51 89 52 40 53 92 54 86 55
REMARK SMILES IDX 85 56 41 58 73 59 53 60 72 61 54 62 57 63 71 64 90 65 55 66
REMARK SMILES IDX 56 67 70 69 91 70 58 71 42 72 43 73 51 74 44 75 50 76 52 77
REMARK SMILES IDX 49 78 45 79 46 80 47 81 48 82 74 83 75 84 83 85 76 86 82 87
REMARK SMILES IDX 84 88 81 89 77 90 78 91 79 92 80 93 59 94 60 95 68 96 61 97
REMARK SMILES IDX 67 98 69 99 66 100 62 101 63 102 64 103 65 104
REMARK H PARENT 8 19 25 31 30 38 89 57 57 68
REMARK Flexibility Score: inf
ROOT
ATOM      1  C   UNL A   1      33.325  28.055  24.362  1.00  0.00     0.105 C 
ATOM      2  C   UNL A   1      32.598  28.431  23.072  1.00  0.00     0.023 C 
ENDROOT
BRANCH   1   3
ATOM      3  C   UNL A   1      33.744  26.598  24.483  1.00  0.00    -0.033 A 
ATOM      4  C   UNL A   1      34.749  23.920  24.614  1.00  0.00     0.018 A 
ATOM      5  C   UNL A   1      34.566  24.700  25.768  1.00  0.00     0.012 A 
ATOM      6  C   UNL A   1      34.368  24.507  23.398  1.00  0.00     0.131 A 
ATOM      7  C   UNL A   1      34.033  25.993  25.707  1.00  0.00     0.005 A 
ATOM      8  C   UNL A   1      33.897  25.822  23.326  1.00  0.00     0.044 A 
ATOM      9  F   UNL A   1      34.440  23.811  22.252  1.00  0.00    -0.206 F 
BRANCH   4  10
ATOM     10  C   UNL A   1      35.337  22.565  24.710  1.00  0.00    -0.012 A 
ATOM     11  C   UNL A   1      35.113  20.155  24.925  1.00  0.00     0.133 A 
ATOM     12  C   UNL A   1      36.488  19.977  24.813  1.00  0.00     0.047 A 
ATOM     13  C   UNL A   1      34.536  21.425  24.881  1.00  0.00     0.056 A 
ATOM     14  C   UNL A   1      37.299  21.090  24.642  1.00  0.00     0.004 A 
ATOM     15  C   UNL A   1      36.730  22.366  24.600  1.00  0.00     0.009 A 
BRANCH  11  16
ATOM     16  O   UNL A   1      34.351  19.014  25.212  1.00  0.00    -0.410 OA
BRANCH  16  17
ATOM     17  C   UNL A   1      34.178  18.082  24.201  1.00  0.00     0.412 C 
ATOM     18  N   UNL A   1      33.054  18.316  23.458  1.00  0.00    -0.321 N 
ATOM     19  H   UNL A   1      32.864  17.683  22.729  1.00  0.00     0.167 HD
ATOM     20  O   UNL A   1      34.907  17.129  23.963  1.00  0.00    -0.224 OA
BRANCH  18  21
ATOM     21  C   UNL A   1      32.114  19.404  23.638  1.00  0.00     0.119 C 
BRANCH  21  22
ATOM     22  C   UNL A   1      32.097  20.348  22.437  1.00  0.00     0.021 C 
BRANCH  22  23
ATOM     23  C   UNL A   1      31.869  21.822  22.790  1.00  0.00     0.002 C 
BRANCH  23  24
ATOM     24  C   UNL A   1      31.532  22.095  24.261  1.00  0.00     0.000 C 
BRANCH  24  25
ATOM     25  C   UNL A   1      31.000  23.502  24.555  1.00  0.00    -0.000 C 
BRANCH  25  26
ATOM     26  C   UNL A   1      30.609  24.321  23.323  1.00  0.00    -0.003 C 
ATOM     27  C   UNL A   1      30.146  25.730  23.660  1.00  0.00     0.004 C 
ENDBRANCH  25  26
ENDBRANCH  24  25
ENDBRANCH  23  24
ENDBRANCH  22  23
ENDBRANCH  21  22
ENDBRANCH  18  21
ENDBRANCH  16  17
ENDBRANCH  11  16
ENDBRANCH   4  10
ENDBRANCH   1   3
BRANCH   1  28
ATOM     28  C   UNL A   1      32.675  28.618  25.637  1.00  0.00     0.227 C 
ATOM     29  O   UNL A   1      31.442  28.704  25.704  1.00  0.00    -0.274 OA
ATOM     30  N   UNL A   1      33.374  29.023  26.731  1.00  0.00    -0.356 N 
ATOM     31  H   UNL A   1      32.809  29.308  27.486  1.00  0.00     0.163 HD
BRANCH  30  32
ATOM     32  C   UNL A   1      34.796  29.115  26.990  1.00  0.00     0.116 C 
BRANCH  32  33
ATOM     33  C   UNL A   1      35.132  30.225  27.987  1.00  0.00     0.023 C 
BRANCH  33  34
ATOM     34  C   UNL A   1      34.020  31.248  28.207  1.00  0.00     0.023 C 
BRANCH  34  35
ATOM     35  C   UNL A   1      34.161  32.544  27.416  1.00  0.00     0.116 C 
BRANCH  35  36
ATOM     36  N   UNL A   1      33.292  33.618  27.881  1.00  0.00    -0.352 N 
ATOM     37  C   UNL A   1      33.424  34.386  29.019  1.00  0.00     0.251 C 
ATOM     38  H   UNL A   1      32.514  33.822  27.312  1.00  0.00     0.163 HD
ATOM     39  O   UNL A   1      32.564  35.204  29.323  1.00  0.00    -0.269 OA
BRANCH  37  40
ATOM     40  C   UNL A   1      34.596  34.156  29.888  1.00  0.00     0.039 A 
ATOM     41  C   UNL A   1      34.430  33.434  31.072  1.00  0.00     0.014 A 
ATOM     42  C   UNL A   1      35.869  34.542  29.461  1.00  0.00     0.014 A 
ATOM     43  C   UNL A   1      35.557  33.001  31.773  1.00  0.00     0.010 A 
ATOM     44  C   UNL A   1      36.989  34.045  30.119  1.00  0.00     0.010 A 
ATOM     45  C   UNL A   1      36.844  33.247  31.265  1.00  0.00    -0.014 A 
BRANCH  45  46
ATOM     46  C   UNL A   1      38.052  32.639  31.881  1.00  0.00     0.031 A 
ATOM     47  C   UNL A   1      38.761  31.511  31.187  1.00  0.00     0.074 A 
ATOM     48  C   UNL A   1      38.448  33.043  33.107  1.00  0.00     0.049 A 
ATOM     49  N   UNL A   1      39.743  30.763  31.618  1.00  0.00    -0.248 NA
ATOM     50  C   UNL A   1      38.282  31.163  29.841  1.00  0.00     0.031 C 
ATOM     51  C   UNL A   1      37.818  34.107  33.893  1.00  0.00     0.029 A 
ATOM     52  N   UNL A   1      39.464  32.595  33.916  1.00  0.00    -0.354 N 
ATOM     53  C   UNL A   1      39.997  29.850  30.600  1.00  0.00     0.074 A 
ATOM     54  C   UNL A   1      39.025  30.103  29.557  1.00  0.00     0.031 C 
ATOM     55  C   UNL A   1      38.473  34.242  35.057  1.00  0.00     0.029 A 
ATOM     56  C   UNL A   1      39.529  33.238  35.132  1.00  0.00     0.049 A 
ATOM     57  H   UNL A   1      40.088  31.882  33.651  1.00  0.00     0.167 HD
ATOM     58  C   UNL A   1      40.967  28.905  30.534  1.00  0.00     0.034 A 
ATOM     59  C   UNL A   1      40.329  33.025  36.197  1.00  0.00     0.034 A 
ATOM     60  C   UNL A   1      41.931  28.672  31.581  1.00  0.00     0.049 A 
ATOM     61  C   UNL A   1      41.353  31.919  36.123  1.00  0.00     0.074 A 
ATOM     62  C   UNL A   1      42.988  27.778  31.593  1.00  0.00     0.029 A 
ATOM     63  N   UNL A   1      41.950  29.325  32.806  1.00  0.00    -0.354 N 
ATOM     64  N   UNL A   1      41.614  31.099  35.131  1.00  0.00    -0.248 NA
ATOM     65  C   UNL A   1      42.190  31.709  37.313  1.00  0.00     0.031 C 
ATOM     66  C   UNL A   1      43.599  27.839  32.849  1.00  0.00     0.029 A 
ATOM     67  C   UNL A   1      42.975  28.824  33.596  1.00  0.00     0.049 A 
ATOM     68  H   UNL A   1      41.330  30.041  33.074  1.00  0.00     0.167 HD
ATOM     69  C   UNL A   1      42.660  30.293  35.571  1.00  0.00     0.074 A 
ATOM     70  C   UNL A   1      42.997  30.741  36.906  1.00  0.00     0.031 C 
ATOM     71  C   UNL A   1      43.286  29.272  34.932  1.00  0.00     0.034 A 
BRANCH  58  72
ATOM     72  C   UNL A   1      41.017  28.044  29.297  1.00  0.00     0.023 A 
ATOM     73  C   UNL A   1      42.016  28.213  28.324  1.00  0.00     0.031 A 
ATOM     74  C   UNL A   1      40.052  27.044  29.085  1.00  0.00     0.131 A 
ATOM     75  C   UNL A   1      41.993  27.438  27.154  1.00  0.00     0.055 A 
ATOM     76  C   UNL A   1      40.079  26.223  27.955  1.00  0.00     0.041 A 
ATOM     77  F   UNL A   1      39.061  26.851  29.969  1.00  0.00    -0.206 F 
ATOM     78  C   UNL A   1      41.046  26.427  26.976  1.00  0.00     0.022 A 
BRANCH  75  79
ATOM     79  S   UNL A   1      43.140  27.858  25.814  1.00  0.00     0.124 S 
ATOM     80  O   UNL A   1      43.857  28.996  26.385  1.00  0.00    -0.237 OA
ATOM     81  O   UNL A   1      43.909  26.629  25.660  1.00  0.00    -0.237 OA
ATOM     82  O   UNL A   1      42.257  28.185  24.697  1.00  0.00    -0.744 OA
ENDBRANCH  75  79
ENDBRANCH  58  72
BRANCH  59  83
ATOM     83  C   UNL A   1      40.182  33.838  37.441  1.00  0.00     0.023 A 
ATOM     84  C   UNL A   1      40.991  34.963  37.667  1.00  0.00     0.031 A 
ATOM     85  C   UNL A   1      39.282  33.461  38.455  1.00  0.00     0.131 A 
ATOM     86  C   UNL A   1      40.929  35.636  38.897  1.00  0.00     0.055 A 
ATOM     87  C   UNL A   1      39.178  34.174  39.652  1.00  0.00     0.041 A 
ATOM     88  F   UNL A   1      38.485  32.393  38.295  1.00  0.00    -0.206 F 
ATOM     89  C   UNL A   1      40.017  35.259  39.885  1.00  0.00     0.022 A 
BRANCH  86  90
ATOM     90  S   UNL A   1      42.139  36.944  39.231  1.00  0.00     0.124 S 
ATOM     91  O   UNL A   1      42.740  36.481  40.478  1.00  0.00    -0.237 OA
ATOM     92  O   UNL A   1      42.990  36.880  38.047  1.00  0.00    -0.237 OA
ATOM     93  O   UNL A   1      41.319  38.147  39.343  1.00  0.00    -0.744 OA
ENDBRANCH  86  90
ENDBRANCH  59  83
BRANCH  71  94
ATOM     94  C   UNL A   1      44.416  28.594  35.665  1.00  0.00     0.023 A 
ATOM     95  C   UNL A   1      44.177  27.565  36.594  1.00  0.00     0.031 A 
ATOM     96  C   UNL A   1      45.747  28.980  35.433  1.00  0.00     0.131 A 
ATOM     97  C   UNL A   1      45.249  26.990  37.290  1.00  0.00     0.055 A 
ATOM     98  C   UNL A   1      46.815  28.362  36.085  1.00  0.00     0.041 A 
ATOM     99  F   UNL A   1      46.033  29.958  34.559  1.00  0.00    -0.206 F 
ATOM    100  C   UNL A   1      46.568  27.369  37.028  1.00  0.00     0.022 A 
BRANCH  97 101
ATOM    101  S   UNL A   1      44.892  25.789  38.602  1.00  0.00     0.124 S 
ATOM    102  O   UNL A   1      46.217  25.553  39.165  1.00  0.00    -0.237 OA
ATOM    103  O   UNL A   1      43.959  26.522  39.452  1.00  0.00    -0.237 OA
ATOM    104  O   UNL A   1      44.313  24.656  37.881  1.00  0.00    -0.744 OA
ENDBRANCH  97 101
ENDBRANCH  71  94
ENDBRANCH  45  46
ENDBRANCH  37  40
ENDBRANCH  35  36
ENDBRANCH  34  35
ENDBRANCH  33  34
ENDBRANCH  32  33
ENDBRANCH  30  32
ENDBRANCH   1  28
TORSDOF 24
ENDMDL
MODEL 2
REMARK VINA RESULT:     -10.3      3.376      8.558
REMARK SMILES CCCCCCCNC(=O)Oc1cccc(-c2ccc([C@@H](C)C(=O)NCCCCNC(=O)c3ccc(-c4c5nc(c(-c6cc(S(=O)(=O)[O-])ccc6F)c6ccc([nH]6)c(-c6cc(S(=O)(=O)[O-])ccc6F)c6nc(c(-c7cc(S(=O)(=O)[O-])ccc7F)c7ccc4[nH]7)C=C6)C=C5)cc3)cc2F)c1
REMARK SMILES IDX 21 1 22 2 20 3 17 4 18 5 97 6 19 7 96 8 98 9 16 10 12 11
REMARK SMILES IDX 13 12 99 13 14 14 15 15 11 16 9 17 8 18 10 20 7 21 6 22 5 23
REMARK SMILES IDX 4 24 3 25 2 26 1 27 23 28 24 29 25 30 26 32 27 33 28 34
REMARK SMILES IDX 29 35 30 36 31 37 32 39 33 40 34 41 95 42 35 43 94 44 36 45
REMARK SMILES IDX 37 46 38 47 88 48 39 49 93 50 87 51 89 52 40 53 92 54 86 55
REMARK SMILES IDX 85 56 41 58 73 59 53 60 72 61 54 62 57 63 71 64 90 65 55 66
REMARK SMILES IDX 56 67 70 69 91 70 58 71 42 72 43 73 51 74 44 75 50 76 52 77
REMARK SMILES IDX 49 78 45 79 46 80 47 81 48 82 74 83 75 84 83 85 76 86 82 87
REMARK SMILES IDX 84 88 81 89 77 90 78 91 79 92 80 93 59 94 60 95 68 96 61 97
REMARK SMILES IDX 67 98 69 99 66 100 62 101 63 102 64 103 65 104
REMARK H PARENT 8 19 25 31 30 38 89 57 57 68
REMARK Flexibility Score: inf
ROOT
ATOM      1  C   UNL A   1      31.658  24.347  24.656  1.00  0.00     0.105 C 
ATOM      2  C   UNL A   1      30.699  23.936  23.539  1.00  0.00     0.023 C 
ENDROOT
BRANCH   1   3
ATOM      3  C   UNL A   1      32.994  23.623  24.679  1.00  0.00    -0.033 A 
ATOM      4  C   UNL A   1      35.441  22.157  24.935  1.00  0.00     0.018 A 
ATOM      5  C   UNL A   1      34.470  21.818  23.978  1.00  0.00     0.012 A 
ATOM      6  C   UNL A   1      35.169  23.283  25.726  1.00  0.00     0.131 A 
ATOM      7  C   UNL A   1      33.295  22.562  23.824  1.00  0.00     0.005 A 
ATOM      8  C   UNL A   1      33.966  23.989  25.621  1.00  0.00     0.044 A 
ATOM      9  F   UNL A   1      36.070  23.725  26.619  1.00  0.00    -0.206 F 
BRANCH   4  10
ATOM     10  C   UNL A   1      36.663  21.337  25.087  1.00  0.00    -0.012 A 
ATOM     11  C   UNL A   1      39.016  21.100  25.645  1.00  0.00     0.133 A 
ATOM     12  C   UNL A   1      38.967  19.724  25.446  1.00  0.00     0.047 A 
ATOM     13  C   UNL A   1      37.890  21.904  25.466  1.00  0.00     0.056 A 
ATOM     14  C   UNL A   1      37.764  19.141  25.073  1.00  0.00     0.004 A 
ATOM     15  C   UNL A   1      36.631  19.939  24.888  1.00  0.00     0.009 A 
BRANCH  11  16
ATOM     16  O   UNL A   1      40.277  21.653  25.908  1.00  0.00    -0.410 OA
BRANCH  16  17
ATOM     17  C   UNL A   1      40.866  21.369  27.129  1.00  0.00     0.412 C 
ATOM     18  N   UNL A   1      41.990  20.601  27.003  1.00  0.00    -0.321 N 
ATOM     19  H   UNL A   1      42.453  20.351  27.836  1.00  0.00     0.167 HD
ATOM     20  O   UNL A   1      40.463  21.726  28.228  1.00  0.00    -0.224 OA
BRANCH  18  21
ATOM     21  C   UNL A   1      42.567  20.115  25.766  1.00  0.00     0.119 C 
BRANCH  21  22
ATOM     22  C   UNL A   1      43.302  18.790  25.961  1.00  0.00     0.021 C 
BRANCH  22  23
ATOM     23  C   UNL A   1      44.632  18.684  25.207  1.00  0.00     0.002 C 
BRANCH  23  24
ATOM     24  C   UNL A   1      44.924  19.833  24.235  1.00  0.00     0.000 C 
BRANCH  24  25
ATOM     25  C   UNL A   1      46.177  20.655  24.557  1.00  0.00    -0.000 C 
BRANCH  25  26
ATOM     26  C   UNL A   1      45.971  22.171  24.588  1.00  0.00    -0.003 C 
ATOM     27  C   UNL A   1      44.824  22.640  23.705  1.00  0.00     0.004 C 
ENDBRANCH  25  26
ENDBRANCH  24  25
ENDBRANCH  23  24
ENDBRANCH  22  23
ENDBRANCH  21  22
ENDBRANCH  18  21
ENDBRANCH  16  17
ENDBRANCH  11  16
ENDBRANCH   4  10
ENDBRANCH   1   3
BRANCH   1  28
ATOM     28  C   UNL A   1      30.997  24.467  26.039  1.00  0.00     0.227 C 
ATOM     29  O   UNL A   1      30.632  23.443  26.630  1.00  0.00    -0.274 OA
ATOM     30  N   UNL A   1      30.793  25.648  26.684  1.00  0.00    -0.356 N 
ATOM     31  H   UNL A   1      30.408  25.551  27.586  1.00  0.00     0.163 HD
BRANCH  30  32
ATOM     32  C   UNL A   1      31.038  27.019  26.290  1.00  0.00     0.116 C 
BRANCH  32  33
ATOM     33  C   UNL A   1      31.610  27.858  27.434  1.00  0.00     0.023 C 
BRANCH  33  34
ATOM     34  C   UNL A   1      31.755  29.345  27.127  1.00  0.00     0.023 C 
BRANCH  34  35
ATOM     35  C   UNL A   1      33.162  29.910  27.291  1.00  0.00     0.116 C 
BRANCH  35  36
ATOM     36  N   UNL A   1      33.225  31.366  27.242  1.00  0.00    -0.352 N 
ATOM     37  C   UNL A   1      34.271  32.184  27.612  1.00  0.00     0.251 C 
ATOM     38  H   UNL A   1      32.421  31.822  26.901  1.00  0.00     0.163 HD
ATOM     39  O   UNL A   1      34.148  33.403  27.590  1.00  0.00    -0.269 OA
BRANCH  37  40
ATOM     40  C   UNL A   1      35.519  31.555  28.089  1.00  0.00     0.039 A 
ATOM     41  C   UNL A   1      36.649  32.353  28.283  1.00  0.00     0.014 A 
ATOM     42  C   UNL A   1      35.524  30.209  28.464  1.00  0.00     0.014 A 
ATOM     43  C   UNL A   1      37.751  31.826  28.959  1.00  0.00     0.010 A 
ATOM     44  C   UNL A   1      36.592  29.712  29.203  1.00  0.00     0.010 A 
ATOM     45  C   UNL A   1      37.703  30.523  29.482  1.00  0.00    -0.014 A 
BRANCH  45  46
ATOM     46  C   UNL A   1      38.777  30.001  30.367  1.00  0.00     0.031 A 
ATOM     47  C   UNL A   1      38.898  30.504  31.778  1.00  0.00     0.074 A 
ATOM     48  C   UNL A   1      39.696  29.148  29.866  1.00  0.00     0.049 A 
ATOM     49  N   UNL A   1      39.837  30.277  32.658  1.00  0.00    -0.248 NA
ATOM     50  C   UNL A   1      37.833  31.403  32.248  1.00  0.00     0.031 C 
ATOM     51  C   UNL A   1      39.701  28.615  28.501  1.00  0.00     0.029 A 
ATOM     52  N   UNL A   1      40.812  28.591  30.440  1.00  0.00    -0.354 N 
ATOM     53  C   UNL A   1      39.482  31.009  33.786  1.00  0.00     0.074 A 
ATOM     54  C   UNL A   1      38.273  31.733  33.453  1.00  0.00     0.031 C 
ATOM     55  C   UNL A   1      40.755  27.796  28.352  1.00  0.00     0.029 A 
ATOM     56  C   UNL A   1      41.535  27.790  29.584  1.00  0.00     0.049 A 
ATOM     57  H   UNL A   1      41.072  28.750  31.376  1.00  0.00     0.167 HD
ATOM     58  C   UNL A   1      40.096  31.054  34.994  1.00  0.00     0.034 A 
ATOM     59  C   UNL A   1      42.707  27.146  29.762  1.00  0.00     0.034 A 
ATOM     60  C   UNL A   1      41.298  30.320  35.309  1.00  0.00     0.049 A 
ATOM     61  C   UNL A   1      43.406  27.270  31.094  1.00  0.00     0.074 A 
ATOM     62  C   UNL A   1      41.971  30.252  36.516  1.00  0.00     0.029 A 
ATOM     63  N   UNL A   1      42.013  29.539  34.411  1.00  0.00    -0.354 N 
ATOM     64  N   UNL A   1      43.028  27.926  32.167  1.00  0.00    -0.248 NA
ATOM     65  C   UNL A   1      44.690  26.569  31.238  1.00  0.00     0.031 C 
ATOM     66  C   UNL A   1      43.129  29.491  36.329  1.00  0.00     0.029 A 
ATOM     67  C   UNL A   1      43.142  29.020  35.026  1.00  0.00     0.049 A 
ATOM     68  H   UNL A   1      41.755  29.377  33.475  1.00  0.00     0.167 HD
ATOM     69  C   UNL A   1      44.017  27.695  33.120  1.00  0.00     0.074 A 
ATOM     70  C   UNL A   1      44.994  26.823  32.502  1.00  0.00     0.031 C 
ATOM     71  C   UNL A   1      44.114  28.164  34.390  1.00  0.00     0.034 A 
BRANCH  58  72
ATOM     72  C   UNL A   1      39.488  31.938  36.052  1.00  0.00     0.023 A 
ATOM     73  C   UNL A   1      38.687  31.412  37.080  1.00  0.00     0.031 A 
ATOM     74  C   UNL A   1      39.708  33.327  36.033  1.00  0.00     0.131 A 
ATOM     75  C   UNL A   1      38.084  32.273  38.009  1.00  0.00     0.055 A 
ATOM     76  C   UNL A   1      39.167  34.171  37.007  1.00  0.00     0.041 A 
ATOM     77  F   UNL A   1      40.446  33.890  35.064  1.00  0.00    -0.206 F 
ATOM     78  C   UNL A   1      38.340  33.646  37.994  1.00  0.00     0.022 A 
BRANCH  75  79
ATOM     79  S   UNL A   1      36.859  31.587  39.156  1.00  0.00     0.124 S 
ATOM     80  O   UNL A   1      37.634  31.487  40.391  1.00  0.00    -0.237 OA
ATOM     81  O   UNL A   1      35.810  32.600  39.141  1.00  0.00    -0.237 OA
ATOM     82  O   UNL A   1      36.500  30.308  38.549  1.00  0.00    -0.744 OA
ENDBRANCH  75  79
ENDBRANCH  58  72
BRANCH  59  83
ATOM     83  C   UNL A   1      43.325  26.358  28.655  1.00  0.00     0.023 A 
ATOM     84  C   UNL A   1      44.355  26.901  27.871  1.00  0.00     0.031 A 
ATOM     85  C   UNL A   1      42.848  25.077  28.318  1.00  0.00     0.131 A 
ATOM     86  C   UNL A   1      44.833  26.196  26.755  1.00  0.00     0.055 A 
ATOM     87  C   UNL A   1      43.372  24.353  27.246  1.00  0.00     0.041 A 
ATOM     88  F   UNL A   1      41.863  24.509  29.032  1.00  0.00    -0.206 F 
ATOM     89  C   UNL A   1      44.360  24.919  26.446  1.00  0.00     0.022 A 
BRANCH  86  90
ATOM     90  S   UNL A   1      46.005  27.023  25.645  1.00  0.00     0.124 S 
ATOM     91  O   UNL A   1      45.368  28.321  25.456  1.00  0.00    -0.237 OA
ATOM     92  O   UNL A   1      47.230  27.019  26.439  1.00  0.00    -0.237 OA
ATOM     93  O   UNL A   1      46.025  26.160  24.467  1.00  0.00    -0.744 OA
ENDBRANCH  86  90
ENDBRANCH  59  83
BRANCH  71  94
ATOM     94  C   UNL A   1      45.305  27.714  35.198  1.00  0.00     0.023 A 
ATOM     95  C   UNL A   1      45.284  26.516  35.934  1.00  0.00     0.031 A 
ATOM     96  C   UNL A   1      46.475  28.491  35.231  1.00  0.00     0.131 A 
ATOM     97  C   UNL A   1      46.394  26.153  36.710  1.00  0.00     0.055 A 
ATOM     98  C   UNL A   1      47.600  28.095  35.956  1.00  0.00     0.041 A 
ATOM     99  F   UNL A   1      46.550  29.644  34.548  1.00  0.00    -0.206 F 
ATOM    100  C   UNL A   1      47.559  26.926  36.711  1.00  0.00     0.022 A 
BRANCH  97 101
ATOM    101  S   UNL A   1      46.271  24.694  37.781  1.00  0.00     0.124 S 
ATOM    102  O   UNL A   1      46.539  23.608  36.844  1.00  0.00    -0.237 OA
ATOM    103  O   UNL A   1      47.307  24.948  38.776  1.00  0.00    -0.237 OA
ATOM    104  O   UNL A   1      44.900  24.755  38.285  1.00  0.00    -0.744 OA
ENDBRANCH  97 101
ENDBRANCH  71  94
ENDBRANCH  45  46
ENDBRANCH  37  40
ENDBRANCH  35  36
ENDBRANCH  34  35
ENDBRANCH  33  34
ENDBRANCH  32  33
ENDBRANCH  30  32
ENDBRANCH   1  28
TORSDOF 24
ENDMDL
MODEL 3
REMARK VINA RESULT:     -10.1      1.918      7.411
REMARK SMILES CCCCCCCNC(=O)Oc1cccc(-c2ccc([C@@H](C)C(=O)NCCCCNC(=O)c3ccc(-c4c5nc(c(-c6cc(S(=O)(=O)[O-])ccc6F)c6ccc([nH]6)c(-c6cc(S(=O)(=O)[O-])ccc6F)c6nc(c(-c7cc(S(=O)(=O)[O-])ccc7F)c7ccc4[nH]7)C=C6)C=C5)cc3)cc2F)c1
REMARK SMILES IDX 21 1 22 2 20 3 17 4 18 5 97 6 19 7 96 8 98 9 16 10 12 11
REMARK SMILES IDX 13 12 99 13 14 14 15 15 11 16 9 17 8 18 10 20 7 21 6 22 5 23
REMARK SMILES IDX 4 24 3 25 2 26 1 27 23 28 24 29 25 30 26 32 27 33 28 34
REMARK SMILES IDX 29 35 30 36 31 37 32 39 33 40 34 41 95 42 35 43 94 44 36 45
REMARK SMILES IDX 37 46 38 47 88 48 39 49 93 50 87 51 89 52 40 53 92 54 86 55
REMARK SMILES IDX 85 56 41 58 73 59 53 60 72 61 54 62 57 63 71 64 90 65 55 66
REMARK SMILES IDX 56 67 70 69 91 70 58 71 42 72 43 73 51 74 44 75 50 76 52 77
REMARK SMILES IDX 49 78 45 79 46 80 47 81 48 82 74 83 75 84 83 85 76 86 82 87
REMARK SMILES IDX 84 88 81 89 77 90 78 91 79 92 80 93 59 94 60 95 68 96 61 97
REMARK SMILES IDX 67 98 69 99 66 100 62 101 63 102 64 103 65 104
REMARK H PARENT 8 19 25 31 30 38 89 57 57 68
REMARK Flexibility Score: inf
ROOT
ATOM      1  C   UNL A   1      33.302  27.962  24.342  1.00  0.00     0.105 C 
ATOM      2  C   UNL A   1      32.600  28.288  23.024  1.00  0.00     0.023 C 
ENDROOT
BRANCH   1   3
ATOM      3  C   UNL A   1      33.802  26.534  24.489  1.00  0.00    -0.033 A 
ATOM      4  C   UNL A   1      34.950  23.916  24.656  1.00  0.00     0.018 A 
ATOM      5  C   UNL A   1      34.784  24.726  25.791  1.00  0.00     0.012 A 
ATOM      6  C   UNL A   1      34.479  24.439  23.443  1.00  0.00     0.131 A 
ATOM      7  C   UNL A   1      34.182  25.988  25.715  1.00  0.00     0.005 A 
ATOM      8  C   UNL A   1      33.937  25.726  23.351  1.00  0.00     0.044 A 
ATOM      9  F   UNL A   1      34.530  23.708  22.318  1.00  0.00    -0.206 F 
BRANCH   4  10
ATOM     10  C   UNL A   1      35.611  22.597  24.766  1.00  0.00    -0.012 A 
ATOM     11  C   UNL A   1      35.520  20.180  25.003  1.00  0.00     0.133 A 
ATOM     12  C   UNL A   1      36.903  20.077  24.896  1.00  0.00     0.047 A 
ATOM     13  C   UNL A   1      34.874  21.416  24.945  1.00  0.00     0.056 A 
ATOM     14  C   UNL A   1      37.653  21.232  24.717  1.00  0.00     0.004 A 
ATOM     15  C   UNL A   1      37.014  22.474  24.661  1.00  0.00     0.009 A 
BRANCH  11  16
ATOM     16  O   UNL A   1      34.822  19.001  25.298  1.00  0.00    -0.410 OA
BRANCH  16  17
ATOM     17  C   UNL A   1      34.039  18.447  24.298  1.00  0.00     0.412 C 
ATOM     18  N   UNL A   1      32.728  18.825  24.388  1.00  0.00    -0.321 N 
ATOM     19  H   UNL A   1      32.112  18.457  23.713  1.00  0.00     0.167 HD
ATOM     20  O   UNL A   1      34.419  17.688  23.417  1.00  0.00    -0.224 OA
BRANCH  18  21
ATOM     21  C   UNL A   1      32.154  19.713  25.378  1.00  0.00     0.119 C 
BRANCH  21  22
ATOM     22  C   UNL A   1      31.776  21.068  24.779  1.00  0.00     0.021 C 
BRANCH  22  23
ATOM     23  C   UNL A   1      31.761  22.225  25.784  1.00  0.00     0.002 C 
BRANCH  23  24
ATOM     24  C   UNL A   1      31.219  23.552  25.241  1.00  0.00     0.000 C 
BRANCH  24  25
ATOM     25  C   UNL A   1      30.913  23.564  23.739  1.00  0.00    -0.000 C 
BRANCH  25  26
ATOM     26  C   UNL A   1      30.595  24.940  23.150  1.00  0.00    -0.003 C 
ATOM     27  C   UNL A   1      29.786  25.823  24.088  1.00  0.00     0.004 C 
ENDBRANCH  25  26
ENDBRANCH  24  25
ENDBRANCH  23  24
ENDBRANCH  22  23
ENDBRANCH  21  22
ENDBRANCH  18  21
ENDBRANCH  16  17
ENDBRANCH  11  16
ENDBRANCH   4  10
ENDBRANCH   1   3
BRANCH   1  28
ATOM     28  C   UNL A   1      32.576  28.493  25.589  1.00  0.00     0.227 C 
ATOM     29  O   UNL A   1      31.346  28.383  25.670  1.00  0.00    -0.274 OA
ATOM     30  N   UNL A   1      33.205  29.077  26.645  1.00  0.00    -0.356 N 
ATOM     31  H   UNL A   1      32.605  29.314  27.389  1.00  0.00     0.163 HD
BRANCH  30  32
ATOM     32  C   UNL A   1      34.594  29.414  26.875  1.00  0.00     0.116 C 
BRANCH  32  33
ATOM     33  C   UNL A   1      34.754  30.550  27.887  1.00  0.00     0.023 C 
BRANCH  33  34
ATOM     34  C   UNL A   1      33.619  31.569  27.890  1.00  0.00     0.023 C 
BRANCH  34  35
ATOM     35  C   UNL A   1      33.963  32.930  27.293  1.00  0.00     0.116 C 
BRANCH  35  36
ATOM     36  N   UNL A   1      33.181  34.032  27.843  1.00  0.00    -0.352 N 
ATOM     37  C   UNL A   1      33.329  34.651  29.066  1.00  0.00     0.251 C 
ATOM     38  H   UNL A   1      32.459  34.377  27.270  1.00  0.00     0.163 HD
ATOM     39  O   UNL A   1      32.541  35.517  29.427  1.00  0.00    -0.269 OA
BRANCH  37  40
ATOM     40  C   UNL A   1      34.425  34.205  29.950  1.00  0.00     0.039 A 
ATOM     41  C   UNL A   1      34.125  33.387  31.041  1.00  0.00     0.014 A 
ATOM     42  C   UNL A   1      35.752  34.492  29.617  1.00  0.00     0.014 A 
ATOM     43  C   UNL A   1      35.163  32.763  31.734  1.00  0.00     0.010 A 
ATOM     44  C   UNL A   1      36.778  33.809  30.261  1.00  0.00     0.010 A 
ATOM     45  C   UNL A   1      36.493  32.917  31.307  1.00  0.00    -0.014 A 
BRANCH  45  46
ATOM     46  C   UNL A   1      37.598  32.120  31.900  1.00  0.00     0.031 A 
ATOM     47  C   UNL A   1      38.169  32.506  33.236  1.00  0.00     0.074 A 
ATOM     48  C   UNL A   1      38.145  31.110  31.191  1.00  0.00     0.049 A 
ATOM     49  N   UNL A   1      39.214  32.027  33.858  1.00  0.00    -0.248 NA
ATOM     50  C   UNL A   1      37.487  33.596  33.951  1.00  0.00     0.031 C 
ATOM     51  C   UNL A   1      37.697  30.664  29.869  1.00  0.00     0.029 A 
ATOM     52  N   UNL A   1      39.207  30.286  31.473  1.00  0.00    -0.354 N 
ATOM     53  C   UNL A   1      39.321  32.758  35.035  1.00  0.00     0.074 A 
ATOM     54  C   UNL A   1      38.269  33.753  35.009  1.00  0.00     0.031 C 
ATOM     55  C   UNL A   1      38.465  29.638  29.467  1.00  0.00     0.029 A 
ATOM     56  C   UNL A   1      39.496  29.390  30.468  1.00  0.00     0.049 A 
ATOM     57  H   UNL A   1      39.715  30.332  32.315  1.00  0.00     0.167 HD
ATOM     58  C   UNL A   1      40.202  32.598  36.053  1.00  0.00     0.034 A 
ATOM     59  C   UNL A   1      40.494  28.490  30.353  1.00  0.00     0.034 A 
ATOM     60  C   UNL A   1      41.241  31.597  36.065  1.00  0.00     0.049 A 
ATOM     61  C   UNL A   1      41.504  28.382  31.470  1.00  0.00     0.074 A 
ATOM     62  C   UNL A   1      42.151  31.314  37.068  1.00  0.00     0.029 A 
ATOM     63  N   UNL A   1      41.517  30.725  35.020  1.00  0.00    -0.354 N 
ATOM     64  N   UNL A   1      41.558  29.047  32.601  1.00  0.00    -0.248 NA
ATOM     65  C   UNL A   1      42.586  27.403  31.295  1.00  0.00     0.031 C 
ATOM     66  C   UNL A   1      43.021  30.323  36.603  1.00  0.00     0.029 A 
ATOM     67  C   UNL A   1      42.609  29.932  35.339  1.00  0.00     0.049 A 
ATOM     68  H   UNL A   1      41.010  30.675  34.177  1.00  0.00     0.167 HD
ATOM     69  C   UNL A   1      42.667  28.548  33.280  1.00  0.00     0.074 A 
ATOM     70  C   UNL A   1      43.236  27.513  32.443  1.00  0.00     0.031 C 
ATOM     71  C   UNL A   1      43.173  28.914  34.486  1.00  0.00     0.034 A 
BRANCH  58  72
ATOM     72  C   UNL A   1      40.089  33.539  37.226  1.00  0.00     0.023 A 
ATOM     73  C   UNL A   1      39.398  33.178  38.395  1.00  0.00     0.031 A 
ATOM     74  C   UNL A   1      40.677  34.816  37.175  1.00  0.00     0.131 A 
ATOM     75  C   UNL A   1      39.257  34.104  39.440  1.00  0.00     0.055 A 
ATOM     76  C   UNL A   1      40.600  35.705  38.250  1.00  0.00     0.041 A 
ATOM     77  F   UNL A   1      41.331  35.224  36.077  1.00  0.00    -0.206 F 
ATOM     78  C   UNL A   1      39.876  35.355  39.385  1.00  0.00     0.022 A 
BRANCH  75  79
ATOM     79  S   UNL A   1      38.148  33.695  40.814  1.00  0.00     0.124 S 
ATOM     80  O   UNL A   1      38.977  32.789  41.604  1.00  0.00    -0.237 OA
ATOM     81  O   UNL A   1      37.885  35.002  41.407  1.00  0.00    -0.237 OA
ATOM     82  O   UNL A   1      37.004  33.069  40.156  1.00  0.00    -0.744 OA
ENDBRANCH  75  79
ENDBRANCH  58  72
BRANCH  59  83
ATOM     83  C   UNL A   1      40.627  27.643  29.131  1.00  0.00     0.023 A 
ATOM     84  C   UNL A   1      41.541  27.976  28.119  1.00  0.00     0.031 A 
ATOM     85  C   UNL A   1      39.793  26.529  28.922  1.00  0.00     0.131 A 
ATOM     86  C   UNL A   1      41.560  27.244  26.921  1.00  0.00     0.055 A 
ATOM     87  C   UNL A   1      39.860  25.764  27.756  1.00  0.00     0.041 A 
ATOM     88  F   UNL A   1      38.898  26.165  29.855  1.00  0.00    -0.206 F 
ATOM     89  C   UNL A   1      40.737  26.131  26.739  1.00  0.00     0.022 A 
BRANCH  86  90
ATOM     90  S   UNL A   1      42.598  27.838  25.558  1.00  0.00     0.124 S 
ATOM     91  O   UNL A   1      43.874  28.054  26.231  1.00  0.00    -0.237 OA
ATOM     92  O   UNL A   1      42.546  26.716  24.626  1.00  0.00    -0.237 OA
ATOM     93  O   UNL A   1      41.915  29.049  25.112  1.00  0.00    -0.744 OA
ENDBRANCH  86  90
ENDBRANCH  59  83
BRANCH  71  94
ATOM     94  C   UNL A   1      44.386  28.165  34.975  1.00  0.00     0.023 A 
ATOM     95  C   UNL A   1      45.690  28.625  34.714  1.00  0.00     0.031 A 
ATOM     96  C   UNL A   1      44.239  26.978  35.713  1.00  0.00     0.131 A 
ATOM     97  C   UNL A   1      46.794  27.877  35.146  1.00  0.00     0.055 A 
ATOM     98  C   UNL A   1      45.341  26.270  36.193  1.00  0.00     0.041 A 
ATOM     99  F   UNL A   1      43.019  26.492  35.990  1.00  0.00    -0.206 F 
ATOM    100  C   UNL A   1      46.628  26.713  35.901  1.00  0.00     0.022 A 
BRANCH  97 101
ATOM    101  S   UNL A   1      48.455  28.407  34.645  1.00  0.00     0.124 S 
ATOM    102  O   UNL A   1      48.975  27.204  34.002  1.00  0.00    -0.237 OA
ATOM    103  O   UNL A   1      48.171  29.531  33.760  1.00  0.00    -0.237 OA
ATOM    104  O   UNL A   1      49.097  28.762  35.910  1.00  0.00    -0.744 OA
ENDBRANCH  97 101
ENDBRANCH  71  94
ENDBRANCH  45  46
ENDBRANCH  37  40
ENDBRANCH  35  36
ENDBRANCH  34  35
ENDBRANCH  33  34
ENDBRANCH  32  33
ENDBRANCH  30  32
ENDBRANCH   1  28
TORSDOF 24
ENDMDL
