MODEL 1
REMARK VINA RESULT:     -11.1      0.000      0.000
REMARK SMILES C[C@H]1[C@H](C(=O)NCCCCNC(=O)c2ccc(-c3c4nc(c(-c5cc(S(=O)(=O)[O-])ccc5F)c5ccc([nH]5)c(-c5cc(S(=O)(=O)[O-])ccc5F)c5nc(c(-c6cc(S(=O)(=O)[O-])ccc6F)c6ccc3[nH]6)C=C5)C=C4)cc2)CCN1C(=O)COc1ccccc1F
REMARK SMILES IDX 8 1 7 2 6 3 4 4 5 5 3 7 1 8 2 9 79 10 77 11 78 12 80 13
REMARK SMILES IDX 81 14 82 15 83 16 84 17 85 18 89 19 86 20 88 21 90 22 87 23
REMARK SMILES IDX 9 24 10 25 11 26 12 27 13 29 14 30 15 31 76 32 16 33 75 34
REMARK SMILES IDX 17 35 18 36 19 37 69 38 20 39 74 40 68 41 70 42 21 43 73 44
REMARK SMILES IDX 67 45 66 46 22 48 54 49 34 50 53 51 35 52 38 53 52 54 71 55
REMARK SMILES IDX 36 56 37 57 51 59 72 60 39 61 23 62 24 63 32 64 25 65 31 66
REMARK SMILES IDX 33 67 30 68 26 69 27 70 28 71 29 72 55 73 56 74 64 75 57 76
REMARK SMILES IDX 63 77 65 78 62 79 58 80 59 81 60 82 61 83 40 84 41 85 49 86
REMARK SMILES IDX 42 87 48 88 50 89 47 90 43 91 44 92 45 93 46 94
REMARK H PARENT 6 6 11 28 70 47 38 58
REMARK Flexibility Score: inf
ROOT
ATOM      1  C   UNL A   1      34.983  22.022  26.537  1.00  0.00     0.023 C 
ENDROOT
BRANCH   1   2
ATOM      2  C   UNL A   1      33.500  22.082  26.181  1.00  0.00     0.116 C 
BRANCH   2   3
ATOM      3  N   UNL A   1      32.860  23.262  26.735  1.00  0.00    -0.356 N 
ATOM      4  C   UNL A   1      32.395  24.390  26.137  1.00  0.00     0.225 C 
ATOM      5  O   UNL A   1      31.915  25.266  26.863  1.00  0.00    -0.275 OA
ATOM      6  H   UNL A   1      32.741  23.240  27.712  1.00  0.00     0.163 HD
BRANCH   4   7
ATOM      7  C   UNL A   1      32.440  24.601  24.635  1.00  0.00     0.102 C 
ATOM      8  C   UNL A   1      30.477  24.268  23.120  1.00  0.00     0.032 C 
ATOM      9  C   UNL A   1      31.159  25.251  24.072  1.00  0.00     0.094 C 
ATOM     10  N   UNL A   1      31.633  26.476  23.421  1.00  0.00    -0.336 N 
ATOM     11  C   UNL A   1      33.627  25.444  24.166  1.00  0.00     0.037 C 
ATOM     12  C   UNL A   1      33.055  26.405  23.146  1.00  0.00     0.121 C 
BRANCH  10  13
ATOM     13  C   UNL A   1      30.965  27.667  23.219  1.00  0.00     0.260 C 
ATOM     14  O   UNL A   1      30.386  27.903  22.152  1.00  0.00    -0.271 OA
BRANCH  13  15
ATOM     15  C   UNL A   1      30.951  28.734  24.321  1.00  0.00     0.329 C 
BRANCH  15  16
ATOM     16  O   UNL A   1      31.366  28.470  25.645  1.00  0.00    -0.481 OA
BRANCH  16  17
ATOM     17  C   UNL A   1      32.404  29.171  26.193  1.00  0.00     0.155 A 
ATOM     18  C   UNL A   1      33.565  28.411  26.378  1.00  0.00     0.049 A 
ATOM     19  C   UNL A   1      32.393  30.479  26.678  1.00  0.00     0.165 A 
ATOM     20  C   UNL A   1      34.681  28.946  27.030  1.00  0.00     0.004 A 
ATOM     21  C   UNL A   1      33.497  31.014  27.342  1.00  0.00     0.043 A 
ATOM     22  F   UNL A   1      31.319  31.267  26.587  1.00  0.00    -0.203 F 
ATOM     23  C   UNL A   1      34.644  30.248  27.521  1.00  0.00     0.003 A 
ENDBRANCH  16  17
ENDBRANCH  15  16
ENDBRANCH  13  15
ENDBRANCH  10  13
ENDBRANCH   4   7
ENDBRANCH   2   3
ENDBRANCH   1   2
BRANCH   1  24
ATOM     24  C   UNL A   1      35.742  23.330  26.308  1.00  0.00     0.023 C 
BRANCH  24  25
ATOM     25  C   UNL A   1      36.961  23.220  25.400  1.00  0.00     0.116 C 
BRANCH  25  26
ATOM     26  N   UNL A   1      37.981  22.321  25.916  1.00  0.00    -0.352 N 
ATOM     27  C   UNL A   1      39.134  22.635  26.596  1.00  0.00     0.251 C 
ATOM     28  H   UNL A   1      37.825  21.362  25.758  1.00  0.00     0.163 HD
ATOM     29  O   UNL A   1      39.954  21.758  26.853  1.00  0.00    -0.269 OA
BRANCH  27  30
ATOM     30  C   UNL A   1      39.391  24.040  26.974  1.00  0.00     0.039 A 
ATOM     31  C   UNL A   1      39.062  24.464  28.263  1.00  0.00     0.014 A 
ATOM     32  C   UNL A   1      39.997  24.921  26.073  1.00  0.00     0.014 A 
ATOM     33  C   UNL A   1      39.409  25.751  28.674  1.00  0.00     0.010 A 
ATOM     34  C   UNL A   1      40.405  26.178  26.508  1.00  0.00     0.010 A 
ATOM     35  C   UNL A   1      40.119  26.604  27.813  1.00  0.00    -0.014 A 
BRANCH  35  36
ATOM     36  C   UNL A   1      40.574  27.946  28.261  1.00  0.00     0.031 A 
ATOM     37  C   UNL A   1      42.044  28.252  28.342  1.00  0.00     0.074 A 
ATOM     38  C   UNL A   1      39.667  28.860  28.659  1.00  0.00     0.049 A 
ATOM     39  N   UNL A   1      42.644  29.326  28.785  1.00  0.00    -0.248 NA
ATOM     40  C   UNL A   1      42.960  27.192  27.894  1.00  0.00     0.031 C 
ATOM     41  C   UNL A   1      38.215  28.661  28.670  1.00  0.00     0.029 A 
ATOM     42  N   UNL A   1      39.829  30.133  29.143  1.00  0.00    -0.354 N 
ATOM     43  C   UNL A   1      44.007  29.068  28.686  1.00  0.00     0.074 A 
ATOM     44  C   UNL A   1      44.140  27.712  28.197  1.00  0.00     0.031 C 
ATOM     45  C   UNL A   1      37.622  29.779  29.117  1.00  0.00     0.029 A 
ATOM     46  C   UNL A   1      38.646  30.758  29.465  1.00  0.00     0.049 A 
ATOM     47  H   UNL A   1      40.710  30.560  29.252  1.00  0.00     0.167 HD
ATOM     48  C   UNL A   1      45.049  29.895  28.954  1.00  0.00     0.034 A 
ATOM     49  C   UNL A   1      38.414  31.978  29.991  1.00  0.00     0.034 A 
ATOM     50  C   UNL A   1      44.896  31.249  29.425  1.00  0.00     0.049 A 
ATOM     51  C   UNL A   1      39.589  32.875  30.290  1.00  0.00     0.074 A 
ATOM     52  C   UNL A   1      45.877  32.193  29.672  1.00  0.00     0.029 A 
ATOM     53  N   UNL A   1      43.681  31.854  29.728  1.00  0.00    -0.354 N 
ATOM     54  N   UNL A   1      40.871  32.635  30.141  1.00  0.00    -0.248 NA
ATOM     55  C   UNL A   1      39.283  34.209  30.819  1.00  0.00     0.031 C 
ATOM     56  C   UNL A   1      45.264  33.343  30.181  1.00  0.00     0.029 A 
ATOM     57  C   UNL A   1      43.892  33.145  30.185  1.00  0.00     0.049 A 
ATOM     58  H   UNL A   1      42.799  31.426  29.631  1.00  0.00     0.167 HD
ATOM     59  C   UNL A   1      41.522  33.802  30.530  1.00  0.00     0.074 A 
ATOM     60  C   UNL A   1      40.490  34.746  30.906  1.00  0.00     0.031 C 
ATOM     61  C   UNL A   1      42.852  34.071  30.568  1.00  0.00     0.034 A 
BRANCH  48  62
ATOM     62  C   UNL A   1      46.440  29.337  28.762  1.00  0.00     0.023 A 
ATOM     63  C   UNL A   1      46.976  29.118  27.482  1.00  0.00     0.031 A 
ATOM     64  C   UNL A   1      47.227  28.990  29.874  1.00  0.00     0.131 A 
ATOM     65  C   UNL A   1      48.224  28.492  27.343  1.00  0.00     0.055 A 
ATOM     66  C   UNL A   1      48.505  28.444  29.729  1.00  0.00     0.041 A 
ATOM     67  F   UNL A   1      46.763  29.158  31.121  1.00  0.00    -0.206 F 
ATOM     68  C   UNL A   1      49.003  28.177  28.457  1.00  0.00     0.022 A 
BRANCH  65  69
ATOM     69  S   UNL A   1      48.745  27.961  25.689  1.00  0.00     0.124 S 
ATOM     70  O   UNL A   1      50.063  28.584  25.580  1.00  0.00    -0.237 OA
ATOM     71  O   UNL A   1      48.734  26.507  25.804  1.00  0.00    -0.237 OA
ATOM     72  O   UNL A   1      47.724  28.525  24.810  1.00  0.00    -0.744 OA
ENDBRANCH  65  69
ENDBRANCH  48  62
BRANCH  49  73
ATOM     73  C   UNL A   1      37.022  32.426  30.275  1.00  0.00     0.023 A 
ATOM     74  C   UNL A   1      36.284  33.142  29.320  1.00  0.00     0.031 A 
ATOM     75  C   UNL A   1      36.423  32.179  31.524  1.00  0.00     0.131 A 
ATOM     76  C   UNL A   1      35.006  33.626  29.642  1.00  0.00     0.055 A 
ATOM     77  C   UNL A   1      35.132  32.621  31.822  1.00  0.00     0.041 A 
ATOM     78  F   UNL A   1      37.083  31.493  32.469  1.00  0.00    -0.206 F 
ATOM     79  C   UNL A   1      34.422  33.361  30.882  1.00  0.00     0.022 A 
BRANCH  76  80
ATOM     80  S   UNL A   1      34.150  34.680  28.441  1.00  0.00     0.124 S 
ATOM     81  O   UNL A   1      34.979  34.514  27.253  1.00  0.00    -0.237 OA
ATOM     82  O   UNL A   1      32.826  34.068  28.391  1.00  0.00    -0.237 OA
ATOM     83  O   UNL A   1      34.199  36.006  29.056  1.00  0.00    -0.744 OA
ENDBRANCH  76  80
ENDBRANCH  49  73
BRANCH  61  84
ATOM     84  C   UNL A   1      43.255  35.461  30.995  1.00  0.00     0.023 A 
ATOM     85  C   UNL A   1      43.473  36.488  30.060  1.00  0.00     0.031 A 
ATOM     86  C   UNL A   1      43.436  35.756  32.357  1.00  0.00     0.131 A 
ATOM     87  C   UNL A   1      43.912  37.747  30.496  1.00  0.00     0.055 A 
ATOM     88  C   UNL A   1      43.819  37.026  32.790  1.00  0.00     0.041 A 
ATOM     89  F   UNL A   1      43.244  34.811  33.292  1.00  0.00    -0.206 F 
ATOM     90  C   UNL A   1      44.071  38.027  31.856  1.00  0.00     0.022 A 
BRANCH  87  91
ATOM     91  S   UNL A   1      44.361  38.992  29.256  1.00  0.00     0.124 S 
ATOM     92  O   UNL A   1      43.655  40.173  29.742  1.00  0.00    -0.237 OA
ATOM     93  O   UNL A   1      45.816  39.030  29.363  1.00  0.00    -0.237 OA
ATOM     94  O   UNL A   1      43.847  38.433  28.006  1.00  0.00    -0.744 OA
ENDBRANCH  87  91
ENDBRANCH  61  84
ENDBRANCH  35  36
ENDBRANCH  27  30
ENDBRANCH  25  26
ENDBRANCH  24  25
ENDBRANCH   1  24
TORSDOF 18
ENDMDL
MODEL 2
REMARK VINA RESULT:     -10.9      2.225      3.027
REMARK SMILES C[C@H]1[C@H](C(=O)NCCCCNC(=O)c2ccc(-c3c4nc(c(-c5cc(S(=O)(=O)[O-])ccc5F)c5ccc([nH]5)c(-c5cc(S(=O)(=O)[O-])ccc5F)c5nc(c(-c6cc(S(=O)(=O)[O-])ccc6F)c6ccc3[nH]6)C=C5)C=C4)cc2)CCN1C(=O)COc1ccccc1F
REMARK SMILES IDX 8 1 7 2 6 3 4 4 5 5 3 7 1 8 2 9 79 10 77 11 78 12 80 13
REMARK SMILES IDX 81 14 82 15 83 16 84 17 85 18 89 19 86 20 88 21 90 22 87 23
REMARK SMILES IDX 9 24 10 25 11 26 12 27 13 29 14 30 15 31 76 32 16 33 75 34
REMARK SMILES IDX 17 35 18 36 19 37 69 38 20 39 74 40 68 41 70 42 21 43 73 44
REMARK SMILES IDX 67 45 66 46 22 48 54 49 34 50 53 51 35 52 38 53 52 54 71 55
REMARK SMILES IDX 36 56 37 57 51 59 72 60 39 61 23 62 24 63 32 64 25 65 31 66
REMARK SMILES IDX 33 67 30 68 26 69 27 70 28 71 29 72 55 73 56 74 64 75 57 76
REMARK SMILES IDX 63 77 65 78 62 79 58 80 59 81 60 82 61 83 40 84 41 85 49 86
REMARK SMILES IDX 42 87 48 88 50 89 47 90 43 91 44 92 45 93 46 94
REMARK H PARENT 6 6 11 28 70 47 38 58
REMARK Flexibility Score: inf
ROOT
ATOM      1  C   UNL A   1      34.595  20.948  25.587  1.00  0.00     0.023 C 
ENDROOT
BRANCH   1   2
ATOM      2  C   UNL A   1      33.152  21.253  25.196  1.00  0.00     0.116 C 
BRANCH   2   3
ATOM      3  N   UNL A   1      32.418  21.871  26.285  1.00  0.00    -0.356 N 
ATOM      4  C   UNL A   1      32.041  23.160  26.492  1.00  0.00     0.225 C 
ATOM      5  O   UNL A   1      31.441  23.420  27.538  1.00  0.00    -0.275 OA
ATOM      6  H   UNL A   1      32.144  21.248  26.997  1.00  0.00     0.163 HD
BRANCH   4   7
ATOM      7  C   UNL A   1      32.324  24.268  25.492  1.00  0.00     0.102 C 
ATOM      8  C   UNL A   1      30.551  25.445  24.177  1.00  0.00     0.032 C 
ATOM      9  C   UNL A   1      31.275  25.398  25.524  1.00  0.00     0.094 C 
ATOM     10  N   UNL A   1      32.054  26.604  25.820  1.00  0.00    -0.336 N 
ATOM     11  C   UNL A   1      33.701  24.913  25.661  1.00  0.00     0.037 C 
ATOM     12  C   UNL A   1      33.460  26.402  25.533  1.00  0.00     0.121 C 
BRANCH  10  13
ATOM     13  C   UNL A   1      31.655  27.759  26.464  1.00  0.00     0.260 C 
ATOM     14  O   UNL A   1      31.383  27.758  27.670  1.00  0.00    -0.271 OA
BRANCH  13  15
ATOM     15  C   UNL A   1      31.521  29.068  25.675  1.00  0.00     0.329 C 
BRANCH  15  16
ATOM     16  O   UNL A   1      31.346  29.101  24.275  1.00  0.00    -0.481 OA
BRANCH  16  17
ATOM     17  C   UNL A   1      30.215  29.650  23.737  1.00  0.00     0.155 A 
ATOM     18  C   UNL A   1      29.904  30.917  24.246  1.00  0.00     0.049 A 
ATOM     19  C   UNL A   1      29.309  29.058  22.858  1.00  0.00     0.165 A 
ATOM     20  C   UNL A   1      28.721  31.570  23.885  1.00  0.00     0.004 A 
ATOM     21  C   UNL A   1      28.120  29.696  22.505  1.00  0.00     0.043 A 
ATOM     22  F   UNL A   1      29.496  27.836  22.352  1.00  0.00    -0.203 F 
ATOM     23  C   UNL A   1      27.821  30.954  23.019  1.00  0.00     0.003 A 
ENDBRANCH  16  17
ENDBRANCH  15  16
ENDBRANCH  13  15
ENDBRANCH  10  13
ENDBRANCH   4   7
ENDBRANCH   2   3
ENDBRANCH   1   2
BRANCH   1  24
ATOM     24  C   UNL A   1      35.642  21.770  24.834  1.00  0.00     0.023 C 
BRANCH  24  25
ATOM     25  C   UNL A   1      36.805  22.273  25.683  1.00  0.00     0.116 C 
BRANCH  25  26
ATOM     26  N   UNL A   1      37.890  21.311  25.794  1.00  0.00    -0.352 N 
ATOM     27  C   UNL A   1      39.186  21.527  26.197  1.00  0.00     0.251 C 
ATOM     28  H   UNL A   1      37.667  20.385  25.547  1.00  0.00     0.163 HD
ATOM     29  O   UNL A   1      40.014  20.625  26.114  1.00  0.00    -0.269 OA
BRANCH  27  30
ATOM     30  C   UNL A   1      39.577  22.863  26.691  1.00  0.00     0.039 A 
ATOM     31  C   UNL A   1      40.518  22.955  27.719  1.00  0.00     0.014 A 
ATOM     32  C   UNL A   1      39.051  24.021  26.109  1.00  0.00     0.014 A 
ATOM     33  C   UNL A   1      40.987  24.209  28.113  1.00  0.00     0.010 A 
ATOM     34  C   UNL A   1      39.572  25.264  26.454  1.00  0.00     0.010 A 
ATOM     35  C   UNL A   1      40.548  25.370  27.456  1.00  0.00    -0.014 A 
BRANCH  35  36
ATOM     36  C   UNL A   1      41.099  26.706  27.801  1.00  0.00     0.031 A 
ATOM     37  C   UNL A   1      42.529  27.037  27.472  1.00  0.00     0.074 A 
ATOM     38  C   UNL A   1      40.335  27.591  28.471  1.00  0.00     0.049 A 
ATOM     39  N   UNL A   1      43.220  28.107  27.763  1.00  0.00    -0.248 NA
ATOM     40  C   UNL A   1      43.289  26.007  26.747  1.00  0.00     0.031 C 
ATOM     41  C   UNL A   1      38.948  27.365  28.888  1.00  0.00     0.029 A 
ATOM     42  N   UNL A   1      40.616  28.852  28.933  1.00  0.00    -0.354 N 
ATOM     43  C   UNL A   1      44.501  27.878  27.272  1.00  0.00     0.074 A 
ATOM     44  C   UNL A   1      44.502  26.539  26.719  1.00  0.00     0.031 C 
ATOM     45  C   UNL A   1      38.496  28.459  29.522  1.00  0.00     0.029 A 
ATOM     46  C   UNL A   1      39.568  29.445  29.597  1.00  0.00     0.049 A 
ATOM     47  H   UNL A   1      41.488  29.291  28.800  1.00  0.00     0.167 HD
ATOM     48  C   UNL A   1      45.568  28.715  27.261  1.00  0.00     0.034 A 
ATOM     49  C   UNL A   1      39.484  30.644  30.208  1.00  0.00     0.034 A 
ATOM     50  C   UNL A   1      45.543  30.051  27.801  1.00  0.00     0.049 A 
ATOM     51  C   UNL A   1      40.687  31.554  30.192  1.00  0.00     0.074 A 
ATOM     52  C   UNL A   1      46.546  31.005  27.791  1.00  0.00     0.029 A 
ATOM     53  N   UNL A   1      44.460  30.624  28.456  1.00  0.00    -0.354 N 
ATOM     54  N   UNL A   1      41.876  31.341  29.677  1.00  0.00    -0.248 NA
ATOM     55  C   UNL A   1      40.532  32.866  30.831  1.00  0.00     0.031 C 
ATOM     56  C   UNL A   1      46.093  32.128  28.492  1.00  0.00     0.029 A 
ATOM     57  C   UNL A   1      44.781  31.905  28.879  1.00  0.00     0.049 A 
ATOM     58  H   UNL A   1      43.591  30.184  28.600  1.00  0.00     0.167 HD
ATOM     59  C   UNL A   1      42.601  32.508  29.904  1.00  0.00     0.074 A 
ATOM     60  C   UNL A   1      41.710  33.422  30.590  1.00  0.00     0.031 C 
ATOM     61  C   UNL A   1      43.884  32.801  29.572  1.00  0.00     0.034 A 
BRANCH  48  62
ATOM     62  C   UNL A   1      46.853  28.189  26.663  1.00  0.00     0.023 A 
ATOM     63  C   UNL A   1      47.095  28.235  25.279  1.00  0.00     0.031 A 
ATOM     64  C   UNL A   1      47.833  27.604  27.483  1.00  0.00     0.131 A 
ATOM     65  C   UNL A   1      48.246  27.633  24.750  1.00  0.00     0.055 A 
ATOM     66  C   UNL A   1      49.017  27.081  26.958  1.00  0.00     0.041 A 
ATOM     67  F   UNL A   1      47.650  27.514  28.810  1.00  0.00    -0.206 F 
ATOM     68  C   UNL A   1      49.221  27.079  25.581  1.00  0.00     0.022 A 
BRANCH  65  69
ATOM     69  S   UNL A   1      48.377  27.453  22.950  1.00  0.00     0.124 S 
ATOM     70  O   UNL A   1      49.674  28.072  22.685  1.00  0.00    -0.237 OA
ATOM     71  O   UNL A   1      48.310  26.007  22.770  1.00  0.00    -0.237 OA
ATOM     72  O   UNL A   1      47.225  28.198  22.446  1.00  0.00    -0.744 OA
ENDBRANCH  65  69
ENDBRANCH  48  62
BRANCH  49  73
ATOM     73  C   UNL A   1      38.226  31.058  30.892  1.00  0.00     0.023 A 
ATOM     74  C   UNL A   1      37.217  31.741  30.195  1.00  0.00     0.031 A 
ATOM     75  C   UNL A   1      38.032  30.812  32.263  1.00  0.00     0.131 A 
ATOM     76  C   UNL A   1      36.078  32.195  30.880  1.00  0.00     0.055 A 
ATOM     77  C   UNL A   1      36.876  31.223  32.929  1.00  0.00     0.041 A 
ATOM     78  F   UNL A   1      38.963  30.156  32.973  1.00  0.00    -0.206 F 
ATOM     79  C   UNL A   1      35.896  31.930  32.239  1.00  0.00     0.022 A 
BRANCH  76  80
ATOM     80  S   UNL A   1      34.873  33.210  29.982  1.00  0.00     0.124 S 
ATOM     81  O   UNL A   1      34.024  33.692  31.065  1.00  0.00    -0.237 OA
ATOM     82  O   UNL A   1      35.730  34.205  29.346  1.00  0.00    -0.237 OA
ATOM     83  O   UNL A   1      34.242  32.259  29.069  1.00  0.00    -0.744 OA
ENDBRANCH  76  80
ENDBRANCH  49  73
BRANCH  61  84
ATOM     84  C   UNL A   1      44.379  34.184  29.913  1.00  0.00     0.023 A 
ATOM     85  C   UNL A   1      44.892  34.494  31.184  1.00  0.00     0.031 A 
ATOM     86  C   UNL A   1      44.323  35.209  28.953  1.00  0.00     0.131 A 
ATOM     87  C   UNL A   1      45.278  35.811  31.480  1.00  0.00     0.055 A 
ATOM     88  C   UNL A   1      44.761  36.504  29.234  1.00  0.00     0.041 A 
ATOM     89  F   UNL A   1      43.839  34.968  27.724  1.00  0.00    -0.206 F 
ATOM     90  C   UNL A   1      45.230  36.813  30.507  1.00  0.00     0.022 A 
BRANCH  87  91
ATOM     91  S   UNL A   1      45.760  36.217  33.180  1.00  0.00     0.124 S 
ATOM     92  O   UNL A   1      44.596  35.775  33.940  1.00  0.00    -0.237 OA
ATOM     93  O   UNL A   1      46.975  35.428  33.357  1.00  0.00    -0.237 OA
ATOM     94  O   UNL A   1      45.964  37.664  33.143  1.00  0.00    -0.744 OA
ENDBRANCH  87  91
ENDBRANCH  61  84
ENDBRANCH  35  36
ENDBRANCH  27  30
ENDBRANCH  25  26
ENDBRANCH  24  25
ENDBRANCH   1  24
TORSDOF 18
ENDMDL
MODEL 3
REMARK VINA RESULT:     -10.8      1.789      2.073
REMARK SMILES C[C@H]1[C@H](C(=O)NCCCCNC(=O)c2ccc(-c3c4nc(c(-c5cc(S(=O)(=O)[O-])ccc5F)c5ccc([nH]5)c(-c5cc(S(=O)(=O)[O-])ccc5F)c5nc(c(-c6cc(S(=O)(=O)[O-])ccc6F)c6ccc3[nH]6)C=C5)C=C4)cc2)CCN1C(=O)COc1ccccc1F
REMARK SMILES IDX 8 1 7 2 6 3 4 4 5 5 3 7 1 8 2 9 79 10 77 11 78 12 80 13
REMARK SMILES IDX 81 14 82 15 83 16 84 17 85 18 89 19 86 20 88 21 90 22 87 23
REMARK SMILES IDX 9 24 10 25 11 26 12 27 13 29 14 30 15 31 76 32 16 33 75 34
REMARK SMILES IDX 17 35 18 36 19 37 69 38 20 39 74 40 68 41 70 42 21 43 73 44
REMARK SMILES IDX 67 45 66 46 22 48 54 49 34 50 53 51 35 52 38 53 52 54 71 55
REMARK SMILES IDX 36 56 37 57 51 59 72 60 39 61 23 62 24 63 32 64 25 65 31 66
REMARK SMILES IDX 33 67 30 68 26 69 27 70 28 71 29 72 55 73 56 74 64 75 57 76
REMARK SMILES IDX 63 77 65 78 62 79 58 80 59 81 60 82 61 83 40 84 41 85 49 86
REMARK SMILES IDX 42 87 48 88 50 89 47 90 43 91 44 92 45 93 46 94
REMARK H PARENT 6 6 11 28 70 47 38 58
REMARK Flexibility Score: inf
ROOT
ATOM      1  C   UNL A   1      35.081  22.114  26.507  1.00  0.00     0.023 C 
ENDROOT
BRANCH   1   2
ATOM      2  C   UNL A   1      33.590  22.290  26.234  1.00  0.00     0.116 C 
BRANCH   2   3
ATOM      3  N   UNL A   1      33.112  23.589  26.671  1.00  0.00    -0.356 N 
ATOM      4  C   UNL A   1      32.684  24.669  25.965  1.00  0.00     0.225 C 
ATOM      5  O   UNL A   1      32.358  25.676  26.601  1.00  0.00    -0.275 OA
ATOM      6  H   UNL A   1      33.093  23.709  27.648  1.00  0.00     0.163 HD
BRANCH   4   7
ATOM      7  C   UNL A   1      32.593  24.675  24.450  1.00  0.00     0.102 C 
ATOM      8  C   UNL A   1      30.455  24.395  23.181  1.00  0.00     0.032 C 
ATOM      9  C   UNL A   1      31.341  25.402  23.918  1.00  0.00     0.094 C 
ATOM     10  N   UNL A   1      31.877  26.461  23.059  1.00  0.00    -0.336 N 
ATOM     11  C   UNL A   1      33.811  25.294  23.761  1.00  0.00     0.037 C 
ATOM     12  C   UNL A   1      33.244  26.177  22.671  1.00  0.00     0.121 C 
BRANCH  10  13
ATOM     13  C   UNL A   1      31.329  27.690  22.751  1.00  0.00     0.260 C 
ATOM     14  O   UNL A   1      30.316  27.781  22.047  1.00  0.00    -0.271 OA
BRANCH  13  15
ATOM     15  C   UNL A   1      31.990  28.975  23.266  1.00  0.00     0.329 C 
BRANCH  15  16
ATOM     16  O   UNL A   1      31.620  29.590  24.482  1.00  0.00    -0.481 OA
BRANCH  16  17
ATOM     17  C   UNL A   1      32.541  29.748  25.480  1.00  0.00     0.155 A 
ATOM     18  C   UNL A   1      33.554  28.782  25.473  1.00  0.00     0.049 A 
ATOM     19  C   UNL A   1      32.514  30.662  26.534  1.00  0.00     0.165 A 
ATOM     20  C   UNL A   1      34.511  28.733  26.491  1.00  0.00     0.004 A 
ATOM     21  C   UNL A   1      33.457  30.609  27.560  1.00  0.00     0.043 A 
ATOM     22  F   UNL A   1      31.564  31.593  26.650  1.00  0.00    -0.203 F 
ATOM     23  C   UNL A   1      34.458  29.643  27.543  1.00  0.00     0.003 A 
ENDBRANCH  16  17
ENDBRANCH  15  16
ENDBRANCH  13  15
ENDBRANCH  10  13
ENDBRANCH   4   7
ENDBRANCH   2   3
ENDBRANCH   1   2
BRANCH   1  24
ATOM     24  C   UNL A   1      35.928  23.354  26.220  1.00  0.00     0.023 C 
BRANCH  24  25
ATOM     25  C   UNL A   1      37.121  23.125  25.298  1.00  0.00     0.116 C 
BRANCH  25  26
ATOM     26  N   UNL A   1      38.122  22.238  25.868  1.00  0.00    -0.352 N 
ATOM     27  C   UNL A   1      39.251  22.568  26.580  1.00  0.00     0.251 C 
ATOM     28  H   UNL A   1      37.973  21.276  25.725  1.00  0.00     0.163 HD
ATOM     29  O   UNL A   1      40.062  21.699  26.884  1.00  0.00    -0.269 OA
BRANCH  27  30
ATOM     30  C   UNL A   1      39.493  23.981  26.938  1.00  0.00     0.039 A 
ATOM     31  C   UNL A   1      39.258  24.395  28.251  1.00  0.00     0.014 A 
ATOM     32  C   UNL A   1      39.994  24.880  25.992  1.00  0.00     0.014 A 
ATOM     33  C   UNL A   1      39.596  25.694  28.634  1.00  0.00     0.010 A 
ATOM     34  C   UNL A   1      40.397  26.150  26.393  1.00  0.00     0.010 A 
ATOM     35  C   UNL A   1      40.205  26.568  27.718  1.00  0.00    -0.014 A 
BRANCH  35  36
ATOM     36  C   UNL A   1      40.653  27.924  28.129  1.00  0.00     0.031 A 
ATOM     37  C   UNL A   1      42.118  28.262  28.136  1.00  0.00     0.074 A 
ATOM     38  C   UNL A   1      39.746  28.824  28.560  1.00  0.00     0.049 A 
ATOM     39  N   UNL A   1      42.715  29.353  28.539  1.00  0.00    -0.248 NA
ATOM     40  C   UNL A   1      43.034  27.216  27.657  1.00  0.00     0.031 C 
ATOM     41  C   UNL A   1      38.301  28.596  28.643  1.00  0.00     0.029 A 
ATOM     42  N   UNL A   1      39.904  30.106  29.022  1.00  0.00    -0.354 N 
ATOM     43  C   UNL A   1      44.077  29.122  28.378  1.00  0.00     0.074 A 
ATOM     44  C   UNL A   1      44.216  27.763  27.898  1.00  0.00     0.031 C 
ATOM     45  C   UNL A   1      37.706  29.706  29.105  1.00  0.00     0.029 A 
ATOM     46  C   UNL A   1      38.724  30.710  29.392  1.00  0.00     0.049 A 
ATOM     47  H   UNL A   1      40.780  30.552  29.084  1.00  0.00     0.167 HD
ATOM     48  C   UNL A   1      45.112  29.973  28.587  1.00  0.00     0.034 A 
ATOM     49  C   UNL A   1      38.492  31.931  29.915  1.00  0.00     0.034 A 
ATOM     50  C   UNL A   1      44.953  31.329  29.050  1.00  0.00     0.049 A 
ATOM     51  C   UNL A   1      39.660  32.856  30.149  1.00  0.00     0.074 A 
ATOM     52  C   UNL A   1      45.925  32.297  29.239  1.00  0.00     0.029 A 
ATOM     53  N   UNL A   1      43.742  31.913  29.403  1.00  0.00    -0.354 N 
ATOM     54  N   UNL A   1      40.939  32.640  29.941  1.00  0.00    -0.248 NA
ATOM     55  C   UNL A   1      39.351  34.190  30.677  1.00  0.00     0.031 C 
ATOM     56  C   UNL A   1      45.313  33.440  29.764  1.00  0.00     0.029 A 
ATOM     57  C   UNL A   1      43.947  33.214  29.836  1.00  0.00     0.049 A 
ATOM     58  H   UNL A   1      42.866  31.466  29.354  1.00  0.00     0.167 HD
ATOM     59  C   UNL A   1      41.583  33.826  30.286  1.00  0.00     0.074 A 
ATOM     60  C   UNL A   1      40.550  34.753  30.701  1.00  0.00     0.031 C 
ATOM     61  C   UNL A   1      42.907  34.123  30.258  1.00  0.00     0.034 A 
BRANCH  48  62
ATOM     62  C   UNL A   1      46.505  29.443  28.335  1.00  0.00     0.023 A 
ATOM     63  C   UNL A   1      47.266  28.856  29.361  1.00  0.00     0.031 A 
ATOM     64  C   UNL A   1      47.091  29.556  27.063  1.00  0.00     0.131 A 
ATOM     65  C   UNL A   1      48.597  28.481  29.118  1.00  0.00     0.055 A 
ATOM     66  C   UNL A   1      48.388  29.103  26.807  1.00  0.00     0.041 A 
ATOM     67  F   UNL A   1      46.421  30.124  26.048  1.00  0.00    -0.206 F 
ATOM     68  C   UNL A   1      49.154  28.577  27.842  1.00  0.00     0.022 A 
BRANCH  65  69
ATOM     69  S   UNL A   1      49.632  28.007  30.530  1.00  0.00     0.124 S 
ATOM     70  O   UNL A   1      50.785  27.407  29.862  1.00  0.00    -0.237 OA
ATOM     71  O   UNL A   1      49.869  29.284  31.192  1.00  0.00    -0.237 OA
ATOM     72  O   UNL A   1      48.792  27.067  31.270  1.00  0.00    -0.744 OA
ENDBRANCH  65  69
ENDBRANCH  48  62
BRANCH  49  73
ATOM     73  C   UNL A   1      37.106  32.354  30.261  1.00  0.00     0.023 A 
ATOM     74  C   UNL A   1      36.296  33.014  29.323  1.00  0.00     0.031 A 
ATOM     75  C   UNL A   1      36.583  32.138  31.549  1.00  0.00     0.131 A 
ATOM     76  C   UNL A   1      35.026  33.477  29.699  1.00  0.00     0.055 A 
ATOM     77  C   UNL A   1      35.299  32.558  31.903  1.00  0.00     0.041 A 
ATOM     78  F   UNL A   1      37.313  31.505  32.480  1.00  0.00    -0.206 F 
ATOM     79  C   UNL A   1      34.518  33.244  30.979  1.00  0.00     0.022 A 
BRANCH  76  80
ATOM     80  S   UNL A   1      34.076  34.464  28.510  1.00  0.00     0.124 S 
ATOM     81  O   UNL A   1      34.311  35.820  28.992  1.00  0.00    -0.237 OA
ATOM     82  O   UNL A   1      34.715  34.112  27.246  1.00  0.00    -0.237 OA
ATOM     83  O   UNL A   1      32.709  33.971  28.674  1.00  0.00    -0.744 OA
ENDBRANCH  76  80
ENDBRANCH  49  73
BRANCH  61  84
ATOM     84  C   UNL A   1      43.300  35.526  30.649  1.00  0.00     0.023 A 
ATOM     85  C   UNL A   1      43.522  35.885  31.990  1.00  0.00     0.031 A 
ATOM     86  C   UNL A   1      43.441  36.519  29.665  1.00  0.00     0.131 A 
ATOM     87  C   UNL A   1      43.819  37.217  32.315  1.00  0.00     0.055 A 
ATOM     88  C   UNL A   1      43.793  37.830  29.988  1.00  0.00     0.041 A 
ATOM     89  F   UNL A   1      43.238  36.230  28.369  1.00  0.00    -0.206 F 
ATOM     90  C   UNL A   1      43.971  38.188  31.321  1.00  0.00     0.022 A 
BRANCH  87  91
ATOM     91  S   UNL A   1      43.918  37.687  34.064  1.00  0.00     0.124 S 
ATOM     92  O   UNL A   1      42.739  38.533  34.218  1.00  0.00    -0.237 OA
ATOM     93  O   UNL A   1      43.866  36.393  34.738  1.00  0.00    -0.237 OA
ATOM     94  O   UNL A   1      45.199  38.384  34.161  1.00  0.00    -0.744 OA
ENDBRANCH  87  91
ENDBRANCH  61  84
ENDBRANCH  35  36
ENDBRANCH  27  30
ENDBRANCH  25  26
ENDBRANCH  24  25
ENDBRANCH   1  24
TORSDOF 18
ENDMDL
