MODEL 1
REMARK VINA RESULT:     -12.8      0.000      0.000
REMARK SMILES O=C(NCCCCNC(=O)c1ccc(-c2c3nc(c(-c4cc(S(=O)(=O)[O-])ccc4F)c4ccc([nH]4)c(-c4cc(S(=O)(=O)[O-])ccc4F)c4nc(c(-c5cc(S(=O)(=O)[O-])ccc5F)c5ccc2[nH]5)C=C4)C=C3)cc1)c1ccc(Cn2cc(Cl)c(=O)[nH]c2=O)cc1
REMARK SMILES IDX 6 1 5 2 4 3 3 4 1 5 2 6 74 8 75 9 89 10 76 11 88 12 77 13
REMARK SMILES IDX 78 14 79 15 80 16 86 17 81 18 85 19 87 20 82 21 83 22 84 24
REMARK SMILES IDX 7 25 8 26 9 27 10 29 11 30 12 31 73 32 13 33 72 34 14 35
REMARK SMILES IDX 15 36 16 37 66 38 17 39 71 40 65 41 67 42 18 43 70 44 64 45
REMARK SMILES IDX 63 46 19 48 51 49 31 50 50 51 32 52 35 53 49 54 68 55 33 56
REMARK SMILES IDX 34 57 48 59 69 60 36 61 20 62 21 63 29 64 22 65 28 66 30 67
REMARK SMILES IDX 27 68 23 69 24 70 25 71 26 72 52 73 53 74 61 75 54 76 60 77
REMARK SMILES IDX 62 78 59 79 55 80 56 81 57 82 58 83 37 84 38 85 46 86 39 87
REMARK SMILES IDX 45 88 47 89 44 90 40 91 41 92 42 93 43 94
REMARK H PARENT 3 7 85 23 8 28 67 47 35 58
REMARK Flexibility Score: inf
ROOT
ATOM      1  C   UNL A   1      34.962  21.286  24.818  1.00  0.00     0.023 C 
ENDROOT
BRANCH   1   2
ATOM      2  C   UNL A   1      34.185  22.253  23.924  1.00  0.00     0.023 C 
BRANCH   2   3
ATOM      3  C   UNL A   1      32.693  22.363  24.227  1.00  0.00     0.116 C 
BRANCH   3   4
ATOM      4  N   UNL A   1      32.406  22.239  25.648  1.00  0.00    -0.352 N 
ATOM      5  O   UNL A   1      32.172  22.979  27.780  1.00  0.00    -0.269 OA
ATOM      6  C   UNL A   1      32.279  23.236  26.585  1.00  0.00     0.251 C 
ATOM      7  H   UNL A   1      32.287  21.321  25.983  1.00  0.00     0.163 HD
BRANCH   6   8
ATOM      8  C   UNL A   1      32.284  24.638  26.136  1.00  0.00     0.039 A 
ATOM      9  C   UNL A   1      33.497  25.301  25.937  1.00  0.00     0.014 A 
ATOM     10  C   UNL A   1      31.070  25.298  25.937  1.00  0.00     0.014 A 
ATOM     11  C   UNL A   1      33.493  26.655  25.609  1.00  0.00     0.006 A 
ATOM     12  C   UNL A   1      31.071  26.660  25.625  1.00  0.00     0.006 A 
ATOM     13  C   UNL A   1      32.281  27.356  25.481  1.00  0.00    -0.028 A 
BRANCH  13  14
ATOM     14  C   UNL A   1      32.286  28.850  25.233  1.00  0.00     0.162 C 
BRANCH  14  15
ATOM     15  N   UNL A   1      31.436  29.244  24.100  1.00  0.00    -0.295 N 
ATOM     16  C   UNL A   1      30.235  29.894  24.335  1.00  0.00     0.117 A 
ATOM     17  C   UNL A   1      31.868  28.968  22.807  1.00  0.00     0.328 A 
ATOM     18  C   UNL A   1      29.419  30.282  23.351  1.00  0.00     0.122 A 
ATOM     19  N   UNL A   1      31.028  29.380  21.803  1.00  0.00    -0.273 N 
ATOM     20  O   UNL A   1      32.927  28.412  22.531  1.00  0.00    -0.248 OA
ATOM     21  Cl  UNL A   1      27.930  31.075  23.663  1.00  0.00    -0.077 Cl
ATOM     22  C   UNL A   1      29.829  30.028  21.951  1.00  0.00     0.272 A 
ATOM     23  H   UNL A   1      31.315  29.191  20.881  1.00  0.00     0.175 HD
ATOM     24  O   UNL A   1      29.167  30.378  20.980  1.00  0.00    -0.268 OA
ENDBRANCH  14  15
ENDBRANCH  13  14
ENDBRANCH   6   8
ENDBRANCH   3   4
ENDBRANCH   2   3
ENDBRANCH   1   2
BRANCH   1  25
ATOM     25  C   UNL A   1      36.344  21.760  25.257  1.00  0.00     0.116 C 
BRANCH  25  26
ATOM     26  N   UNL A   1      37.314  20.681  25.354  1.00  0.00    -0.352 N 
ATOM     27  C   UNL A   1      38.639  20.726  25.719  1.00  0.00     0.251 C 
ATOM     28  H   UNL A   1      36.971  19.788  25.124  1.00  0.00     0.163 HD
ATOM     29  O   UNL A   1      39.327  19.714  25.609  1.00  0.00    -0.269 OA
BRANCH  27  30
ATOM     30  C   UNL A   1      39.242  21.989  26.203  1.00  0.00     0.039 A 
ATOM     31  C   UNL A   1      40.457  21.935  26.890  1.00  0.00     0.014 A 
ATOM     32  C   UNL A   1      38.623  23.222  25.980  1.00  0.00     0.014 A 
ATOM     33  C   UNL A   1      41.085  23.119  27.288  1.00  0.00     0.010 A 
ATOM     34  C   UNL A   1      39.286  24.403  26.308  1.00  0.00     0.010 A 
ATOM     35  C   UNL A   1      40.526  24.365  26.964  1.00  0.00    -0.014 A 
BRANCH  35  36
ATOM     36  C   UNL A   1      41.226  25.634  27.301  1.00  0.00     0.031 A 
ATOM     37  C   UNL A   1      40.543  26.680  28.141  1.00  0.00     0.074 A 
ATOM     38  C   UNL A   1      42.456  25.871  26.801  1.00  0.00     0.049 A 
ATOM     39  N   UNL A   1      40.970  27.864  28.502  1.00  0.00    -0.248 NA
ATOM     40  C   UNL A   1      39.188  26.362  28.610  1.00  0.00     0.031 C 
ATOM     41  C   UNL A   1      43.207  24.956  25.938  1.00  0.00     0.029 A 
ATOM     42  N   UNL A   1      43.290  26.952  26.942  1.00  0.00    -0.354 N 
ATOM     43  C   UNL A   1      39.931  28.438  29.226  1.00  0.00     0.074 A 
ATOM     44  C   UNL A   1      38.831  27.496  29.192  1.00  0.00     0.031 C 
ATOM     45  C   UNL A   1      44.404  25.497  25.660  1.00  0.00     0.029 A 
ATOM     46  C   UNL A   1      44.490  26.814  26.284  1.00  0.00     0.049 A 
ATOM     47  H   UNL A   1      43.051  27.751  27.465  1.00  0.00     0.167 HD
ATOM     48  C   UNL A   1      39.903  29.629  29.879  1.00  0.00     0.034 A 
ATOM     49  C   UNL A   1      45.540  27.653  26.192  1.00  0.00     0.034 A 
ATOM     50  C   UNL A   1      41.013  30.553  29.910  1.00  0.00     0.049 A 
ATOM     51  C   UNL A   1      45.477  28.983  26.899  1.00  0.00     0.074 A 
ATOM     52  C   UNL A   1      41.119  31.752  30.593  1.00  0.00     0.029 A 
ATOM     53  N   UNL A   1      42.207  30.388  29.217  1.00  0.00    -0.354 N 
ATOM     54  N   UNL A   1      44.511  29.486  27.633  1.00  0.00    -0.248 NA
ATOM     55  C   UNL A   1      46.653  29.852  26.771  1.00  0.00     0.031 C 
ATOM     56  C   UNL A   1      42.342  32.345  30.257  1.00  0.00     0.029 A 
ATOM     57  C   UNL A   1      43.037  31.480  29.426  1.00  0.00     0.049 A 
ATOM     58  H   UNL A   1      42.431  29.608  28.658  1.00  0.00     0.167 HD
ATOM     59  C   UNL A   1      44.980  30.716  28.083  1.00  0.00     0.074 A 
ATOM     60  C   UNL A   1      46.318  30.871  27.548  1.00  0.00     0.031 C 
ATOM     61  C   UNL A   1      44.363  31.634  28.873  1.00  0.00     0.034 A 
BRANCH  48  62
ATOM     62  C   UNL A   1      38.616  30.002  30.581  1.00  0.00     0.023 A 
ATOM     63  C   UNL A   1      37.626  30.774  29.947  1.00  0.00     0.031 A 
ATOM     64  C   UNL A   1      38.395  29.622  31.916  1.00  0.00     0.131 A 
ATOM     65  C   UNL A   1      36.514  31.225  30.675  1.00  0.00     0.055 A 
ATOM     66  C   UNL A   1      37.241  29.997  32.608  1.00  0.00     0.041 A 
ATOM     67  F   UNL A   1      39.309  28.900  32.583  1.00  0.00    -0.206 F 
ATOM     68  C   UNL A   1      36.301  30.820  31.995  1.00  0.00     0.022 A 
BRANCH  65  69
ATOM     69  S   UNL A   1      35.450  32.493  29.932  1.00  0.00     0.124 S 
ATOM     70  O   UNL A   1      35.038  31.841  28.691  1.00  0.00    -0.237 OA
ATOM     71  O   UNL A   1      34.411  32.663  30.941  1.00  0.00    -0.237 OA
ATOM     72  O   UNL A   1      36.346  33.634  29.757  1.00  0.00    -0.744 OA
ENDBRANCH  65  69
ENDBRANCH  48  62
BRANCH  49  73
ATOM     73  C   UNL A   1      46.751  27.267  25.412  1.00  0.00     0.023 A 
ATOM     74  C   UNL A   1      46.944  27.743  24.105  1.00  0.00     0.031 A 
ATOM     75  C   UNL A   1      47.711  26.388  25.944  1.00  0.00     0.131 A 
ATOM     76  C   UNL A   1      48.047  27.305  23.356  1.00  0.00     0.055 A 
ATOM     77  C   UNL A   1      48.833  25.995  25.213  1.00  0.00     0.041 A 
ATOM     78  F   UNL A   1      47.576  25.909  27.190  1.00  0.00    -0.206 F 
ATOM     79  C   UNL A   1      49.000  26.444  23.906  1.00  0.00     0.022 A 
BRANCH  76  80
ATOM     80  S   UNL A   1      48.179  27.821  21.623  1.00  0.00     0.124 S 
ATOM     81  O   UNL A   1      49.238  28.822  21.691  1.00  0.00    -0.237 OA
ATOM     82  O   UNL A   1      48.521  26.568  20.959  1.00  0.00    -0.237 OA
ATOM     83  O   UNL A   1      46.847  28.340  21.321  1.00  0.00    -0.744 OA
ENDBRANCH  76  80
ENDBRANCH  49  73
BRANCH  61  84
ATOM     84  C   UNL A   1      45.159  32.865  29.237  1.00  0.00     0.023 A 
ATOM     85  C   UNL A   1      45.115  34.034  28.457  1.00  0.00     0.031 A 
ATOM     86  C   UNL A   1      46.001  32.855  30.364  1.00  0.00     0.131 A 
ATOM     87  C   UNL A   1      45.946  35.120  28.774  1.00  0.00     0.055 A 
ATOM     88  C   UNL A   1      46.776  33.963  30.713  1.00  0.00     0.041 A 
ATOM     89  F   UNL A   1      46.086  31.766  31.143  1.00  0.00    -0.206 F 
ATOM     90  C   UNL A   1      46.764  35.097  29.907  1.00  0.00     0.022 A 
BRANCH  87  91
ATOM     91  S   UNL A   1      46.028  36.520  27.624  1.00  0.00     0.124 S 
ATOM     92  O   UNL A   1      46.706  35.930  26.474  1.00  0.00    -0.237 OA
ATOM     93  O   UNL A   1      44.619  36.849  27.433  1.00  0.00    -0.237 OA
ATOM     94  O   UNL A   1      46.804  37.520  28.355  1.00  0.00    -0.744 OA
ENDBRANCH  87  91
ENDBRANCH  61  84
ENDBRANCH  35  36
ENDBRANCH  27  30
ENDBRANCH  25  26
ENDBRANCH   1  25
TORSDOF 16
ENDMDL
MODEL 2
REMARK VINA RESULT:     -12.7      1.509      7.647
REMARK SMILES O=C(NCCCCNC(=O)c1ccc(-c2c3nc(c(-c4cc(S(=O)(=O)[O-])ccc4F)c4ccc([nH]4)c(-c4cc(S(=O)(=O)[O-])ccc4F)c4nc(c(-c5cc(S(=O)(=O)[O-])ccc5F)c5ccc2[nH]5)C=C4)C=C3)cc1)c1ccc(Cn2cc(Cl)c(=O)[nH]c2=O)cc1
REMARK SMILES IDX 6 1 5 2 4 3 3 4 1 5 2 6 74 8 75 9 89 10 76 11 88 12 77 13
REMARK SMILES IDX 78 14 79 15 80 16 86 17 81 18 85 19 87 20 82 21 83 22 84 24
REMARK SMILES IDX 7 25 8 26 9 27 10 29 11 30 12 31 73 32 13 33 72 34 14 35
REMARK SMILES IDX 15 36 16 37 66 38 17 39 71 40 65 41 67 42 18 43 70 44 64 45
REMARK SMILES IDX 63 46 19 48 51 49 31 50 50 51 32 52 35 53 49 54 68 55 33 56
REMARK SMILES IDX 34 57 48 59 69 60 36 61 20 62 21 63 29 64 22 65 28 66 30 67
REMARK SMILES IDX 27 68 23 69 24 70 25 71 26 72 52 73 53 74 61 75 54 76 60 77
REMARK SMILES IDX 62 78 59 79 55 80 56 81 57 82 58 83 37 84 38 85 46 86 39 87
REMARK SMILES IDX 45 88 47 89 44 90 40 91 41 92 42 93 43 94
REMARK H PARENT 3 7 85 23 8 28 67 47 35 58
REMARK Flexibility Score: inf
ROOT
ATOM      1  C   UNL A   1      35.345  21.854  24.945  1.00  0.00     0.023 C 
ENDROOT
BRANCH   1   2
ATOM      2  C   UNL A   1      34.445  20.760  25.522  1.00  0.00     0.023 C 
BRANCH   2   3
ATOM      3  C   UNL A   1      32.960  20.902  25.198  1.00  0.00     0.116 C 
BRANCH   3   4
ATOM      4  N   UNL A   1      32.667  20.608  23.803  1.00  0.00    -0.352 N 
ATOM      5  O   UNL A   1      31.878  21.046  21.722  1.00  0.00    -0.269 OA
ATOM      6  C   UNL A   1      32.217  21.462  22.826  1.00  0.00     0.251 C 
ATOM      7  H   UNL A   1      32.810  19.675  23.523  1.00  0.00     0.163 HD
BRANCH   6   8
ATOM      8  C   UNL A   1      32.131  22.901  23.123  1.00  0.00     0.039 A 
ATOM      9  C   UNL A   1      33.119  23.769  22.652  1.00  0.00     0.014 A 
ATOM     10  C   UNL A   1      31.072  23.379  23.896  1.00  0.00     0.014 A 
ATOM     11  C   UNL A   1      33.084  25.112  23.021  1.00  0.00     0.006 A 
ATOM     12  C   UNL A   1      31.050  24.723  24.278  1.00  0.00     0.006 A 
ATOM     13  C   UNL A   1      32.068  25.596  23.863  1.00  0.00    -0.028 A 
BRANCH  13  14
ATOM     14  C   UNL A   1      32.097  27.030  24.349  1.00  0.00     0.162 C 
BRANCH  14  15
ATOM     15  N   UNL A   1      31.314  27.938  23.499  1.00  0.00    -0.295 N 
ATOM     16  C   UNL A   1      29.930  27.928  23.573  1.00  0.00     0.117 A 
ATOM     17  C   UNL A   1      31.985  28.805  22.644  1.00  0.00     0.328 A 
ATOM     18  C   UNL A   1      29.160  28.729  22.832  1.00  0.00     0.122 A 
ATOM     19  N   UNL A   1      31.186  29.632  21.894  1.00  0.00    -0.273 N 
ATOM     20  O   UNL A   1      33.207  28.876  22.543  1.00  0.00    -0.248 OA
ATOM     21  Cl  UNL A   1      27.448  28.693  22.930  1.00  0.00    -0.077 Cl
ATOM     22  C   UNL A   1      29.816  29.685  21.910  1.00  0.00     0.272 A 
ATOM     23  H   UNL A   1      31.643  30.252  21.281  1.00  0.00     0.175 HD
ATOM     24  O   UNL A   1      29.198  30.485  21.217  1.00  0.00    -0.268 OA
ENDBRANCH  14  15
ENDBRANCH  13  14
ENDBRANCH   6   8
ENDBRANCH   3   4
ENDBRANCH   2   3
ENDBRANCH   1   2
BRANCH   1  25
ATOM     25  C   UNL A   1      36.510  22.284  25.831  1.00  0.00     0.116 C 
BRANCH  25  26
ATOM     26  N   UNL A   1      37.615  21.338  25.819  1.00  0.00    -0.352 N 
ATOM     27  C   UNL A   1      38.943  21.540  26.112  1.00  0.00     0.251 C 
ATOM     28  H   UNL A   1      37.376  20.417  25.564  1.00  0.00     0.163 HD
ATOM     29  O   UNL A   1      39.747  20.632  25.913  1.00  0.00    -0.269 OA
BRANCH  27  30
ATOM     30  C   UNL A   1      39.408  22.849  26.624  1.00  0.00     0.039 A 
ATOM     31  C   UNL A   1      40.405  22.873  27.603  1.00  0.00     0.014 A 
ATOM     32  C   UNL A   1      38.874  24.048  26.145  1.00  0.00     0.014 A 
ATOM     33  C   UNL A   1      40.916  24.097  28.045  1.00  0.00     0.010 A 
ATOM     34  C   UNL A   1      39.437  25.264  26.529  1.00  0.00     0.010 A 
ATOM     35  C   UNL A   1      40.466  25.302  27.483  1.00  0.00    -0.014 A 
BRANCH  35  36
ATOM     36  C   UNL A   1      41.062  26.607  27.879  1.00  0.00     0.031 A 
ATOM     37  C   UNL A   1      42.498  26.918  27.548  1.00  0.00     0.074 A 
ATOM     38  C   UNL A   1      40.329  27.488  28.588  1.00  0.00     0.049 A 
ATOM     39  N   UNL A   1      43.207  27.977  27.846  1.00  0.00    -0.248 NA
ATOM     40  C   UNL A   1      43.240  25.887  26.811  1.00  0.00     0.031 C 
ATOM     41  C   UNL A   1      38.941  27.285  29.010  1.00  0.00     0.029 A 
ATOM     42  N   UNL A   1      40.647  28.728  29.084  1.00  0.00    -0.354 N 
ATOM     43  C   UNL A   1      44.482  27.733  27.348  1.00  0.00     0.074 A 
ATOM     44  C   UNL A   1      44.461  26.397  26.790  1.00  0.00     0.031 C 
ATOM     45  C   UNL A   1      38.516  28.378  29.664  1.00  0.00     0.029 A 
ATOM     46  C   UNL A   1      39.611  29.339  29.751  1.00  0.00     0.049 A 
ATOM     47  H   UNL A   1      41.534  29.140  28.972  1.00  0.00     0.167 HD
ATOM     48  C   UNL A   1      45.564  28.555  27.335  1.00  0.00     0.034 A 
ATOM     49  C   UNL A   1      39.550  30.537  30.364  1.00  0.00     0.034 A 
ATOM     50  C   UNL A   1      45.565  29.889  27.889  1.00  0.00     0.049 A 
ATOM     51  C   UNL A   1      40.771  31.421  30.365  1.00  0.00     0.074 A 
ATOM     52  C   UNL A   1      46.580  30.830  27.872  1.00  0.00     0.029 A 
ATOM     53  N   UNL A   1      44.503  30.468  28.573  1.00  0.00    -0.354 N 
ATOM     54  N   UNL A   1      41.953  31.202  29.834  1.00  0.00    -0.248 NA
ATOM     55  C   UNL A   1      40.644  32.718  31.040  1.00  0.00     0.031 C 
ATOM     56  C   UNL A   1      46.160  31.946  28.605  1.00  0.00     0.029 A 
ATOM     57  C   UNL A   1      44.852  31.737  29.014  1.00  0.00     0.049 A 
ATOM     58  H   UNL A   1      43.629  30.040  28.724  1.00  0.00     0.167 HD
ATOM     59  C   UNL A   1      42.697  32.351  30.082  1.00  0.00     0.074 A 
ATOM     60  C   UNL A   1      41.827  33.263  30.798  1.00  0.00     0.031 C 
ATOM     61  C   UNL A   1      43.983  32.631  29.744  1.00  0.00     0.034 A 
BRANCH  48  62
ATOM     62  C   UNL A   1      46.838  28.009  26.729  1.00  0.00     0.023 A 
ATOM     63  C   UNL A   1      47.132  28.162  25.362  1.00  0.00     0.031 A 
ATOM     64  C   UNL A   1      47.750  27.284  27.516  1.00  0.00     0.131 A 
ATOM     65  C   UNL A   1      48.247  27.517  24.807  1.00  0.00     0.055 A 
ATOM     66  C   UNL A   1      48.908  26.722  26.975  1.00  0.00     0.041 A 
ATOM     67  F   UNL A   1      47.519  27.086  28.824  1.00  0.00    -0.206 F 
ATOM     68  C   UNL A   1      49.152  26.819  25.608  1.00  0.00     0.022 A 
BRANCH  65  69
ATOM     69  S   UNL A   1      48.396  27.451  22.999  1.00  0.00     0.124 S 
ATOM     70  O   UNL A   1      48.353  26.012  22.752  1.00  0.00    -0.237 OA
ATOM     71  O   UNL A   1      47.231  28.211  22.559  1.00  0.00    -0.237 OA
ATOM     72  O   UNL A   1      49.689  28.080  22.739  1.00  0.00    -0.744 OA
ENDBRANCH  65  69
ENDBRANCH  48  62
BRANCH  49  73
ATOM     73  C   UNL A   1      38.290  30.987  31.023  1.00  0.00     0.023 A 
ATOM     74  C   UNL A   1      37.291  31.642  30.285  1.00  0.00     0.031 A 
ATOM     75  C   UNL A   1      38.082  30.804  32.401  1.00  0.00     0.131 A 
ATOM     76  C   UNL A   1      36.147  32.130  30.936  1.00  0.00     0.055 A 
ATOM     77  C   UNL A   1      36.920  31.247  33.035  1.00  0.00     0.041 A 
ATOM     78  F   UNL A   1      39.004  30.179  33.150  1.00  0.00    -0.206 F 
ATOM     79  C   UNL A   1      35.950  31.926  32.304  1.00  0.00     0.022 A 
BRANCH  76  80
ATOM     80  S   UNL A   1      34.954  33.104  29.980  1.00  0.00     0.124 S 
ATOM     81  O   UNL A   1      34.065  33.597  31.026  1.00  0.00    -0.237 OA
ATOM     82  O   UNL A   1      35.813  34.098  29.345  1.00  0.00    -0.237 OA
ATOM     83  O   UNL A   1      34.365  32.122  29.071  1.00  0.00    -0.744 OA
ENDBRANCH  76  80
ENDBRANCH  49  73
BRANCH  61  84
ATOM     84  C   UNL A   1      44.501  34.002  30.111  1.00  0.00     0.023 A 
ATOM     85  C   UNL A   1      44.292  35.120  29.285  1.00  0.00     0.031 A 
ATOM     86  C   UNL A   1      45.246  34.183  31.291  1.00  0.00     0.131 A 
ATOM     87  C   UNL A   1      44.877  36.353  29.613  1.00  0.00     0.055 A 
ATOM     88  C   UNL A   1      45.770  35.428  31.646  1.00  0.00     0.041 A 
ATOM     89  F   UNL A   1      45.481  33.151  32.116  1.00  0.00    -0.206 F 
ATOM     90  C   UNL A   1      45.600  36.517  30.798  1.00  0.00     0.022 A 
BRANCH  87  91
ATOM     91  S   UNL A   1      44.773  37.713  28.418  1.00  0.00     0.124 S 
ATOM     92  O   UNL A   1      46.154  38.183  28.371  1.00  0.00    -0.237 OA
ATOM     93  O   UNL A   1      44.288  37.038  27.218  1.00  0.00    -0.237 OA
ATOM     94  O   UNL A   1      43.824  38.639  29.033  1.00  0.00    -0.744 OA
ENDBRANCH  87  91
ENDBRANCH  61  84
ENDBRANCH  35  36
ENDBRANCH  27  30
ENDBRANCH  25  26
ENDBRANCH   1  25
TORSDOF 16
ENDMDL
MODEL 3
REMARK VINA RESULT:     -12.6      5.830     11.175
REMARK SMILES O=C(NCCCCNC(=O)c1ccc(-c2c3nc(c(-c4cc(S(=O)(=O)[O-])ccc4F)c4ccc([nH]4)c(-c4cc(S(=O)(=O)[O-])ccc4F)c4nc(c(-c5cc(S(=O)(=O)[O-])ccc5F)c5ccc2[nH]5)C=C4)C=C3)cc1)c1ccc(Cn2cc(Cl)c(=O)[nH]c2=O)cc1
REMARK SMILES IDX 6 1 5 2 4 3 3 4 1 5 2 6 74 8 75 9 89 10 76 11 88 12 77 13
REMARK SMILES IDX 78 14 79 15 80 16 86 17 81 18 85 19 87 20 82 21 83 22 84 24
REMARK SMILES IDX 7 25 8 26 9 27 10 29 11 30 12 31 73 32 13 33 72 34 14 35
REMARK SMILES IDX 15 36 16 37 66 38 17 39 71 40 65 41 67 42 18 43 70 44 64 45
REMARK SMILES IDX 63 46 19 48 51 49 31 50 50 51 32 52 35 53 49 54 68 55 33 56
REMARK SMILES IDX 34 57 48 59 69 60 36 61 20 62 21 63 29 64 22 65 28 66 30 67
REMARK SMILES IDX 27 68 23 69 24 70 25 71 26 72 52 73 53 74 61 75 54 76 60 77
REMARK SMILES IDX 62 78 59 79 55 80 56 81 57 82 58 83 37 84 38 85 46 86 39 87
REMARK SMILES IDX 45 88 47 89 44 90 40 91 41 92 42 93 43 94
REMARK H PARENT 3 7 85 23 8 28 67 47 35 58
REMARK Flexibility Score: inf
ROOT
ATOM      1  C   UNL A   1      31.807  31.729  26.824  1.00  0.00     0.023 C 
ENDROOT
BRANCH   1   2
ATOM      2  C   UNL A   1      31.975  30.209  26.864  1.00  0.00     0.023 C 
BRANCH   2   3
ATOM      3  C   UNL A   1      33.299  29.686  26.314  1.00  0.00     0.116 C 
BRANCH   3   4
ATOM      4  N   UNL A   1      33.255  29.473  24.875  1.00  0.00    -0.352 N 
ATOM      5  O   UNL A   1      33.167  28.242  22.972  1.00  0.00    -0.269 OA
ATOM      6  C   UNL A   1      33.039  28.302  24.190  1.00  0.00     0.251 C 
ATOM      7  H   UNL A   1      33.398  30.273  24.319  1.00  0.00     0.163 HD
BRANCH   6   8
ATOM      8  C   UNL A   1      32.659  27.096  24.946  1.00  0.00     0.039 A 
ATOM      9  C   UNL A   1      33.648  26.256  25.461  1.00  0.00     0.014 A 
ATOM     10  C   UNL A   1      31.307  26.794  25.118  1.00  0.00     0.014 A 
ATOM     11  C   UNL A   1      33.281  25.067  26.087  1.00  0.00     0.006 A 
ATOM     12  C   UNL A   1      30.943  25.593  25.731  1.00  0.00     0.006 A 
ATOM     13  C   UNL A   1      31.927  24.708  26.201  1.00  0.00    -0.028 A 
BRANCH  13  14
ATOM     14  C   UNL A   1      31.539  23.365  26.784  1.00  0.00     0.162 C 
BRANCH  14  15
ATOM     15  N   UNL A   1      32.303  22.250  26.209  1.00  0.00    -0.295 N 
ATOM     16  C   UNL A   1      31.954  21.744  24.966  1.00  0.00     0.117 A 
ATOM     17  C   UNL A   1      33.379  21.732  26.923  1.00  0.00     0.328 A 
ATOM     18  C   UNL A   1      32.609  20.734  24.387  1.00  0.00     0.122 A 
ATOM     19  N   UNL A   1      34.052  20.703  26.314  1.00  0.00    -0.273 N 
ATOM     20  O   UNL A   1      33.750  22.145  28.018  1.00  0.00    -0.248 OA
ATOM     21  Cl  UNL A   1      32.153  20.115  22.854  1.00  0.00    -0.077 Cl
ATOM     22  C   UNL A   1      33.772  20.149  25.092  1.00  0.00     0.272 A 
ATOM     23  H   UNL A   1      34.815  20.321  26.806  1.00  0.00     0.175 HD
ATOM     24  O   UNL A   1      34.458  19.246  24.626  1.00  0.00    -0.268 OA
ENDBRANCH  14  15
ENDBRANCH  13  14
ENDBRANCH   6   8
ENDBRANCH   3   4
ENDBRANCH   2   3
ENDBRANCH   1   2
BRANCH   1  25
ATOM     25  C   UNL A   1      33.029  32.538  27.248  1.00  0.00     0.116 C 
BRANCH  25  26
ATOM     26  N   UNL A   1      32.701  33.894  27.662  1.00  0.00    -0.352 N 
ATOM     27  C   UNL A   1      33.232  34.650  28.679  1.00  0.00     0.251 C 
ATOM     28  H   UNL A   1      31.996  34.333  27.134  1.00  0.00     0.163 HD
ATOM     29  O   UNL A   1      32.722  35.735  28.951  1.00  0.00    -0.269 OA
BRANCH  27  30
ATOM     30  C   UNL A   1      34.381  34.148  29.467  1.00  0.00     0.039 A 
ATOM     31  C   UNL A   1      34.133  33.346  30.584  1.00  0.00     0.014 A 
ATOM     32  C   UNL A   1      35.697  34.457  29.110  1.00  0.00     0.014 A 
ATOM     33  C   UNL A   1      35.202  32.795  31.296  1.00  0.00     0.010 A 
ATOM     34  C   UNL A   1      36.760  33.845  29.774  1.00  0.00     0.010 A 
ATOM     35  C   UNL A   1      36.524  33.006  30.874  1.00  0.00    -0.014 A 
BRANCH  35  36
ATOM     36  C   UNL A   1      37.668  32.355  31.568  1.00  0.00     0.031 A 
ATOM     37  C   UNL A   1      38.422  31.234  30.903  1.00  0.00     0.074 A 
ATOM     38  C   UNL A   1      37.989  32.732  32.821  1.00  0.00     0.049 A 
ATOM     39  N   UNL A   1      39.414  30.514  31.363  1.00  0.00    -0.248 NA
ATOM     40  C   UNL A   1      37.979  30.854  29.555  1.00  0.00     0.031 C 
ATOM     41  C   UNL A   1      37.307  33.775  33.591  1.00  0.00     0.029 A 
ATOM     42  N   UNL A   1      38.969  32.281  33.671  1.00  0.00    -0.354 N 
ATOM     43  C   UNL A   1      39.704  29.586  30.369  1.00  0.00     0.074 A 
ATOM     44  C   UNL A   1      38.736  29.795  29.312  1.00  0.00     0.031 C 
ATOM     45  C   UNL A   1      37.914  33.910  34.781  1.00  0.00     0.029 A 
ATOM     46  C   UNL A   1      38.996  32.936  34.881  1.00  0.00     0.049 A 
ATOM     47  H   UNL A   1      39.593  31.557  33.437  1.00  0.00     0.167 HD
ATOM     48  C   UNL A   1      40.699  28.662  30.329  1.00  0.00     0.034 A 
ATOM     49  C   UNL A   1      39.799  32.770  35.949  1.00  0.00     0.034 A 
ATOM     50  C   UNL A   1      41.661  28.473  31.388  1.00  0.00     0.049 A 
ATOM     51  C   UNL A   1      40.878  31.718  35.896  1.00  0.00     0.074 A 
ATOM     52  C   UNL A   1      42.748  27.616  31.425  1.00  0.00     0.029 A 
ATOM     53  N   UNL A   1      41.647  29.142  32.607  1.00  0.00    -0.354 N 
ATOM     54  N   UNL A   1      41.180  30.890  34.922  1.00  0.00    -0.248 NA
ATOM     55  C   UNL A   1      41.729  31.587  37.085  1.00  0.00     0.031 C 
ATOM     56  C   UNL A   1      43.344  27.714  32.688  1.00  0.00     0.029 A 
ATOM     57  C   UNL A   1      42.681  28.689  33.414  1.00  0.00     0.049 A 
ATOM     58  H   UNL A   1      40.996  29.837  32.861  1.00  0.00     0.167 HD
ATOM     59  C   UNL A   1      42.280  30.165  35.370  1.00  0.00     0.074 A 
ATOM     60  C   UNL A   1      42.594  30.663  36.694  1.00  0.00     0.031 C 
ATOM     61  C   UNL A   1      42.974  29.180  34.741  1.00  0.00     0.034 A 
BRANCH  48  62
ATOM     62  C   UNL A   1      40.763  27.770  29.108  1.00  0.00     0.023 A 
ATOM     63  C   UNL A   1      41.705  27.984  28.085  1.00  0.00     0.031 A 
ATOM     64  C   UNL A   1      39.842  26.722  28.940  1.00  0.00     0.131 A 
ATOM     65  C   UNL A   1      41.640  27.232  26.903  1.00  0.00     0.055 A 
ATOM     66  C   UNL A   1      39.842  25.916  27.800  1.00  0.00     0.041 A 
ATOM     67  F   UNL A   1      38.905  26.478  29.871  1.00  0.00    -0.206 F 
ATOM     68  C   UNL A   1      40.731  26.181  26.763  1.00  0.00     0.022 A 
BRANCH  65  69
ATOM     69  S   UNL A   1      42.637  27.765  25.483  1.00  0.00     0.124 S 
ATOM     70  O   UNL A   1      42.587  26.583  24.627  1.00  0.00    -0.237 OA
ATOM     71  O   UNL A   1      41.904  28.932  25.005  1.00  0.00    -0.237 OA
ATOM     72  O   UNL A   1      43.946  28.044  26.069  1.00  0.00    -0.744 OA
ENDBRANCH  65  69
ENDBRANCH  48  62
BRANCH  49  73
ATOM     73  C   UNL A   1      39.632  33.622  37.162  1.00  0.00     0.023 A 
ATOM     74  C   UNL A   1      39.083  33.091  38.340  1.00  0.00     0.031 A 
ATOM     75  C   UNL A   1      39.981  34.984  37.149  1.00  0.00     0.131 A 
ATOM     76  C   UNL A   1      38.858  33.927  39.445  1.00  0.00     0.055 A 
ATOM     77  C   UNL A   1      39.801  35.799  38.268  1.00  0.00     0.041 A 
ATOM     78  F   UNL A   1      40.515  35.538  36.049  1.00  0.00    -0.206 F 
ATOM     79  C   UNL A   1      39.225  35.274  39.421  1.00  0.00     0.022 A 
BRANCH  76  80
ATOM     80  S   UNL A   1      38.007  33.241  40.892  1.00  0.00     0.124 S 
ATOM     81  O   UNL A   1      38.342  34.216  41.924  1.00  0.00    -0.237 OA
ATOM     82  O   UNL A   1      36.617  33.228  40.448  1.00  0.00    -0.237 OA
ATOM     83  O   UNL A   1      38.619  31.924  41.053  1.00  0.00    -0.744 OA
ENDBRANCH  76  80
ENDBRANCH  49  73
BRANCH  61  84
ATOM     84  C   UNL A   1      44.168  28.614  35.473  1.00  0.00     0.023 A 
ATOM     85  C   UNL A   1      44.039  27.579  36.416  1.00  0.00     0.031 A 
ATOM     86  C   UNL A   1      45.452  29.143  35.246  1.00  0.00     0.131 A 
ATOM     87  C   UNL A   1      45.160  27.152  37.145  1.00  0.00     0.055 A 
ATOM     88  C   UNL A   1      46.574  28.669  35.927  1.00  0.00     0.041 A 
ATOM     89  F   UNL A   1      45.635  30.135  34.360  1.00  0.00    -0.206 F 
ATOM     90  C   UNL A   1      46.429  27.679  36.894  1.00  0.00     0.022 A 
BRANCH  87  91
ATOM     91  S   UNL A   1      44.918  25.976  38.505  1.00  0.00     0.124 S 
ATOM     92  O   UNL A   1      43.831  26.598  39.255  1.00  0.00    -0.237 OA
ATOM     93  O   UNL A   1      44.581  24.745  37.796  1.00  0.00    -0.237 OA
ATOM     94  O   UNL A   1      46.213  25.964  39.183  1.00  0.00    -0.744 OA
ENDBRANCH  87  91
ENDBRANCH  61  84
ENDBRANCH  35  36
ENDBRANCH  27  30
ENDBRANCH  25  26
ENDBRANCH   1  25
TORSDOF 16
ENDMDL
