MODEL 1
REMARK VINA RESULT:     -11.3      0.000      0.000
REMARK SMILES O=C(Cc1ccc(Cl)nc1)NCCCCNC(=O)c1ccc(-c2c3nc(c(-c4cc(S(=O)(=O)[O-])ccc4F)c4ccc([nH]4)c(-c4cc(S(=O)(=O)[O-])ccc4F)c4nc(c(-c5cc(S(=O)(=O)[O-])ccc5F)c5ccc2[nH]5)C=C4)C=C3)cc1
REMARK SMILES IDX 14 1 13 2 12 3 11 4 1 5 2 6 3 8 4 9 5 10 10 11 6 12 9 13
REMARK SMILES IDX 7 14 8 15 15 16 16 17 17 18 18 20 19 21 20 22 81 23 21 24
REMARK SMILES IDX 80 25 22 26 23 27 24 28 74 29 25 30 79 31 73 32 75 33 26 34
REMARK SMILES IDX 78 35 72 36 71 37 27 39 59 40 39 41 58 42 40 43 43 44 57 45
REMARK SMILES IDX 76 46 41 47 42 48 56 50 77 51 44 52 28 53 29 54 37 55 30 56
REMARK SMILES IDX 36 57 38 58 35 59 31 60 32 61 33 62 34 63 60 64 61 65 69 66
REMARK SMILES IDX 62 67 68 68 70 69 67 70 63 71 64 72 65 73 66 74 45 75 46 76
REMARK SMILES IDX 54 77 47 78 53 79 55 80 52 81 48 82 49 83 50 84 51 85
REMARK H PARENT 11 7 16 19 75 38 43 49
REMARK Flexibility Score: inf
ROOT
ATOM      1  C   UNL A   1      36.720  21.954  23.924  1.00  0.00     0.023 C 
ENDROOT
BRANCH   1   2
ATOM      2  C   UNL A   1      36.447  23.436  23.656  1.00  0.00     0.023 C 
BRANCH   2   3
ATOM      3  C   UNL A   1      34.972  23.809  23.527  1.00  0.00     0.116 C 
BRANCH   3   4
ATOM      4  N   UNL A   1      34.155  22.690  23.102  1.00  0.00    -0.356 N 
ATOM      5  O   UNL A   1      32.260  23.316  24.244  1.00  0.00    -0.275 OA
ATOM      6  C   UNL A   1      32.835  22.551  23.476  1.00  0.00     0.224 C 
ATOM      7  H   UNL A   1      34.558  22.001  22.525  1.00  0.00     0.163 HD
BRANCH   6   8
ATOM      8  C   UNL A   1      32.132  21.359  22.855  1.00  0.00     0.137 C 
BRANCH   8   9
ATOM      9  C   UNL A   1      32.323  20.041  23.567  1.00  0.00    -0.020 A 
ATOM     10  C   UNL A   1      32.425  18.862  22.816  1.00  0.00     0.009 A 
ATOM     11  C   UNL A   1      32.440  19.922  24.951  1.00  0.00     0.117 A 
ATOM     12  C   UNL A   1      32.604  17.640  23.460  1.00  0.00     0.041 A 
ATOM     13  N   UNL A   1      32.602  18.749  25.603  1.00  0.00    -0.244 NA
ATOM     14  C   UNL A   1      32.675  17.641  24.840  1.00  0.00     0.129 A 
ATOM     15  Cl  UNL A   1      32.885  16.181  25.714  1.00  0.00    -0.062 Cl
ENDBRANCH   8   9
ENDBRANCH   6   8
ENDBRANCH   3   4
ENDBRANCH   2   3
ENDBRANCH   1   2
BRANCH   1  16
ATOM     16  C   UNL A   1      36.858  21.565  25.393  1.00  0.00     0.116 C 
BRANCH  16  17
ATOM     17  N   UNL A   1      37.845  20.520  25.610  1.00  0.00    -0.352 N 
ATOM     18  C   UNL A   1      39.152  20.621  26.026  1.00  0.00     0.251 C 
ATOM     19  H   UNL A   1      37.531  19.603  25.431  1.00  0.00     0.163 HD
ATOM     20  O   UNL A   1      39.875  19.628  25.986  1.00  0.00    -0.269 OA
BRANCH  18  21
ATOM     21  C   UNL A   1      39.696  21.921  26.484  1.00  0.00     0.039 A 
ATOM     22  C   UNL A   1      40.865  21.930  27.250  1.00  0.00     0.014 A 
ATOM     23  C   UNL A   1      39.064  23.127  26.168  1.00  0.00     0.014 A 
ATOM     24  C   UNL A   1      41.439  23.146  27.632  1.00  0.00     0.010 A 
ATOM     25  C   UNL A   1      39.678  24.339  26.483  1.00  0.00     0.010 A 
ATOM     26  C   UNL A   1      40.876  24.364  27.215  1.00  0.00    -0.014 A 
BRANCH  26  27
ATOM     27  C   UNL A   1      41.531  25.666  27.527  1.00  0.00     0.031 A 
ATOM     28  C   UNL A   1      40.804  26.709  28.334  1.00  0.00     0.074 A 
ATOM     29  C   UNL A   1      42.758  25.932  27.035  1.00  0.00     0.049 A 
ATOM     30  N   UNL A   1      41.179  27.922  28.648  1.00  0.00    -0.248 NA
ATOM     31  C   UNL A   1      39.467  26.347  28.831  1.00  0.00     0.031 C 
ATOM     32  C   UNL A   1      43.554  25.016  26.215  1.00  0.00     0.029 A 
ATOM     33  N   UNL A   1      43.551  27.048  27.146  1.00  0.00    -0.354 N 
ATOM     34  C   UNL A   1      40.123  28.475  29.366  1.00  0.00     0.074 A 
ATOM     35  C   UNL A   1      39.071  27.481  29.389  1.00  0.00     0.031 C 
ATOM     36  C   UNL A   1      44.731  25.595  25.925  1.00  0.00     0.029 A 
ATOM     37  C   UNL A   1      44.755  26.942  26.487  1.00  0.00     0.049 A 
ATOM     38  H   UNL A   1      43.283  27.850  27.651  1.00  0.00     0.167 HD
ATOM     39  C   UNL A   1      40.046  29.688  29.969  1.00  0.00     0.034 A 
ATOM     40  C   UNL A   1      45.759  27.831  26.338  1.00  0.00     0.034 A 
ATOM     41  C   UNL A   1      41.108  30.665  29.945  1.00  0.00     0.049 A 
ATOM     42  C   UNL A   1      45.630  29.190  26.979  1.00  0.00     0.074 A 
ATOM     43  C   UNL A   1      41.155  31.901  30.569  1.00  0.00     0.029 A 
ATOM     44  N   UNL A   1      42.304  30.529  29.251  1.00  0.00    -0.354 N 
ATOM     45  N   UNL A   1      44.645  29.675  27.699  1.00  0.00    -0.248 NA
ATOM     46  C   UNL A   1      46.753  30.118  26.794  1.00  0.00     0.031 C 
ATOM     47  C   UNL A   1      42.337  32.543  30.188  1.00  0.00     0.029 A 
ATOM     48  C   UNL A   1      43.075  31.674  29.400  1.00  0.00     0.049 A 
ATOM     49  H   UNL A   1      42.566  29.737  28.731  1.00  0.00     0.167 HD
ATOM     50  C   UNL A   1      45.049  30.952  28.083  1.00  0.00     0.074 A 
ATOM     51  C   UNL A   1      46.371  31.153  27.527  1.00  0.00     0.031 C 
ATOM     52  C   UNL A   1      44.389  31.871  28.833  1.00  0.00     0.034 A 
BRANCH  39  53
ATOM     53  C   UNL A   1      38.757  30.037  30.677  1.00  0.00     0.023 A 
ATOM     54  C   UNL A   1      37.752  30.799  30.055  1.00  0.00     0.031 A 
ATOM     55  C   UNL A   1      38.535  29.612  31.999  1.00  0.00     0.131 A 
ATOM     56  C   UNL A   1      36.609  31.174  30.778  1.00  0.00     0.055 A 
ATOM     57  C   UNL A   1      37.356  29.916  32.683  1.00  0.00     0.041 A 
ATOM     58  F   UNL A   1      39.466  28.901  32.655  1.00  0.00    -0.206 F 
ATOM     59  C   UNL A   1      36.391  30.716  32.078  1.00  0.00     0.022 A 
BRANCH  56  60
ATOM     60  S   UNL A   1      35.483  32.391  30.043  1.00  0.00     0.124 S 
ATOM     61  O   UNL A   1      35.124  31.741  28.785  1.00  0.00    -0.237 OA
ATOM     62  O   UNL A   1      34.422  32.483  31.040  1.00  0.00    -0.237 OA
ATOM     63  O   UNL A   1      36.314  33.585  29.904  1.00  0.00    -0.744 OA
ENDBRANCH  56  60
ENDBRANCH  39  53
BRANCH  40  64
ATOM     64  C   UNL A   1      46.970  27.481  25.539  1.00  0.00     0.023 A 
ATOM     65  C   UNL A   1      47.095  27.886  24.201  1.00  0.00     0.031 A 
ATOM     66  C   UNL A   1      47.997  26.690  26.085  1.00  0.00     0.131 A 
ATOM     67  C   UNL A   1      48.190  27.454  23.437  1.00  0.00     0.055 A 
ATOM     68  C   UNL A   1      49.116  26.313  25.339  1.00  0.00     0.041 A 
ATOM     69  F   UNL A   1      47.931  26.272  27.359  1.00  0.00    -0.206 F 
ATOM     70  C   UNL A   1      49.210  26.683  24.000  1.00  0.00     0.022 A 
BRANCH  67  71
ATOM     71  S   UNL A   1      48.212  27.826  21.662  1.00  0.00     0.124 S 
ATOM     72  O   UNL A   1      48.479  26.512  21.088  1.00  0.00    -0.237 OA
ATOM     73  O   UNL A   1      46.871  28.359  21.448  1.00  0.00    -0.237 OA
ATOM     74  O   UNL A   1      49.296  28.797  21.531  1.00  0.00    -0.744 OA
ENDBRANCH  67  71
ENDBRANCH  40  64
BRANCH  52  75
ATOM     75  C   UNL A   1      45.115  33.161  29.140  1.00  0.00     0.023 A 
ATOM     76  C   UNL A   1      44.962  34.309  28.343  1.00  0.00     0.031 A 
ATOM     77  C   UNL A   1      45.981  33.237  30.246  1.00  0.00     0.131 A 
ATOM     78  C   UNL A   1      45.710  35.462  28.626  1.00  0.00     0.055 A 
ATOM     79  C   UNL A   1      46.668  34.409  30.564  1.00  0.00     0.041 A 
ATOM     80  F   UNL A   1      46.170  32.172  31.042  1.00  0.00    -0.206 F 
ATOM     81  C   UNL A   1      46.546  35.526  29.743  1.00  0.00     0.022 A 
BRANCH  78  82
ATOM     82  S   UNL A   1      45.654  36.847  27.456  1.00  0.00     0.124 S 
ATOM     83  O   UNL A   1      46.748  36.521  26.547  1.00  0.00    -0.237 OA
ATOM     84  O   UNL A   1      44.309  36.733  26.900  1.00  0.00    -0.237 OA
ATOM     85  O   UNL A   1      45.877  38.020  28.300  1.00  0.00    -0.744 OA
ENDBRANCH  78  82
ENDBRANCH  52  75
ENDBRANCH  26  27
ENDBRANCH  18  21
ENDBRANCH  16  17
ENDBRANCH   1  16
TORSDOF 15
ENDMDL
MODEL 2
REMARK VINA RESULT:     -11.3      6.557     10.169
REMARK SMILES O=C(Cc1ccc(Cl)nc1)NCCCCNC(=O)c1ccc(-c2c3nc(c(-c4cc(S(=O)(=O)[O-])ccc4F)c4ccc([nH]4)c(-c4cc(S(=O)(=O)[O-])ccc4F)c4nc(c(-c5cc(S(=O)(=O)[O-])ccc5F)c5ccc2[nH]5)C=C4)C=C3)cc1
REMARK SMILES IDX 14 1 13 2 12 3 11 4 1 5 2 6 3 8 4 9 5 10 10 11 6 12 9 13
REMARK SMILES IDX 7 14 8 15 15 16 16 17 17 18 18 20 19 21 20 22 81 23 21 24
REMARK SMILES IDX 80 25 22 26 23 27 24 28 74 29 25 30 79 31 73 32 75 33 26 34
REMARK SMILES IDX 78 35 72 36 71 37 27 39 59 40 39 41 58 42 40 43 43 44 57 45
REMARK SMILES IDX 76 46 41 47 42 48 56 50 77 51 44 52 28 53 29 54 37 55 30 56
REMARK SMILES IDX 36 57 38 58 35 59 31 60 32 61 33 62 34 63 60 64 61 65 69 66
REMARK SMILES IDX 62 67 68 68 70 69 67 70 63 71 64 72 65 73 66 74 45 75 46 76
REMARK SMILES IDX 54 77 47 78 53 79 55 80 52 81 48 82 49 83 50 84 51 85
REMARK H PARENT 11 7 16 19 75 38 43 49
REMARK Flexibility Score: inf
ROOT
ATOM      1  C   UNL A   1      34.141  33.750  29.156  1.00  0.00     0.023 C 
ENDROOT
BRANCH   1   2
ATOM      2  C   UNL A   1      33.431  35.025  28.695  1.00  0.00     0.023 C 
BRANCH   2   3
ATOM      3  C   UNL A   1      32.903  35.914  29.819  1.00  0.00     0.116 C 
BRANCH   3   4
ATOM      4  N   UNL A   1      33.854  36.054  30.905  1.00  0.00    -0.356 N 
ATOM      5  O   UNL A   1      32.597  34.951  32.483  1.00  0.00    -0.275 OA
ATOM      6  C   UNL A   1      33.632  35.524  32.158  1.00  0.00     0.224 C 
ATOM      7  H   UNL A   1      34.690  36.547  30.740  1.00  0.00     0.163 HD
BRANCH   6   8
ATOM      8  C   UNL A   1      34.787  35.705  33.126  1.00  0.00     0.137 C 
BRANCH   8   9
ATOM      9  C   UNL A   1      35.602  34.467  33.413  1.00  0.00    -0.020 A 
ATOM     10  C   UNL A   1      36.093  33.703  32.346  1.00  0.00     0.009 A 
ATOM     11  C   UNL A   1      35.933  34.043  34.699  1.00  0.00     0.117 A 
ATOM     12  C   UNL A   1      36.847  32.559  32.597  1.00  0.00     0.041 A 
ATOM     13  N   UNL A   1      36.653  32.932  34.973  1.00  0.00    -0.244 NA
ATOM     14  C   UNL A   1      37.086  32.220  33.915  1.00  0.00     0.129 A 
ATOM     15  Cl  UNL A   1      37.998  30.824  34.315  1.00  0.00    -0.062 Cl
ENDBRANCH   8   9
ENDBRANCH   6   8
ENDBRANCH   3   4
ENDBRANCH   2   3
ENDBRANCH   1   2
BRANCH   1  16
ATOM     16  C   UNL A   1      34.826  32.944  28.056  1.00  0.00     0.116 C 
BRANCH  16  17
ATOM     17  N   UNL A   1      34.115  31.720  27.727  1.00  0.00    -0.352 N 
ATOM     18  C   UNL A   1      34.575  30.425  27.676  1.00  0.00     0.251 C 
ATOM     19  H   UNL A   1      33.161  31.836  27.508  1.00  0.00     0.163 HD
ATOM     20  O   UNL A   1      33.851  29.547  27.212  1.00  0.00    -0.269 OA
BRANCH  18  21
ATOM     21  C   UNL A   1      35.943  30.095  28.141  1.00  0.00     0.039 A 
ATOM     22  C   UNL A   1      36.127  29.705  29.470  1.00  0.00     0.014 A 
ATOM     23  C   UNL A   1      37.041  30.167  27.280  1.00  0.00     0.014 A 
ATOM     24  C   UNL A   1      37.395  29.317  29.913  1.00  0.00     0.010 A 
ATOM     25  C   UNL A   1      38.288  29.708  27.701  1.00  0.00     0.010 A 
ATOM     26  C   UNL A   1      38.481  29.272  29.022  1.00  0.00    -0.014 A 
BRANCH  26  27
ATOM     27  C   UNL A   1      39.814  28.766  29.453  1.00  0.00     0.031 A 
ATOM     28  C   UNL A   1      40.571  29.458  30.554  1.00  0.00     0.074 A 
ATOM     29  C   UNL A   1      40.368  27.716  28.813  1.00  0.00     0.049 A 
ATOM     30  N   UNL A   1      41.769  29.209  31.019  1.00  0.00    -0.248 NA
ATOM     31  C   UNL A   1      39.903  30.599  31.200  1.00  0.00     0.031 C 
ATOM     32  C   UNL A   1      39.749  26.977  27.710  1.00  0.00     0.029 A 
ATOM     33  N   UNL A   1      41.578  27.089  28.990  1.00  0.00    -0.354 N 
ATOM     34  C   UNL A   1      42.005  30.167  32.000  1.00  0.00     0.074 A 
ATOM     35  C   UNL A   1      40.847  31.036  32.020  1.00  0.00     0.031 C 
ATOM     36  C   UNL A   1      40.568  25.981  27.333  1.00  0.00     0.029 A 
ATOM     37  C   UNL A   1      41.793  26.042  28.123  1.00  0.00     0.049 A 
ATOM     38  H   UNL A   1      42.231  27.363  29.674  1.00  0.00     0.167 HD
ATOM     39  C   UNL A   1      43.076  30.296  32.822  1.00  0.00     0.034 A 
ATOM     40  C   UNL A   1      42.860  25.230  27.969  1.00  0.00     0.034 A 
ATOM     41  C   UNL A   1      44.220  29.416  32.796  1.00  0.00     0.049 A 
ATOM     42  C   UNL A   1      44.058  25.423  28.866  1.00  0.00     0.074 A 
ATOM     43  C   UNL A   1      45.332  29.425  33.623  1.00  0.00     0.029 A 
ATOM     44  N   UNL A   1      44.410  28.379  31.892  1.00  0.00    -0.354 N 
ATOM     45  N   UNL A   1      44.241  26.302  29.824  1.00  0.00    -0.248 NA
ATOM     46  C   UNL A   1      45.190  24.509  28.664  1.00  0.00     0.031 C 
ATOM     47  C   UNL A   1      46.227  28.452  33.167  1.00  0.00     0.029 A 
ATOM     48  C   UNL A   1      45.637  27.770  32.115  1.00  0.00     0.049 A 
ATOM     49  H   UNL A   1      43.768  28.115  31.195  1.00  0.00     0.167 HD
ATOM     50  C   UNL A   1      45.494  26.020  30.363  1.00  0.00     0.074 A 
ATOM     51  C   UNL A   1      46.013  24.883  29.633  1.00  0.00     0.031 C 
ATOM     52  C   UNL A   1      46.153  26.641  31.375  1.00  0.00     0.034 A 
BRANCH  39  53
ATOM     53  C   UNL A   1      43.074  31.452  33.797  1.00  0.00     0.023 A 
ATOM     54  C   UNL A   1      42.540  31.331  35.091  1.00  0.00     0.031 A 
ATOM     55  C   UNL A   1      43.604  32.700  33.420  1.00  0.00     0.131 A 
ATOM     56  C   UNL A   1      42.480  32.452  35.933  1.00  0.00     0.055 A 
ATOM     57  C   UNL A   1      43.619  33.789  34.294  1.00  0.00     0.041 A 
ATOM     58  F   UNL A   1      44.109  32.886  32.191  1.00  0.00    -0.206 F 
ATOM     59  C   UNL A   1      43.039  33.672  35.554  1.00  0.00     0.022 A 
BRANCH  56  60
ATOM     60  S   UNL A   1      41.525  32.328  37.470  1.00  0.00     0.124 S 
ATOM     61  O   UNL A   1      42.278  31.314  38.205  1.00  0.00    -0.237 OA
ATOM     62  O   UNL A   1      41.598  33.686  37.998  1.00  0.00    -0.237 OA
ATOM     63  O   UNL A   1      40.202  31.904  37.018  1.00  0.00    -0.744 OA
ENDBRANCH  56  60
ENDBRANCH  39  53
BRANCH  40  64
ATOM     64  C   UNL A   1      42.862  24.168  26.921  1.00  0.00     0.023 A 
ATOM     65  C   UNL A   1      42.187  22.953  27.122  1.00  0.00     0.031 A 
ATOM     66  C   UNL A   1      43.585  24.328  25.725  1.00  0.00     0.131 A 
ATOM     67  C   UNL A   1      42.294  21.926  26.171  1.00  0.00     0.055 A 
ATOM     68  C   UNL A   1      43.637  23.327  24.753  1.00  0.00     0.041 A 
ATOM     69  F   UNL A   1      44.250  25.468  25.480  1.00  0.00    -0.206 F 
ATOM     70  C   UNL A   1      43.001  22.110  24.980  1.00  0.00     0.022 A 
BRANCH  67  71
ATOM     71  S   UNL A   1      41.581  20.304  26.559  1.00  0.00     0.124 S 
ATOM     72  O   UNL A   1      41.943  19.532  25.376  1.00  0.00    -0.237 OA
ATOM     73  O   UNL A   1      42.278  19.954  27.792  1.00  0.00    -0.237 OA
ATOM     74  O   UNL A   1      40.155  20.587  26.709  1.00  0.00    -0.744 OA
ENDBRANCH  67  71
ENDBRANCH  40  64
BRANCH  52  75
ATOM     75  C   UNL A   1      47.488  26.066  31.785  1.00  0.00     0.023 A 
ATOM     76  C   UNL A   1      47.619  25.203  32.887  1.00  0.00     0.031 A 
ATOM     77  C   UNL A   1      48.650  26.395  31.064  1.00  0.00     0.131 A 
ATOM     78  C   UNL A   1      48.890  24.748  33.273  1.00  0.00     0.055 A 
ATOM     79  C   UNL A   1      49.902  25.884  31.409  1.00  0.00     0.041 A 
ATOM     80  F   UNL A   1      48.587  27.218  30.004  1.00  0.00    -0.206 F 
ATOM     81  C   UNL A   1      50.029  25.067  32.529  1.00  0.00     0.022 A 
BRANCH  78  82
ATOM     82  S   UNL A   1      49.050  23.817  34.821  1.00  0.00     0.124 S 
ATOM     83  O   UNL A   1      48.219  22.647  34.559  1.00  0.00    -0.237 OA
ATOM     84  O   UNL A   1      50.487  23.574  34.892  1.00  0.00    -0.237 OA
ATOM     85  O   UNL A   1      48.527  24.736  35.831  1.00  0.00    -0.744 OA
ENDBRANCH  78  82
ENDBRANCH  52  75
ENDBRANCH  26  27
ENDBRANCH  18  21
ENDBRANCH  16  17
ENDBRANCH   1  16
TORSDOF 15
ENDMDL
MODEL 3
REMARK VINA RESULT:     -11.3      4.332      9.814
REMARK SMILES O=C(Cc1ccc(Cl)nc1)NCCCCNC(=O)c1ccc(-c2c3nc(c(-c4cc(S(=O)(=O)[O-])ccc4F)c4ccc([nH]4)c(-c4cc(S(=O)(=O)[O-])ccc4F)c4nc(c(-c5cc(S(=O)(=O)[O-])ccc5F)c5ccc2[nH]5)C=C4)C=C3)cc1
REMARK SMILES IDX 14 1 13 2 12 3 11 4 1 5 2 6 3 8 4 9 5 10 10 11 6 12 9 13
REMARK SMILES IDX 7 14 8 15 15 16 16 17 17 18 18 20 19 21 20 22 81 23 21 24
REMARK SMILES IDX 80 25 22 26 23 27 24 28 74 29 25 30 79 31 73 32 75 33 26 34
REMARK SMILES IDX 78 35 72 36 71 37 27 39 59 40 39 41 58 42 40 43 43 44 57 45
REMARK SMILES IDX 76 46 41 47 42 48 56 50 77 51 44 52 28 53 29 54 37 55 30 56
REMARK SMILES IDX 36 57 38 58 35 59 31 60 32 61 33 62 34 63 60 64 61 65 69 66
REMARK SMILES IDX 62 67 68 68 70 69 67 70 63 71 64 72 65 73 66 74 45 75 46 76
REMARK SMILES IDX 54 77 47 78 53 79 55 80 52 81 48 82 49 83 50 84 51 85
REMARK H PARENT 11 7 16 19 75 38 43 49
REMARK Flexibility Score: inf
ROOT
ATOM      1  C   UNL A   1      41.919  20.246  27.364  1.00  0.00     0.023 C 
ENDROOT
BRANCH   1   2
ATOM      2  C   UNL A   1      41.834  19.233  26.220  1.00  0.00     0.023 C 
BRANCH   2   3
ATOM      3  C   UNL A   1      43.038  18.302  26.090  1.00  0.00     0.116 C 
BRANCH   3   4
ATOM      4  N   UNL A   1      44.294  19.025  26.049  1.00  0.00    -0.356 N 
ATOM      5  O   UNL A   1      44.148  19.652  23.841  1.00  0.00    -0.275 OA
ATOM      6  C   UNL A   1      44.736  19.678  24.918  1.00  0.00     0.224 C 
ATOM      7  H   UNL A   1      44.852  19.051  26.859  1.00  0.00     0.163 HD
BRANCH   6   8
ATOM      8  C   UNL A   1      46.030  20.448  25.107  1.00  0.00     0.137 C 
BRANCH   8   9
ATOM      9  C   UNL A   1      45.904  21.953  25.106  1.00  0.00    -0.020 A 
ATOM     10  C   UNL A   1      45.106  22.577  26.074  1.00  0.00     0.009 A 
ATOM     11  C   UNL A   1      46.571  22.782  24.206  1.00  0.00     0.117 A 
ATOM     12  C   UNL A   1      44.982  23.965  26.085  1.00  0.00     0.041 A 
ATOM     13  N   UNL A   1      46.461  24.129  24.187  1.00  0.00    -0.244 NA
ATOM     14  C   UNL A   1      45.667  24.681  25.123  1.00  0.00     0.129 A 
ATOM     15  Cl  UNL A   1      45.565  26.392  25.059  1.00  0.00    -0.062 Cl
ENDBRANCH   8   9
ENDBRANCH   6   8
ENDBRANCH   3   4
ENDBRANCH   2   3
ENDBRANCH   1   2
BRANCH   1  16
ATOM     16  C   UNL A   1      41.365  21.635  27.056  1.00  0.00     0.116 C 
BRANCH  16  17
ATOM     17  N   UNL A   1      40.042  21.593  26.455  1.00  0.00    -0.352 N 
ATOM     18  C   UNL A   1      39.088  22.579  26.366  1.00  0.00     0.251 C 
ATOM     19  H   UNL A   1      39.792  20.729  26.051  1.00  0.00     0.163 HD
ATOM     20  O   UNL A   1      37.962  22.293  25.964  1.00  0.00    -0.269 OA
BRANCH  18  21
ATOM     21  C   UNL A   1      39.400  23.966  26.785  1.00  0.00     0.039 A 
ATOM     22  C   UNL A   1      39.083  24.364  28.087  1.00  0.00     0.014 A 
ATOM     23  C   UNL A   1      39.996  24.875  25.907  1.00  0.00     0.014 A 
ATOM     24  C   UNL A   1      39.433  25.643  28.529  1.00  0.00     0.010 A 
ATOM     25  C   UNL A   1      40.413  26.122  26.372  1.00  0.00     0.010 A 
ATOM     26  C   UNL A   1      40.141  26.520  27.691  1.00  0.00    -0.014 A 
BRANCH  26  27
ATOM     27  C   UNL A   1      40.610  27.847  28.180  1.00  0.00     0.031 A 
ATOM     28  C   UNL A   1      42.078  28.182  28.184  1.00  0.00     0.074 A 
ATOM     29  C   UNL A   1      39.718  28.730  28.675  1.00  0.00     0.049 A 
ATOM     30  N   UNL A   1      42.682  29.252  28.633  1.00  0.00    -0.248 NA
ATOM     31  C   UNL A   1      42.988  27.166  27.633  1.00  0.00     0.031 C 
ATOM     32  C   UNL A   1      38.272  28.514  28.753  1.00  0.00     0.029 A 
ATOM     33  N   UNL A   1      39.893  29.984  29.209  1.00  0.00    -0.354 N 
ATOM     34  C   UNL A   1      44.042  29.035  28.433  1.00  0.00     0.074 A 
ATOM     35  C   UNL A   1      44.173  27.706  27.875  1.00  0.00     0.031 C 
ATOM     36  C   UNL A   1      37.691  29.607  29.274  1.00  0.00     0.029 A 
ATOM     37  C   UNL A   1      38.722  30.580  29.620  1.00  0.00     0.049 A 
ATOM     38  H   UNL A   1      40.774  30.415  29.292  1.00  0.00     0.167 HD
ATOM     39  C   UNL A   1      45.081  29.874  28.671  1.00  0.00     0.034 A 
ATOM     40  C   UNL A   1      38.503  31.769  30.219  1.00  0.00     0.034 A 
ATOM     41  C   UNL A   1      44.933  31.201  29.220  1.00  0.00     0.049 A 
ATOM     42  C   UNL A   1      39.680  32.665  30.515  1.00  0.00     0.074 A 
ATOM     43  C   UNL A   1      45.914  32.152  29.447  1.00  0.00     0.029 A 
ATOM     44  N   UNL A   1      43.734  31.763  29.640  1.00  0.00    -0.354 N 
ATOM     45  N   UNL A   1      40.954  32.464  30.271  1.00  0.00    -0.248 NA
ATOM     46  C   UNL A   1      39.387  33.951  31.161  1.00  0.00     0.031 C 
ATOM     47  C   UNL A   1      45.323  33.251  30.079  1.00  0.00     0.029 A 
ATOM     48  C   UNL A   1      43.958  33.029  30.162  1.00  0.00     0.049 A 
ATOM     49  H   UNL A   1      42.855  31.327  29.576  1.00  0.00     0.167 HD
ATOM     50  C   UNL A   1      41.609  33.617  30.699  1.00  0.00     0.074 A 
ATOM     51  C   UNL A   1      40.587  34.510  31.203  1.00  0.00     0.031 C 
ATOM     52  C   UNL A   1      42.934  33.912  30.673  1.00  0.00     0.034 A 
BRANCH  39  53
ATOM     53  C   UNL A   1      46.473  29.366  28.370  1.00  0.00     0.023 A 
ATOM     54  C   UNL A   1      47.256  28.725  29.345  1.00  0.00     0.031 A 
ATOM     55  C   UNL A   1      47.031  29.539  27.090  1.00  0.00     0.131 A 
ATOM     56  C   UNL A   1      48.575  28.347  29.049  1.00  0.00     0.055 A 
ATOM     57  C   UNL A   1      48.313  29.083  26.777  1.00  0.00     0.041 A 
ATOM     58  F   UNL A   1      46.342  30.164  26.122  1.00  0.00    -0.206 F 
ATOM     59  C   UNL A   1      49.099  28.497  27.764  1.00  0.00     0.022 A 
BRANCH  56  60
ATOM     60  S   UNL A   1      49.642  27.794  30.407  1.00  0.00     0.124 S 
ATOM     61  O   UNL A   1      49.483  28.883  31.369  1.00  0.00    -0.237 OA
ATOM     62  O   UNL A   1      49.042  26.518  30.782  1.00  0.00    -0.237 OA
ATOM     63  O   UNL A   1      50.963  27.706  29.790  1.00  0.00    -0.744 OA
ENDBRANCH  56  60
ENDBRANCH  39  53
BRANCH  40  64
ATOM     64  C   UNL A   1      37.120  32.186  30.596  1.00  0.00     0.023 A 
ATOM     65  C   UNL A   1      36.240  32.722  29.642  1.00  0.00     0.031 A 
ATOM     66  C   UNL A   1      36.675  32.106  31.928  1.00  0.00     0.131 A 
ATOM     67  C   UNL A   1      34.986  33.209  30.041  1.00  0.00     0.055 A 
ATOM     68  C   UNL A   1      35.402  32.534  32.309  1.00  0.00     0.041 A 
ATOM     69  F   UNL A   1      37.473  31.603  32.884  1.00  0.00    -0.206 F 
ATOM     70  C   UNL A   1      34.554  33.105  31.365  1.00  0.00     0.022 A 
BRANCH  67  71
ATOM     71  S   UNL A   1      33.964  34.078  28.820  1.00  0.00     0.124 S 
ATOM     72  O   UNL A   1      32.873  34.575  29.651  1.00  0.00    -0.237 OA
ATOM     73  O   UNL A   1      34.891  35.083  28.310  1.00  0.00    -0.237 OA
ATOM     74  O   UNL A   1      33.600  33.029  27.872  1.00  0.00    -0.744 OA
ENDBRANCH  67  71
ENDBRANCH  40  64
BRANCH  52  75
ATOM     75  C   UNL A   1      43.346  35.282  31.156  1.00  0.00     0.023 A 
ATOM     76  C   UNL A   1      43.499  36.367  30.275  1.00  0.00     0.031 A 
ATOM     77  C   UNL A   1      43.597  35.502  32.523  1.00  0.00     0.131 A 
ATOM     78  C   UNL A   1      43.951  37.604  30.761  1.00  0.00     0.055 A 
ATOM     79  C   UNL A   1      43.978  36.753  33.010  1.00  0.00     0.041 A 
ATOM     80  F   UNL A   1      43.471  34.503  33.411  1.00  0.00    -0.206 F 
ATOM     81  C   UNL A   1      44.172  37.810  32.125  1.00  0.00     0.022 A 
BRANCH  78  82
ATOM     82  S   UNL A   1      44.345  38.916  29.572  1.00  0.00     0.124 S 
ATOM     83  O   UNL A   1      44.467  38.169  28.324  1.00  0.00    -0.237 OA
ATOM     84  O   UNL A   1      43.184  39.794  29.678  1.00  0.00    -0.237 OA
ATOM     85  O   UNL A   1      45.594  39.479  30.082  1.00  0.00    -0.744 OA
ENDBRANCH  78  82
ENDBRANCH  52  75
ENDBRANCH  26  27
ENDBRANCH  18  21
ENDBRANCH  16  17
ENDBRANCH   1  16
TORSDOF 15
ENDMDL
