MODEL 1
REMARK VINA RESULT:     -12.0      0.000      0.000
REMARK SMILES CCN1C(=O)[C@@H](CC(=O)Nc2cccc(C(=O)NCCCCNC(=O)c3ccc(-c4c5nc(c(-c6cc(S(=O)(=O)[O-])ccc6F)c6ccc([nH]6)c(-c6cc(S(=O)(=O)[O-])ccc6F)c6nc(c(-c7cc(S(=O)(=O)[O-])ccc7F)c7ccc4[nH]7)C=C6)C=C5)cc3)c2)S/C1=[NH+]\c1cc(Cl)c(O)c(Cl)c1
REMARK SMILES IDX 19 1 18 2 16 3 17 4 15 6 11 7 12 8 89 9 13 10 14 11 10 12
REMARK SMILES IDX 8 13 9 14 7 16 6 17 3 18 4 19 91 20 5 21 90 22 92 23 2 25
REMARK SMILES IDX 1 26 93 27 94 28 101 29 95 30 99 31 96 32 97 33 100 34 98 35
REMARK SMILES IDX 20 37 21 38 22 39 23 40 24 41 25 43 26 44 27 45 88 46 28 47
REMARK SMILES IDX 87 48 29 49 30 50 31 51 81 52 32 53 86 54 80 55 82 56 33 57
REMARK SMILES IDX 85 58 79 59 78 60 34 62 66 63 46 64 65 65 47 66 50 67 64 68
REMARK SMILES IDX 83 69 48 70 49 71 63 73 84 74 51 75 35 76 36 77 44 78 37 79
REMARK SMILES IDX 43 80 45 81 42 82 38 83 39 84 40 85 41 86 67 87 68 88 76 89
REMARK SMILES IDX 69 90 75 91 77 92 74 93 70 94 71 95 72 96 73 97 52 98 53 99
REMARK SMILES IDX 61 100 54 101 60 102 62 103 59 104 55 105 56 106 57 107
REMARK SMILES IDX 58 108
REMARK H PARENT 18 5 10 15 92 24 98 36 23 42 82 61 50 72
REMARK Flexibility Score: inf
ROOT
ATOM      1  C   UNL A   1      38.412  24.039  26.291  1.00  0.00     0.116 C 
ENDROOT
BRANCH   1   2
ATOM      2  N   UNL A   1      37.623  23.677  25.003  1.00  0.00    -0.352 N 
ATOM      3  C   UNL A   1      36.558  23.025  24.338  1.00  0.00     0.251 C 
ATOM      4  O   UNL A   1      36.601  23.320  23.124  1.00  0.00    -0.269 OA
ATOM      5  H   UNL A   1      38.116  24.131  24.283  1.00  0.00     0.163 HD
BRANCH   3   6
ATOM      6  C   UNL A   1      35.313  22.099  24.651  1.00  0.00     0.041 A 
ATOM      7  C   UNL A   1      33.008  21.389  25.444  1.00  0.00     0.041 A 
ATOM      8  C   UNL A   1      33.368  20.058  25.435  1.00  0.00     0.026 A 
ATOM      9  C   UNL A   1      33.996  22.346  25.109  1.00  0.00     0.040 A 
ATOM     10  C   UNL A   1      34.652  19.720  25.016  1.00  0.00     0.003 A 
ATOM     11  C   UNL A   1      35.588  20.712  24.625  1.00  0.00     0.014 A 
BRANCH   7  12
ATOM     12  N   UNL A   1      31.761  21.763  26.008  1.00  0.00    -0.326 N 
ATOM     13  C   UNL A   1      31.352  22.949  26.578  1.00  0.00     0.226 C 
ATOM     14  O   UNL A   1      30.610  22.933  27.561  1.00  0.00    -0.275 OA
ATOM     15  H   UNL A   1      31.073  21.058  25.988  1.00  0.00     0.169 HD
BRANCH  13  16
ATOM     16  C   UNL A   1      31.577  24.232  25.801  1.00  0.00     0.128 C 
BRANCH  16  17
ATOM     17  C   UNL A   1      30.391  24.980  25.185  1.00  0.00     0.183 C 
ATOM     18  N   UNL A   1      31.186  25.921  23.127  1.00  0.00    -0.190 N 
ATOM     19  C   UNL A   1      30.559  24.822  23.702  1.00  0.00     0.324 C 
ATOM     20  C   UNL A   1      31.257  27.040  24.000  1.00  0.00     0.319 C 
ATOM     21  O   UNL A   1      30.300  23.763  23.134  1.00  0.00    -0.245 OA
ATOM     22  S   UNL A   1      30.283  26.754  25.415  1.00  0.00    -0.022 SA
ATOM     23  N   UNL A   1      32.013  28.090  23.892  1.00  0.00    -0.235 N 
ATOM     24  H   UNL A   1      32.353  28.221  22.978  1.00  0.00     0.313 HD
BRANCH  18  25
ATOM     25  C   UNL A   1      31.660  25.610  21.721  1.00  0.00     0.243 C 
ATOM     26  C   UNL A   1      33.139  25.789  21.366  1.00  0.00     0.054 C 
ENDBRANCH  18  25
BRANCH  23  27
ATOM     27  C   UNL A   1      32.474  29.115  24.814  1.00  0.00     0.128 A 
ATOM     28  C   UNL A   1      33.590  28.801  25.634  1.00  0.00     0.076 A 
ATOM     29  C   UNL A   1      31.761  30.247  25.225  1.00  0.00     0.076 A 
ATOM     30  C   UNL A   1      34.011  29.550  26.737  1.00  0.00     0.088 A 
ATOM     31  C   UNL A   1      32.155  30.996  26.360  1.00  0.00     0.088 A 
ATOM     32  Cl  UNL A   1      35.391  29.013  27.629  1.00  0.00    -0.080 Cl
ATOM     33  C   UNL A   1      33.282  30.657  27.113  1.00  0.00     0.153 A 
ATOM     34  Cl  UNL A   1      31.167  32.317  26.876  1.00  0.00    -0.080 Cl
BRANCH  33  35
ATOM     35  O   UNL A   1      33.653  31.362  28.229  1.00  0.00    -0.505 OA
ATOM     36  H   UNL A   1      34.494  31.219  28.615  1.00  0.00     0.293 HD
ENDBRANCH  33  35
ENDBRANCH  23  27
ENDBRANCH  16  17
ENDBRANCH  13  16
ENDBRANCH   7  12
ENDBRANCH   3   6
ENDBRANCH   1   2
BRANCH   1  37
ATOM     37  C   UNL A   1      39.589  23.149  26.818  1.00  0.00     0.023 C 
BRANCH  37  38
ATOM     38  C   UNL A   1      39.657  21.685  26.324  1.00  0.00     0.023 C 
BRANCH  38  39
ATOM     39  C   UNL A   1      40.502  20.679  27.128  1.00  0.00     0.116 C 
BRANCH  39  40
ATOM     40  N   UNL A   1      41.288  19.721  26.343  1.00  0.00    -0.352 N 
ATOM     41  C   UNL A   1      42.535  19.845  25.749  1.00  0.00     0.251 C 
ATOM     42  H   UNL A   1      40.858  18.844  26.215  1.00  0.00     0.163 HD
ATOM     43  O   UNL A   1      43.023  18.893  25.141  1.00  0.00    -0.269 OA
BRANCH  41  44
ATOM     44  C   UNL A   1      43.261  21.135  25.785  1.00  0.00     0.039 A 
ATOM     45  C   UNL A   1      43.115  22.033  24.721  1.00  0.00     0.014 A 
ATOM     46  C   UNL A   1      44.023  21.495  26.894  1.00  0.00     0.014 A 
ATOM     47  C   UNL A   1      43.579  23.348  24.852  1.00  0.00     0.010 A 
ATOM     48  C   UNL A   1      44.404  22.825  27.060  1.00  0.00     0.010 A 
ATOM     49  C   UNL A   1      44.142  23.780  26.062  1.00  0.00    -0.014 A 
BRANCH  49  50
ATOM     50  C   UNL A   1      44.405  25.219  26.354  1.00  0.00     0.031 A 
ATOM     51  C   UNL A   1      45.772  25.801  26.123  1.00  0.00     0.074 A 
ATOM     52  C   UNL A   1      43.456  25.968  26.955  1.00  0.00     0.049 A 
ATOM     53  N   UNL A   1      46.264  26.951  26.505  1.00  0.00    -0.248 NA
ATOM     54  C   UNL A   1      46.724  24.946  25.402  1.00  0.00     0.031 C 
ATOM     55  C   UNL A   1      42.095  25.524  27.268  1.00  0.00     0.029 A 
ATOM     56  N   UNL A   1      43.497  27.257  27.431  1.00  0.00    -0.354 N 
ATOM     57  C   UNL A   1      47.594  26.950  26.097  1.00  0.00     0.074 A 
ATOM     58  C   UNL A   1      47.841  25.649  25.504  1.00  0.00     0.031 C 
ATOM     59  C   UNL A   1      41.426  26.531  27.853  1.00  0.00     0.029 A 
ATOM     60  C   UNL A   1      42.323  27.670  28.018  1.00  0.00     0.049 A 
ATOM     61  H   UNL A   1      44.293  27.832  27.359  1.00  0.00     0.167 HD
ATOM     62  C   UNL A   1      48.515  27.944  26.184  1.00  0.00     0.034 A 
ATOM     63  C   UNL A   1      42.004  28.825  28.636  1.00  0.00     0.034 A 
ATOM     64  C   UNL A   1      48.251  29.236  26.769  1.00  0.00     0.049 A 
ATOM     65  C   UNL A   1      43.054  29.899  28.769  1.00  0.00     0.074 A 
ATOM     66  C   UNL A   1      49.098  30.327  26.877  1.00  0.00     0.029 A 
ATOM     67  N   UNL A   1      47.047  29.615  27.350  1.00  0.00    -0.354 N 
ATOM     68  N   UNL A   1      44.303  29.889  28.363  1.00  0.00    -0.248 NA
ATOM     69  C   UNL A   1      42.650  31.141  29.442  1.00  0.00     0.031 C 
ATOM     70  C   UNL A   1      48.428  31.338  27.576  1.00  0.00     0.029 A 
ATOM     71  C   UNL A   1      47.137  30.911  27.839  1.00  0.00     0.049 A 
ATOM     72  H   UNL A   1      46.245  29.046  27.408  1.00  0.00     0.167 HD
ATOM     73  C   UNL A   1      44.819  31.139  28.695  1.00  0.00     0.074 A 
ATOM     74  C   UNL A   1      43.747  31.875  29.334  1.00  0.00     0.031 C 
ATOM     75  C   UNL A   1      46.063  31.637  28.479  1.00  0.00     0.034 A 
BRANCH  62  76
ATOM     76  C   UNL A   1      49.898  27.640  25.652  1.00  0.00     0.023 A 
ATOM     77  C   UNL A   1      50.220  27.832  24.296  1.00  0.00     0.031 A 
ATOM     78  C   UNL A   1      50.885  27.082  26.484  1.00  0.00     0.131 A 
ATOM     79  C   UNL A   1      51.438  27.357  23.790  1.00  0.00     0.055 A 
ATOM     80  C   UNL A   1      52.139  26.708  25.994  1.00  0.00     0.041 A 
ATOM     81  F   UNL A   1      50.637  26.858  27.784  1.00  0.00    -0.206 F 
ATOM     82  C   UNL A   1      52.412  26.820  24.633  1.00  0.00     0.022 A 
BRANCH  79  83
ATOM     83  S   UNL A   1      51.637  27.257  21.989  1.00  0.00     0.124 S 
ATOM     84  O   UNL A   1      52.759  26.327  21.870  1.00  0.00    -0.237 OA
ATOM     85  O   UNL A   1      50.341  26.753  21.555  1.00  0.00    -0.237 OA
ATOM     86  O   UNL A   1      51.937  28.633  21.601  1.00  0.00    -0.744 OA
ENDBRANCH  79  83
ENDBRANCH  62  76
BRANCH  63  87
ATOM     87  C   UNL A   1      40.632  29.040  29.180  1.00  0.00     0.023 A 
ATOM     88  C   UNL A   1      40.395  28.971  30.562  1.00  0.00     0.031 A 
ATOM     89  C   UNL A   1      39.537  29.285  28.334  1.00  0.00     0.131 A 
ATOM     90  C   UNL A   1      39.088  29.103  31.057  1.00  0.00     0.055 A 
ATOM     91  C   UNL A   1      38.245  29.464  28.834  1.00  0.00     0.041 A 
ATOM     92  F   UNL A   1      39.709  29.366  27.005  1.00  0.00    -0.206 F 
ATOM     93  C   UNL A   1      38.014  29.362  30.204  1.00  0.00     0.022 A 
BRANCH  90  94
ATOM     94  S   UNL A   1      38.804  28.861  32.832  1.00  0.00     0.124 S 
ATOM     95  O   UNL A   1      39.091  30.189  33.361  1.00  0.00    -0.237 OA
ATOM     96  O   UNL A   1      37.405  28.448  32.861  1.00  0.00    -0.237 OA
ATOM     97  O   UNL A   1      39.766  27.822  33.191  1.00  0.00    -0.744 OA
ENDBRANCH  90  94
ENDBRANCH  63  87
BRANCH  75  98
ATOM     98  C   UNL A   1      46.311  33.071  28.877  1.00  0.00     0.023 A 
ATOM     99  C   UNL A   1      46.020  34.146  28.020  1.00  0.00     0.031 A 
ATOM    100  C   UNL A   1      46.850  33.362  30.144  1.00  0.00     0.131 A 
ATOM    101  C   UNL A   1      46.314  35.459  28.422  1.00  0.00     0.055 A 
ATOM    102  C   UNL A   1      47.088  34.672  30.559  1.00  0.00     0.041 A 
ATOM    103  F   UNL A   1      47.150  32.374  31.002  1.00  0.00    -0.206 F 
ATOM    104  C   UNL A   1      46.830  35.730  29.692  1.00  0.00     0.022 A 
BRANCH 101 105
ATOM    105  S   UNL A   1      46.085  36.810  27.232  1.00  0.00     0.124 S 
ATOM    106  O   UNL A   1      46.534  37.968  27.999  1.00  0.00    -0.237 OA
ATOM    107  O   UNL A   1      46.950  36.403  26.128  1.00  0.00    -0.237 OA
ATOM    108  O   UNL A   1      44.653  36.774  26.942  1.00  0.00    -0.744 OA
ENDBRANCH 101 105
ENDBRANCH  75  98
ENDBRANCH  49  50
ENDBRANCH  41  44
ENDBRANCH  39  40
ENDBRANCH  38  39
ENDBRANCH  37  38
ENDBRANCH   1  37
TORSDOF 20
ENDMDL
MODEL 2
REMARK VINA RESULT:     -11.9      1.989      2.480
REMARK SMILES CCN1C(=O)[C@@H](CC(=O)Nc2cccc(C(=O)NCCCCNC(=O)c3ccc(-c4c5nc(c(-c6cc(S(=O)(=O)[O-])ccc6F)c6ccc([nH]6)c(-c6cc(S(=O)(=O)[O-])ccc6F)c6nc(c(-c7cc(S(=O)(=O)[O-])ccc7F)c7ccc4[nH]7)C=C6)C=C5)cc3)c2)S/C1=[NH+]\c1cc(Cl)c(O)c(Cl)c1
REMARK SMILES IDX 19 1 18 2 16 3 17 4 15 6 11 7 12 8 89 9 13 10 14 11 10 12
REMARK SMILES IDX 8 13 9 14 7 16 6 17 3 18 4 19 91 20 5 21 90 22 92 23 2 25
REMARK SMILES IDX 1 26 93 27 94 28 101 29 95 30 99 31 96 32 97 33 100 34 98 35
REMARK SMILES IDX 20 37 21 38 22 39 23 40 24 41 25 43 26 44 27 45 88 46 28 47
REMARK SMILES IDX 87 48 29 49 30 50 31 51 81 52 32 53 86 54 80 55 82 56 33 57
REMARK SMILES IDX 85 58 79 59 78 60 34 62 66 63 46 64 65 65 47 66 50 67 64 68
REMARK SMILES IDX 83 69 48 70 49 71 63 73 84 74 51 75 35 76 36 77 44 78 37 79
REMARK SMILES IDX 43 80 45 81 42 82 38 83 39 84 40 85 41 86 67 87 68 88 76 89
REMARK SMILES IDX 69 90 75 91 77 92 74 93 70 94 71 95 72 96 73 97 52 98 53 99
REMARK SMILES IDX 61 100 54 101 60 102 62 103 59 104 55 105 56 106 57 107
REMARK SMILES IDX 58 108
REMARK H PARENT 18 5 10 15 92 24 98 36 23 42 82 61 50 72
REMARK Flexibility Score: inf
ROOT
ATOM      1  C   UNL A   1      38.120  23.677  26.098  1.00  0.00     0.116 C 
ENDROOT
BRANCH   1   2
ATOM      2  N   UNL A   1      37.277  23.345  24.837  1.00  0.00    -0.352 N 
ATOM      3  C   UNL A   1      36.157  22.748  24.210  1.00  0.00     0.251 C 
ATOM      4  O   UNL A   1      36.184  23.024  22.991  1.00  0.00    -0.269 OA
ATOM      5  H   UNL A   1      37.775  23.760  24.098  1.00  0.00     0.163 HD
BRANCH   3   6
ATOM      6  C   UNL A   1      34.869  21.903  24.570  1.00  0.00     0.041 A 
ATOM      7  C   UNL A   1      32.532  21.350  25.394  1.00  0.00     0.041 A 
ATOM      8  C   UNL A   1      32.826  20.005  25.459  1.00  0.00     0.026 A 
ATOM      9  C   UNL A   1      33.565  22.238  25.010  1.00  0.00     0.040 A 
ATOM     10  C   UNL A   1      34.093  19.582  25.063  1.00  0.00     0.003 A 
ATOM     11  C   UNL A   1      35.076  20.505  24.622  1.00  0.00     0.014 A 
BRANCH   7  12
ATOM     12  N   UNL A   1      31.303  21.815  25.933  1.00  0.00    -0.326 N 
ATOM     13  C   UNL A   1      31.010  22.959  26.642  1.00  0.00     0.226 C 
ATOM     14  O   UNL A   1      30.199  22.914  27.568  1.00  0.00    -0.275 OA
ATOM     15  H   UNL A   1      30.534  21.222  25.773  1.00  0.00     0.169 HD
BRANCH  13  16
ATOM     16  C   UNL A   1      31.457  24.291  26.071  1.00  0.00     0.128 C 
BRANCH  16  17
ATOM     17  C   UNL A   1      30.584  25.026  25.050  1.00  0.00     0.183 C 
ATOM     18  N   UNL A   1      32.045  25.676  23.262  1.00  0.00    -0.190 N 
ATOM     19  C   UNL A   1      31.179  24.688  23.714  1.00  0.00     0.324 C 
ATOM     20  C   UNL A   1      31.948  26.883  24.005  1.00  0.00     0.319 C 
ATOM     21  O   UNL A   1      31.011  23.586  23.196  1.00  0.00    -0.245 OA
ATOM     22  S   UNL A   1      30.570  26.818  25.069  1.00  0.00    -0.022 SA
ATOM     23  N   UNL A   1      32.791  27.870  24.039  1.00  0.00    -0.235 N 
ATOM     24  H   UNL A   1      33.401  27.875  23.267  1.00  0.00     0.313 HD
BRANCH  18  25
ATOM     25  C   UNL A   1      32.892  25.177  22.108  1.00  0.00     0.243 C 
ATOM     26  C   UNL A   1      32.527  25.578  20.676  1.00  0.00     0.054 C 
ENDBRANCH  18  25
BRANCH  23  27
ATOM     27  C   UNL A   1      33.040  28.969  24.958  1.00  0.00     0.128 A 
ATOM     28  C   UNL A   1      34.126  28.828  25.862  1.00  0.00     0.076 A 
ATOM     29  C   UNL A   1      32.153  30.000  25.283  1.00  0.00     0.076 A 
ATOM     30  C   UNL A   1      34.361  29.651  26.969  1.00  0.00     0.088 A 
ATOM     31  C   UNL A   1      32.359  30.820  26.418  1.00  0.00     0.088 A 
ATOM     32  Cl  UNL A   1      35.732  29.328  27.970  1.00  0.00    -0.080 Cl
ATOM     33  C   UNL A   1      33.463  30.656  27.258  1.00  0.00     0.153 A 
ATOM     34  Cl  UNL A   1      31.166  32.005  26.823  1.00  0.00    -0.080 Cl
BRANCH  33  35
ATOM     35  O   UNL A   1      33.653  31.429  28.374  1.00  0.00    -0.505 OA
ATOM     36  H   UNL A   1      34.135  32.229  28.313  1.00  0.00     0.293 HD
ENDBRANCH  33  35
ENDBRANCH  23  27
ENDBRANCH  16  17
ENDBRANCH  13  16
ENDBRANCH   7  12
ENDBRANCH   3   6
ENDBRANCH   1   2
BRANCH   1  37
ATOM     37  C   UNL A   1      39.122  22.646  26.720  1.00  0.00     0.023 C 
BRANCH  37  38
ATOM     38  C   UNL A   1      39.436  21.371  25.902  1.00  0.00     0.023 C 
BRANCH  38  39
ATOM     39  C   UNL A   1      40.410  20.338  26.500  1.00  0.00     0.116 C 
BRANCH  39  40
ATOM     40  N   UNL A   1      41.734  20.260  25.874  1.00  0.00    -0.352 N 
ATOM     41  C   UNL A   1      42.744  21.205  25.772  1.00  0.00     0.251 C 
ATOM     42  H   UNL A   1      41.941  19.392  25.458  1.00  0.00     0.163 HD
ATOM     43  O   UNL A   1      43.800  20.917  25.210  1.00  0.00    -0.269 OA
BRANCH  41  44
ATOM     44  C   UNL A   1      42.540  22.582  26.277  1.00  0.00     0.039 A 
ATOM     45  C   UNL A   1      42.691  22.839  27.645  1.00  0.00     0.014 A 
ATOM     46  C   UNL A   1      42.277  23.633  25.401  1.00  0.00     0.014 A 
ATOM     47  C   UNL A   1      42.758  24.162  28.101  1.00  0.00     0.010 A 
ATOM     48  C   UNL A   1      42.433  24.946  25.840  1.00  0.00     0.010 A 
ATOM     49  C   UNL A   1      42.725  25.226  27.187  1.00  0.00    -0.014 A 
BRANCH  49  50
ATOM     50  C   UNL A   1      43.058  26.626  27.576  1.00  0.00     0.031 A 
ATOM     51  C   UNL A   1      44.483  27.106  27.527  1.00  0.00     0.074 A 
ATOM     52  C   UNL A   1      42.106  27.423  28.105  1.00  0.00     0.049 A 
ATOM     53  N   UNL A   1      45.012  28.198  28.018  1.00  0.00    -0.248 NA
ATOM     54  C   UNL A   1      45.444  26.209  26.875  1.00  0.00     0.031 C 
ATOM     55  C   UNL A   1      40.689  27.077  28.243  1.00  0.00     0.029 A 
ATOM     56  N   UNL A   1      42.187  28.684  28.646  1.00  0.00    -0.354 N 
ATOM     57  C   UNL A   1      46.376  28.108  27.760  1.00  0.00     0.074 A 
ATOM     58  C   UNL A   1      46.591  26.817  27.135  1.00  0.00     0.031 C 
ATOM     59  C   UNL A   1      40.033  28.109  28.800  1.00  0.00     0.029 A 
ATOM     60  C   UNL A   1      40.988  29.165  29.119  1.00  0.00     0.049 A 
ATOM     61  H   UNL A   1      43.027  29.196  28.691  1.00  0.00     0.167 HD
ATOM     62  C   UNL A   1      47.352  29.020  27.997  1.00  0.00     0.034 A 
ATOM     63  C   UNL A   1      40.688  30.316  29.755  1.00  0.00     0.034 A 
ATOM     64  C   UNL A   1      47.120  30.305  28.613  1.00  0.00     0.049 A 
ATOM     65  C   UNL A   1      41.793  31.296  30.055  1.00  0.00     0.074 A 
ATOM     66  C   UNL A   1      48.028  31.320  28.867  1.00  0.00     0.029 A 
ATOM     67  N   UNL A   1      45.889  30.754  29.075  1.00  0.00    -0.354 N 
ATOM     68  N   UNL A   1      43.075  31.204  29.790  1.00  0.00    -0.248 NA
ATOM     69  C   UNL A   1      41.407  32.538  30.740  1.00  0.00     0.031 C 
ATOM     70  C   UNL A   1      47.360  32.351  29.537  1.00  0.00     0.029 A 
ATOM     71  C   UNL A   1      46.019  32.018  29.634  1.00  0.00     0.049 A 
ATOM     72  H   UNL A   1      45.046  30.249  29.015  1.00  0.00     0.167 HD
ATOM     73  C   UNL A   1      43.642  32.394  30.239  1.00  0.00     0.074 A 
ATOM     74  C   UNL A   1      42.562  33.187  30.791  1.00  0.00     0.031 C 
ATOM     75  C   UNL A   1      44.936  32.800  30.186  1.00  0.00     0.034 A 
BRANCH  62  76
ATOM     76  C   UNL A   1      48.761  28.630  27.607  1.00  0.00     0.023 A 
ATOM     77  C   UNL A   1      49.165  28.598  26.260  1.00  0.00     0.031 A 
ATOM     78  C   UNL A   1      49.688  28.211  28.578  1.00  0.00     0.131 A 
ATOM     79  C   UNL A   1      50.405  28.042  25.914  1.00  0.00     0.055 A 
ATOM     80  C   UNL A   1      50.964  27.758  28.232  1.00  0.00     0.041 A 
ATOM     81  F   UNL A   1      49.360  28.202  29.879  1.00  0.00    -0.206 F 
ATOM     82  C   UNL A   1      51.320  27.647  26.891  1.00  0.00     0.022 A 
BRANCH  79  83
ATOM     83  S   UNL A   1      50.711  27.651  24.168  1.00  0.00     0.124 S 
ATOM     84  O   UNL A   1      51.119  28.954  23.644  1.00  0.00    -0.237 OA
ATOM     85  O   UNL A   1      51.757  26.640  24.250  1.00  0.00    -0.237 OA
ATOM     86  O   UNL A   1      49.415  27.176  23.691  1.00  0.00    -0.744 OA
ENDBRANCH  79  83
ENDBRANCH  62  76
BRANCH  63  87
ATOM     87  C   UNL A   1      39.282  30.617  30.154  1.00  0.00     0.023 A 
ATOM     88  C   UNL A   1      38.543  31.595  29.470  1.00  0.00     0.031 A 
ATOM     89  C   UNL A   1      38.670  29.962  31.236  1.00  0.00     0.131 A 
ATOM     90  C   UNL A   1      37.247  31.922  29.901  1.00  0.00     0.055 A 
ATOM     91  C   UNL A   1      37.362  30.256  31.630  1.00  0.00     0.041 A 
ATOM     92  F   UNL A   1      39.331  29.015  31.921  1.00  0.00    -0.206 F 
ATOM     93  C   UNL A   1      36.647  31.250  30.967  1.00  0.00     0.022 A 
BRANCH  90  94
ATOM     94  S   UNL A   1      36.381  33.291  29.085  1.00  0.00     0.124 S 
ATOM     95  O   UNL A   1      36.141  32.740  27.756  1.00  0.00    -0.237 OA
ATOM     96  O   UNL A   1      35.206  33.455  29.933  1.00  0.00    -0.237 OA
ATOM     97  O   UNL A   1      37.347  34.386  29.143  1.00  0.00    -0.744 OA
ENDBRANCH  90  94
ENDBRANCH  63  87
BRANCH  75  98
ATOM     98  C   UNL A   1      45.243  34.193  30.680  1.00  0.00     0.023 A 
ATOM     99  C   UNL A   1      45.106  35.325  29.858  1.00  0.00     0.031 A 
ATOM    100  C   UNL A   1      45.680  34.385  32.003  1.00  0.00     0.131 A 
ATOM    101  C   UNL A   1      45.451  36.592  30.353  1.00  0.00     0.055 A 
ATOM    102  C   UNL A   1      45.968  35.654  32.507  1.00  0.00     0.041 A 
ATOM    103  F   UNL A   1      45.831  33.339  32.832  1.00  0.00    -0.206 F 
ATOM    104  C   UNL A   1      45.863  36.767  31.677  1.00  0.00     0.022 A 
BRANCH 101 105
ATOM    105  S   UNL A   1      45.426  38.010  29.220  1.00  0.00     0.124 S 
ATOM    106  O   UNL A   1      45.408  39.138  30.147  1.00  0.00    -0.237 OA
ATOM    107  O   UNL A   1      46.660  37.826  28.463  1.00  0.00    -0.237 OA
ATOM    108  O   UNL A   1      44.196  37.817  28.454  1.00  0.00    -0.744 OA
ENDBRANCH 101 105
ENDBRANCH  75  98
ENDBRANCH  49  50
ENDBRANCH  41  44
ENDBRANCH  39  40
ENDBRANCH  38  39
ENDBRANCH  37  38
ENDBRANCH   1  37
TORSDOF 20
ENDMDL
MODEL 3
REMARK VINA RESULT:     -11.4      3.970      6.205
REMARK SMILES CCN1C(=O)[C@@H](CC(=O)Nc2cccc(C(=O)NCCCCNC(=O)c3ccc(-c4c5nc(c(-c6cc(S(=O)(=O)[O-])ccc6F)c6ccc([nH]6)c(-c6cc(S(=O)(=O)[O-])ccc6F)c6nc(c(-c7cc(S(=O)(=O)[O-])ccc7F)c7ccc4[nH]7)C=C6)C=C5)cc3)c2)S/C1=[NH+]\c1cc(Cl)c(O)c(Cl)c1
REMARK SMILES IDX 19 1 18 2 16 3 17 4 15 6 11 7 12 8 89 9 13 10 14 11 10 12
REMARK SMILES IDX 8 13 9 14 7 16 6 17 3 18 4 19 91 20 5 21 90 22 92 23 2 25
REMARK SMILES IDX 1 26 93 27 94 28 101 29 95 30 99 31 96 32 97 33 100 34 98 35
REMARK SMILES IDX 20 37 21 38 22 39 23 40 24 41 25 43 26 44 27 45 88 46 28 47
REMARK SMILES IDX 87 48 29 49 30 50 31 51 81 52 32 53 86 54 80 55 82 56 33 57
REMARK SMILES IDX 85 58 79 59 78 60 34 62 66 63 46 64 65 65 47 66 50 67 64 68
REMARK SMILES IDX 83 69 48 70 49 71 63 73 84 74 51 75 35 76 36 77 44 78 37 79
REMARK SMILES IDX 43 80 45 81 42 82 38 83 39 84 40 85 41 86 67 87 68 88 76 89
REMARK SMILES IDX 69 90 75 91 77 92 74 93 70 94 71 95 72 96 73 97 52 98 53 99
REMARK SMILES IDX 61 100 54 101 60 102 62 103 59 104 55 105 56 106 57 107
REMARK SMILES IDX 58 108
REMARK H PARENT 18 5 10 15 92 24 98 36 23 42 82 61 50 72
REMARK Flexibility Score: inf
ROOT
ATOM      1  C   UNL A   1      39.594  23.044  27.093  1.00  0.00     0.116 C 
ENDROOT
BRANCH   1   2
ATOM      2  N   UNL A   1      38.688  22.095  26.262  1.00  0.00    -0.352 N 
ATOM      3  C   UNL A   1      37.534  21.841  25.483  1.00  0.00     0.251 C 
ATOM      4  O   UNL A   1      37.572  20.658  25.080  1.00  0.00    -0.269 OA
ATOM      5  H   UNL A   1      39.153  21.229  26.294  1.00  0.00     0.163 HD
BRANCH   3   6
ATOM      6  C   UNL A   1      36.257  22.589  24.920  1.00  0.00     0.041 A 
ATOM      7  C   UNL A   1      33.900  23.525  24.803  1.00  0.00     0.041 A 
ATOM      8  C   UNL A   1      33.993  23.703  23.439  1.00  0.00     0.026 A 
ATOM      9  C   UNL A   1      34.999  22.934  25.471  1.00  0.00     0.040 A 
ATOM     10  C   UNL A   1      35.189  23.373  22.805  1.00  0.00     0.003 A 
ATOM     11  C   UNL A   1      36.288  22.845  23.530  1.00  0.00     0.014 A 
BRANCH   7  12
ATOM     12  N   UNL A   1      32.646  23.712  25.439  1.00  0.00    -0.326 N 
ATOM     13  C   UNL A   1      32.299  24.474  26.534  1.00  0.00     0.226 C 
ATOM     14  O   UNL A   1      31.468  24.048  27.337  1.00  0.00    -0.275 OA
ATOM     15  H   UNL A   1      31.900  23.216  25.030  1.00  0.00     0.169 HD
BRANCH  13  16
ATOM     16  C   UNL A   1      32.716  25.932  26.554  1.00  0.00     0.128 C 
BRANCH  16  17
ATOM     17  C   UNL A   1      31.662  27.039  26.467  1.00  0.00     0.183 C 
ATOM     18  N   UNL A   1      32.394  28.530  24.738  1.00  0.00    -0.190 N 
ATOM     19  C   UNL A   1      31.612  27.416  25.015  1.00  0.00     0.324 C 
ATOM     20  C   UNL A   1      32.818  29.218  25.906  1.00  0.00     0.319 C 
ATOM     21  O   UNL A   1      31.057  26.702  24.184  1.00  0.00    -0.245 OA
ATOM     22  S   UNL A   1      31.981  28.593  27.301  1.00  0.00    -0.022 SA
ATOM     23  N   UNL A   1      33.771  30.094  26.016  1.00  0.00    -0.235 N 
ATOM     24  H   UNL A   1      34.019  30.496  25.154  1.00  0.00     0.313 HD
BRANCH  18  25
ATOM     25  C   UNL A   1      32.614  28.688  23.245  1.00  0.00     0.243 C 
ATOM     26  C   UNL A   1      34.041  28.699  22.690  1.00  0.00     0.054 C 
ENDBRANCH  18  25
BRANCH  23  27
ATOM     27  C   UNL A   1      34.556  30.613  27.124  1.00  0.00     0.128 A 
ATOM     28  C   UNL A   1      35.555  29.765  27.670  1.00  0.00     0.076 A 
ATOM     29  C   UNL A   1      34.236  31.713  27.928  1.00  0.00     0.076 A 
ATOM     30  C   UNL A   1      36.226  29.988  28.876  1.00  0.00     0.088 A 
ATOM     31  C   UNL A   1      34.882  31.934  29.168  1.00  0.00     0.088 A 
ATOM     32  Cl  UNL A   1      37.412  28.841  29.393  1.00  0.00    -0.080 Cl
ATOM     33  C   UNL A   1      35.882  31.081  29.642  1.00  0.00     0.153 A 
ATOM     34  Cl  UNL A   1      34.362  33.250  30.161  1.00  0.00    -0.080 Cl
BRANCH  33  35
ATOM     35  O   UNL A   1      36.492  31.274  30.854  1.00  0.00    -0.505 OA
ATOM     36  H   UNL A   1      36.308  32.044  31.353  1.00  0.00     0.293 HD
ENDBRANCH  33  35
ENDBRANCH  23  27
ENDBRANCH  16  17
ENDBRANCH  13  16
ENDBRANCH   7  12
ENDBRANCH   3   6
ENDBRANCH   1   2
BRANCH   1  37
ATOM     37  C   UNL A   1      41.045  22.638  27.522  1.00  0.00     0.023 C 
BRANCH  37  38
ATOM     38  C   UNL A   1      42.220  23.179  26.675  1.00  0.00     0.023 C 
BRANCH  38  39
ATOM     39  C   UNL A   1      42.174  24.647  26.210  1.00  0.00     0.116 C 
BRANCH  39  40
ATOM     40  N   UNL A   1      43.329  25.119  25.440  1.00  0.00    -0.352 N 
ATOM     41  C   UNL A   1      44.060  26.293  25.533  1.00  0.00     0.251 C 
ATOM     42  H   UNL A   1      43.637  24.498  24.740  1.00  0.00     0.163 HD
ATOM     43  O   UNL A   1      45.019  26.481  24.786  1.00  0.00    -0.269 OA
BRANCH  41  44
ATOM     44  C   UNL A   1      43.658  27.357  26.482  1.00  0.00     0.039 A 
ATOM     45  C   UNL A   1      44.255  27.406  27.748  1.00  0.00     0.014 A 
ATOM     46  C   UNL A   1      42.755  28.348  26.104  1.00  0.00     0.014 A 
ATOM     47  C   UNL A   1      44.083  28.539  28.554  1.00  0.00     0.010 A 
ATOM     48  C   UNL A   1      42.657  29.511  26.865  1.00  0.00     0.010 A 
ATOM     49  C   UNL A   1      43.360  29.642  28.076  1.00  0.00    -0.014 A 
BRANCH  49  50
ATOM     50  C   UNL A   1      43.368  30.965  28.766  1.00  0.00     0.031 A 
ATOM     51  C   UNL A   1      44.405  31.995  28.413  1.00  0.00     0.074 A 
ATOM     52  C   UNL A   1      42.534  31.188  29.803  1.00  0.00     0.049 A 
ATOM     53  N   UNL A   1      44.719  33.106  29.029  1.00  0.00    -0.248 NA
ATOM     54  C   UNL A   1      45.225  31.707  27.230  1.00  0.00     0.031 C 
ATOM     55  C   UNL A   1      41.500  30.264  30.276  1.00  0.00     0.029 A 
ATOM     56  N   UNL A   1      42.437  32.255  30.665  1.00  0.00    -0.354 N 
ATOM     57  C   UNL A   1      45.795  33.638  28.326  1.00  0.00     0.074 A 
ATOM     58  C   UNL A   1      46.118  32.683  27.283  1.00  0.00     0.031 C 
ATOM     59  C   UNL A   1      40.856  30.817  31.317  1.00  0.00     0.029 A 
ATOM     60  C   UNL A   1      41.470  32.102  31.631  1.00  0.00     0.049 A 
ATOM     61  H   UNL A   1      43.007  33.054  30.596  1.00  0.00     0.167 HD
ATOM     62  C   UNL A   1      46.438  34.819  28.513  1.00  0.00     0.034 A 
ATOM     63  C   UNL A   1      41.124  32.896  32.666  1.00  0.00     0.034 A 
ATOM     64  C   UNL A   1      46.099  35.764  29.551  1.00  0.00     0.049 A 
ATOM     65  C   UNL A   1      41.881  34.180  32.889  1.00  0.00     0.074 A 
ATOM     66  C   UNL A   1      46.658  37.004  29.809  1.00  0.00     0.029 A 
ATOM     67  N   UNL A   1      45.109  35.572  30.508  1.00  0.00    -0.354 N 
ATOM     68  N   UNL A   1      42.885  34.678  32.206  1.00  0.00    -0.248 NA
ATOM     69  C   UNL A   1      41.454  35.011  34.024  1.00  0.00     0.031 C 
ATOM     70  C   UNL A   1      46.052  37.532  30.955  1.00  0.00     0.029 A 
ATOM     71  C   UNL A   1      45.060  36.659  31.371  1.00  0.00     0.049 A 
ATOM     72  H   UNL A   1      44.527  34.780  30.567  1.00  0.00     0.167 HD
ATOM     73  C   UNL A   1      43.182  35.900  32.804  1.00  0.00     0.074 A 
ATOM     74  C   UNL A   1      42.252  36.062  33.903  1.00  0.00     0.031 C 
ATOM     75  C   UNL A   1      44.130  36.810  32.467  1.00  0.00     0.034 A 
BRANCH  62  76
ATOM     76  C   UNL A   1      47.590  35.125  27.581  1.00  0.00     0.023 A 
ATOM     77  C   UNL A   1      48.917  34.818  27.933  1.00  0.00     0.031 A 
ATOM     78  C   UNL A   1      47.375  35.798  26.366  1.00  0.00     0.131 A 
ATOM     79  C   UNL A   1      49.977  35.291  27.147  1.00  0.00     0.055 A 
ATOM     80  C   UNL A   1      48.432  36.172  25.533  1.00  0.00     0.041 A 
ATOM     81  F   UNL A   1      46.134  36.134  25.979  1.00  0.00    -0.206 F 
ATOM     82  C   UNL A   1      49.745  35.943  25.934  1.00  0.00     0.022 A 
BRANCH  79  83
ATOM     83  S   UNL A   1      51.653  35.227  27.840  1.00  0.00     0.124 S 
ATOM     84  O   UNL A   1      52.294  36.351  27.160  1.00  0.00    -0.237 OA
ATOM     85  O   UNL A   1      51.411  35.398  29.267  1.00  0.00    -0.237 OA
ATOM     86  O   UNL A   1      52.140  33.909  27.440  1.00  0.00    -0.744 OA
ENDBRANCH  79  83
ENDBRANCH  62  76
BRANCH  63  87
ATOM     87  C   UNL A   1      40.006  32.510  33.575  1.00  0.00     0.023 A 
ATOM     88  C   UNL A   1      38.730  33.074  33.414  1.00  0.00     0.031 A 
ATOM     89  C   UNL A   1      40.199  31.605  34.633  1.00  0.00     0.131 A 
ATOM     90  C   UNL A   1      37.706  32.759  34.321  1.00  0.00     0.055 A 
ATOM     91  C   UNL A   1      39.164  31.257  35.503  1.00  0.00     0.041 A 
ATOM     92  F   UNL A   1      41.399  31.033  34.828  1.00  0.00    -0.206 F 
ATOM     93  C   UNL A   1      37.910  31.845  35.356  1.00  0.00     0.022 A 
BRANCH  90  94
ATOM     94  S   UNL A   1      36.117  33.620  34.166  1.00  0.00     0.124 S 
ATOM     95  O   UNL A   1      35.697  33.720  35.560  1.00  0.00    -0.237 OA
ATOM     96  O   UNL A   1      36.509  34.869  33.523  1.00  0.00    -0.237 OA
ATOM     97  O   UNL A   1      35.321  32.718  33.337  1.00  0.00    -0.744 OA
ENDBRANCH  90  94
ENDBRANCH  63  87
BRANCH  75  98
ATOM     98  C   UNL A   1      44.163  38.097  33.256  1.00  0.00     0.023 A 
ATOM     99  C   UNL A   1      43.405  39.221  32.884  1.00  0.00     0.031 A 
ATOM    100  C   UNL A   1      44.972  38.194  34.402  1.00  0.00     0.131 A 
ATOM    101  C   UNL A   1      43.508  40.408  33.626  1.00  0.00     0.055 A 
ATOM    102  C   UNL A   1      45.028  39.359  35.168  1.00  0.00     0.041 A 
ATOM    103  F   UNL A   1      45.720  37.152  34.801  1.00  0.00    -0.206 F 
ATOM    104  C   UNL A   1      44.301  40.479  34.775  1.00  0.00     0.022 A 
BRANCH 101 105
ATOM    105  S   UNL A   1      42.649  41.890  33.028  1.00  0.00     0.124 S 
ATOM    106  O   UNL A   1      42.012  42.383  34.245  1.00  0.00    -0.237 OA
ATOM    107  O   UNL A   1      43.748  42.701  32.512  1.00  0.00    -0.237 OA
ATOM    108  O   UNL A   1      41.733  41.372  32.013  1.00  0.00    -0.744 OA
ENDBRANCH 101 105
ENDBRANCH  75  98
ENDBRANCH  49  50
ENDBRANCH  41  44
ENDBRANCH  39  40
ENDBRANCH  38  39
ENDBRANCH  37  38
ENDBRANCH   1  37
TORSDOF 20
ENDMDL
