MODEL 1
REMARK VINA RESULT:     -12.9      0.000      0.000
REMARK SMILES NC(=O)c1c(-c2ccc(Cl)cc2)csc1NC(=O)[C@H]1[C@@H](C(=O)NCCCCNC(=O)c2ccc(-c3c4nc(c(-c5cc(S(=O)(=O)[O-])ccc5F)c5ccc([nH]5)c(-c5cc(S(=O)(=O)[O-])ccc5F)c5nc(c(-c6cc(S(=O)(=O)[O-])ccc6F)c6ccc3[nH]6)C=C5)C=C4)cc2)[C@@H]2CC[C@H]1O2
REMARK SMILES IDX 25 1 24 2 23 3 21 4 22 5 20 7 19 8 97 9 94 10 96 11 98 12
REMARK SMILES IDX 95 13 17 14 16 15 18 17 15 18 4 19 5 20 13 21 14 22 2 23
REMARK SMILES IDX 1 24 3 27 6 28 7 29 12 30 8 31 11 32 9 33 10 34 26 35 27 36
REMARK SMILES IDX 28 37 29 38 30 40 31 41 32 42 93 43 33 44 92 45 34 46 35 47
REMARK SMILES IDX 36 48 86 49 37 50 91 51 85 52 87 53 38 54 90 55 84 56 83 57
REMARK SMILES IDX 39 59 71 60 51 61 70 62 52 63 55 64 69 65 88 66 53 67 54 68
REMARK SMILES IDX 68 70 89 71 56 72 40 73 41 74 49 75 42 76 48 77 50 78 47 79
REMARK SMILES IDX 43 80 44 81 45 82 46 83 72 84 73 85 81 86 74 87 80 88 82 89
REMARK SMILES IDX 79 90 75 91 76 92 77 93 78 94 57 95 58 96 66 97 59 98 65 99
REMARK SMILES IDX 67 100 64 101 60 102 61 103 62 104 63 105
REMARK H PARENT 23 6 16 16 1 25 1 26 28 39 87 58 55 69
REMARK Flexibility Score: inf
ROOT
ATOM      1  C   UNL A   1      31.402  31.174  26.427  1.00  0.00     0.023 C 
ENDROOT
BRANCH   1   2
ATOM      2  C   UNL A   1      32.741  30.450  26.327  1.00  0.00     0.116 C 
BRANCH   2   3
ATOM      3  N   UNL A   1      33.071  29.995  24.989  1.00  0.00    -0.356 N 
ATOM      4  C   UNL A   1      32.459  29.126  24.153  1.00  0.00     0.226 C 
ATOM      5  O   UNL A   1      32.811  29.174  22.965  1.00  0.00    -0.275 OA
ATOM      6  H   UNL A   1      33.894  30.393  24.622  1.00  0.00     0.163 HD
BRANCH   4   7
ATOM      7  C   UNL A   1      31.523  28.002  24.573  1.00  0.00     0.122 C 
ATOM      8  C   UNL A   1      31.945  26.673  25.221  1.00  0.00     0.123 C 
ATOM      9  C   UNL A   1      31.513  25.659  24.136  1.00  0.00     0.132 C 
ATOM     10  C   UNL A   1      30.730  27.526  23.352  1.00  0.00     0.132 C 
ATOM     11  C   UNL A   1      30.004  25.419  24.203  1.00  0.00     0.035 C 
ATOM     12  O   UNL A   1      31.552  26.425  22.908  1.00  0.00    -0.373 OA
ATOM     13  C   UNL A   1      29.455  26.785  23.785  1.00  0.00     0.035 C 
BRANCH   8  14
ATOM     14  C   UNL A   1      33.370  26.497  25.726  1.00  0.00     0.231 C 
ATOM     15  N   UNL A   1      34.012  25.287  25.708  1.00  0.00    -0.317 N 
ATOM     16  H   UNL A   1      34.994  25.363  25.726  1.00  0.00     0.170 HD
ATOM     17  O   UNL A   1      33.997  27.446  26.202  1.00  0.00    -0.274 OA
BRANCH  15  18
ATOM     18  C   UNL A   1      33.559  23.976  25.669  1.00  0.00     0.108 A 
ATOM     19  C   UNL A   1      33.900  23.003  24.727  1.00  0.00     0.082 A 
ATOM     20  C   UNL A   1      33.291  21.732  25.073  1.00  0.00     0.007 A 
ATOM     21  C   UNL A   1      32.528  21.819  26.220  1.00  0.00     0.076 A 
ATOM     22  S   UNL A   1      32.632  23.342  26.937  1.00  0.00    -0.125 S 
BRANCH  19  23
ATOM     23  C   UNL A   1      34.778  23.314  23.597  1.00  0.00     0.252 C 
ATOM     24  N   UNL A   1      36.018  22.751  23.588  1.00  0.00    -0.365 N 
ATOM     25  H   UNL A   1      36.637  22.935  22.845  1.00  0.00     0.159 HD
ATOM     26  H   UNL A   1      36.295  22.159  24.324  1.00  0.00     0.159 HD
ATOM     27  O   UNL A   1      34.422  24.025  22.657  1.00  0.00    -0.269 OA
ENDBRANCH  19  23
BRANCH  20  28
ATOM     28  C   UNL A   1      33.487  20.405  24.513  1.00  0.00    -0.017 A 
ATOM     29  C   UNL A   1      32.480  19.792  23.757  1.00  0.00     0.010 A 
ATOM     30  C   UNL A   1      34.637  19.685  24.860  1.00  0.00     0.010 A 
ATOM     31  C   UNL A   1      32.613  18.454  23.376  1.00  0.00     0.021 A 
ATOM     32  C   UNL A   1      34.765  18.348  24.482  1.00  0.00     0.021 A 
ATOM     33  C   UNL A   1      33.747  17.735  23.752  1.00  0.00     0.041 A 
ATOM     34  Cl  UNL A   1      33.879  16.071  23.336  1.00  0.00    -0.084 Cl
ENDBRANCH  20  28
ENDBRANCH  15  18
ENDBRANCH   8  14
ENDBRANCH   4   7
ENDBRANCH   2   3
ENDBRANCH   1   2
BRANCH   1  35
ATOM     35  C   UNL A   1      31.469  32.662  26.772  1.00  0.00     0.023 C 
BRANCH  35  36
ATOM     36  C   UNL A   1      32.817  33.175  27.269  1.00  0.00     0.116 C 
BRANCH  36  37
ATOM     37  N   UNL A   1      32.722  34.433  27.992  1.00  0.00    -0.352 N 
ATOM     38  C   UNL A   1      33.434  34.887  29.080  1.00  0.00     0.251 C 
ATOM     39  H   UNL A   1      32.041  35.057  27.651  1.00  0.00     0.163 HD
ATOM     40  O   UNL A   1      33.094  35.934  29.626  1.00  0.00    -0.269 OA
BRANCH  38  41
ATOM     41  C   UNL A   1      34.573  34.107  29.618  1.00  0.00     0.039 A 
ATOM     42  C   UNL A   1      35.869  34.438  29.207  1.00  0.00     0.014 A 
ATOM     43  C   UNL A   1      34.382  33.055  30.516  1.00  0.00     0.014 A 
ATOM     44  C   UNL A   1      36.969  33.777  29.763  1.00  0.00     0.010 A 
ATOM     45  C   UNL A   1      35.481  32.454  31.132  1.00  0.00     0.010 A 
ATOM     46  C   UNL A   1      36.789  32.812  30.767  1.00  0.00    -0.014 A 
BRANCH  46  47
ATOM     47  C   UNL A   1      37.950  32.178  31.452  1.00  0.00     0.031 A 
ATOM     48  C   UNL A   1      38.703  31.054  30.789  1.00  0.00     0.074 A 
ATOM     49  C   UNL A   1      38.285  32.565  32.699  1.00  0.00     0.049 A 
ATOM     50  N   UNL A   1      39.678  30.318  31.259  1.00  0.00    -0.248 NA
ATOM     51  C   UNL A   1      38.278  30.690  29.430  1.00  0.00     0.031 C 
ATOM     52  C   UNL A   1      37.610  33.612  33.469  1.00  0.00     0.029 A 
ATOM     53  N   UNL A   1      39.270  32.118  33.547  1.00  0.00    -0.354 N 
ATOM     54  C   UNL A   1      39.974  29.395  30.261  1.00  0.00     0.074 A 
ATOM     55  C   UNL A   1      39.031  29.628  29.186  1.00  0.00     0.031 C 
ATOM     56  C   UNL A   1      38.214  33.742  34.661  1.00  0.00     0.029 A 
ATOM     57  C   UNL A   1      39.287  32.758  34.765  1.00  0.00     0.049 A 
ATOM     58  H   UNL A   1      39.906  31.406  33.305  1.00  0.00     0.167 HD
ATOM     59  C   UNL A   1      40.953  28.455  30.233  1.00  0.00     0.034 A 
ATOM     60  C   UNL A   1      40.065  32.567  35.849  1.00  0.00     0.034 A 
ATOM     61  C   UNL A   1      41.895  28.242  31.306  1.00  0.00     0.049 A 
ATOM     62  C   UNL A   1      41.134  31.504  35.803  1.00  0.00     0.074 A 
ATOM     63  C   UNL A   1      42.958  27.358  31.357  1.00  0.00     0.029 A 
ATOM     64  N   UNL A   1      41.883  28.915  32.521  1.00  0.00    -0.354 N 
ATOM     65  N   UNL A   1      41.431  30.672  34.831  1.00  0.00    -0.248 NA
ATOM     66  C   UNL A   1      41.980  31.364  36.995  1.00  0.00     0.031 C 
ATOM     67  C   UNL A   1      43.547  27.448  32.623  1.00  0.00     0.029 A 
ATOM     68  C   UNL A   1      42.902  28.444  33.337  1.00  0.00     0.049 A 
ATOM     69  H   UNL A   1      41.245  29.623  32.768  1.00  0.00     0.167 HD
ATOM     70  C   UNL A   1      42.519  29.932  35.286  1.00  0.00     0.074 A 
ATOM     71  C   UNL A   1      42.833  30.426  36.610  1.00  0.00     0.031 C 
ATOM     72  C   UNL A   1      43.200  28.936  34.663  1.00  0.00     0.034 A 
BRANCH  59  73
ATOM     73  C   UNL A   1      41.032  27.572  29.009  1.00  0.00     0.023 A 
ATOM     74  C   UNL A   1      42.037  27.739  28.040  1.00  0.00     0.031 A 
ATOM     75  C   UNL A   1      40.074  26.565  28.793  1.00  0.00     0.131 A 
ATOM     76  C   UNL A   1      42.017  26.971  26.867  1.00  0.00     0.055 A 
ATOM     77  C   UNL A   1      40.108  25.746  27.662  1.00  0.00     0.041 A 
ATOM     78  F   UNL A   1      39.079  26.367  29.672  1.00  0.00    -0.206 F 
ATOM     79  C   UNL A   1      41.074  25.958  26.682  1.00  0.00     0.022 A 
BRANCH  76  80
ATOM     80  S   UNL A   1      43.150  27.413  25.522  1.00  0.00     0.124 S 
ATOM     81  O   UNL A   1      44.184  28.154  26.240  1.00  0.00    -0.237 OA
ATOM     82  O   UNL A   1      43.545  26.110  25.001  1.00  0.00    -0.237 OA
ATOM     83  O   UNL A   1      42.324  28.220  24.627  1.00  0.00    -0.744 OA
ENDBRANCH  76  80
ENDBRANCH  59  73
BRANCH  60  84
ATOM     84  C   UNL A   1      39.863  33.385  37.080  1.00  0.00     0.023 A 
ATOM     85  C   UNL A   1      39.265  32.835  38.225  1.00  0.00     0.031 A 
ATOM     86  C   UNL A   1      40.225  34.744  37.113  1.00  0.00     0.131 A 
ATOM     87  C   UNL A   1      39.002  33.649  39.337  1.00  0.00     0.055 A 
ATOM     88  C   UNL A   1      40.011  35.537  38.242  1.00  0.00     0.041 A 
ATOM     89  F   UNL A   1      40.804  35.319  36.047  1.00  0.00    -0.206 F 
ATOM     90  C   UNL A   1      39.383  34.993  39.358  1.00  0.00     0.022 A 
BRANCH  87  91
ATOM     91  S   UNL A   1      38.077  32.946  40.730  1.00  0.00     0.124 S 
ATOM     92  O   UNL A   1      38.021  31.534  40.367  1.00  0.00    -0.237 OA
ATOM     93  O   UNL A   1      38.930  33.285  41.863  1.00  0.00    -0.237 OA
ATOM     94  O   UNL A   1      36.799  33.654  40.682  1.00  0.00    -0.744 OA
ENDBRANCH  87  91
ENDBRANCH  60  84
BRANCH  72  95
ATOM     95  C   UNL A   1      44.385  28.354  35.395  1.00  0.00     0.023 A 
ATOM     96  C   UNL A   1      44.234  27.373  36.391  1.00  0.00     0.031 A 
ATOM     97  C   UNL A   1      45.686  28.802  35.101  1.00  0.00     0.131 A 
ATOM     98  C   UNL A   1      45.357  26.915  37.097  1.00  0.00     0.055 A 
ATOM     99  C   UNL A   1      46.805  28.300  35.765  1.00  0.00     0.041 A 
ATOM    100  F   UNL A   1      45.889  29.740  34.162  1.00  0.00    -0.206 F 
ATOM    101  C   UNL A   1      46.643  27.360  36.779  1.00  0.00     0.022 A 
BRANCH  98 102
ATOM    102  S   UNL A   1      45.107  25.800  38.505  1.00  0.00     0.124 S 
ATOM    103  O   UNL A   1      44.783  24.540  37.844  1.00  0.00    -0.237 OA
ATOM    104  O   UNL A   1      46.401  25.853  39.179  1.00  0.00    -0.237 OA
ATOM    105  O   UNL A   1      44.003  26.416  39.239  1.00  0.00    -0.744 OA
ENDBRANCH  98 102
ENDBRANCH  72  95
ENDBRANCH  46  47
ENDBRANCH  38  41
ENDBRANCH  36  37
ENDBRANCH  35  36
ENDBRANCH   1  35
TORSDOF 18
ENDMDL
MODEL 2
REMARK VINA RESULT:     -12.9      5.070      8.109
REMARK SMILES NC(=O)c1c(-c2ccc(Cl)cc2)csc1NC(=O)[C@H]1[C@@H](C(=O)NCCCCNC(=O)c2ccc(-c3c4nc(c(-c5cc(S(=O)(=O)[O-])ccc5F)c5ccc([nH]5)c(-c5cc(S(=O)(=O)[O-])ccc5F)c5nc(c(-c6cc(S(=O)(=O)[O-])ccc6F)c6ccc3[nH]6)C=C5)C=C4)cc2)[C@@H]2CC[C@H]1O2
REMARK SMILES IDX 25 1 24 2 23 3 21 4 22 5 20 7 19 8 97 9 94 10 96 11 98 12
REMARK SMILES IDX 95 13 17 14 16 15 18 17 15 18 4 19 5 20 13 21 14 22 2 23
REMARK SMILES IDX 1 24 3 27 6 28 7 29 12 30 8 31 11 32 9 33 10 34 26 35 27 36
REMARK SMILES IDX 28 37 29 38 30 40 31 41 32 42 93 43 33 44 92 45 34 46 35 47
REMARK SMILES IDX 36 48 86 49 37 50 91 51 85 52 87 53 38 54 90 55 84 56 83 57
REMARK SMILES IDX 39 59 71 60 51 61 70 62 52 63 55 64 69 65 88 66 53 67 54 68
REMARK SMILES IDX 68 70 89 71 56 72 40 73 41 74 49 75 42 76 48 77 50 78 47 79
REMARK SMILES IDX 43 80 44 81 45 82 46 83 72 84 73 85 81 86 74 87 80 88 82 89
REMARK SMILES IDX 79 90 75 91 76 92 77 93 78 94 57 95 58 96 66 97 59 98 65 99
REMARK SMILES IDX 67 100 64 101 60 102 61 103 62 104 63 105
REMARK H PARENT 23 6 16 16 1 25 1 26 28 39 87 58 55 69
REMARK Flexibility Score: inf
ROOT
ATOM      1  C   UNL A   1      35.549  23.325  23.201  1.00  0.00     0.023 C 
ENDROOT
BRANCH   1   2
ATOM      2  C   UNL A   1      34.779  24.301  24.084  1.00  0.00     0.116 C 
BRANCH   2   3
ATOM      3  N   UNL A   1      34.023  25.298  23.350  1.00  0.00    -0.356 N 
ATOM      4  C   UNL A   1      33.568  26.524  23.697  1.00  0.00     0.226 C 
ATOM      5  O   UNL A   1      33.221  27.260  22.762  1.00  0.00    -0.275 OA
ATOM      6  H   UNL A   1      33.798  25.033  22.429  1.00  0.00     0.163 HD
BRANCH   4   7
ATOM      7  C   UNL A   1      33.292  26.998  25.116  1.00  0.00     0.122 C 
ATOM      8  C   UNL A   1      31.903  27.211  25.740  1.00  0.00     0.123 C 
ATOM      9  C   UNL A   1      31.921  28.736  26.002  1.00  0.00     0.132 C 
ATOM     10  C   UNL A   1      33.951  28.364  25.327  1.00  0.00     0.132 C 
ATOM     11  C   UNL A   1      32.732  29.050  27.259  1.00  0.00     0.035 C 
ATOM     12  O   UNL A   1      32.852  29.247  25.016  1.00  0.00    -0.373 OA
ATOM     13  C   UNL A   1      34.145  28.651  26.824  1.00  0.00     0.035 C 
BRANCH   8  14
ATOM     14  C   UNL A   1      30.663  26.705  25.016  1.00  0.00     0.231 C 
ATOM     15  N   UNL A   1      30.210  25.419  25.145  1.00  0.00    -0.317 N 
ATOM     16  H   UNL A   1      29.256  25.314  24.925  1.00  0.00     0.170 HD
ATOM     17  O   UNL A   1      30.029  27.439  24.254  1.00  0.00    -0.274 OA
BRANCH  15  18
ATOM     18  C   UNL A   1      30.824  24.232  25.522  1.00  0.00     0.108 A 
ATOM     19  C   UNL A   1      31.309  23.237  24.672  1.00  0.00     0.082 A 
ATOM     20  C   UNL A   1      31.960  22.192  25.441  1.00  0.00     0.007 A 
ATOM     21  C   UNL A   1      31.915  22.442  26.797  1.00  0.00     0.076 A 
ATOM     22  S   UNL A   1      31.226  23.943  27.142  1.00  0.00    -0.125 S 
BRANCH  19  23
ATOM     23  C   UNL A   1      31.157  23.338  23.219  1.00  0.00     0.252 C 
ATOM     24  N   UNL A   1      29.989  23.850  22.741  1.00  0.00    -0.365 N 
ATOM     25  H   UNL A   1      29.849  23.934  21.771  1.00  0.00     0.159 HD
ATOM     26  H   UNL A   1      29.286  24.137  23.367  1.00  0.00     0.159 HD
ATOM     27  O   UNL A   1      32.049  23.014  22.435  1.00  0.00    -0.269 OA
ENDBRANCH  19  23
BRANCH  20  28
ATOM     28  C   UNL A   1      32.759  21.058  25.008  1.00  0.00    -0.017 A 
ATOM     29  C   UNL A   1      32.167  19.981  24.336  1.00  0.00     0.010 A 
ATOM     30  C   UNL A   1      34.102  20.984  25.398  1.00  0.00     0.010 A 
ATOM     31  C   UNL A   1      32.909  18.824  24.084  1.00  0.00     0.021 A 
ATOM     32  C   UNL A   1      34.840  19.826  25.149  1.00  0.00     0.021 A 
ATOM     33  C   UNL A   1      34.237  18.747  24.504  1.00  0.00     0.041 A 
ATOM     34  Cl  UNL A   1      35.130  17.299  24.249  1.00  0.00    -0.084 Cl
ENDBRANCH  20  28
ENDBRANCH  15  18
ENDBRANCH   8  14
ENDBRANCH   4   7
ENDBRANCH   2   3
ENDBRANCH   1   2
BRANCH   1  35
ATOM     35  C   UNL A   1      36.852  22.778  23.784  1.00  0.00     0.023 C 
BRANCH  35  36
ATOM     36  C   UNL A   1      37.051  22.976  25.284  1.00  0.00     0.116 C 
BRANCH  36  37
ATOM     37  N   UNL A   1      38.102  22.139  25.840  1.00  0.00    -0.352 N 
ATOM     38  C   UNL A   1      39.251  22.487  26.513  1.00  0.00     0.251 C 
ATOM     39  H   UNL A   1      37.972  21.171  25.714  1.00  0.00     0.163 HD
ATOM     40  O   UNL A   1      40.080  21.620  26.777  1.00  0.00    -0.269 OA
BRANCH  38  41
ATOM     41  C   UNL A   1      39.513  23.898  26.885  1.00  0.00     0.039 A 
ATOM     42  C   UNL A   1      39.259  24.306  28.198  1.00  0.00     0.014 A 
ATOM     43  C   UNL A   1      39.999  24.822  25.957  1.00  0.00     0.014 A 
ATOM     44  C   UNL A   1      39.577  25.608  28.599  1.00  0.00     0.010 A 
ATOM     45  C   UNL A   1      40.393  26.092  26.378  1.00  0.00     0.010 A 
ATOM     46  C   UNL A   1      40.193  26.500  27.706  1.00  0.00    -0.014 A 
BRANCH  46  47
ATOM     47  C   UNL A   1      40.642  27.851  28.144  1.00  0.00     0.031 A 
ATOM     48  C   UNL A   1      42.107  28.204  28.138  1.00  0.00     0.074 A 
ATOM     49  C   UNL A   1      39.741  28.738  28.611  1.00  0.00     0.049 A 
ATOM     50  N   UNL A   1      42.700  29.291  28.564  1.00  0.00    -0.248 NA
ATOM     51  C   UNL A   1      43.027  27.185  27.613  1.00  0.00     0.031 C 
ATOM     52  C   UNL A   1      38.298  28.505  28.709  1.00  0.00     0.029 A 
ATOM     53  N   UNL A   1      39.901  30.011  29.102  1.00  0.00    -0.354 N 
ATOM     54  C   UNL A   1      44.062  29.081  28.373  1.00  0.00     0.074 A 
ATOM     55  C   UNL A   1      44.207  27.738  27.850  1.00  0.00     0.031 C 
ATOM     56  C   UNL A   1      37.706  29.603  29.205  1.00  0.00     0.029 A 
ATOM     57  C   UNL A   1      38.726  30.602  29.507  1.00  0.00     0.049 A 
ATOM     58  H   UNL A   1      40.777  30.459  29.160  1.00  0.00     0.167 HD
ATOM     59  C   UNL A   1      45.094  29.935  28.593  1.00  0.00     0.034 A 
ATOM     60  C   UNL A   1      38.494  31.805  30.071  1.00  0.00     0.034 A 
ATOM     61  C   UNL A   1      44.935  31.275  29.103  1.00  0.00     0.049 A 
ATOM     62  C   UNL A   1      39.658  32.730  30.324  1.00  0.00     0.074 A 
ATOM     63  C   UNL A   1      45.905  32.240  29.310  1.00  0.00     0.029 A 
ATOM     64  N   UNL A   1      43.728  31.841  29.495  1.00  0.00    -0.354 N 
ATOM     65  N   UNL A   1      40.936  32.533  30.092  1.00  0.00    -0.248 NA
ATOM     66  C   UNL A   1      39.347  34.042  30.903  1.00  0.00     0.031 C 
ATOM     67  C   UNL A   1      45.298  33.361  29.886  1.00  0.00     0.029 A 
ATOM     68  C   UNL A   1      43.935  33.129  29.968  1.00  0.00     0.049 A 
ATOM     69  H   UNL A   1      42.852  31.393  29.444  1.00  0.00     0.167 HD
ATOM     70  C   UNL A   1      41.575  33.711  30.470  1.00  0.00     0.074 A 
ATOM     71  C   UNL A   1      40.541  34.615  30.928  1.00  0.00     0.031 C 
ATOM     72  C   UNL A   1      42.897  34.019  30.435  1.00  0.00     0.034 A 
BRANCH  59  73
ATOM     73  C   UNL A   1      46.488  29.426  28.306  1.00  0.00     0.023 A 
ATOM     74  C   UNL A   1      47.250  28.766  29.286  1.00  0.00     0.031 A 
ATOM     75  C   UNL A   1      47.075  29.626  27.044  1.00  0.00     0.131 A 
ATOM     76  C   UNL A   1      48.578  28.402  29.017  1.00  0.00     0.055 A 
ATOM     77  C   UNL A   1      48.368  29.186  26.755  1.00  0.00     0.041 A 
ATOM     78  F   UNL A   1      46.405  30.265  26.071  1.00  0.00    -0.206 F 
ATOM     79  C   UNL A   1      49.134  28.584  27.749  1.00  0.00     0.022 A 
BRANCH  76  80
ATOM     80  S   UNL A   1      49.613  27.820  30.387  1.00  0.00     0.124 S 
ATOM     81  O   UNL A   1      49.844  29.059  31.127  1.00  0.00    -0.237 OA
ATOM     82  O   UNL A   1      48.753  26.840  31.038  1.00  0.00    -0.237 OA
ATOM     83  O   UNL A   1      50.792  27.273  29.721  1.00  0.00    -0.744 OA
ENDBRANCH  76  80
ENDBRANCH  59  73
BRANCH  60  84
ATOM     84  C   UNL A   1      37.110  32.208  30.450  1.00  0.00     0.023 A 
ATOM     85  C   UNL A   1      36.222  32.735  29.498  1.00  0.00     0.031 A 
ATOM     86  C   UNL A   1      36.667  32.115  31.782  1.00  0.00     0.131 A 
ATOM     87  C   UNL A   1      34.958  33.193  29.897  1.00  0.00     0.055 A 
ATOM     88  C   UNL A   1      35.388  32.523  32.165  1.00  0.00     0.041 A 
ATOM     89  F   UNL A   1      37.473  31.615  32.732  1.00  0.00    -0.206 F 
ATOM     90  C   UNL A   1      34.530  33.079  31.221  1.00  0.00     0.022 A 
BRANCH  87  91
ATOM     91  S   UNL A   1      33.907  34.021  28.671  1.00  0.00     0.124 S 
ATOM     92  O   UNL A   1      33.532  32.911  27.803  1.00  0.00    -0.237 OA
ATOM     93  O   UNL A   1      32.844  34.571  29.505  1.00  0.00    -0.237 OA
ATOM     94  O   UNL A   1      34.800  35.011  28.071  1.00  0.00    -0.744 OA
ENDBRANCH  87  91
ENDBRANCH  60  84
BRANCH  72  95
ATOM     95  C   UNL A   1      43.287  35.413  30.862  1.00  0.00     0.023 A 
ATOM     96  C   UNL A   1      43.394  36.470  29.940  1.00  0.00     0.031 A 
ATOM     97  C   UNL A   1      43.574  35.684  32.213  1.00  0.00     0.131 A 
ATOM     98  C   UNL A   1      43.831  37.732  30.371  1.00  0.00     0.055 A 
ATOM     99  C   UNL A   1      43.951  36.956  32.645  1.00  0.00     0.041 A 
ATOM    100  F   UNL A   1      43.491  34.712  33.136  1.00  0.00    -0.206 F 
ATOM    101  C   UNL A   1      44.095  37.985  31.720  1.00  0.00     0.022 A 
BRANCH  98 102
ATOM    102  S   UNL A   1      44.148  39.016  29.129  1.00  0.00     0.124 S 
ATOM    103  O   UNL A   1      43.984  38.280  27.880  1.00  0.00    -0.237 OA
ATOM    104  O   UNL A   1      43.114  40.001  29.429  1.00  0.00    -0.237 OA
ATOM    105  O   UNL A   1      45.514  39.446  29.421  1.00  0.00    -0.744 OA
ENDBRANCH  98 102
ENDBRANCH  72  95
ENDBRANCH  46  47
ENDBRANCH  38  41
ENDBRANCH  36  37
ENDBRANCH  35  36
ENDBRANCH   1  35
TORSDOF 18
ENDMDL
MODEL 3
REMARK VINA RESULT:     -12.9      2.589      7.852
REMARK SMILES NC(=O)c1c(-c2ccc(Cl)cc2)csc1NC(=O)[C@H]1[C@@H](C(=O)NCCCCNC(=O)c2ccc(-c3c4nc(c(-c5cc(S(=O)(=O)[O-])ccc5F)c5ccc([nH]5)c(-c5cc(S(=O)(=O)[O-])ccc5F)c5nc(c(-c6cc(S(=O)(=O)[O-])ccc6F)c6ccc3[nH]6)C=C5)C=C4)cc2)[C@@H]2CC[C@H]1O2
REMARK SMILES IDX 25 1 24 2 23 3 21 4 22 5 20 7 19 8 97 9 94 10 96 11 98 12
REMARK SMILES IDX 95 13 17 14 16 15 18 17 15 18 4 19 5 20 13 21 14 22 2 23
REMARK SMILES IDX 1 24 3 27 6 28 7 29 12 30 8 31 11 32 9 33 10 34 26 35 27 36
REMARK SMILES IDX 28 37 29 38 30 40 31 41 32 42 93 43 33 44 92 45 34 46 35 47
REMARK SMILES IDX 36 48 86 49 37 50 91 51 85 52 87 53 38 54 90 55 84 56 83 57
REMARK SMILES IDX 39 59 71 60 51 61 70 62 52 63 55 64 69 65 88 66 53 67 54 68
REMARK SMILES IDX 68 70 89 71 56 72 40 73 41 74 49 75 42 76 48 77 50 78 47 79
REMARK SMILES IDX 43 80 44 81 45 82 46 83 72 84 73 85 81 86 74 87 80 88 82 89
REMARK SMILES IDX 79 90 75 91 76 92 77 93 78 94 57 95 58 96 66 97 59 98 65 99
REMARK SMILES IDX 67 100 64 101 60 102 61 103 62 104 63 105
REMARK H PARENT 23 6 16 16 1 25 1 26 28 39 87 58 55 69
REMARK Flexibility Score: inf
ROOT
ATOM      1  C   UNL A   1      33.181  29.624  24.493  1.00  0.00     0.023 C 
ENDROOT
BRANCH   1   2
ATOM      2  C   UNL A   1      33.641  28.935  23.212  1.00  0.00     0.116 C 
BRANCH   2   3
ATOM      3  N   UNL A   1      32.566  28.351  22.432  1.00  0.00    -0.356 N 
ATOM      4  C   UNL A   1      31.583  27.480  22.759  1.00  0.00     0.226 C 
ATOM      5  O   UNL A   1      30.637  27.404  21.961  1.00  0.00    -0.275 OA
ATOM      6  H   UNL A   1      32.548  28.642  21.492  1.00  0.00     0.163 HD
BRANCH   4   7
ATOM      7  C   UNL A   1      31.626  26.483  23.907  1.00  0.00     0.122 C 
ATOM      8  C   UNL A   1      32.219  25.066  23.848  1.00  0.00     0.123 C 
ATOM      9  C   UNL A   1      30.960  24.202  24.094  1.00  0.00     0.132 C 
ATOM     10  C   UNL A   1      30.200  26.214  24.394  1.00  0.00     0.132 C 
ATOM     11  C   UNL A   1      30.609  24.187  25.582  1.00  0.00     0.035 C 
ATOM     12  O   UNL A   1      29.870  25.035  23.628  1.00  0.00    -0.373 OA
ATOM     13  C   UNL A   1      30.208  25.645  25.820  1.00  0.00     0.035 C 
BRANCH   8  14
ATOM     14  C   UNL A   1      33.054  24.645  22.646  1.00  0.00     0.231 C 
ATOM     15  N   UNL A   1      33.575  23.385  22.518  1.00  0.00    -0.317 N 
ATOM     16  H   UNL A   1      33.783  23.138  21.587  1.00  0.00     0.170 HD
ATOM     17  O   UNL A   1      33.318  25.445  21.745  1.00  0.00    -0.274 OA
BRANCH  15  18
ATOM     18  C   UNL A   1      33.871  22.385  23.434  1.00  0.00     0.108 A 
ATOM     19  C   UNL A   1      33.278  21.123  23.512  1.00  0.00     0.082 A 
ATOM     20  C   UNL A   1      33.915  20.330  24.547  1.00  0.00     0.007 A 
ATOM     21  C   UNL A   1      34.918  21.028  25.190  1.00  0.00     0.076 A 
ATOM     22  S   UNL A   1      35.179  22.544  24.498  1.00  0.00    -0.125 S 
BRANCH  19  23
ATOM     23  C   UNL A   1      32.189  20.739  22.612  1.00  0.00     0.252 C 
ATOM     24  N   UNL A   1      32.097  19.428  22.257  1.00  0.00    -0.365 N 
ATOM     25  H   UNL A   1      31.378  19.130  21.654  1.00  0.00     0.159 HD
ATOM     26  H   UNL A   1      32.748  18.777  22.604  1.00  0.00     0.159 HD
ATOM     27  O   UNL A   1      31.350  21.543  22.205  1.00  0.00    -0.269 OA
ENDBRANCH  19  23
BRANCH  20  28
ATOM     28  C   UNL A   1      33.774  18.923  24.882  1.00  0.00    -0.017 A 
ATOM     29  C   UNL A   1      34.614  17.963  24.303  1.00  0.00     0.010 A 
ATOM     30  C   UNL A   1      32.696  18.519  25.679  1.00  0.00     0.010 A 
ATOM     31  C   UNL A   1      34.354  16.604  24.498  1.00  0.00     0.021 A 
ATOM     32  C   UNL A   1      32.436  17.161  25.868  1.00  0.00     0.021 A 
ATOM     33  C   UNL A   1      33.259  16.210  25.266  1.00  0.00     0.041 A 
ATOM     34  Cl  UNL A   1      32.904  14.537  25.452  1.00  0.00    -0.084 Cl
ENDBRANCH  20  28
ENDBRANCH  15  18
ENDBRANCH   8  14
ENDBRANCH   4   7
ENDBRANCH   2   3
ENDBRANCH   1   2
BRANCH   1  35
ATOM     35  C   UNL A   1      33.380  28.834  25.787  1.00  0.00     0.023 C 
BRANCH  35  36
ATOM     36  C   UNL A   1      32.716  29.409  27.033  1.00  0.00     0.116 C 
BRANCH  36  37
ATOM     37  N   UNL A   1      32.821  30.857  27.125  1.00  0.00    -0.352 N 
ATOM     38  C   UNL A   1      33.824  31.643  27.645  1.00  0.00     0.251 C 
ATOM     39  H   UNL A   1      32.053  31.352  26.757  1.00  0.00     0.163 HD
ATOM     40  O   UNL A   1      33.646  32.854  27.748  1.00  0.00    -0.269 OA
BRANCH  38  41
ATOM     41  C   UNL A   1      35.092  31.038  28.116  1.00  0.00     0.039 A 
ATOM     42  C   UNL A   1      36.274  31.776  27.997  1.00  0.00     0.014 A 
ATOM     43  C   UNL A   1      35.132  29.756  28.668  1.00  0.00     0.014 A 
ATOM     44  C   UNL A   1      37.472  31.267  28.511  1.00  0.00     0.010 A 
ATOM     45  C   UNL A   1      36.308  29.284  29.254  1.00  0.00     0.010 A 
ATOM     46  C   UNL A   1      37.491  30.037  29.188  1.00  0.00    -0.014 A 
BRANCH  46  47
ATOM     47  C   UNL A   1      38.730  29.529  29.841  1.00  0.00     0.031 A 
ATOM     48  C   UNL A   1      39.157  30.064  31.183  1.00  0.00     0.074 A 
ATOM     49  C   UNL A   1      39.509  28.637  29.196  1.00  0.00     0.049 A 
ATOM     50  N   UNL A   1      40.244  29.814  31.867  1.00  0.00    -0.248 NA
ATOM     51  C   UNL A   1      38.254  31.032  31.822  1.00  0.00     0.031 C 
ATOM     52  C   UNL A   1      39.231  28.072  27.873  1.00  0.00     0.029 A 
ATOM     53  N   UNL A   1      40.700  28.054  29.557  1.00  0.00    -0.354 N 
ATOM     54  C   UNL A   1      40.165  30.605  33.010  1.00  0.00     0.074 A 
ATOM     55  C   UNL A   1      38.951  31.386  32.891  1.00  0.00     0.031 C 
ATOM     56  C   UNL A   1      40.208  27.211  27.547  1.00  0.00     0.029 A 
ATOM     57  C   UNL A   1      41.208  27.195  28.611  1.00  0.00     0.049 A 
ATOM     58  H   UNL A   1      41.149  28.236  30.415  1.00  0.00     0.167 HD
ATOM     59  C   UNL A   1      41.013  30.660  34.068  1.00  0.00     0.034 A 
ATOM     60  C   UNL A   1      42.354  26.485  28.590  1.00  0.00     0.034 A 
ATOM     61  C   UNL A   1      42.214  29.866  34.180  1.00  0.00     0.049 A 
ATOM     62  C   UNL A   1      43.290  26.575  29.769  1.00  0.00     0.074 A 
ATOM     63  C   UNL A   1      43.111  29.803  35.231  1.00  0.00     0.029 A 
ATOM     64  N   UNL A   1      42.690  29.002  33.202  1.00  0.00    -0.354 N 
ATOM     65  N   UNL A   1      43.175  27.293  30.863  1.00  0.00    -0.248 NA
ATOM     66  C   UNL A   1      44.505  25.752  29.714  1.00  0.00     0.031 C 
ATOM     67  C   UNL A   1      44.162  28.954  34.865  1.00  0.00     0.029 A 
ATOM     68  C   UNL A   1      43.883  28.425  33.615  1.00  0.00     0.049 A 
ATOM     69  H   UNL A   1      42.247  28.823  32.341  1.00  0.00     0.167 HD
ATOM     70  C   UNL A   1      44.288  26.981  31.639  1.00  0.00     0.074 A 
ATOM     71  C   UNL A   1      45.052  26.001  30.894  1.00  0.00     0.031 C 
ATOM     72  C   UNL A   1      44.644  27.457  32.860  1.00  0.00     0.034 A 
BRANCH  59  73
ATOM     73  C   UNL A   1      40.679  31.633  35.175  1.00  0.00     0.023 A 
ATOM     74  C   UNL A   1      39.650  31.376  36.099  1.00  0.00     0.031 A 
ATOM     75  C   UNL A   1      41.379  32.847  35.294  1.00  0.00     0.131 A 
ATOM     76  C   UNL A   1      39.298  32.349  37.047  1.00  0.00     0.055 A 
ATOM     77  C   UNL A   1      41.080  33.775  36.294  1.00  0.00     0.041 A 
ATOM     78  F   UNL A   1      42.360  33.158  34.432  1.00  0.00    -0.206 F 
ATOM     79  C   UNL A   1      40.022  33.536  37.167  1.00  0.00     0.022 A 
BRANCH  76  80
ATOM     80  S   UNL A   1      37.789  32.103  38.022  1.00  0.00     0.124 S 
ATOM     81  O   UNL A   1      38.262  32.392  39.374  1.00  0.00    -0.237 OA
ATOM     82  O   UNL A   1      36.876  33.080  37.443  1.00  0.00    -0.237 OA
ATOM     83  O   UNL A   1      37.446  30.704  37.778  1.00  0.00    -0.744 OA
ENDBRANCH  76  80
ENDBRANCH  59  73
BRANCH  60  84
ATOM     84  C   UNL A   1      42.695  25.633  27.415  1.00  0.00     0.023 A 
ATOM     85  C   UNL A   1      42.227  24.313  27.316  1.00  0.00     0.031 A 
ATOM     86  C   UNL A   1      43.534  26.112  26.392  1.00  0.00     0.131 A 
ATOM     87  C   UNL A   1      42.637  23.502  26.247  1.00  0.00     0.055 A 
ATOM     88  C   UNL A   1      43.896  25.318  25.302  1.00  0.00     0.041 A 
ATOM     89  F   UNL A   1      44.007  27.368  26.434  1.00  0.00    -0.206 F 
ATOM     90  C   UNL A   1      43.458  23.999  25.233  1.00  0.00     0.022 A 
BRANCH  87  91
ATOM     91  S   UNL A   1      42.148  21.755  26.245  1.00  0.00     0.124 S 
ATOM     92  O   UNL A   1      42.971  21.218  25.166  1.00  0.00    -0.237 OA
ATOM     93  O   UNL A   1      42.508  21.337  27.595  1.00  0.00    -0.237 OA
ATOM     94  O   UNL A   1      40.713  21.802  25.972  1.00  0.00    -0.744 OA
ENDBRANCH  87  91
ENDBRANCH  60  84
BRANCH  72  95
ATOM     95  C   UNL A   1      45.893  26.882  33.482  1.00  0.00     0.023 A 
ATOM     96  C   UNL A   1      45.884  25.654  34.167  1.00  0.00     0.031 A 
ATOM     97  C   UNL A   1      47.109  27.585  33.403  1.00  0.00     0.131 A 
ATOM     98  C   UNL A   1      47.053  25.194  34.794  1.00  0.00     0.055 A 
ATOM     99  C   UNL A   1      48.282  27.094  33.977  1.00  0.00     0.041 A 
ATOM    100  F   UNL A   1      47.176  28.764  32.764  1.00  0.00    -0.206 F 
ATOM    101  C   UNL A   1      48.256  25.899  34.689  1.00  0.00     0.022 A 
BRANCH  98 102
ATOM    102  S   UNL A   1      46.960  23.710  35.833  1.00  0.00     0.124 S 
ATOM    103  O   UNL A   1      47.628  24.149  37.053  1.00  0.00    -0.237 OA
ATOM    104  O   UNL A   1      45.521  23.493  35.937  1.00  0.00    -0.237 OA
ATOM    105  O   UNL A   1      47.683  22.703  35.058  1.00  0.00    -0.744 OA
ENDBRANCH  98 102
ENDBRANCH  72  95
ENDBRANCH  46  47
ENDBRANCH  38  41
ENDBRANCH  36  37
ENDBRANCH  35  36
ENDBRANCH   1  35
TORSDOF 18
ENDMDL
