MODEL 1
REMARK VINA RESULT:     -12.8      0.000      0.000
REMARK SMILES O=C(NCCCCNC(=O)c1ccc(-c2c3nc(c(-c4cc(S(=O)(=O)[O-])ccc4F)c4ccc([nH]4)c(-c4cc(S(=O)(=O)[O-])ccc4F)c4nc(c(-c5cc(S(=O)(=O)[O-])ccc5F)c5ccc2[nH]5)C=C4)C=C3)cc1)C1=Cc2cc(S(F)(F)(F)(F)F)ccc2O[C@H]1C(F)(F)F
REMARK SMILES IDX 6 1 5 2 4 3 3 4 1 5 2 6 74 8 75 9 89 10 76 11 88 12 77 13
REMARK SMILES IDX 87 14 78 15 86 16 85 17 90 18 91 19 92 20 93 21 79 22 80 23
REMARK SMILES IDX 81 24 82 25 83 26 84 27 7 28 8 29 9 30 10 32 11 33 12 34
REMARK SMILES IDX 73 35 13 36 72 37 14 38 15 39 16 40 66 41 17 42 71 43 65 44
REMARK SMILES IDX 67 45 18 46 70 47 64 48 63 49 19 51 51 52 31 53 50 54 32 55
REMARK SMILES IDX 35 56 49 57 68 58 33 59 34 60 48 62 69 63 36 64 20 65 21 66
REMARK SMILES IDX 29 67 22 68 28 69 30 70 27 71 23 72 24 73 25 74 26 75 52 76
REMARK SMILES IDX 53 77 61 78 54 79 60 80 62 81 59 82 55 83 56 84 57 85 58 86
REMARK SMILES IDX 37 87 38 88 46 89 39 90 45 91 47 92 44 93 40 94 41 95 42 96
REMARK SMILES IDX 43 97
REMARK H PARENT 3 7 8 31 67 50 35 61
REMARK Flexibility Score: inf
ROOT
ATOM      1  C   UNL A   1      31.545  29.166  26.659  1.00  0.00     0.023 C 
ENDROOT
BRANCH   1   2
ATOM      2  C   UNL A   1      32.337  27.989  27.207  1.00  0.00     0.023 C 
BRANCH   2   3
ATOM      3  C   UNL A   1      31.936  26.722  26.468  1.00  0.00     0.116 C 
BRANCH   3   4
ATOM      4  N   UNL A   1      33.011  26.332  25.545  1.00  0.00    -0.352 N 
ATOM      5  O   UNL A   1      33.660  25.069  23.640  1.00  0.00    -0.270 OA
ATOM      6  C   UNL A   1      32.730  25.406  24.438  1.00  0.00     0.251 C 
ATOM      7  H   UNL A   1      33.920  26.690  25.669  1.00  0.00     0.163 HD
BRANCH   6   8
ATOM      8  C   UNL A   1      31.327  24.853  24.249  1.00  0.00     0.067 C 
ATOM      9  C   UNL A   1      30.342  25.651  23.755  1.00  0.00     0.025 C 
ATOM     10  C   UNL A   1      31.026  23.407  24.609  1.00  0.00     0.314 C 
ATOM     11  C   UNL A   1      30.643  27.096  23.394  1.00  0.00     0.019 A 
ATOM     12  O   UNL A   1      32.744  26.450  22.489  1.00  0.00    -0.475 OA
ATOM     13  C   UNL A   1      29.712  28.053  23.763  1.00  0.00     0.036 A 
ATOM     14  C   UNL A   1      31.734  27.424  22.711  1.00  0.00     0.128 A 
ATOM     15  C   UNL A   1      29.878  29.297  23.109  1.00  0.00     0.107 A 
ATOM     16  C   UNL A   1      31.894  28.695  22.216  1.00  0.00     0.048 A 
ATOM     17  C   UNL A   1      30.982  29.677  22.492  1.00  0.00     0.028 A 
BRANCH  10  18
ATOM     18  C   UNL A   1      32.288  22.742  25.133  1.00  0.00     0.429 C 
ATOM     19  F   UNL A   1      31.867  21.554  25.557  1.00  0.00    -0.167 F 
ATOM     20  F   UNL A   1      33.207  22.574  24.186  1.00  0.00    -0.167 F 
ATOM     21  F   UNL A   1      32.817  23.415  26.151  1.00  0.00    -0.167 F 
ENDBRANCH  10  18
BRANCH  15  22
ATOM     22  S   UNL A   1      28.480  30.446  23.118  1.00  0.00     0.310 S 
ATOM     23  F   UNL A   1      29.206  31.426  22.104  1.00  0.00    -0.094 F 
ATOM     24  F   UNL A   1      29.180  31.242  24.282  1.00  0.00    -0.094 F 
ATOM     25  F   UNL A   1      27.282  31.437  23.122  1.00  0.00    -0.094 F 
ATOM     26  F   UNL A   1      27.863  29.719  21.858  1.00  0.00    -0.094 F 
ATOM     27  F   UNL A   1      29.743  29.500  23.026  1.00  0.00    -0.094 F 
ENDBRANCH  15  22
ENDBRANCH   6   8
ENDBRANCH   3   4
ENDBRANCH   2   3
ENDBRANCH   1   2
BRANCH   1  28
ATOM     28  C   UNL A   1      32.502  30.190  26.069  1.00  0.00     0.116 C 
BRANCH  28  29
ATOM     29  N   UNL A   1      31.944  31.539  26.241  1.00  0.00    -0.352 N 
ATOM     30  C   UNL A   1      32.622  32.509  27.113  1.00  0.00     0.251 C 
ATOM     31  H   UNL A   1      31.116  31.792  25.773  1.00  0.00     0.163 HD
ATOM     32  O   UNL A   1      32.139  33.675  27.262  1.00  0.00    -0.269 OA
BRANCH  30  33
ATOM     33  C   UNL A   1      33.900  32.117  27.836  1.00  0.00     0.039 A 
ATOM     34  C   UNL A   1      34.918  33.031  28.048  1.00  0.00     0.014 A 
ATOM     35  C   UNL A   1      34.021  30.851  28.218  1.00  0.00     0.014 A 
ATOM     36  C   UNL A   1      36.151  32.441  28.415  1.00  0.00     0.010 A 
ATOM     37  C   UNL A   1      35.218  30.374  28.695  1.00  0.00     0.010 A 
ATOM     38  C   UNL A   1      36.285  31.210  28.874  1.00  0.00    -0.014 A 
BRANCH  38  39
ATOM     39  C   UNL A   1      37.558  30.747  29.564  1.00  0.00     0.031 A 
ATOM     40  C   UNL A   1      37.756  31.222  30.862  1.00  0.00     0.074 A 
ATOM     41  C   UNL A   1      38.424  29.884  28.915  1.00  0.00     0.049 A 
ATOM     42  N   UNL A   1      38.752  30.919  31.695  1.00  0.00    -0.248 NA
ATOM     43  C   UNL A   1      36.855  32.166  31.540  1.00  0.00     0.031 C 
ATOM     44  C   UNL A   1      38.227  29.393  27.609  1.00  0.00     0.029 A 
ATOM     45  N   UNL A   1      39.601  29.352  29.391  1.00  0.00    -0.354 N 
ATOM     46  C   UNL A   1      38.590  31.555  32.857  1.00  0.00     0.074 A 
ATOM     47  C   UNL A   1      37.371  32.371  32.772  1.00  0.00     0.031 C 
ATOM     48  C   UNL A   1      39.276  28.588  27.299  1.00  0.00     0.029 A 
ATOM     49  C   UNL A   1      40.146  28.560  28.405  1.00  0.00     0.049 A 
ATOM     50  H   UNL A   1      39.987  29.510  30.283  1.00  0.00     0.167 HD
ATOM     51  C   UNL A   1      39.409  31.485  33.986  1.00  0.00     0.034 A 
ATOM     52  C   UNL A   1      41.334  27.846  28.448  1.00  0.00     0.034 A 
ATOM     53  C   UNL A   1      40.575  30.737  34.044  1.00  0.00     0.049 A 
ATOM     54  C   UNL A   1      42.184  27.822  29.557  1.00  0.00     0.074 A 
ATOM     55  C   UNL A   1      41.407  30.649  35.176  1.00  0.00     0.029 A 
ATOM     56  N   UNL A   1      41.131  29.965  33.049  1.00  0.00    -0.354 N 
ATOM     57  N   UNL A   1      42.001  28.426  30.732  1.00  0.00    -0.248 NA
ATOM     58  C   UNL A   1      43.460  27.097  29.602  1.00  0.00     0.031 C 
ATOM     59  C   UNL A   1      42.457  29.843  34.865  1.00  0.00     0.029 A 
ATOM     60  C   UNL A   1      42.297  29.414  33.533  1.00  0.00     0.049 A 
ATOM     61  H   UNL A   1      40.760  29.830  32.147  1.00  0.00     0.167 HD
ATOM     62  C   UNL A   1      43.019  28.156  31.551  1.00  0.00     0.074 A 
ATOM     63  C   UNL A   1      43.976  27.303  30.833  1.00  0.00     0.031 C 
ATOM     64  C   UNL A   1      43.187  28.584  32.868  1.00  0.00     0.034 A 
BRANCH  51  65
ATOM     65  C   UNL A   1      39.000  32.273  35.219  1.00  0.00     0.023 A 
ATOM     66  C   UNL A   1      39.353  33.612  35.253  1.00  0.00     0.031 A 
ATOM     67  C   UNL A   1      38.237  31.738  36.165  1.00  0.00     0.131 A 
ATOM     68  C   UNL A   1      39.090  34.243  36.492  1.00  0.00     0.055 A 
ATOM     69  C   UNL A   1      37.905  32.459  37.287  1.00  0.00     0.041 A 
ATOM     70  F   UNL A   1      37.791  30.493  36.025  1.00  0.00    -0.206 F 
ATOM     71  C   UNL A   1      38.272  33.769  37.415  1.00  0.00     0.022 A 
BRANCH  68  72
ATOM     72  S   UNL A   1      39.931  35.809  36.836  1.00  0.00     0.124 S 
ATOM     73  O   UNL A   1      39.774  36.746  35.637  1.00  0.00    -0.237 OA
ATOM     74  O   UNL A   1      39.311  36.459  38.075  1.00  0.00    -0.237 OA
ATOM     75  O   UNL A   1      41.591  35.514  37.117  1.00  0.00    -0.744 OA
ENDBRANCH  68  72
ENDBRANCH  51  65
BRANCH  52  76
ATOM     76  C   UNL A   1      41.734  27.045  27.220  1.00  0.00     0.023 A 
ATOM     77  C   UNL A   1      41.395  25.704  27.140  1.00  0.00     0.031 A 
ATOM     78  C   UNL A   1      42.509  27.616  26.304  1.00  0.00     0.131 A 
ATOM     79  C   UNL A   1      42.165  24.974  26.205  1.00  0.00     0.055 A 
ATOM     80  C   UNL A   1      43.121  26.858  25.336  1.00  0.00     0.041 A 
ATOM     81  F   UNL A   1      42.692  28.933  26.325  1.00  0.00    -0.206 F 
ATOM     82  C   UNL A   1      42.878  25.516  25.234  1.00  0.00     0.022 A 
BRANCH  79  83
ATOM     83  S   UNL A   1      42.173  23.170  26.347  1.00  0.00     0.124 S 
ATOM     84  O   UNL A   1      42.662  22.557  25.033  1.00  0.00    -0.237 OA
ATOM     85  O   UNL A   1      43.107  22.751  27.485  1.00  0.00    -0.237 OA
ATOM     86  O   UNL A   1      40.589  22.617  26.678  1.00  0.00    -0.744 OA
ENDBRANCH  79  83
ENDBRANCH  52  76
BRANCH  64  87
ATOM     87  C   UNL A   1      44.419  28.111  33.621  1.00  0.00     0.023 A 
ATOM     88  C   UNL A   1      44.397  26.930  34.346  1.00  0.00     0.031 A 
ATOM     89  C   UNL A   1      45.505  28.875  33.583  1.00  0.00     0.131 A 
ATOM     90  C   UNL A   1      45.485  26.786  35.239  1.00  0.00     0.055 A 
ATOM     91  C   UNL A   1      46.585  28.596  34.385  1.00  0.00     0.041 A 
ATOM     92  F   UNL A   1      45.546  29.921  32.761  1.00  0.00    -0.206 F 
ATOM     93  C   UNL A   1      46.607  27.478  35.171  1.00  0.00     0.022 A 
BRANCH  90  94
ATOM     94  S   UNL A   1      45.327  25.566  36.567  1.00  0.00     0.124 S 
ATOM     95  O   UNL A   1      44.726  24.275  36.005  1.00  0.00    -0.237 OA
ATOM     96  O   UNL A   1      46.707  25.272  37.157  1.00  0.00    -0.237 OA
ATOM     97  O   UNL A   1      44.304  26.184  37.790  1.00  0.00    -0.744 OA
ENDBRANCH  90  94
ENDBRANCH  64  87
ENDBRANCH  38  39
ENDBRANCH  30  33
ENDBRANCH  28  29
ENDBRANCH   1  28
TORSDOF 16
ENDMDL
MODEL 2
REMARK VINA RESULT:     -12.7      1.973      3.992
REMARK SMILES O=C(NCCCCNC(=O)c1ccc(-c2c3nc(c(-c4cc(S(=O)(=O)[O-])ccc4F)c4ccc([nH]4)c(-c4cc(S(=O)(=O)[O-])ccc4F)c4nc(c(-c5cc(S(=O)(=O)[O-])ccc5F)c5ccc2[nH]5)C=C4)C=C3)cc1)C1=Cc2cc(S(F)(F)(F)(F)F)ccc2O[C@H]1C(F)(F)F
REMARK SMILES IDX 6 1 5 2 4 3 3 4 1 5 2 6 74 8 75 9 89 10 76 11 88 12 77 13
REMARK SMILES IDX 87 14 78 15 86 16 85 17 90 18 91 19 92 20 93 21 79 22 80 23
REMARK SMILES IDX 81 24 82 25 83 26 84 27 7 28 8 29 9 30 10 32 11 33 12 34
REMARK SMILES IDX 73 35 13 36 72 37 14 38 15 39 16 40 66 41 17 42 71 43 65 44
REMARK SMILES IDX 67 45 18 46 70 47 64 48 63 49 19 51 51 52 31 53 50 54 32 55
REMARK SMILES IDX 35 56 49 57 68 58 33 59 34 60 48 62 69 63 36 64 20 65 21 66
REMARK SMILES IDX 29 67 22 68 28 69 30 70 27 71 23 72 24 73 25 74 26 75 52 76
REMARK SMILES IDX 53 77 61 78 54 79 60 80 62 81 59 82 55 83 56 84 57 85 58 86
REMARK SMILES IDX 37 87 38 88 46 89 39 90 45 91 47 92 44 93 40 94 41 95 42 96
REMARK SMILES IDX 43 97
REMARK H PARENT 3 7 8 31 67 50 35 61
REMARK Flexibility Score: inf
ROOT
ATOM      1  C   UNL A   1      31.726  30.632  26.738  1.00  0.00     0.023 C 
ENDROOT
BRANCH   1   2
ATOM      2  C   UNL A   1      32.223  29.216  26.979  1.00  0.00     0.023 C 
BRANCH   2   3
ATOM      3  C   UNL A   1      32.181  28.436  25.674  1.00  0.00     0.116 C 
BRANCH   3   4
ATOM      4  N   UNL A   1      30.879  27.764  25.546  1.00  0.00    -0.352 N 
ATOM      5  O   UNL A   1      29.252  26.800  24.109  1.00  0.00    -0.270 OA
ATOM      6  C   UNL A   1      30.377  27.381  24.219  1.00  0.00     0.251 C 
ATOM      7  H   UNL A   1      30.344  27.571  26.350  1.00  0.00     0.163 HD
BRANCH   6   8
ATOM      8  C   UNL A   1      31.203  27.680  22.979  1.00  0.00     0.067 C 
ATOM      9  C   UNL A   1      32.238  26.864  22.637  1.00  0.00     0.025 C 
ATOM     10  C   UNL A   1      30.873  28.889  22.120  1.00  0.00     0.314 C 
ATOM     11  C   UNL A   1      32.567  25.654  23.496  1.00  0.00     0.019 A 
ATOM     12  O   UNL A   1      30.251  25.214  23.795  1.00  0.00    -0.475 OA
ATOM     13  C   UNL A   1      33.905  25.403  23.756  1.00  0.00     0.036 A 
ATOM     14  C   UNL A   1      31.615  24.843  23.941  1.00  0.00     0.128 A 
ATOM     15  C   UNL A   1      34.157  24.103  24.254  1.00  0.00     0.107 A 
ATOM     16  C   UNL A   1      31.936  23.650  24.539  1.00  0.00     0.048 A 
ATOM     17  C   UNL A   1      33.239  23.309  24.775  1.00  0.00     0.028 A 
BRANCH  10  18
ATOM     18  C   UNL A   1      29.685  29.625  22.716  1.00  0.00     0.429 C 
ATOM     19  F   UNL A   1      29.585  30.722  21.972  1.00  0.00    -0.167 F 
ATOM     20  F   UNL A   1      28.556  28.927  22.630  1.00  0.00    -0.167 F 
ATOM     21  F   UNL A   1      29.899  29.968  23.983  1.00  0.00    -0.167 F 
ENDBRANCH  10  18
BRANCH  15  22
ATOM     22  S   UNL A   1      35.856  23.484  24.169  1.00  0.00     0.310 S 
ATOM     23  F   UNL A   1      35.441  22.090  24.801  1.00  0.00    -0.094 F 
ATOM     24  F   UNL A   1      36.087  24.004  25.637  1.00  0.00    -0.094 F 
ATOM     25  F   UNL A   1      37.313  22.948  24.099  1.00  0.00    -0.094 F 
ATOM     26  F   UNL A   1      35.562  22.846  22.753  1.00  0.00    -0.094 F 
ATOM     27  F   UNL A   1      34.341  23.922  24.269  1.00  0.00    -0.094 F 
ENDBRANCH  15  22
ENDBRANCH   6   8
ENDBRANCH   3   4
ENDBRANCH   2   3
ENDBRANCH   1   2
BRANCH   1  28
ATOM     28  C   UNL A   1      32.903  31.594  26.766  1.00  0.00     0.116 C 
BRANCH  28  29
ATOM     29  N   UNL A   1      32.438  32.927  27.173  1.00  0.00    -0.352 N 
ATOM     30  C   UNL A   1      33.220  33.716  28.135  1.00  0.00     0.251 C 
ATOM     31  H   UNL A   1      31.601  33.291  26.803  1.00  0.00     0.163 HD
ATOM     32  O   UNL A   1      32.818  34.869  28.488  1.00  0.00    -0.269 OA
BRANCH  30  33
ATOM     33  C   UNL A   1      34.511  33.154  28.708  1.00  0.00     0.039 A 
ATOM     34  C   UNL A   1      35.747  33.535  28.212  1.00  0.00     0.014 A 
ATOM     35  C   UNL A   1      34.406  32.249  29.673  1.00  0.00     0.014 A 
ATOM     36  C   UNL A   1      36.808  32.685  28.603  1.00  0.00     0.010 A 
ATOM     37  C   UNL A   1      35.510  31.550  30.101  1.00  0.00     0.010 A 
ATOM     38  C   UNL A   1      36.754  31.834  29.611  1.00  0.00    -0.014 A 
BRANCH  38  39
ATOM     39  C   UNL A   1      38.007  31.203  30.194  1.00  0.00     0.031 A 
ATOM     40  C   UNL A   1      38.374  31.640  31.469  1.00  0.00     0.074 A 
ATOM     41  C   UNL A   1      38.695  30.237  29.480  1.00  0.00     0.049 A 
ATOM     42  N   UNL A   1      39.388  31.204  32.218  1.00  0.00    -0.248 NA
ATOM     43  C   UNL A   1      37.666  32.691  32.215  1.00  0.00     0.031 C 
ATOM     44  C   UNL A   1      38.326  29.784  28.198  1.00  0.00     0.029 A 
ATOM     45  N   UNL A   1      39.827  29.551  29.860  1.00  0.00    -0.354 N 
ATOM     46  C   UNL A   1      39.408  31.849  33.386  1.00  0.00     0.074 A 
ATOM     47  C   UNL A   1      38.305  32.819  33.398  1.00  0.00     0.031 C 
ATOM     48  C   UNL A   1      39.231  28.849  27.805  1.00  0.00     0.029 A 
ATOM     49  C   UNL A   1      40.178  28.700  28.835  1.00  0.00     0.049 A 
ATOM     50  H   UNL A   1      40.304  29.652  30.715  1.00  0.00     0.167 HD
ATOM     51  C   UNL A   1      40.302  31.665  34.442  1.00  0.00     0.034 A 
ATOM     52  C   UNL A   1      41.261  27.835  28.784  1.00  0.00     0.034 A 
ATOM     53  C   UNL A   1      41.360  30.769  34.408  1.00  0.00     0.049 A 
ATOM     54  C   UNL A   1      42.190  27.693  29.817  1.00  0.00     0.074 A 
ATOM     55  C   UNL A   1      42.265  30.566  35.466  1.00  0.00     0.029 A 
ATOM     56  N   UNL A   1      41.725  29.936  33.373  1.00  0.00    -0.354 N 
ATOM     57  N   UNL A   1      42.187  28.310  31.000  1.00  0.00    -0.248 NA
ATOM     58  C   UNL A   1      43.359  26.806  29.759  1.00  0.00     0.031 C 
ATOM     59  C   UNL A   1      43.170  29.630  35.073  1.00  0.00     0.029 A 
ATOM     60  C   UNL A   1      42.844  29.233  33.762  1.00  0.00     0.049 A 
ATOM     61  H   UNL A   1      41.265  29.856  32.507  1.00  0.00     0.167 HD
ATOM     62  C   UNL A   1      43.226  27.903  31.733  1.00  0.00     0.074 A 
ATOM     63  C   UNL A   1      43.998  26.935  30.942  1.00  0.00     0.031 C 
ATOM     64  C   UNL A   1      43.557  28.297  33.029  1.00  0.00     0.034 A 
BRANCH  51  65
ATOM     65  C   UNL A   1      40.105  32.493  35.701  1.00  0.00     0.023 A 
ATOM     66  C   UNL A   1      39.246  31.982  36.661  1.00  0.00     0.031 A 
ATOM     67  C   UNL A   1      40.813  33.594  35.927  1.00  0.00     0.131 A 
ATOM     68  C   UNL A   1      38.982  32.874  37.727  1.00  0.00     0.055 A 
ATOM     69  C   UNL A   1      40.596  34.345  37.058  1.00  0.00     0.041 A 
ATOM     70  F   UNL A   1      41.738  33.974  35.050  1.00  0.00    -0.206 F 
ATOM     71  C   UNL A   1      39.718  33.931  38.019  1.00  0.00     0.022 A 
BRANCH  68  72
ATOM     72  S   UNL A   1      37.534  32.543  38.762  1.00  0.00     0.124 S 
ATOM     73  O   UNL A   1      37.646  33.341  40.064  1.00  0.00    -0.237 OA
ATOM     74  O   UNL A   1      36.266  32.962  38.015  1.00  0.00    -0.237 OA
ATOM     75  O   UNL A   1      37.460  30.874  39.122  1.00  0.00    -0.744 OA
ENDBRANCH  68  72
ENDBRANCH  51  65
BRANCH  52  76
ATOM     76  C   UNL A   1      41.448  26.995  27.530  1.00  0.00     0.023 A 
ATOM     77  C   UNL A   1      41.021  25.678  27.523  1.00  0.00     0.031 A 
ATOM     78  C   UNL A   1      42.129  27.505  26.510  1.00  0.00     0.131 A 
ATOM     79  C   UNL A   1      41.617  24.889  26.511  1.00  0.00     0.055 A 
ATOM     80  C   UNL A   1      42.563  26.698  25.487  1.00  0.00     0.041 A 
ATOM     81  F   UNL A   1      42.393  28.808  26.480  1.00  0.00    -0.206 F 
ATOM     82  C   UNL A   1      42.228  25.373  25.445  1.00  0.00     0.022 A 
BRANCH  79  83
ATOM     83  S   UNL A   1      41.534  23.090  26.688  1.00  0.00     0.124 S 
ATOM     84  O   UNL A   1      42.314  22.663  27.933  1.00  0.00    -0.237 OA
ATOM     85  O   UNL A   1      40.072  22.657  26.828  1.00  0.00    -0.237 OA
ATOM     86  O   UNL A   1      42.216  22.348  25.306  1.00  0.00    -0.744 OA
ENDBRANCH  79  83
ENDBRANCH  52  76
BRANCH  64  87
ATOM     87  C   UNL A   1      44.776  27.661  33.679  1.00  0.00     0.023 A 
ATOM     88  C   UNL A   1      44.668  26.461  34.362  1.00  0.00     0.031 A 
ATOM     89  C   UNL A   1      45.935  28.303  33.592  1.00  0.00     0.131 A 
ATOM     90  C   UNL A   1      45.788  26.161  35.173  1.00  0.00     0.055 A 
ATOM     91  C   UNL A   1      47.027  27.874  34.308  1.00  0.00     0.041 A 
ATOM     92  F   UNL A   1      46.040  29.371  32.806  1.00  0.00    -0.206 F 
ATOM     93  C   UNL A   1      46.974  26.729  35.052  1.00  0.00     0.022 A 
BRANCH  90  94
ATOM     94  S   UNL A   1      45.580  24.911  36.467  1.00  0.00     0.124 S 
ATOM     95  O   UNL A   1      45.385  23.538  35.822  1.00  0.00    -0.237 OA
ATOM     96  O   UNL A   1      46.825  24.886  37.356  1.00  0.00    -0.237 OA
ATOM     97  O   UNL A   1      44.210  25.295  37.415  1.00  0.00    -0.744 OA
ENDBRANCH  90  94
ENDBRANCH  64  87
ENDBRANCH  38  39
ENDBRANCH  30  33
ENDBRANCH  28  29
ENDBRANCH   1  28
TORSDOF 16
ENDMDL
MODEL 3
REMARK VINA RESULT:     -12.6      1.385      1.708
REMARK SMILES O=C(NCCCCNC(=O)c1ccc(-c2c3nc(c(-c4cc(S(=O)(=O)[O-])ccc4F)c4ccc([nH]4)c(-c4cc(S(=O)(=O)[O-])ccc4F)c4nc(c(-c5cc(S(=O)(=O)[O-])ccc5F)c5ccc2[nH]5)C=C4)C=C3)cc1)C1=Cc2cc(S(F)(F)(F)(F)F)ccc2O[C@H]1C(F)(F)F
REMARK SMILES IDX 6 1 5 2 4 3 3 4 1 5 2 6 74 8 75 9 89 10 76 11 88 12 77 13
REMARK SMILES IDX 87 14 78 15 86 16 85 17 90 18 91 19 92 20 93 21 79 22 80 23
REMARK SMILES IDX 81 24 82 25 83 26 84 27 7 28 8 29 9 30 10 32 11 33 12 34
REMARK SMILES IDX 73 35 13 36 72 37 14 38 15 39 16 40 66 41 17 42 71 43 65 44
REMARK SMILES IDX 67 45 18 46 70 47 64 48 63 49 19 51 51 52 31 53 50 54 32 55
REMARK SMILES IDX 35 56 49 57 68 58 33 59 34 60 48 62 69 63 36 64 20 65 21 66
REMARK SMILES IDX 29 67 22 68 28 69 30 70 27 71 23 72 24 73 25 74 26 75 52 76
REMARK SMILES IDX 53 77 61 78 54 79 60 80 62 81 59 82 55 83 56 84 57 85 58 86
REMARK SMILES IDX 37 87 38 88 46 89 39 90 45 91 47 92 44 93 40 94 41 95 42 96
REMARK SMILES IDX 43 97
REMARK H PARENT 3 7 8 31 67 50 35 61
REMARK Flexibility Score: inf
ROOT
ATOM      1  C   UNL A   1      31.461  29.168  26.239  1.00  0.00     0.023 C 
ENDROOT
BRANCH   1   2
ATOM      2  C   UNL A   1      31.837  28.091  27.244  1.00  0.00     0.023 C 
BRANCH   2   3
ATOM      3  C   UNL A   1      31.646  26.721  26.613  1.00  0.00     0.116 C 
BRANCH   3   4
ATOM      4  N   UNL A   1      32.808  26.403  25.771  1.00  0.00    -0.352 N 
ATOM      5  O   UNL A   1      33.665  25.215  23.900  1.00  0.00    -0.270 OA
ATOM      6  C   UNL A   1      32.660  25.490  24.629  1.00  0.00     0.251 C 
ATOM      7  H   UNL A   1      33.686  26.802  25.972  1.00  0.00     0.163 HD
BRANCH   6   8
ATOM      8  C   UNL A   1      31.306  24.873  24.319  1.00  0.00     0.067 C 
ATOM      9  C   UNL A   1      30.344  25.616  23.706  1.00  0.00     0.025 C 
ATOM     10  C   UNL A   1      31.026  23.427  24.694  1.00  0.00     0.314 C 
ATOM     11  C   UNL A   1      30.624  27.061  23.330  1.00  0.00     0.019 A 
ATOM     12  O   UNL A   1      32.828  26.478  22.657  1.00  0.00    -0.475 OA
ATOM     13  C   UNL A   1      29.624  27.989  23.575  1.00  0.00     0.036 A 
ATOM     14  C   UNL A   1      31.764  27.415  22.748  1.00  0.00     0.128 A 
ATOM     15  C   UNL A   1      29.807  29.220  22.902  1.00  0.00     0.107 A 
ATOM     16  C   UNL A   1      31.923  28.678  22.231  1.00  0.00     0.048 A 
ATOM     17  C   UNL A   1      30.952  29.628  22.384  1.00  0.00     0.028 A 
BRANCH  10  18
ATOM     18  C   UNL A   1      32.255  22.830  25.360  1.00  0.00     0.429 C 
ATOM     19  F   UNL A   1      31.832  21.650  25.804  1.00  0.00    -0.167 F 
ATOM     20  F   UNL A   1      33.260  22.649  24.509  1.00  0.00    -0.167 F 
ATOM     21  F   UNL A   1      32.670  23.567  26.387  1.00  0.00    -0.167 F 
ENDBRANCH  10  18
BRANCH  15  22
ATOM     22  S   UNL A   1      28.372  30.309  22.736  1.00  0.00     0.310 S 
ATOM     23  F   UNL A   1      27.447  29.308  23.549  1.00  0.00    -0.094 F 
ATOM     24  F   UNL A   1      27.962  29.522  21.435  1.00  0.00    -0.094 F 
ATOM     25  F   UNL A   1      27.134  31.240  22.597  1.00  0.00    -0.094 F 
ATOM     26  F   UNL A   1      28.719  30.992  24.118  1.00  0.00    -0.094 F 
ATOM     27  F   UNL A   1      29.567  29.298  22.952  1.00  0.00    -0.094 F 
ENDBRANCH  15  22
ENDBRANCH   6   8
ENDBRANCH   3   4
ENDBRANCH   2   3
ENDBRANCH   1   2
BRANCH   1  28
ATOM     28  C   UNL A   1      32.615  30.146  26.089  1.00  0.00     0.116 C 
BRANCH  28  29
ATOM     29  N   UNL A   1      32.153  31.503  26.414  1.00  0.00    -0.352 N 
ATOM     30  C   UNL A   1      32.965  32.368  27.283  1.00  0.00     0.251 C 
ATOM     31  H   UNL A   1      31.299  31.833  26.051  1.00  0.00     0.163 HD
ATOM     32  O   UNL A   1      32.565  33.541  27.564  1.00  0.00    -0.269 OA
BRANCH  30  33
ATOM     33  C   UNL A   1      34.283  31.859  27.844  1.00  0.00     0.039 A 
ATOM     34  C   UNL A   1      34.422  30.555  28.288  1.00  0.00     0.014 A 
ATOM     35  C   UNL A   1      35.283  32.727  27.932  1.00  0.00     0.014 A 
ATOM     36  C   UNL A   1      35.573  30.339  29.083  1.00  0.00     0.010 A 
ATOM     37  C   UNL A   1      36.435  32.401  28.608  1.00  0.00     0.010 A 
ATOM     38  C   UNL A   1      36.616  31.149  29.125  1.00  0.00    -0.014 A 
BRANCH  38  39
ATOM     39  C   UNL A   1      37.945  30.711  29.717  1.00  0.00     0.031 A 
ATOM     40  C   UNL A   1      38.239  31.207  30.989  1.00  0.00     0.074 A 
ATOM     41  C   UNL A   1      38.769  29.851  29.012  1.00  0.00     0.049 A 
ATOM     42  N   UNL A   1      39.303  30.929  31.744  1.00  0.00    -0.248 NA
ATOM     43  C   UNL A   1      37.383  32.149  31.725  1.00  0.00     0.031 C 
ATOM     44  C   UNL A   1      38.475  29.340  27.733  1.00  0.00     0.029 A 
ATOM     45  N   UNL A   1      39.987  29.340  29.400  1.00  0.00    -0.354 N 
ATOM     46  C   UNL A   1      39.225  31.578  32.908  1.00  0.00     0.074 A 
ATOM     47  C   UNL A   1      37.992  32.378  32.909  1.00  0.00     0.031 C 
ATOM     48  C   UNL A   1      39.507  28.544  27.350  1.00  0.00     0.029 A 
ATOM     49  C   UNL A   1      40.463  28.542  28.384  1.00  0.00     0.049 A 
ATOM     50  H   UNL A   1      40.441  29.516  30.256  1.00  0.00     0.167 HD
ATOM     51  C   UNL A   1      40.132  31.534  33.968  1.00  0.00     0.034 A 
ATOM     52  C   UNL A   1      41.660  27.843  28.342  1.00  0.00     0.034 A 
ATOM     53  C   UNL A   1      41.309  30.802  33.943  1.00  0.00     0.049 A 
ATOM     54  C   UNL A   1      42.596  27.846  29.379  1.00  0.00     0.074 A 
ATOM     55  C   UNL A   1      42.230  30.740  35.005  1.00  0.00     0.029 A 
ATOM     56  N   UNL A   1      41.795  30.023  32.916  1.00  0.00    -0.354 N 
ATOM     57  N   UNL A   1      42.498  28.464  30.557  1.00  0.00    -0.248 NA
ATOM     58  C   UNL A   1      43.881  27.138  29.331  1.00  0.00     0.031 C 
ATOM     59  C   UNL A   1      43.262  29.943  34.622  1.00  0.00     0.029 A 
ATOM     60  C   UNL A   1      43.003  29.494  33.313  1.00  0.00     0.049 A 
ATOM     61  H   UNL A   1      41.355  29.871  32.049  1.00  0.00     0.167 HD
ATOM     62  C   UNL A   1      43.582  28.218  31.296  1.00  0.00     0.074 A 
ATOM     63  C   UNL A   1      44.490  27.367  30.515  1.00  0.00     0.031 C 
ATOM     64  C   UNL A   1      43.848  28.666  32.590  1.00  0.00     0.034 A 
BRANCH  51  65
ATOM     65  C   UNL A   1      39.811  32.334  35.220  1.00  0.00     0.023 A 
ATOM     66  C   UNL A   1      39.152  31.667  36.239  1.00  0.00     0.031 A 
ATOM     67  C   UNL A   1      40.248  33.579  35.380  1.00  0.00     0.131 A 
ATOM     68  C   UNL A   1      38.740  32.506  37.301  1.00  0.00     0.055 A 
ATOM     69  C   UNL A   1      39.920  34.294  36.507  1.00  0.00     0.041 A 
ATOM     70  F   UNL A   1      41.007  34.136  34.442  1.00  0.00    -0.206 F 
ATOM     71  C   UNL A   1      39.219  33.716  37.528  1.00  0.00     0.022 A 
BRANCH  68  72
ATOM     72  S   UNL A   1      37.471  31.878  38.428  1.00  0.00     0.124 S 
ATOM     73  O   UNL A   1      37.149  30.424  38.074  1.00  0.00    -0.237 OA
ATOM     74  O   UNL A   1      37.986  31.950  39.868  1.00  0.00    -0.237 OA
ATOM     75  O   UNL A   1      36.056  32.827  38.280  1.00  0.00    -0.744 OA
ENDBRANCH  68  72
ENDBRANCH  51  65
BRANCH  52  76
ATOM     76  C   UNL A   1      41.972  27.030  27.096  1.00  0.00     0.023 A 
ATOM     77  C   UNL A   1      41.602  25.697  27.041  1.00  0.00     0.031 A 
ATOM     78  C   UNL A   1      42.704  27.583  26.134  1.00  0.00     0.131 A 
ATOM     79  C   UNL A   1      42.302  24.948  26.066  1.00  0.00     0.055 A 
ATOM     80  C   UNL A   1      43.244  26.810  25.136  1.00  0.00     0.041 A 
ATOM     81  F   UNL A   1      42.914  28.896  26.139  1.00  0.00    -0.206 F 
ATOM     82  C   UNL A   1      42.969  25.473  25.054  1.00  0.00     0.022 A 
BRANCH  79  83
ATOM     83  S   UNL A   1      42.282  23.145  26.215  1.00  0.00     0.124 S 
ATOM     84  O   UNL A   1      42.933  22.523  24.978  1.00  0.00    -0.237 OA
ATOM     85  O   UNL A   1      43.059  22.726  27.466  1.00  0.00    -0.237 OA
ATOM     86  O   UNL A   1      40.665  22.601  26.341  1.00  0.00    -0.744 OA
ENDBRANCH  79  83
ENDBRANCH  52  76
BRANCH  64  87
ATOM     87  C   UNL A   1      45.143  28.219  33.248  1.00  0.00     0.023 A 
ATOM     88  C   UNL A   1      45.203  27.033  33.961  1.00  0.00     0.031 A 
ATOM     89  C   UNL A   1      46.204  29.011  33.139  1.00  0.00     0.131 A 
ATOM     90  C   UNL A   1      46.355  26.909  34.773  1.00  0.00     0.055 A 
ATOM     91  C   UNL A   1      47.345  28.753  33.859  1.00  0.00     0.041 A 
ATOM     92  F   UNL A   1      46.160  30.063  32.326  1.00  0.00    -0.206 F 
ATOM     93  C   UNL A   1      47.452  27.630  34.631  1.00  0.00     0.022 A 
BRANCH  90  94
ATOM     94  S   UNL A   1      46.323  25.675  36.097  1.00  0.00     0.124 S 
ATOM     95  O   UNL A   1      45.046  24.840  35.986  1.00  0.00    -0.237 OA
ATOM     96  O   UNL A   1      47.544  24.762  35.973  1.00  0.00    -0.237 OA
ATOM     97  O   UNL A   1      46.355  26.466  37.614  1.00  0.00    -0.744 OA
ENDBRANCH  90  94
ENDBRANCH  64  87
ENDBRANCH  38  39
ENDBRANCH  30  33
ENDBRANCH  28  29
ENDBRANCH   1  28
TORSDOF 16
ENDMDL
