MODEL 1
REMARK VINA RESULT:     -11.6      0.000      0.000
REMARK SMILES Cc1nc(C)n(CC[C@H]2CCC[C@@]2([NH2+]C(C)C)C(=O)NCCCCNC(=O)c2ccc(-c3c4nc(c(-c5cc(S(=O)(=O)[O-])ccc5F)c5ccc([nH]5)c(-c5cc(S(=O)(=O)[O-])ccc5F)c5nc(c(-c6cc(S(=O)(=O)[O-])ccc6F)c6ccc3[nH]6)C=C5)C=C4)cc2)n1
REMARK SMILES IDX 22 1 21 2 20 3 18 4 19 5 13 7 9 8 10 9 11 10 12 11 8 12 7 13
REMARK SMILES IDX 6 14 1 15 2 16 3 17 91 18 4 19 5 20 14 21 15 24 16 25 17 26
REMARK SMILES IDX 23 27 24 28 25 29 26 30 27 32 28 33 29 34 90 35 30 36 89 37
REMARK SMILES IDX 31 38 32 39 33 40 83 41 34 42 88 43 82 44 84 45 35 46 87 47
REMARK SMILES IDX 81 48 80 49 36 51 68 52 48 53 67 54 49 55 52 56 66 57 85 58
REMARK SMILES IDX 50 59 51 60 65 62 86 63 53 64 37 65 38 66 46 67 39 68 45 69
REMARK SMILES IDX 47 70 44 71 40 72 41 73 42 74 43 75 69 76 70 77 78 78 71 79
REMARK SMILES IDX 77 80 79 81 76 82 72 83 73 84 74 85 75 86 54 87 55 88 63 89
REMARK SMILES IDX 56 90 62 91 64 92 61 93 57 94 58 95 59 96 60 97
REMARK H PARENT 20 6 14 22 14 23 25 31 84 50 52 61
REMARK Flexibility Score: inf
ROOT
ATOM      1  C   UNL A   1      32.910  28.099  26.407  1.00  0.00     0.023 C 
ENDROOT
BRANCH   1   2
ATOM      2  C   UNL A   1      33.451  26.660  26.067  1.00  0.00     0.116 C 
BRANCH   2   3
ATOM      3  N   UNL A   1      32.746  25.408  26.447  1.00  0.00    -0.351 N 
ATOM      4  C   UNL A   1      32.647  24.062  26.255  1.00  0.00     0.281 C 
ATOM      5  O   UNL A   1      31.985  23.530  27.176  1.00  0.00    -0.268 OA
ATOM      6  H   UNL A   1      32.066  25.653  27.117  1.00  0.00     0.163 HD
BRANCH   4   7
ATOM      7  C   UNL A   1      33.295  23.034  25.207  1.00  0.00     0.178 C 
ATOM      8  C   UNL A   1      34.812  22.748  25.016  1.00  0.00     0.062 C 
ATOM      9  C   UNL A   1      34.926  21.214  24.863  1.00  0.00     0.011 C 
ATOM     10  C   UNL A   1      33.726  20.597  25.545  1.00  0.00     0.008 C 
ATOM     11  C   UNL A   1      32.640  21.651  25.521  1.00  0.00     0.079 C 
BRANCH   8  12
ATOM     12  C   UNL A   1      35.780  23.317  26.043  1.00  0.00     0.034 C 
BRANCH  12  13
ATOM     13  C   UNL A   1      37.207  23.628  25.512  1.00  0.00     0.147 C 
BRANCH  13  14
ATOM     14  N   UNL A   1      38.371  22.991  26.092  1.00  0.00    -0.250 N 
ATOM     15  C   UNL A   1      40.545  20.233  26.365  1.00  0.00     0.092 C 
ATOM     16  C   UNL A   1      39.839  21.536  26.432  1.00  0.00     0.147 A 
ATOM     17  N   UNL A   1      40.084  22.493  27.374  1.00  0.00    -0.217 NA
ATOM     18  N   UNL A   1      38.867  21.870  25.579  1.00  0.00    -0.156 NA
ATOM     19  C   UNL A   1      39.172  23.414  27.121  1.00  0.00     0.124 A 
ATOM     20  C   UNL A   1      38.956  24.665  27.867  1.00  0.00     0.089 C 
ENDBRANCH  13  14
ENDBRANCH  12  13
ENDBRANCH   8  12
BRANCH   7  21
ATOM     21  N   UNL A   1      32.729  23.312  23.799  1.00  0.00    -0.331 N 
ATOM     22  H   UNL A   1      32.247  22.468  23.489  1.00  0.00     0.347 HD
ATOM     23  H   UNL A   1      33.539  23.580  23.240  1.00  0.00     0.347 HD
BRANCH  21  24
ATOM     24  C   UNL A   1      31.788  24.433  23.657  1.00  0.00     0.176 C 
ATOM     25  C   UNL A   1      32.304  25.454  22.631  1.00  0.00     0.075 C 
ATOM     26  C   UNL A   1      30.395  23.979  23.219  1.00  0.00     0.075 C 
ENDBRANCH  21  24
ENDBRANCH   7  21
ENDBRANCH   4   7
ENDBRANCH   2   3
ENDBRANCH   1   2
BRANCH   1  27
ATOM     27  C   UNL A   1      33.819  29.315  26.720  1.00  0.00     0.023 C 
BRANCH  27  28
ATOM     28  C   UNL A   1      35.189  29.091  27.368  1.00  0.00     0.116 C 
BRANCH  28  29
ATOM     29  N   UNL A   1      35.584  30.092  28.365  1.00  0.00    -0.352 N 
ATOM     30  C   UNL A   1      36.736  30.094  29.136  1.00  0.00     0.251 C 
ATOM     31  H   UNL A   1      34.965  30.845  28.501  1.00  0.00     0.163 HD
ATOM     32  O   UNL A   1      36.838  30.778  30.150  1.00  0.00    -0.269 OA
BRANCH  30  33
ATOM     33  C   UNL A   1      37.840  29.239  28.677  1.00  0.00     0.039 A 
ATOM     34  C   UNL A   1      38.602  29.572  27.552  1.00  0.00     0.014 A 
ATOM     35  C   UNL A   1      38.243  28.255  29.573  1.00  0.00     0.014 A 
ATOM     36  C   UNL A   1      39.856  28.985  27.404  1.00  0.00     0.010 A 
ATOM     37  C   UNL A   1      39.537  27.809  29.505  1.00  0.00     0.010 A 
ATOM     38  C   UNL A   1      40.339  28.137  28.410  1.00  0.00    -0.014 A 
BRANCH  38  39
ATOM     39  C   UNL A   1      41.725  27.675  28.415  1.00  0.00     0.031 A 
ATOM     40  C   UNL A   1      42.023  26.453  27.610  1.00  0.00     0.074 A 
ATOM     41  C   UNL A   1      42.724  28.464  28.865  1.00  0.00     0.049 A 
ATOM     42  N   UNL A   1      42.421  25.299  28.036  1.00  0.00    -0.248 NA
ATOM     43  C   UNL A   1      41.745  26.473  26.165  1.00  0.00     0.031 C 
ATOM     44  C   UNL A   1      42.634  29.838  29.375  1.00  0.00     0.029 A 
ATOM     45  N   UNL A   1      44.064  28.257  28.807  1.00  0.00    -0.354 N 
ATOM     46  C   UNL A   1      42.672  24.520  26.904  1.00  0.00     0.074 A 
ATOM     47  C   UNL A   1      42.043  25.219  25.816  1.00  0.00     0.031 C 
ATOM     48  C   UNL A   1      43.847  30.423  29.310  1.00  0.00     0.029 A 
ATOM     49  C   UNL A   1      44.823  29.411  28.955  1.00  0.00     0.049 A 
ATOM     50  H   UNL A   1      44.463  27.368  28.671  1.00  0.00     0.167 HD
ATOM     51  C   UNL A   1      43.566  23.487  26.933  1.00  0.00     0.034 A 
ATOM     52  C   UNL A   1      46.161  29.544  28.777  1.00  0.00     0.034 A 
ATOM     53  C   UNL A   1      43.923  23.160  28.298  1.00  0.00     0.049 A 
ATOM     54  C   UNL A   1      46.741  28.186  28.928  1.00  0.00     0.074 A 
ATOM     55  C   UNL A   1      43.210  22.785  29.421  1.00  0.00     0.029 A 
ATOM     56  N   UNL A   1      45.142  23.600  28.772  1.00  0.00    -0.354 N 
ATOM     57  N   UNL A   1      46.677  27.505  30.043  1.00  0.00    -0.248 NA
ATOM     58  C   UNL A   1      46.935  27.380  27.730  1.00  0.00     0.031 C 
ATOM     59  C   UNL A   1      43.804  23.526  30.486  1.00  0.00     0.029 A 
ATOM     60  C   UNL A   1      44.903  24.221  29.974  1.00  0.00     0.049 A 
ATOM     61  H   UNL A   1      46.016  23.490  28.332  1.00  0.00     0.167 HD
ATOM     62  C   UNL A   1      46.371  26.208  29.657  1.00  0.00     0.074 A 
ATOM     63  C   UNL A   1      46.658  26.168  28.223  1.00  0.00     0.031 C 
ATOM     64  C   UNL A   1      45.640  25.375  30.460  1.00  0.00     0.034 A 
BRANCH  51  65
ATOM     65  C   UNL A   1      44.401  22.983  25.765  1.00  0.00     0.023 A 
ATOM     66  C   UNL A   1      44.405  21.590  25.531  1.00  0.00     0.031 A 
ATOM     67  C   UNL A   1      45.381  23.715  25.064  1.00  0.00     0.131 A 
ATOM     68  C   UNL A   1      45.409  20.982  24.758  1.00  0.00     0.055 A 
ATOM     69  C   UNL A   1      46.338  23.111  24.238  1.00  0.00     0.041 A 
ATOM     70  F   UNL A   1      45.535  25.036  25.196  1.00  0.00    -0.206 F 
ATOM     71  C   UNL A   1      46.382  21.735  24.111  1.00  0.00     0.022 A 
BRANCH  68  72
ATOM     72  S   UNL A   1      45.537  19.172  24.780  1.00  0.00     0.124 S 
ATOM     73  O   UNL A   1      44.247  18.795  25.349  1.00  0.00    -0.237 OA
ATOM     74  O   UNL A   1      45.732  18.870  23.366  1.00  0.00    -0.237 OA
ATOM     75  O   UNL A   1      46.694  18.925  25.636  1.00  0.00    -0.744 OA
ENDBRANCH  68  72
ENDBRANCH  51  65
BRANCH  52  76
ATOM     76  C   UNL A   1      46.858  30.725  28.204  1.00  0.00     0.023 A 
ATOM     77  C   UNL A   1      46.230  31.640  27.338  1.00  0.00     0.031 A 
ATOM     78  C   UNL A   1      48.144  31.080  28.679  1.00  0.00     0.131 A 
ATOM     79  C   UNL A   1      46.886  32.841  26.978  1.00  0.00     0.055 A 
ATOM     80  C   UNL A   1      48.790  32.262  28.313  1.00  0.00     0.041 A 
ATOM     81  F   UNL A   1      48.786  30.320  29.581  1.00  0.00    -0.206 F 
ATOM     82  C   UNL A   1      48.159  33.154  27.463  1.00  0.00     0.022 A 
BRANCH  79  83
ATOM     83  S   UNL A   1      46.039  34.067  25.931  1.00  0.00     0.124 S 
ATOM     84  O   UNL A   1      45.462  34.971  26.919  1.00  0.00    -0.237 OA
ATOM     85  O   UNL A   1      47.131  34.599  25.125  1.00  0.00    -0.237 OA
ATOM     86  O   UNL A   1      45.064  33.267  25.187  1.00  0.00    -0.744 OA
ENDBRANCH  79  83
ENDBRANCH  52  76
BRANCH  64  87
ATOM     87  C   UNL A   1      45.374  25.783  31.898  1.00  0.00     0.023 A 
ATOM     88  C   UNL A   1      46.295  25.639  32.962  1.00  0.00     0.031 A 
ATOM     89  C   UNL A   1      44.193  26.501  32.157  1.00  0.00     0.131 A 
ATOM     90  C   UNL A   1      46.015  26.203  34.223  1.00  0.00     0.055 A 
ATOM     91  C   UNL A   1      43.928  27.075  33.400  1.00  0.00     0.041 A 
ATOM     92  F   UNL A   1      43.292  26.704  31.182  1.00  0.00    -0.206 F 
ATOM     93  C   UNL A   1      44.836  26.925  34.440  1.00  0.00     0.022 A 
BRANCH  90  94
ATOM     94  S   UNL A   1      47.176  26.004  35.615  1.00  0.00     0.124 S 
ATOM     95  O   UNL A   1      48.124  27.096  35.432  1.00  0.00    -0.237 OA
ATOM     96  O   UNL A   1      46.298  26.107  36.778  1.00  0.00    -0.237 OA
ATOM     97  O   UNL A   1      47.739  24.669  35.399  1.00  0.00    -0.744 OA
ENDBRANCH  90  94
ENDBRANCH  64  87
ENDBRANCH  38  39
ENDBRANCH  30  33
ENDBRANCH  28  29
ENDBRANCH  27  28
ENDBRANCH   1  27
TORSDOF 19
ENDMDL
MODEL 2
REMARK VINA RESULT:     -11.6      3.099      8.365
REMARK SMILES Cc1nc(C)n(CC[C@H]2CCC[C@@]2([NH2+]C(C)C)C(=O)NCCCCNC(=O)c2ccc(-c3c4nc(c(-c5cc(S(=O)(=O)[O-])ccc5F)c5ccc([nH]5)c(-c5cc(S(=O)(=O)[O-])ccc5F)c5nc(c(-c6cc(S(=O)(=O)[O-])ccc6F)c6ccc3[nH]6)C=C5)C=C4)cc2)n1
REMARK SMILES IDX 22 1 21 2 20 3 18 4 19 5 13 7 9 8 10 9 11 10 12 11 8 12 7 13
REMARK SMILES IDX 6 14 1 15 2 16 3 17 91 18 4 19 5 20 14 21 15 24 16 25 17 26
REMARK SMILES IDX 23 27 24 28 25 29 26 30 27 32 28 33 29 34 90 35 30 36 89 37
REMARK SMILES IDX 31 38 32 39 33 40 83 41 34 42 88 43 82 44 84 45 35 46 87 47
REMARK SMILES IDX 81 48 80 49 36 51 68 52 48 53 67 54 49 55 52 56 66 57 85 58
REMARK SMILES IDX 50 59 51 60 65 62 86 63 53 64 37 65 38 66 46 67 39 68 45 69
REMARK SMILES IDX 47 70 44 71 40 72 41 73 42 74 43 75 69 76 70 77 78 78 71 79
REMARK SMILES IDX 77 80 79 81 76 82 72 83 73 84 74 85 75 86 54 87 55 88 63 89
REMARK SMILES IDX 56 90 62 91 64 92 61 93 57 94 58 95 59 96 60 97
REMARK H PARENT 20 6 14 22 14 23 25 31 84 50 52 61
REMARK Flexibility Score: inf
ROOT
ATOM      1  C   UNL A   1      32.335  29.401  27.059  1.00  0.00     0.023 C 
ENDROOT
BRANCH   1   2
ATOM      2  C   UNL A   1      31.375  28.276  27.601  1.00  0.00     0.116 C 
BRANCH   2   3
ATOM      3  N   UNL A   1      31.433  26.861  27.149  1.00  0.00    -0.351 N 
ATOM      4  C   UNL A   1      31.837  26.002  26.172  1.00  0.00     0.281 C 
ATOM      5  O   UNL A   1      31.827  24.820  26.588  1.00  0.00    -0.268 OA
ATOM      6  H   UNL A   1      30.999  26.319  27.848  1.00  0.00     0.163 HD
BRANCH   4   7
ATOM      7  C   UNL A   1      32.433  26.193  24.694  1.00  0.00     0.178 C 
ATOM      8  C   UNL A   1      31.737  26.922  23.509  1.00  0.00     0.062 C 
ATOM      9  C   UNL A   1      32.844  27.768  22.839  1.00  0.00     0.011 C 
ATOM     10  C   UNL A   1      33.904  28.040  23.881  1.00  0.00     0.008 C 
ATOM     11  C   UNL A   1      33.805  26.914  24.887  1.00  0.00     0.079 C 
BRANCH   8  12
ATOM     12  C   UNL A   1      30.475  27.720  23.804  1.00  0.00     0.034 C 
BRANCH  12  13
ATOM     13  C   UNL A   1      29.821  28.410  22.576  1.00  0.00     0.147 C 
BRANCH  13  14
ATOM     14  N   UNL A   1      29.011  29.600  22.736  1.00  0.00    -0.250 N 
ATOM     15  C   UNL A   1      28.701  33.107  22.879  1.00  0.00     0.092 C 
ATOM     16  C   UNL A   1      28.520  31.635  22.828  1.00  0.00     0.147 A 
ATOM     17  N   UNL A   1      27.370  30.991  23.183  1.00  0.00    -0.217 NA
ATOM     18  N   UNL A   1      29.497  30.805  22.454  1.00  0.00    -0.156 NA
ATOM     19  C   UNL A   1      27.690  29.714  23.086  1.00  0.00     0.124 A 
ATOM     20  C   UNL A   1      26.822  28.564  23.391  1.00  0.00     0.089 C 
ENDBRANCH  13  14
ENDBRANCH  12  13
ENDBRANCH   8  12
BRANCH   7  21
ATOM     21  N   UNL A   1      32.896  24.827  24.146  1.00  0.00    -0.331 N 
ATOM     22  H   UNL A   1      32.828  24.151  24.908  1.00  0.00     0.347 HD
ATOM     23  H   UNL A   1      33.838  24.993  23.794  1.00  0.00     0.347 HD
BRANCH  21  24
ATOM     24  C   UNL A   1      32.160  24.273  23.000  1.00  0.00     0.176 C 
ATOM     25  C   UNL A   1      33.088  23.436  22.106  1.00  0.00     0.075 C 
ATOM     26  C   UNL A   1      30.986  23.391  23.427  1.00  0.00     0.075 C 
ENDBRANCH  21  24
ENDBRANCH   7  21
ENDBRANCH   4   7
ENDBRANCH   2   3
ENDBRANCH   1   2
BRANCH   1  27
ATOM     27  C   UNL A   1      33.864  29.431  27.314  1.00  0.00     0.023 C 
BRANCH  27  28
ATOM     28  C   UNL A   1      34.612  30.767  27.283  1.00  0.00     0.116 C 
BRANCH  28  29
ATOM     29  N   UNL A   1      34.554  31.549  28.523  1.00  0.00    -0.352 N 
ATOM     30  C   UNL A   1      35.485  31.559  29.549  1.00  0.00     0.251 C 
ATOM     31  H   UNL A   1      33.769  32.132  28.638  1.00  0.00     0.163 HD
ATOM     32  O   UNL A   1      35.215  31.984  30.669  1.00  0.00    -0.269 OA
BRANCH  30  33
ATOM     33  C   UNL A   1      36.823  31.038  29.233  1.00  0.00     0.039 A 
ATOM     34  C   UNL A   1      37.968  31.827  29.386  1.00  0.00     0.014 A 
ATOM     35  C   UNL A   1      36.897  29.662  29.047  1.00  0.00     0.014 A 
ATOM     36  C   UNL A   1      39.204  31.191  29.479  1.00  0.00     0.010 A 
ATOM     37  C   UNL A   1      38.091  29.039  29.301  1.00  0.00     0.010 A 
ATOM     38  C   UNL A   1      39.254  29.790  29.482  1.00  0.00    -0.014 A 
BRANCH  38  39
ATOM     39  C   UNL A   1      40.488  29.075  29.798  1.00  0.00     0.031 A 
ATOM     40  C   UNL A   1      40.714  28.738  31.236  1.00  0.00     0.074 A 
ATOM     41  C   UNL A   1      41.227  28.492  28.830  1.00  0.00     0.049 A 
ATOM     42  N   UNL A   1      41.647  29.174  32.017  1.00  0.00    -0.248 NA
ATOM     43  C   UNL A   1      39.725  27.897  31.929  1.00  0.00     0.031 C 
ATOM     44  C   UNL A   1      40.953  28.440  27.388  1.00  0.00     0.029 A 
ATOM     45  N   UNL A   1      42.304  27.675  28.955  1.00  0.00    -0.354 N 
ATOM     46  C   UNL A   1      41.510  28.488  33.225  1.00  0.00     0.074 A 
ATOM     47  C   UNL A   1      40.203  27.889  33.175  1.00  0.00     0.031 C 
ATOM     48  C   UNL A   1      41.654  27.432  26.832  1.00  0.00     0.029 A 
ATOM     49  C   UNL A   1      42.570  26.910  27.827  1.00  0.00     0.049 A 
ATOM     50  H   UNL A   1      42.848  27.629  29.775  1.00  0.00     0.167 HD
ATOM     51  C   UNL A   1      42.574  28.294  34.061  1.00  0.00     0.034 A 
ATOM     52  C   UNL A   1      43.464  25.897  27.714  1.00  0.00     0.034 A 
ATOM     53  C   UNL A   1      43.688  29.132  33.669  1.00  0.00     0.049 A 
ATOM     54  C   UNL A   1      44.463  26.095  28.794  1.00  0.00     0.074 A 
ATOM     55  C   UNL A   1      43.863  30.493  33.504  1.00  0.00     0.029 A 
ATOM     56  N   UNL A   1      44.730  28.545  32.982  1.00  0.00    -0.354 N 
ATOM     57  N   UNL A   1      45.241  27.144  28.858  1.00  0.00    -0.248 NA
ATOM     58  C   UNL A   1      44.256  25.409  30.061  1.00  0.00     0.031 C 
ATOM     59  C   UNL A   1      44.632  30.611  32.307  1.00  0.00     0.029 A 
ATOM     60  C   UNL A   1      44.969  29.326  31.877  1.00  0.00     0.049 A 
ATOM     61  H   UNL A   1      45.210  27.724  33.235  1.00  0.00     0.167 HD
ATOM     62  C   UNL A   1      45.249  27.506  30.198  1.00  0.00     0.074 A 
ATOM     63  C   UNL A   1      44.723  26.338  30.903  1.00  0.00     0.031 C 
ATOM     64  C   UNL A   1      45.398  28.810  30.587  1.00  0.00     0.034 A 
BRANCH  51  65
ATOM     65  C   UNL A   1      42.773  27.122  35.010  1.00  0.00     0.023 A 
ATOM     66  C   UNL A   1      43.587  26.059  34.559  1.00  0.00     0.031 A 
ATOM     67  C   UNL A   1      42.021  26.853  36.172  1.00  0.00     0.131 A 
ATOM     68  C   UNL A   1      43.532  24.790  35.160  1.00  0.00     0.055 A 
ATOM     69  C   UNL A   1      42.023  25.605  36.810  1.00  0.00     0.041 A 
ATOM     70  F   UNL A   1      41.177  27.737  36.713  1.00  0.00    -0.206 F 
ATOM     71  C   UNL A   1      42.750  24.553  36.284  1.00  0.00     0.022 A 
BRANCH  68  72
ATOM     72  S   UNL A   1      44.349  23.403  34.322  1.00  0.00     0.124 S 
ATOM     73  O   UNL A   1      44.759  22.577  35.453  1.00  0.00    -0.237 OA
ATOM     74  O   UNL A   1      43.268  22.876  33.496  1.00  0.00    -0.237 OA
ATOM     75  O   UNL A   1      45.438  24.044  33.590  1.00  0.00    -0.744 OA
ENDBRANCH  68  72
ENDBRANCH  51  65
BRANCH  52  76
ATOM     76  C   UNL A   1      43.290  24.658  26.911  1.00  0.00     0.023 A 
ATOM     77  C   UNL A   1      42.341  23.668  27.226  1.00  0.00     0.031 A 
ATOM     78  C   UNL A   1      43.955  24.529  25.667  1.00  0.00     0.131 A 
ATOM     79  C   UNL A   1      42.096  22.607  26.322  1.00  0.00     0.055 A 
ATOM     80  C   UNL A   1      43.715  23.475  24.783  1.00  0.00     0.041 A 
ATOM     81  F   UNL A   1      44.809  25.470  25.234  1.00  0.00    -0.206 F 
ATOM     82  C   UNL A   1      42.776  22.510  25.105  1.00  0.00     0.022 A 
BRANCH  79  83
ATOM     83  S   UNL A   1      40.803  21.376  26.685  1.00  0.00     0.124 S 
ATOM     84  O   UNL A   1      39.645  21.931  25.996  1.00  0.00    -0.237 OA
ATOM     85  O   UNL A   1      41.369  20.154  26.124  1.00  0.00    -0.237 OA
ATOM     86  O   UNL A   1      40.716  21.393  28.146  1.00  0.00    -0.744 OA
ENDBRANCH  79  83
ENDBRANCH  52  76
BRANCH  64  87
ATOM     87  C   UNL A   1      45.815  29.844  29.557  1.00  0.00     0.023 A 
ATOM     88  C   UNL A   1      44.967  30.379  28.560  1.00  0.00     0.031 A 
ATOM     89  C   UNL A   1      47.086  30.427  29.707  1.00  0.00     0.131 A 
ATOM     90  C   UNL A   1      45.404  31.456  27.761  1.00  0.00     0.055 A 
ATOM     91  C   UNL A   1      47.508  31.505  28.929  1.00  0.00     0.041 A 
ATOM     92  F   UNL A   1      47.928  29.989  30.657  1.00  0.00    -0.206 F 
ATOM     93  C   UNL A   1      46.669  32.021  27.950  1.00  0.00     0.022 A 
BRANCH  90  94
ATOM     94  S   UNL A   1      44.336  32.142  26.452  1.00  0.00     0.124 S 
ATOM     95  O   UNL A   1      43.397  31.063  26.172  1.00  0.00    -0.237 OA
ATOM     96  O   UNL A   1      43.775  33.330  27.090  1.00  0.00    -0.237 OA
ATOM     97  O   UNL A   1      45.275  32.427  25.364  1.00  0.00    -0.744 OA
ENDBRANCH  90  94
ENDBRANCH  64  87
ENDBRANCH  38  39
ENDBRANCH  30  33
ENDBRANCH  28  29
ENDBRANCH  27  28
ENDBRANCH   1  27
TORSDOF 19
ENDMDL
MODEL 3
REMARK VINA RESULT:     -11.4      4.337     10.494
REMARK SMILES Cc1nc(C)n(CC[C@H]2CCC[C@@]2([NH2+]C(C)C)C(=O)NCCCCNC(=O)c2ccc(-c3c4nc(c(-c5cc(S(=O)(=O)[O-])ccc5F)c5ccc([nH]5)c(-c5cc(S(=O)(=O)[O-])ccc5F)c5nc(c(-c6cc(S(=O)(=O)[O-])ccc6F)c6ccc3[nH]6)C=C5)C=C4)cc2)n1
REMARK SMILES IDX 22 1 21 2 20 3 18 4 19 5 13 7 9 8 10 9 11 10 12 11 8 12 7 13
REMARK SMILES IDX 6 14 1 15 2 16 3 17 91 18 4 19 5 20 14 21 15 24 16 25 17 26
REMARK SMILES IDX 23 27 24 28 25 29 26 30 27 32 28 33 29 34 90 35 30 36 89 37
REMARK SMILES IDX 31 38 32 39 33 40 83 41 34 42 88 43 82 44 84 45 35 46 87 47
REMARK SMILES IDX 81 48 80 49 36 51 68 52 48 53 67 54 49 55 52 56 66 57 85 58
REMARK SMILES IDX 50 59 51 60 65 62 86 63 53 64 37 65 38 66 46 67 39 68 45 69
REMARK SMILES IDX 47 70 44 71 40 72 41 73 42 74 43 75 69 76 70 77 78 78 71 79
REMARK SMILES IDX 77 80 79 81 76 82 72 83 73 84 74 85 75 86 54 87 55 88 63 89
REMARK SMILES IDX 56 90 62 91 64 92 61 93 57 94 58 95 59 96 60 97
REMARK H PARENT 20 6 14 22 14 23 25 31 84 50 52 61
REMARK Flexibility Score: inf
ROOT
ATOM      1  C   UNL A   1      37.546  22.486  25.472  1.00  0.00     0.023 C 
ENDROOT
BRANCH   1   2
ATOM      2  C   UNL A   1      36.421  23.509  25.883  1.00  0.00     0.116 C 
BRANCH   2   3
ATOM      3  N   UNL A   1      35.289  23.165  26.782  1.00  0.00    -0.351 N 
ATOM      4  C   UNL A   1      34.038  22.633  26.873  1.00  0.00     0.281 C 
ATOM      5  O   UNL A   1      33.756  22.361  28.063  1.00  0.00    -0.268 OA
ATOM      6  H   UNL A   1      35.554  23.431  27.693  1.00  0.00     0.163 HD
BRANCH   4   7
ATOM      7  C   UNL A   1      32.940  22.172  25.795  1.00  0.00     0.178 C 
ATOM      8  C   UNL A   1      31.445  22.598  25.767  1.00  0.00     0.062 C 
ATOM      9  C   UNL A   1      31.128  22.891  24.282  1.00  0.00     0.011 C 
ATOM     10  C   UNL A   1      32.429  23.248  23.600  1.00  0.00     0.008 C 
ATOM     11  C   UNL A   1      33.523  22.582  24.406  1.00  0.00     0.079 C 
BRANCH   8  12
ATOM     12  C   UNL A   1      31.003  23.716  26.701  1.00  0.00     0.034 C 
BRANCH  12  13
ATOM     13  C   UNL A   1      30.180  24.853  26.036  1.00  0.00     0.147 C 
BRANCH  13  14
ATOM     14  N   UNL A   1      30.734  26.183  25.888  1.00  0.00    -0.250 N 
ATOM     15  C   UNL A   1      32.138  29.097  27.282  1.00  0.00     0.092 C 
ATOM     16  C   UNL A   1      31.618  28.005  26.423  1.00  0.00     0.147 A 
ATOM     17  N   UNL A   1      31.327  28.145  25.097  1.00  0.00    -0.217 NA
ATOM     18  N   UNL A   1      31.359  26.783  26.896  1.00  0.00    -0.156 NA
ATOM     19  C   UNL A   1      30.804  26.977  24.772  1.00  0.00     0.124 A 
ATOM     20  C   UNL A   1      30.276  26.586  23.454  1.00  0.00     0.089 C 
ENDBRANCH  13  14
ENDBRANCH  12  13
ENDBRANCH   8  12
BRANCH   7  21
ATOM     21  N   UNL A   1      32.952  20.634  25.676  1.00  0.00    -0.331 N 
ATOM     22  H   UNL A   1      31.989  20.311  25.772  1.00  0.00     0.347 HD
ATOM     23  H   UNL A   1      33.591  20.321  26.406  1.00  0.00     0.347 HD
BRANCH  21  24
ATOM     24  C   UNL A   1      33.488  20.056  24.435  1.00  0.00     0.176 C 
ATOM     25  C   UNL A   1      34.663  19.112  24.734  1.00  0.00     0.075 C 
ATOM     26  C   UNL A   1      32.435  19.273  23.649  1.00  0.00     0.075 C 
ENDBRANCH  21  24
ENDBRANCH   7  21
ENDBRANCH   4   7
ENDBRANCH   2   3
ENDBRANCH   1   2
BRANCH   1  27
ATOM     27  C   UNL A   1      38.929  22.394  26.168  1.00  0.00     0.023 C 
BRANCH  27  28
ATOM     28  C   UNL A   1      39.562  23.653  26.766  1.00  0.00     0.116 C 
BRANCH  28  29
ATOM     29  N   UNL A   1      40.753  24.151  26.067  1.00  0.00    -0.352 N 
ATOM     30  C   UNL A   1      41.099  25.474  25.845  1.00  0.00     0.251 C 
ATOM     31  H   UNL A   1      41.374  23.471  25.718  1.00  0.00     0.163 HD
ATOM     32  O   UNL A   1      41.924  25.796  24.995  1.00  0.00    -0.269 OA
BRANCH  30  33
ATOM     33  C   UNL A   1      40.434  26.481  26.684  1.00  0.00     0.039 A 
ATOM     34  C   UNL A   1      39.813  26.132  27.888  1.00  0.00     0.014 A 
ATOM     35  C   UNL A   1      40.700  27.804  26.350  1.00  0.00     0.014 A 
ATOM     36  C   UNL A   1      39.575  27.135  28.826  1.00  0.00     0.010 A 
ATOM     37  C   UNL A   1      40.610  28.751  27.337  1.00  0.00     0.010 A 
ATOM     38  C   UNL A   1      40.018  28.438  28.562  1.00  0.00    -0.014 A 
BRANCH  38  39
ATOM     39  C   UNL A   1      39.994  29.472  29.594  1.00  0.00     0.031 A 
ATOM     40  C   UNL A   1      38.699  30.190  29.789  1.00  0.00     0.074 A 
ATOM     41  C   UNL A   1      40.979  29.567  30.513  1.00  0.00     0.049 A 
ATOM     42  N   UNL A   1      38.445  31.441  29.583  1.00  0.00    -0.248 NA
ATOM     43  C   UNL A   1      37.507  29.409  30.155  1.00  0.00     0.031 C 
ATOM     44  C   UNL A   1      42.162  28.710  30.666  1.00  0.00     0.029 A 
ATOM     45  N   UNL A   1      41.044  30.359  31.614  1.00  0.00    -0.354 N 
ATOM     46  C   UNL A   1      37.135  31.659  30.015  1.00  0.00     0.074 A 
ATOM     47  C   UNL A   1      36.558  30.349  30.152  1.00  0.00     0.031 C 
ATOM     48  C   UNL A   1      42.654  28.839  31.914  1.00  0.00     0.029 A 
ATOM     49  C   UNL A   1      41.956  29.929  32.569  1.00  0.00     0.049 A 
ATOM     50  H   UNL A   1      40.493  31.167  31.725  1.00  0.00     0.167 HD
ATOM     51  C   UNL A   1      36.718  32.891  30.434  1.00  0.00     0.034 A 
ATOM     52  C   UNL A   1      42.119  30.411  33.826  1.00  0.00     0.034 A 
ATOM     53  C   UNL A   1      37.684  33.907  30.071  1.00  0.00     0.049 A 
ATOM     54  C   UNL A   1      41.559  31.786  33.823  1.00  0.00     0.074 A 
ATOM     55  C   UNL A   1      38.244  34.326  28.879  1.00  0.00     0.029 A 
ATOM     56  N   UNL A   1      38.525  34.383  31.055  1.00  0.00    -0.354 N 
ATOM     57  N   UNL A   1      42.050  32.752  33.090  1.00  0.00    -0.248 NA
ATOM     58  C   UNL A   1      40.171  31.968  34.225  1.00  0.00     0.031 C 
ATOM     59  C   UNL A   1      39.625  34.525  29.183  1.00  0.00     0.029 A 
ATOM     60  C   UNL A   1      39.803  34.320  30.554  1.00  0.00     0.049 A 
ATOM     61  H   UNL A   1      38.260  34.706  31.946  1.00  0.00     0.167 HD
ATOM     62  C   UNL A   1      40.943  33.411  32.573  1.00  0.00     0.074 A 
ATOM     63  C   UNL A   1      39.822  32.959  33.397  1.00  0.00     0.031 C 
ATOM     64  C   UNL A   1      40.981  34.026  31.351  1.00  0.00     0.034 A 
BRANCH  51  65
ATOM     65  C   UNL A   1      35.637  33.175  31.467  1.00  0.00     0.023 A 
ATOM     66  C   UNL A   1      34.684  34.166  31.145  1.00  0.00     0.031 A 
ATOM     67  C   UNL A   1      35.640  32.756  32.813  1.00  0.00     0.131 A 
ATOM     68  C   UNL A   1      33.900  34.776  32.140  1.00  0.00     0.055 A 
ATOM     69  C   UNL A   1      34.806  33.318  33.789  1.00  0.00     0.041 A 
ATOM     70  F   UNL A   1      36.498  31.849  33.291  1.00  0.00    -0.206 F 
ATOM     71  C   UNL A   1      33.957  34.360  33.464  1.00  0.00     0.022 A 
BRANCH  68  72
ATOM     72  S   UNL A   1      32.951  36.259  31.701  1.00  0.00     0.124 S 
ATOM     73  O   UNL A   1      31.754  36.094  32.519  1.00  0.00    -0.237 OA
ATOM     74  O   UNL A   1      33.863  37.325  32.099  1.00  0.00    -0.237 OA
ATOM     75  O   UNL A   1      32.748  36.116  30.261  1.00  0.00    -0.744 OA
ENDBRANCH  68  72
ENDBRANCH  51  65
BRANCH  52  76
ATOM     76  C   UNL A   1      42.459  29.616  35.035  1.00  0.00     0.023 A 
ATOM     77  C   UNL A   1      41.787  28.431  35.386  1.00  0.00     0.031 A 
ATOM     78  C   UNL A   1      43.624  29.930  35.776  1.00  0.00     0.131 A 
ATOM     79  C   UNL A   1      42.277  27.623  36.440  1.00  0.00     0.055 A 
ATOM     80  C   UNL A   1      44.098  29.134  36.820  1.00  0.00     0.041 A 
ATOM     81  F   UNL A   1      44.387  30.989  35.457  1.00  0.00    -0.206 F 
ATOM     82  C   UNL A   1      43.428  27.969  37.153  1.00  0.00     0.022 A 
BRANCH  79  83
ATOM     83  S   UNL A   1      41.462  26.043  36.836  1.00  0.00     0.124 S 
ATOM     84  O   UNL A   1      40.485  26.443  37.842  1.00  0.00    -0.237 OA
ATOM     85  O   UNL A   1      40.931  25.632  35.542  1.00  0.00    -0.237 OA
ATOM     86  O   UNL A   1      42.556  25.211  37.339  1.00  0.00    -0.744 OA
ENDBRANCH  79  83
ENDBRANCH  52  76
BRANCH  64  87
ATOM     87  C   UNL A   1      42.321  34.213  30.662  1.00  0.00     0.023 A 
ATOM     88  C   UNL A   1      42.788  33.434  29.578  1.00  0.00     0.031 A 
ATOM     89  C   UNL A   1      43.079  35.342  31.021  1.00  0.00     0.131 A 
ATOM     90  C   UNL A   1      43.970  33.797  28.902  1.00  0.00     0.055 A 
ATOM     91  C   UNL A   1      44.237  35.711  30.337  1.00  0.00     0.041 A 
ATOM     92  F   UNL A   1      42.674  36.144  32.019  1.00  0.00    -0.206 F 
ATOM     93  C   UNL A   1      44.690  34.936  29.276  1.00  0.00     0.022 A 
BRANCH  90  94
ATOM     94  S   UNL A   1      44.604  32.790  27.520  1.00  0.00     0.124 S 
ATOM     95  O   UNL A   1      44.045  31.467  27.773  1.00  0.00    -0.237 OA
ATOM     96  O   UNL A   1      44.083  33.491  26.350  1.00  0.00    -0.237 OA
ATOM     97  O   UNL A   1      46.058  32.874  27.677  1.00  0.00    -0.744 OA
ENDBRANCH  90  94
ENDBRANCH  64  87
ENDBRANCH  38  39
ENDBRANCH  30  33
ENDBRANCH  28  29
ENDBRANCH  27  28
ENDBRANCH   1  27
TORSDOF 19
ENDMDL
