MODEL 1
REMARK VINA RESULT:     -12.6      0.000      0.000
REMARK SMILES COC(=O)c1ccc(Cl)c(-c2ccc(F)cc2C(=O)NCCCCNC(=O)c2ccc(-c3c4nc(c(-c5cc(S(=O)(=O)[O-])ccc5F)c5ccc([nH]5)c(-c5cc(S(=O)(=O)[O-])ccc5F)c5nc(c(-c6cc(S(=O)(=O)[O-])ccc6F)c6ccc3[nH]6)C=C5)C=C4)cc2)c1
REMARK SMILES IDX 22 1 21 2 20 3 18 4 19 5 17 7 11 8 12 9 13 10 16 11 14 12
REMARK SMILES IDX 15 13 10 14 5 15 6 16 91 17 7 18 8 19 9 20 3 21 4 22 2 23
REMARK SMILES IDX 1 24 23 25 24 26 25 27 26 28 27 30 28 31 29 32 90 33 30 34
REMARK SMILES IDX 89 35 31 36 32 37 33 38 83 39 34 40 88 41 82 42 84 43 35 44
REMARK SMILES IDX 87 45 81 46 80 47 36 49 68 50 48 51 67 52 49 53 52 54 66 55
REMARK SMILES IDX 85 56 50 57 51 58 65 60 86 61 53 62 37 63 38 64 46 65 39 66
REMARK SMILES IDX 45 67 47 68 44 69 40 70 41 71 42 72 43 73 69 74 70 75 78 76
REMARK SMILES IDX 71 77 77 78 79 79 76 80 72 81 73 82 74 83 75 84 54 85 55 86
REMARK SMILES IDX 63 87 56 88 62 89 64 90 61 91 57 92 58 93 59 94 60 95
REMARK H PARENT 20 6 25 29 84 48 52 59
REMARK Flexibility Score: inf
ROOT
ATOM      1  C   UNL A   1      35.336  21.670  26.497  1.00  0.00     0.023 C 
ENDROOT
BRANCH   1   2
ATOM      2  C   UNL A   1      34.734  23.067  26.488  1.00  0.00     0.116 C 
BRANCH   2   3
ATOM      3  N   UNL A   1      33.385  23.177  26.991  1.00  0.00    -0.352 N 
ATOM      4  C   UNL A   1      32.213  22.698  26.457  1.00  0.00     0.252 C 
ATOM      5  O   UNL A   1      31.174  22.830  27.105  1.00  0.00    -0.269 OA
ATOM      6  H   UNL A   1      33.291  23.668  27.839  1.00  0.00     0.163 HD
BRANCH   4   7
ATOM      7  C   UNL A   1      32.111  22.091  25.096  1.00  0.00     0.050 A 
ATOM      8  C   UNL A   1      32.079  22.792  23.864  1.00  0.00    -0.004 A 
ATOM      9  C   UNL A   1      32.088  22.031  22.671  1.00  0.00     0.012 A 
ATOM     10  C   UNL A   1      32.132  20.636  22.691  1.00  0.00     0.040 A 
ATOM     11  C   UNL A   1      32.184  20.683  25.099  1.00  0.00     0.053 A 
ATOM     12  C   UNL A   1      32.189  19.976  23.906  1.00  0.00     0.124 A 
ATOM     13  F   UNL A   1      32.265  18.639  23.927  1.00  0.00    -0.207 F 
BRANCH   8  14
ATOM     14  C   UNL A   1      32.100  24.266  23.752  1.00  0.00     0.002 A 
ATOM     15  C   UNL A   1      30.831  26.339  23.546  1.00  0.00     0.060 A 
ATOM     16  C   UNL A   1      31.992  27.054  23.252  1.00  0.00     0.017 A 
ATOM     17  C   UNL A   1      30.884  24.969  23.826  1.00  0.00     0.026 A 
ATOM     18  C   UNL A   1      33.220  26.392  23.252  1.00  0.00     0.022 A 
ATOM     19  C   UNL A   1      33.277  25.012  23.498  1.00  0.00     0.048 A 
ATOM     20  Cl  UNL A   1      34.832  24.261  23.341  1.00  0.00    -0.084 Cl
BRANCH  15  21
ATOM     21  C   UNL A   1      29.504  26.975  23.518  1.00  0.00     0.337 C 
ATOM     22  O   UNL A   1      28.524  26.505  24.071  1.00  0.00    -0.246 OA
BRANCH  21  23
ATOM     23  O   UNL A   1      29.557  28.034  22.675  1.00  0.00    -0.465 OA
ATOM     24  C   UNL A   1      28.445  28.926  22.783  1.00  0.00     0.282 C 
ENDBRANCH  21  23
ENDBRANCH  15  21
ENDBRANCH   8  14
ENDBRANCH   4   7
ENDBRANCH   2   3
ENDBRANCH   1   2
BRANCH   1  25
ATOM     25  C   UNL A   1      35.820  21.114  25.156  1.00  0.00     0.023 C 
BRANCH  25  26
ATOM     26  C   UNL A   1      37.229  21.475  24.685  1.00  0.00     0.116 C 
BRANCH  26  27
ATOM     27  N   UNL A   1      38.265  20.508  25.016  1.00  0.00    -0.352 N 
ATOM     28  C   UNL A   1      39.331  20.616  25.887  1.00  0.00     0.251 C 
ATOM     29  H   UNL A   1      38.197  19.645  24.546  1.00  0.00     0.163 HD
ATOM     30  O   UNL A   1      40.055  19.640  26.073  1.00  0.00    -0.269 OA
BRANCH  28  31
ATOM     31  C   UNL A   1      39.643  21.910  26.544  1.00  0.00     0.039 A 
ATOM     32  C   UNL A   1      40.633  21.941  27.532  1.00  0.00     0.014 A 
ATOM     33  C   UNL A   1      39.023  23.097  26.153  1.00  0.00     0.014 A 
ATOM     34  C   UNL A   1      41.094  23.169  28.016  1.00  0.00     0.010 A 
ATOM     35  C   UNL A   1      39.528  24.325  26.585  1.00  0.00     0.010 A 
ATOM     36  C   UNL A   1      40.601  24.374  27.487  1.00  0.00    -0.014 A 
BRANCH  36  37
ATOM     37  C   UNL A   1      41.276  25.672  27.765  1.00  0.00     0.031 A 
ATOM     38  C   UNL A   1      40.580  26.772  28.517  1.00  0.00     0.074 A 
ATOM     39  C   UNL A   1      42.505  25.889  27.251  1.00  0.00     0.049 A 
ATOM     40  N   UNL A   1      40.999  27.984  28.776  1.00  0.00    -0.248 NA
ATOM     41  C   UNL A   1      39.230  26.482  29.020  1.00  0.00     0.031 C 
ATOM     42  C   UNL A   1      43.267  24.926  26.450  1.00  0.00     0.029 A 
ATOM     43  N   UNL A   1      43.331  26.984  27.319  1.00  0.00    -0.354 N 
ATOM     44  C   UNL A   1      39.966  28.606  29.469  1.00  0.00     0.074 A 
ATOM     45  C   UNL A   1      38.882  27.648  29.546  1.00  0.00     0.031 C 
ATOM     46  C   UNL A   1      44.458  25.459  26.135  1.00  0.00     0.029 A 
ATOM     47  C   UNL A   1      44.532  26.813  26.670  1.00  0.00     0.049 A 
ATOM     48  H   UNL A   1      43.086  27.815  27.787  1.00  0.00     0.167 HD
ATOM     49  C   UNL A   1      39.933  29.851  30.005  1.00  0.00     0.034 A 
ATOM     50  C   UNL A   1      45.578  27.649  26.515  1.00  0.00     0.034 A 
ATOM     51  C   UNL A   1      41.023  30.794  29.938  1.00  0.00     0.049 A 
ATOM     52  C   UNL A   1      45.516  29.026  27.115  1.00  0.00     0.074 A 
ATOM     53  C   UNL A   1      41.102  32.057  30.502  1.00  0.00     0.029 A 
ATOM     54  N   UNL A   1      42.219  30.585  29.268  1.00  0.00    -0.354 N 
ATOM     55  N   UNL A   1      44.538  29.585  27.787  1.00  0.00    -0.248 NA
ATOM     56  C   UNL A   1      46.695  29.883  26.937  1.00  0.00     0.031 C 
ATOM     57  C   UNL A   1      42.323  32.629  30.131  1.00  0.00     0.029 A 
ATOM     58  C   UNL A   1      43.032  31.701  29.385  1.00  0.00     0.049 A 
ATOM     59  H   UNL A   1      42.456  29.763  28.781  1.00  0.00     0.167 HD
ATOM     60  C   UNL A   1      44.993  30.854  28.127  1.00  0.00     0.074 A 
ATOM     61  C   UNL A   1      46.332  30.979  27.590  1.00  0.00     0.031 C 
ATOM     62  C   UNL A   1      44.357  31.824  28.830  1.00  0.00     0.034 A 
BRANCH  49  63
ATOM     63  C   UNL A   1      38.669  30.271  30.710  1.00  0.00     0.023 A 
ATOM     64  C   UNL A   1      37.654  30.969  30.036  1.00  0.00     0.031 A 
ATOM     65  C   UNL A   1      38.468  29.950  32.064  1.00  0.00     0.131 A 
ATOM     66  C   UNL A   1      36.504  31.371  30.730  1.00  0.00     0.055 A 
ATOM     67  C   UNL A   1      37.293  30.296  32.733  1.00  0.00     0.041 A 
ATOM     68  F   UNL A   1      39.412  29.295  32.758  1.00  0.00    -0.206 F 
ATOM     69  C   UNL A   1      36.305  31.018  32.068  1.00  0.00     0.022 A 
BRANCH  66  70
ATOM     70  S   UNL A   1      35.304  32.431  29.882  1.00  0.00     0.124 S 
ATOM     71  O   UNL A   1      34.781  31.525  28.863  1.00  0.00    -0.237 OA
ATOM     72  O   UNL A   1      34.380  32.787  30.953  1.00  0.00    -0.237 OA
ATOM     73  O   UNL A   1      36.120  33.532  29.372  1.00  0.00    -0.744 OA
ENDBRANCH  66  70
ENDBRANCH  49  63
BRANCH  50  74
ATOM     74  C   UNL A   1      46.778  27.201  25.759  1.00  0.00     0.023 A 
ATOM     75  C   UNL A   1      47.005  27.644  24.447  1.00  0.00     0.031 A 
ATOM     76  C   UNL A   1      47.719  26.335  26.341  1.00  0.00     0.131 A 
ATOM     77  C   UNL A   1      48.140  27.203  23.750  1.00  0.00     0.055 A 
ATOM     78  C   UNL A   1      48.863  25.924  25.656  1.00  0.00     0.041 A 
ATOM     79  F   UNL A   1      47.549  25.898  27.599  1.00  0.00    -0.206 F 
ATOM     80  C   UNL A   1      49.076  26.356  24.349  1.00  0.00     0.022 A 
BRANCH  77  81
ATOM     81  S   UNL A   1      48.375  27.743  22.035  1.00  0.00     0.124 S 
ATOM     82  O   UNL A   1      48.440  26.469  21.329  1.00  0.00    -0.237 OA
ATOM     83  O   UNL A   1      47.179  28.547  21.801  1.00  0.00    -0.237 OA
ATOM     84  O   UNL A   1      49.626  28.497  22.084  1.00  0.00    -0.744 OA
ENDBRANCH  77  81
ENDBRANCH  50  74
BRANCH  62  85
ATOM     85  C   UNL A   1      45.112  33.100  29.083  1.00  0.00     0.023 A 
ATOM     86  C   UNL A   1      44.944  34.229  28.264  1.00  0.00     0.031 A 
ATOM     87  C   UNL A   1      45.985  33.196  30.181  1.00  0.00     0.131 A 
ATOM     88  C   UNL A   1      45.661  35.402  28.542  1.00  0.00     0.055 A 
ATOM     89  C   UNL A   1      46.664  34.377  30.476  1.00  0.00     0.041 A 
ATOM     90  F   UNL A   1      46.178  32.143  30.992  1.00  0.00    -0.206 F 
ATOM     91  C   UNL A   1      46.507  35.489  29.651  1.00  0.00     0.022 A 
BRANCH  88  92
ATOM     92  S   UNL A   1      45.492  36.816  27.419  1.00  0.00     0.124 S 
ATOM     93  O   UNL A   1      46.465  36.495  26.380  1.00  0.00    -0.237 OA
ATOM     94  O   UNL A   1      44.090  36.742  27.023  1.00  0.00    -0.237 OA
ATOM     95  O   UNL A   1      45.836  37.963  28.258  1.00  0.00    -0.744 OA
ENDBRANCH  88  92
ENDBRANCH  62  85
ENDBRANCH  36  37
ENDBRANCH  28  31
ENDBRANCH  26  27
ENDBRANCH  25  26
ENDBRANCH   1  25
TORSDOF 17
ENDMDL
MODEL 2
REMARK VINA RESULT:     -12.2      5.139     10.110
REMARK SMILES COC(=O)c1ccc(Cl)c(-c2ccc(F)cc2C(=O)NCCCCNC(=O)c2ccc(-c3c4nc(c(-c5cc(S(=O)(=O)[O-])ccc5F)c5ccc([nH]5)c(-c5cc(S(=O)(=O)[O-])ccc5F)c5nc(c(-c6cc(S(=O)(=O)[O-])ccc6F)c6ccc3[nH]6)C=C5)C=C4)cc2)c1
REMARK SMILES IDX 22 1 21 2 20 3 18 4 19 5 17 7 11 8 12 9 13 10 16 11 14 12
REMARK SMILES IDX 15 13 10 14 5 15 6 16 91 17 7 18 8 19 9 20 3 21 4 22 2 23
REMARK SMILES IDX 1 24 23 25 24 26 25 27 26 28 27 30 28 31 29 32 90 33 30 34
REMARK SMILES IDX 89 35 31 36 32 37 33 38 83 39 34 40 88 41 82 42 84 43 35 44
REMARK SMILES IDX 87 45 81 46 80 47 36 49 68 50 48 51 67 52 49 53 52 54 66 55
REMARK SMILES IDX 85 56 50 57 51 58 65 60 86 61 53 62 37 63 38 64 46 65 39 66
REMARK SMILES IDX 45 67 47 68 44 69 40 70 41 71 42 72 43 73 69 74 70 75 78 76
REMARK SMILES IDX 71 77 77 78 79 79 76 80 72 81 73 82 74 83 75 84 54 85 55 86
REMARK SMILES IDX 63 87 56 88 62 89 64 90 61 91 57 92 58 93 59 94 60 95
REMARK H PARENT 20 6 25 29 84 48 52 59
REMARK Flexibility Score: inf
ROOT
ATOM      1  C   UNL A   1      32.212  26.841  25.372  1.00  0.00     0.023 C 
ENDROOT
BRANCH   1   2
ATOM      2  C   UNL A   1      33.330  25.869  25.720  1.00  0.00     0.116 C 
BRANCH   2   3
ATOM      3  N   UNL A   1      32.932  24.677  26.430  1.00  0.00    -0.352 N 
ATOM      4  C   UNL A   1      33.612  23.493  26.597  1.00  0.00     0.252 C 
ATOM      5  O   UNL A   1      33.118  22.630  27.323  1.00  0.00    -0.269 OA
ATOM      6  H   UNL A   1      32.045  24.716  26.855  1.00  0.00     0.163 HD
BRANCH   4   7
ATOM      7  C   UNL A   1      34.883  23.162  25.887  1.00  0.00     0.050 A 
ATOM      8  C   UNL A   1      35.007  22.386  24.705  1.00  0.00    -0.004 A 
ATOM      9  C   UNL A   1      36.291  22.273  24.122  1.00  0.00     0.012 A 
ATOM     10  C   UNL A   1      37.407  22.902  24.677  1.00  0.00     0.040 A 
ATOM     11  C   UNL A   1      36.014  23.814  26.418  1.00  0.00     0.053 A 
ATOM     12  C   UNL A   1      37.255  23.674  25.816  1.00  0.00     0.124 A 
ATOM     13  F   UNL A   1      38.318  24.306  26.330  1.00  0.00    -0.207 F 
BRANCH   8  14
ATOM     14  C   UNL A   1      33.867  21.744  24.016  1.00  0.00     0.002 A 
ATOM     15  C   UNL A   1      32.585  19.711  23.603  1.00  0.00     0.060 A 
ATOM     16  C   UNL A   1      31.901  20.322  22.551  1.00  0.00     0.017 A 
ATOM     17  C   UNL A   1      33.532  20.420  24.350  1.00  0.00     0.026 A 
ATOM     18  C   UNL A   1      32.162  21.660  22.254  1.00  0.00     0.022 A 
ATOM     19  C   UNL A   1      33.134  22.367  22.977  1.00  0.00     0.048 A 
ATOM     20  Cl  UNL A   1      33.476  23.979  22.440  1.00  0.00    -0.084 Cl
BRANCH  15  21
ATOM     21  C   UNL A   1      32.384  18.291  23.933  1.00  0.00     0.337 C 
ATOM     22  O   UNL A   1      32.009  17.904  25.026  1.00  0.00    -0.246 OA
BRANCH  21  23
ATOM     23  O   UNL A   1      32.825  17.545  22.892  1.00  0.00    -0.465 OA
ATOM     24  C   UNL A   1      34.080  16.898  23.122  1.00  0.00     0.282 C 
ENDBRANCH  21  23
ENDBRANCH  15  21
ENDBRANCH   8  14
ENDBRANCH   4   7
ENDBRANCH   2   3
ENDBRANCH   1   2
BRANCH   1  25
ATOM     25  C   UNL A   1      32.108  28.111  26.220  1.00  0.00     0.023 C 
BRANCH  25  26
ATOM     26  C   UNL A   1      32.804  29.378  25.722  1.00  0.00     0.116 C 
BRANCH  26  27
ATOM     27  N   UNL A   1      32.467  30.599  26.438  1.00  0.00    -0.352 N 
ATOM     28  C   UNL A   1      33.256  31.408  27.230  1.00  0.00     0.251 C 
ATOM     29  H   UNL A   1      31.531  30.893  26.342  1.00  0.00     0.163 HD
ATOM     30  O   UNL A   1      32.782  32.446  27.687  1.00  0.00    -0.269 OA
BRANCH  28  31
ATOM     31  C   UNL A   1      34.639  31.004  27.584  1.00  0.00     0.039 A 
ATOM     32  C   UNL A   1      35.596  31.999  27.806  1.00  0.00     0.014 A 
ATOM     33  C   UNL A   1      34.986  29.664  27.763  1.00  0.00     0.014 A 
ATOM     34  C   UNL A   1      36.842  31.660  28.343  1.00  0.00     0.010 A 
ATOM     35  C   UNL A   1      36.202  29.330  28.361  1.00  0.00     0.010 A 
ATOM     36  C   UNL A   1      37.125  30.330  28.700  1.00  0.00    -0.014 A 
BRANCH  36  37
ATOM     37  C   UNL A   1      38.311  29.992  29.535  1.00  0.00     0.031 A 
ATOM     38  C   UNL A   1      39.336  28.995  29.073  1.00  0.00     0.074 A 
ATOM     39  C   UNL A   1      38.412  30.530  30.768  1.00  0.00     0.049 A 
ATOM     40  N   UNL A   1      40.383  28.535  29.710  1.00  0.00    -0.248 NA
ATOM     41  C   UNL A   1      39.148  28.421  27.733  1.00  0.00     0.031 C 
ATOM     42  C   UNL A   1      37.452  31.466  31.363  1.00  0.00     0.029 A 
ATOM     43  N   UNL A   1      39.362  30.370  31.748  1.00  0.00    -0.354 N 
ATOM     44  C   UNL A   1      40.979  27.616  28.854  1.00  0.00     0.074 A 
ATOM     45  C   UNL A   1      40.145  27.550  27.671  1.00  0.00     0.031 C 
ATOM     46  C   UNL A   1      37.882  31.823  32.583  1.00  0.00     0.029 A 
ATOM     47  C   UNL A   1      39.120  31.113  32.881  1.00  0.00     0.049 A 
ATOM     48  H   UNL A   1      40.143  29.779  31.649  1.00  0.00     0.167 HD
ATOM     49  C   UNL A   1      42.121  26.907  29.032  1.00  0.00     0.034 A 
ATOM     50  C   UNL A   1      39.810  31.213  34.034  1.00  0.00     0.034 A 
ATOM     51  C   UNL A   1      42.954  26.990  30.207  1.00  0.00     0.049 A 
ATOM     52  C   UNL A   1      41.072  30.415  34.209  1.00  0.00     0.074 A 
ATOM     53  C   UNL A   1      44.161  26.355  30.451  1.00  0.00     0.029 A 
ATOM     54  N   UNL A   1      42.672  27.749  31.333  1.00  0.00    -0.354 N 
ATOM     55  N   UNL A   1      41.630  29.569  33.377  1.00  0.00    -0.248 NA
ATOM     56  C   UNL A   1      41.796  30.584  35.476  1.00  0.00     0.031 C 
ATOM     57  C   UNL A   1      44.581  26.689  31.743  1.00  0.00     0.029 A 
ATOM     58  C   UNL A   1      43.668  27.580  32.283  1.00  0.00     0.049 A 
ATOM     59  H   UNL A   1      41.880  28.323  31.442  1.00  0.00     0.167 HD
ATOM     60  C   UNL A   1      42.781  29.118  34.013  1.00  0.00     0.074 A 
ATOM     61  C   UNL A   1      42.841  29.787  35.296  1.00  0.00     0.031 C 
ATOM     62  C   UNL A   1      43.709  28.236  33.566  1.00  0.00     0.034 A 
BRANCH  49  63
ATOM     63  C   UNL A   1      42.537  25.971  27.928  1.00  0.00     0.023 A 
ATOM     64  C   UNL A   1      42.035  24.662  27.851  1.00  0.00     0.031 A 
ATOM     65  C   UNL A   1      43.429  26.398  26.928  1.00  0.00     0.131 A 
ATOM     66  C   UNL A   1      42.466  23.807  26.827  1.00  0.00     0.055 A 
ATOM     67  C   UNL A   1      43.806  25.564  25.875  1.00  0.00     0.041 A 
ATOM     68  F   UNL A   1      43.950  27.635  26.962  1.00  0.00    -0.206 F 
ATOM     69  C   UNL A   1      43.330  24.256  25.824  1.00  0.00     0.022 A 
BRANCH  66  70
ATOM     70  S   UNL A   1      41.946  22.072  26.867  1.00  0.00     0.124 S 
ATOM     71  O   UNL A   1      40.999  22.024  25.756  1.00  0.00    -0.237 OA
ATOM     72  O   UNL A   1      43.201  21.357  26.666  1.00  0.00    -0.237 OA
ATOM     73  O   UNL A   1      41.351  21.923  28.195  1.00  0.00    -0.744 OA
ENDBRANCH  66  70
ENDBRANCH  49  63
BRANCH  50  74
ATOM     74  C   UNL A   1      39.320  32.110  35.114  1.00  0.00     0.023 A 
ATOM     75  C   UNL A   1      38.630  31.591  36.220  1.00  0.00     0.031 A 
ATOM     76  C   UNL A   1      39.548  33.496  35.063  1.00  0.00     0.131 A 
ATOM     77  C   UNL A   1      38.171  32.457  37.224  1.00  0.00     0.055 A 
ATOM     78  C   UNL A   1      39.118  34.350  36.079  1.00  0.00     0.041 A 
ATOM     79  F   UNL A   1      40.217  34.034  34.031  1.00  0.00    -0.206 F 
ATOM     80  C   UNL A   1      38.420  33.831  37.166  1.00  0.00     0.022 A 
BRANCH  77  81
ATOM     81  S   UNL A   1      37.227  31.764  38.609  1.00  0.00     0.124 S 
ATOM     82  O   UNL A   1      36.031  32.598  38.599  1.00  0.00    -0.237 OA
ATOM     83  O   UNL A   1      37.047  30.377  38.192  1.00  0.00    -0.237 OA
ATOM     84  O   UNL A   1      38.115  31.955  39.754  1.00  0.00    -0.744 OA
ENDBRANCH  77  81
ENDBRANCH  50  74
BRANCH  62  85
ATOM     85  C   UNL A   1      44.886  27.960  34.462  1.00  0.00     0.023 A 
ATOM     86  C   UNL A   1      44.879  26.894  35.376  1.00  0.00     0.031 A 
ATOM     87  C   UNL A   1      46.042  28.754  34.371  1.00  0.00     0.131 A 
ATOM     88  C   UNL A   1      46.002  26.665  36.186  1.00  0.00     0.055 A 
ATOM     89  C   UNL A   1      47.170  28.498  35.149  1.00  0.00     0.041 A 
ATOM     90  F   UNL A   1      46.095  29.784  33.511  1.00  0.00    -0.206 F 
ATOM     91  C   UNL A   1      47.153  27.450  36.067  1.00  0.00     0.022 A 
BRANCH  88  92
ATOM     92  S   UNL A   1      45.935  25.338  37.420  1.00  0.00     0.124 S 
ATOM     93  O   UNL A   1      47.090  25.646  38.257  1.00  0.00    -0.237 OA
ATOM     94  O   UNL A   1      44.629  25.543  38.037  1.00  0.00    -0.237 OA
ATOM     95  O   UNL A   1      46.054  24.120  36.620  1.00  0.00    -0.744 OA
ENDBRANCH  88  92
ENDBRANCH  62  85
ENDBRANCH  36  37
ENDBRANCH  28  31
ENDBRANCH  26  27
ENDBRANCH  25  26
ENDBRANCH   1  25
TORSDOF 17
ENDMDL
MODEL 3
REMARK VINA RESULT:     -12.1      5.192      7.607
REMARK SMILES COC(=O)c1ccc(Cl)c(-c2ccc(F)cc2C(=O)NCCCCNC(=O)c2ccc(-c3c4nc(c(-c5cc(S(=O)(=O)[O-])ccc5F)c5ccc([nH]5)c(-c5cc(S(=O)(=O)[O-])ccc5F)c5nc(c(-c6cc(S(=O)(=O)[O-])ccc6F)c6ccc3[nH]6)C=C5)C=C4)cc2)c1
REMARK SMILES IDX 22 1 21 2 20 3 18 4 19 5 17 7 11 8 12 9 13 10 16 11 14 12
REMARK SMILES IDX 15 13 10 14 5 15 6 16 91 17 7 18 8 19 9 20 3 21 4 22 2 23
REMARK SMILES IDX 1 24 23 25 24 26 25 27 26 28 27 30 28 31 29 32 90 33 30 34
REMARK SMILES IDX 89 35 31 36 32 37 33 38 83 39 34 40 88 41 82 42 84 43 35 44
REMARK SMILES IDX 87 45 81 46 80 47 36 49 68 50 48 51 67 52 49 53 52 54 66 55
REMARK SMILES IDX 85 56 50 57 51 58 65 60 86 61 53 62 37 63 38 64 46 65 39 66
REMARK SMILES IDX 45 67 47 68 44 69 40 70 41 71 42 72 43 73 69 74 70 75 78 76
REMARK SMILES IDX 71 77 77 78 79 79 76 80 72 81 73 82 74 83 75 84 54 85 55 86
REMARK SMILES IDX 63 87 56 88 62 89 64 90 61 91 57 92 58 93 59 94 60 95
REMARK H PARENT 20 6 25 29 84 48 52 59
REMARK Flexibility Score: inf
ROOT
ATOM      1  C   UNL A   1      32.311  27.048  25.077  1.00  0.00     0.023 C 
ENDROOT
BRANCH   1   2
ATOM      2  C   UNL A   1      33.373  26.002  25.383  1.00  0.00     0.116 C 
BRANCH   2   3
ATOM      3  N   UNL A   1      32.947  24.889  26.199  1.00  0.00    -0.352 N 
ATOM      4  C   UNL A   1      33.607  23.720  26.492  1.00  0.00     0.252 C 
ATOM      5  O   UNL A   1      33.090  22.938  27.291  1.00  0.00    -0.269 OA
ATOM      6  H   UNL A   1      32.054  24.981  26.603  1.00  0.00     0.163 HD
BRANCH   4   7
ATOM      7  C   UNL A   1      34.884  23.304  25.839  1.00  0.00     0.050 A 
ATOM      8  C   UNL A   1      35.015  22.418  24.739  1.00  0.00    -0.004 A 
ATOM      9  C   UNL A   1      36.307  22.232  24.192  1.00  0.00     0.012 A 
ATOM     10  C   UNL A   1      37.423  22.895  24.704  1.00  0.00     0.040 A 
ATOM     11  C   UNL A   1      36.016  23.988  26.326  1.00  0.00     0.053 A 
ATOM     12  C   UNL A   1      37.265  23.775  25.761  1.00  0.00     0.124 A 
ATOM     13  F   UNL A   1      38.329  24.438  26.232  1.00  0.00    -0.207 F 
BRANCH   8  14
ATOM     14  C   UNL A   1      33.877  21.729  24.095  1.00  0.00     0.002 A 
ATOM     15  C   UNL A   1      32.640  19.652  23.764  1.00  0.00     0.060 A 
ATOM     16  C   UNL A   1      31.916  20.218  22.713  1.00  0.00     0.017 A 
ATOM     17  C   UNL A   1      33.586  20.405  24.469  1.00  0.00     0.026 A 
ATOM     18  C   UNL A   1      32.134  21.554  22.377  1.00  0.00     0.022 A 
ATOM     19  C   UNL A   1      33.103  22.305  23.058  1.00  0.00     0.048 A 
ATOM     20  Cl  UNL A   1      33.390  23.911  22.473  1.00  0.00    -0.084 Cl
BRANCH  15  21
ATOM     21  C   UNL A   1      32.486  18.236  24.134  1.00  0.00     0.337 C 
ATOM     22  O   UNL A   1      31.929  17.868  25.153  1.00  0.00    -0.246 OA
BRANCH  21  23
ATOM     23  O   UNL A   1      33.183  17.486  23.247  1.00  0.00    -0.465 OA
ATOM     24  C   UNL A   1      33.719  16.278  23.793  1.00  0.00     0.282 C 
ENDBRANCH  21  23
ENDBRANCH  15  21
ENDBRANCH   8  14
ENDBRANCH   4   7
ENDBRANCH   2   3
ENDBRANCH   1   2
BRANCH   1  25
ATOM     25  C   UNL A   1      32.239  28.257  26.013  1.00  0.00     0.023 C 
BRANCH  25  26
ATOM     26  C   UNL A   1      33.099  29.479  25.691  1.00  0.00     0.116 C 
BRANCH  26  27
ATOM     27  N   UNL A   1      32.767  30.689  26.428  1.00  0.00    -0.352 N 
ATOM     28  C   UNL A   1      33.535  31.433  27.301  1.00  0.00     0.251 C 
ATOM     29  H   UNL A   1      31.854  31.029  26.281  1.00  0.00     0.163 HD
ATOM     30  O   UNL A   1      33.076  32.475  27.764  1.00  0.00    -0.269 OA
BRANCH  28  31
ATOM     31  C   UNL A   1      34.871  30.953  27.732  1.00  0.00     0.039 A 
ATOM     32  C   UNL A   1      35.875  31.893  27.986  1.00  0.00     0.014 A 
ATOM     33  C   UNL A   1      35.126  29.598  27.951  1.00  0.00     0.014 A 
ATOM     34  C   UNL A   1      37.070  31.490  28.591  1.00  0.00     0.010 A 
ATOM     35  C   UNL A   1      36.288  29.204  28.615  1.00  0.00     0.010 A 
ATOM     36  C   UNL A   1      37.253  30.153  28.984  1.00  0.00    -0.014 A 
BRANCH  36  37
ATOM     37  C   UNL A   1      38.373  29.761  29.884  1.00  0.00     0.031 A 
ATOM     38  C   UNL A   1      38.488  30.312  31.276  1.00  0.00     0.074 A 
ATOM     39  C   UNL A   1      39.348  28.963  29.398  1.00  0.00     0.049 A 
ATOM     40  N   UNL A   1      39.439  30.131  32.157  1.00  0.00    -0.248 NA
ATOM     41  C   UNL A   1      37.410  31.202  31.731  1.00  0.00     0.031 C 
ATOM     42  C   UNL A   1      39.388  28.408  28.041  1.00  0.00     0.029 A 
ATOM     43  N   UNL A   1      40.494  28.482  29.982  1.00  0.00    -0.354 N 
ATOM     44  C   UNL A   1      39.080  30.884  33.269  1.00  0.00     0.074 A 
ATOM     45  C   UNL A   1      37.845  31.563  32.930  1.00  0.00     0.031 C 
ATOM     46  C   UNL A   1      40.478  27.636  27.913  1.00  0.00     0.029 A 
ATOM     47  C   UNL A   1      41.239  27.672  29.156  1.00  0.00     0.049 A 
ATOM     48  H   UNL A   1      40.758  28.696  30.906  1.00  0.00     0.167 HD
ATOM     49  C   UNL A   1      39.711  30.987  34.465  1.00  0.00     0.034 A 
ATOM     50  C   UNL A   1      42.405  27.030  29.367  1.00  0.00     0.034 A 
ATOM     51  C   UNL A   1      40.932  30.296  34.801  1.00  0.00     0.049 A 
ATOM     52  C   UNL A   1      43.088  27.162  30.700  1.00  0.00     0.074 A 
ATOM     53  C   UNL A   1      41.613  30.292  36.008  1.00  0.00     0.029 A 
ATOM     54  N   UNL A   1      41.657  29.490  33.936  1.00  0.00    -0.354 N 
ATOM     55  N   UNL A   1      42.718  27.862  31.745  1.00  0.00    -0.248 NA
ATOM     56  C   UNL A   1      44.343  26.420  30.882  1.00  0.00     0.031 C 
ATOM     57  C   UNL A   1      42.773  29.527  35.856  1.00  0.00     0.029 A 
ATOM     58  C   UNL A   1      42.788  29.004  34.573  1.00  0.00     0.049 A 
ATOM     59  H   UNL A   1      41.405  29.293  33.005  1.00  0.00     0.167 HD
ATOM     60  C   UNL A   1      43.686  27.629  32.716  1.00  0.00     0.074 A 
ATOM     61  C   UNL A   1      44.655  26.723  32.135  1.00  0.00     0.031 C 
ATOM     62  C   UNL A   1      43.758  28.117  33.979  1.00  0.00     0.034 A 
BRANCH  49  63
ATOM     63  C   UNL A   1      39.092  31.887  35.503  1.00  0.00     0.023 A 
ATOM     64  C   UNL A   1      38.469  31.363  36.647  1.00  0.00     0.031 A 
ATOM     65  C   UNL A   1      39.146  33.285  35.357  1.00  0.00     0.131 A 
ATOM     66  C   UNL A   1      37.878  32.228  37.578  1.00  0.00     0.055 A 
ATOM     67  C   UNL A   1      38.612  34.143  36.319  1.00  0.00     0.041 A 
ATOM     68  F   UNL A   1      39.718  33.838  34.276  1.00  0.00    -0.206 F 
ATOM     69  C   UNL A   1      37.966  33.616  37.435  1.00  0.00     0.022 A 
BRANCH  66  70
ATOM     70  S   UNL A   1      36.920  31.514  38.940  1.00  0.00     0.124 S 
ATOM     71  O   UNL A   1      37.839  31.683  40.064  1.00  0.00    -0.237 OA
ATOM     72  O   UNL A   1      35.725  32.351  38.963  1.00  0.00    -0.237 OA
ATOM     73  O   UNL A   1      36.704  30.131  38.520  1.00  0.00    -0.744 OA
ENDBRANCH  66  70
ENDBRANCH  49  63
BRANCH  50  74
ATOM     74  C   UNL A   1      43.000  26.201  28.285  1.00  0.00     0.023 A 
ATOM     75  C   UNL A   1      44.049  26.697  27.496  1.00  0.00     0.031 A 
ATOM     76  C   UNL A   1      42.538  24.898  28.036  1.00  0.00     0.131 A 
ATOM     77  C   UNL A   1      44.590  25.899  26.476  1.00  0.00     0.055 A 
ATOM     78  C   UNL A   1      43.100  24.096  27.042  1.00  0.00     0.041 A 
ATOM     79  F   UNL A   1      41.546  24.378  28.777  1.00  0.00    -0.206 F 
ATOM     80  C   UNL A   1      44.131  24.599  26.252  1.00  0.00     0.022 A 
BRANCH  77  81
ATOM     81  S   UNL A   1      45.902  26.590  25.432  1.00  0.00     0.124 S 
ATOM     82  O   UNL A   1      45.260  27.787  24.902  1.00  0.00    -0.237 OA
ATOM     83  O   UNL A   1      46.976  26.810  26.396  1.00  0.00    -0.237 OA
ATOM     84  O   UNL A   1      46.154  25.530  24.458  1.00  0.00    -0.744 OA
ENDBRANCH  77  81
ENDBRANCH  50  74
BRANCH  62  85
ATOM     85  C   UNL A   1      44.911  27.661  34.831  1.00  0.00     0.023 A 
ATOM     86  C   UNL A   1      44.813  26.528  35.654  1.00  0.00     0.031 A 
ATOM     87  C   UNL A   1      46.134  28.352  34.789  1.00  0.00     0.131 A 
ATOM     88  C   UNL A   1      45.916  26.131  36.426  1.00  0.00     0.055 A 
ATOM     89  C   UNL A   1      47.240  27.930  35.527  1.00  0.00     0.041 A 
ATOM     90  F   UNL A   1      46.276  29.442  34.016  1.00  0.00    -0.206 F 
ATOM     91  C   UNL A   1      47.133  26.815  36.355  1.00  0.00     0.022 A 
BRANCH  88  92
ATOM     92  S   UNL A   1      45.736  24.717  37.546  1.00  0.00     0.124 S 
ATOM     93  O   UNL A   1      45.567  23.610  36.611  1.00  0.00    -0.237 OA
ATOM     94  O   UNL A   1      46.993  24.737  38.287  1.00  0.00    -0.237 OA
ATOM     95  O   UNL A   1      44.551  25.051  38.334  1.00  0.00    -0.744 OA
ENDBRANCH  88  92
ENDBRANCH  62  85
ENDBRANCH  36  37
ENDBRANCH  28  31
ENDBRANCH  26  27
ENDBRANCH  25  26
ENDBRANCH   1  25
TORSDOF 17
ENDMDL
