MODEL 1
REMARK VINA RESULT:     -11.5      0.000      0.000
REMARK SMILES O=C(CCC(=O)Nc1ccc(Br)c([N+](=O)[O-])c1)NCCCCNC(=O)c1ccc(-c2c3nc(c(-c4cc(S(=O)(=O)[O-])ccc4F)c4ccc([nH]4)c(-c4cc(S(=O)(=O)[O-])ccc4F)c4nc(c(-c5cc(S(=O)(=O)[O-])ccc5F)c5ccc2[nH]5)C=C4)C=C3)cc1
REMARK SMILES IDX 20 1 19 2 18 3 1 4 2 5 3 7 4 8 5 9 6 10 7 11 8 13 9 14 17 15
REMARK SMILES IDX 10 16 13 17 11 18 12 19 14 20 15 21 16 22 21 23 22 24 23 25
REMARK SMILES IDX 24 26 25 28 26 29 27 30 88 31 28 32 87 33 29 34 30 35 31 36
REMARK SMILES IDX 81 37 32 38 86 39 80 40 82 41 33 42 85 43 79 44 78 45 34 47
REMARK SMILES IDX 66 48 46 49 65 50 47 51 50 52 64 53 83 54 48 55 49 56 63 58
REMARK SMILES IDX 84 59 51 60 35 61 36 62 44 63 37 64 43 65 45 66 42 67 38 68
REMARK SMILES IDX 39 69 40 70 41 71 67 72 68 73 76 74 69 75 75 76 77 77 74 78
REMARK SMILES IDX 70 79 71 80 72 81 73 82 52 83 53 84 61 85 54 86 60 87 62 88
REMARK SMILES IDX 59 89 55 90 56 91 57 92 58 93
REMARK H PARENT 18 6 7 12 23 27 82 46 50 57
REMARK Flexibility Score: inf
ROOT
ATOM      1  C   UNL A   1      31.718  30.797  26.285  1.00  0.00     0.023 C 
ENDROOT
BRANCH   1   2
ATOM      2  C   UNL A   1      33.116  30.221  26.483  1.00  0.00     0.116 C 
BRANCH   2   3
ATOM      3  N   UNL A   1      33.568  29.357  25.408  1.00  0.00    -0.356 N 
ATOM      4  O   UNL A   1      33.014  27.373  26.436  1.00  0.00    -0.275 OA
ATOM      5  C   UNL A   1      33.375  27.994  25.440  1.00  0.00     0.220 C 
ATOM      6  H   UNL A   1      34.025  29.757  24.633  1.00  0.00     0.163 HD
BRANCH   5   7
ATOM      7  C   UNL A   1      33.536  27.308  24.100  1.00  0.00     0.110 C 
BRANCH   7   8
ATOM      8  C   UNL A   1      32.583  27.855  23.038  1.00  0.00     0.110 C 
BRANCH   8   9
ATOM      9  C   UNL A   1      31.156  27.941  23.518  1.00  0.00     0.224 C 
ATOM     10  O   UNL A   1      30.669  29.056  23.743  1.00  0.00    -0.275 OA
ATOM     11  N   UNL A   1      30.356  26.869  23.766  1.00  0.00    -0.326 N 
ATOM     12  H   UNL A   1      29.404  27.116  23.820  1.00  0.00     0.169 HD
BRANCH  11  13
ATOM     13  C   UNL A   1      30.561  25.489  23.962  1.00  0.00     0.048 A 
ATOM     14  C   UNL A   1      30.966  24.580  22.992  1.00  0.00     0.028 A 
ATOM     15  C   UNL A   1      30.481  25.035  25.287  1.00  0.00     0.113 A 
ATOM     16  C   UNL A   1      31.419  23.301  23.342  1.00  0.00     0.025 A 
ATOM     17  C   UNL A   1      30.907  23.735  25.641  1.00  0.00     0.285 A 
ATOM     18  C   UNL A   1      31.427  22.876  24.671  1.00  0.00     0.095 A 
ATOM     19  Br  UNL A   1      32.260  21.202  24.997  1.00  0.00    -0.043 Br
BRANCH  17  20
ATOM     20  N   UNL A   1      30.809  23.359  27.050  1.00  0.00     0.064 N 
ATOM     21  O   UNL A   1      29.673  23.141  27.494  1.00  0.00    -0.258 OA
ATOM     22  O   UNL A   1      31.852  23.224  27.699  1.00  0.00    -0.258 OA
ENDBRANCH  17  20
ENDBRANCH  11  13
ENDBRANCH   8   9
ENDBRANCH   7   8
ENDBRANCH   5   7
ENDBRANCH   2   3
ENDBRANCH   1   2
BRANCH   1  23
ATOM     23  C   UNL A   1      31.535  32.250  26.729  1.00  0.00     0.023 C 
BRANCH  23  24
ATOM     24  C   UNL A   1      32.742  32.889  27.411  1.00  0.00     0.116 C 
BRANCH  24  25
ATOM     25  N   UNL A   1      32.504  34.269  27.809  1.00  0.00    -0.352 N 
ATOM     26  C   UNL A   1      33.083  35.010  28.815  1.00  0.00     0.251 C 
ATOM     27  H   UNL A   1      31.827  34.744  27.277  1.00  0.00     0.163 HD
ATOM     28  O   UNL A   1      32.602  36.105  29.106  1.00  0.00    -0.269 OA
BRANCH  26  29
ATOM     29  C   UNL A   1      34.243  34.486  29.573  1.00  0.00     0.039 A 
ATOM     30  C   UNL A   1      34.016  33.806  30.773  1.00  0.00     0.014 A 
ATOM     31  C   UNL A   1      35.550  34.658  29.112  1.00  0.00     0.014 A 
ATOM     32  C   UNL A   1      35.086  33.219  31.456  1.00  0.00     0.010 A 
ATOM     33  C   UNL A   1      36.604  34.001  29.747  1.00  0.00     0.010 A 
ATOM     34  C   UNL A   1      36.385  33.264  30.922  1.00  0.00    -0.014 A 
BRANCH  34  35
ATOM     35  C   UNL A   1      37.515  32.537  31.568  1.00  0.00     0.031 A 
ATOM     36  C   UNL A   1      38.051  32.988  32.902  1.00  0.00     0.074 A 
ATOM     37  C   UNL A   1      38.100  31.505  30.926  1.00  0.00     0.049 A 
ATOM     38  N   UNL A   1      39.075  32.535  33.579  1.00  0.00    -0.248 NA
ATOM     39  C   UNL A   1      37.360  34.116  33.543  1.00  0.00     0.031 C 
ATOM     40  C   UNL A   1      37.702  30.992  29.613  1.00  0.00     0.029 A 
ATOM     41  N   UNL A   1      39.161  30.706  31.281  1.00  0.00    -0.354 N 
ATOM     42  C   UNL A   1      39.156  33.324  34.722  1.00  0.00     0.074 A 
ATOM     43  C   UNL A   1      38.117  34.326  34.608  1.00  0.00     0.031 C 
ATOM     44  C   UNL A   1      38.488  29.954  29.287  1.00  0.00     0.029 A 
ATOM     45  C   UNL A   1      39.484  29.757  30.336  1.00  0.00     0.049 A 
ATOM     46  H   UNL A   1      39.646  30.804  32.132  1.00  0.00     0.167 HD
ATOM     47  C   UNL A   1      39.999  33.209  35.779  1.00  0.00     0.034 A 
ATOM     48  C   UNL A   1      40.476  28.846  30.305  1.00  0.00     0.034 A 
ATOM     49  C   UNL A   1      41.030  32.202  35.880  1.00  0.00     0.049 A 
ATOM     50  C   UNL A   1      41.432  28.766  31.471  1.00  0.00     0.074 A 
ATOM     51  C   UNL A   1      41.909  31.972  36.925  1.00  0.00     0.029 A 
ATOM     52  N   UNL A   1      41.330  31.265  34.900  1.00  0.00    -0.354 N 
ATOM     53  N   UNL A   1      41.463  29.492  32.564  1.00  0.00    -0.248 NA
ATOM     54  C   UNL A   1      42.477  27.736  31.402  1.00  0.00     0.031 C 
ATOM     55  C   UNL A   1      42.787  30.953  36.545  1.00  0.00     0.029 A 
ATOM     56  C   UNL A   1      42.402  30.481  35.301  1.00  0.00     0.049 A 
ATOM     57  H   UNL A   1      40.852  31.171  34.044  1.00  0.00     0.167 HD
ATOM     58  C   UNL A   1      42.511  28.983  33.328  1.00  0.00     0.074 A 
ATOM     59  C   UNL A   1      43.073  27.880  32.576  1.00  0.00     0.031 C 
ATOM     60  C   UNL A   1      42.964  29.388  34.542  1.00  0.00     0.034 A 
BRANCH  47  61
ATOM     61  C   UNL A   1      39.853  34.215  36.898  1.00  0.00     0.023 A 
ATOM     62  C   UNL A   1      39.377  33.843  38.167  1.00  0.00     0.031 A 
ATOM     63  C   UNL A   1      40.177  35.568  36.691  1.00  0.00     0.131 A 
ATOM     64  C   UNL A   1      39.161  34.819  39.150  1.00  0.00     0.055 A 
ATOM     65  C   UNL A   1      40.045  36.521  37.703  1.00  0.00     0.041 A 
ATOM     66  F   UNL A   1      40.618  35.991  35.496  1.00  0.00    -0.206 F 
ATOM     67  C   UNL A   1      39.519  36.151  38.938  1.00  0.00     0.022 A 
BRANCH  64  68
ATOM     68  S   UNL A   1      38.264  34.348  40.654  1.00  0.00     0.124 S 
ATOM     69  O   UNL A   1      37.212  33.490  40.112  1.00  0.00    -0.237 OA
ATOM     70  O   UNL A   1      39.294  33.679  41.440  1.00  0.00    -0.237 OA
ATOM     71  O   UNL A   1      37.799  35.626  41.191  1.00  0.00    -0.744 OA
ENDBRANCH  64  68
ENDBRANCH  47  61
BRANCH  48  72
ATOM     72  C   UNL A   1      40.642  27.946  29.125  1.00  0.00     0.023 A 
ATOM     73  C   UNL A   1      41.530  28.262  28.086  1.00  0.00     0.031 A 
ATOM     74  C   UNL A   1      39.871  26.775  28.997  1.00  0.00     0.131 A 
ATOM     75  C   UNL A   1      41.590  27.451  26.942  1.00  0.00     0.055 A 
ATOM     76  C   UNL A   1      39.980  25.937  27.886  1.00  0.00     0.041 A 
ATOM     77  F   UNL A   1      39.006  26.421  29.960  1.00  0.00    -0.206 F 
ATOM     78  C   UNL A   1      40.834  26.281  26.843  1.00  0.00     0.022 A 
BRANCH  75  79
ATOM     79  S   UNL A   1      42.599  27.999  25.537  1.00  0.00     0.124 S 
ATOM     80  O   UNL A   1      42.631  26.797  24.710  1.00  0.00    -0.237 OA
ATOM     81  O   UNL A   1      41.814  29.115  25.018  1.00  0.00    -0.237 OA
ATOM     82  O   UNL A   1      43.870  28.366  26.155  1.00  0.00    -0.744 OA
ENDBRANCH  75  79
ENDBRANCH  48  72
BRANCH  60  83
ATOM     83  C   UNL A   1      44.095  28.596  35.157  1.00  0.00     0.023 A 
ATOM     84  C   UNL A   1      43.863  27.538  36.052  1.00  0.00     0.031 A 
ATOM     85  C   UNL A   1      45.430  28.913  34.844  1.00  0.00     0.131 A 
ATOM     86  C   UNL A   1      44.945  26.875  36.650  1.00  0.00     0.055 A 
ATOM     87  C   UNL A   1      46.502  28.206  35.389  1.00  0.00     0.041 A 
ATOM     88  F   UNL A   1      45.714  29.917  33.999  1.00  0.00    -0.206 F 
ATOM     89  C   UNL A   1      46.264  27.188  36.309  1.00  0.00     0.022 A 
BRANCH  86  90
ATOM     90  S   UNL A   1      44.613  25.663  37.959  1.00  0.00     0.124 S 
ATOM     91  O   UNL A   1      43.952  26.483  38.969  1.00  0.00    -0.237 OA
ATOM     92  O   UNL A   1      43.768  24.690  37.275  1.00  0.00    -0.237 OA
ATOM     93  O   UNL A   1      45.943  25.180  38.325  1.00  0.00    -0.744 OA
ENDBRANCH  86  90
ENDBRANCH  60  83
ENDBRANCH  34  35
ENDBRANCH  26  29
ENDBRANCH  24  25
ENDBRANCH  23  24
ENDBRANCH   1  23
TORSDOF 18
ENDMDL
MODEL 2
REMARK VINA RESULT:     -11.3      0.484      7.794
REMARK SMILES O=C(CCC(=O)Nc1ccc(Br)c([N+](=O)[O-])c1)NCCCCNC(=O)c1ccc(-c2c3nc(c(-c4cc(S(=O)(=O)[O-])ccc4F)c4ccc([nH]4)c(-c4cc(S(=O)(=O)[O-])ccc4F)c4nc(c(-c5cc(S(=O)(=O)[O-])ccc5F)c5ccc2[nH]5)C=C4)C=C3)cc1
REMARK SMILES IDX 20 1 19 2 18 3 1 4 2 5 3 7 4 8 5 9 6 10 7 11 8 13 9 14 17 15
REMARK SMILES IDX 10 16 13 17 11 18 12 19 14 20 15 21 16 22 21 23 22 24 23 25
REMARK SMILES IDX 24 26 25 28 26 29 27 30 88 31 28 32 87 33 29 34 30 35 31 36
REMARK SMILES IDX 81 37 32 38 86 39 80 40 82 41 33 42 85 43 79 44 78 45 34 47
REMARK SMILES IDX 66 48 46 49 65 50 47 51 50 52 64 53 83 54 48 55 49 56 63 58
REMARK SMILES IDX 84 59 51 60 35 61 36 62 44 63 37 64 43 65 45 66 42 67 38 68
REMARK SMILES IDX 39 69 40 70 41 71 67 72 68 73 76 74 69 75 75 76 77 77 74 78
REMARK SMILES IDX 70 79 71 80 72 81 73 82 52 83 53 84 61 85 54 86 60 87 62 88
REMARK SMILES IDX 59 89 55 90 56 91 57 92 58 93
REMARK H PARENT 18 6 7 12 23 27 82 46 50 57
REMARK Flexibility Score: inf
ROOT
ATOM      1  C   UNL A   1      32.133  30.137  26.702  1.00  0.00     0.023 C 
ENDROOT
BRANCH   1   2
ATOM      2  C   UNL A   1      33.607  29.769  26.578  1.00  0.00     0.116 C 
BRANCH   2   3
ATOM      3  N   UNL A   1      33.929  28.954  25.421  1.00  0.00    -0.356 N 
ATOM      4  O   UNL A   1      33.103  26.981  26.270  1.00  0.00    -0.275 OA
ATOM      5  C   UNL A   1      33.545  27.635  25.330  1.00  0.00     0.220 C 
ATOM      6  H   UNL A   1      34.436  29.357  24.680  1.00  0.00     0.163 HD
BRANCH   5   7
ATOM      7  C   UNL A   1      33.603  27.062  23.930  1.00  0.00     0.110 C 
BRANCH   7   8
ATOM      8  C   UNL A   1      32.565  27.681  22.994  1.00  0.00     0.110 C 
BRANCH   8   9
ATOM      9  C   UNL A   1      31.202  27.801  23.627  1.00  0.00     0.224 C 
ATOM     10  O   UNL A   1      30.778  28.925  23.921  1.00  0.00    -0.275 OA
ATOM     11  N   UNL A   1      30.399  26.748  23.942  1.00  0.00    -0.326 N 
ATOM     12  H   UNL A   1      29.467  27.023  24.103  1.00  0.00     0.169 HD
BRANCH  11  13
ATOM     13  C   UNL A   1      30.580  25.360  24.093  1.00  0.00     0.048 A 
ATOM     14  C   UNL A   1      30.951  24.473  23.089  1.00  0.00     0.028 A 
ATOM     15  C   UNL A   1      30.512  24.867  25.405  1.00  0.00     0.113 A 
ATOM     16  C   UNL A   1      31.384  23.175  23.392  1.00  0.00     0.025 A 
ATOM     17  C   UNL A   1      30.918  23.548  25.711  1.00  0.00     0.285 A 
ATOM     18  C   UNL A   1      31.405  22.709  24.707  1.00  0.00     0.095 A 
ATOM     19  Br  UNL A   1      32.209  21.010  24.968  1.00  0.00    -0.043 Br
BRANCH  17  20
ATOM     20  N   UNL A   1      30.835  23.130  27.109  1.00  0.00     0.064 N 
ATOM     21  O   UNL A   1      31.905  22.941  27.703  1.00  0.00    -0.258 OA
ATOM     22  O   UNL A   1      29.719  23.045  27.634  1.00  0.00    -0.258 OA
ENDBRANCH  17  20
ENDBRANCH  11  13
ENDBRANCH   8   9
ENDBRANCH   7   8
ENDBRANCH   5   7
ENDBRANCH   2   3
ENDBRANCH   1   2
BRANCH   1  23
ATOM     23  C   UNL A   1      31.843  31.608  27.005  1.00  0.00     0.023 C 
BRANCH  23  24
ATOM     24  C   UNL A   1      33.066  32.476  27.295  1.00  0.00     0.116 C 
BRANCH  24  25
ATOM     25  N   UNL A   1      32.719  33.835  27.682  1.00  0.00    -0.352 N 
ATOM     26  C   UNL A   1      33.213  34.615  28.703  1.00  0.00     0.251 C 
ATOM     27  H   UNL A   1      32.025  34.261  27.129  1.00  0.00     0.163 HD
ATOM     28  O   UNL A   1      32.647  35.674  28.978  1.00  0.00    -0.269 OA
BRANCH  26  29
ATOM     29  C   UNL A   1      34.385  34.175  29.496  1.00  0.00     0.039 A 
ATOM     30  C   UNL A   1      34.172  33.462  30.679  1.00  0.00     0.014 A 
ATOM     31  C   UNL A   1      35.688  34.459  29.085  1.00  0.00     0.014 A 
ATOM     32  C   UNL A   1      35.262  32.954  31.392  1.00  0.00     0.010 A 
ATOM     33  C   UNL A   1      36.770  33.880  29.749  1.00  0.00     0.010 A 
ATOM     34  C   UNL A   1      36.571  33.111  30.907  1.00  0.00    -0.014 A 
BRANCH  34  35
ATOM     35  C   UNL A   1      37.733  32.468  31.584  1.00  0.00     0.031 A 
ATOM     36  C   UNL A   1      38.453  31.315  30.936  1.00  0.00     0.074 A 
ATOM     37  C   UNL A   1      38.104  32.883  32.813  1.00  0.00     0.049 A 
ATOM     38  N   UNL A   1      39.428  30.579  31.404  1.00  0.00    -0.248 NA
ATOM     39  C   UNL A   1      37.996  30.923  29.595  1.00  0.00     0.031 C 
ATOM     40  C   UNL A   1      37.466  33.964  33.568  1.00  0.00     0.029 A 
ATOM     41  N   UNL A   1      39.099  32.441  33.652  1.00  0.00    -0.354 N 
ATOM     42  C   UNL A   1      39.698  29.633  30.421  1.00  0.00     0.074 A 
ATOM     43  C   UNL A   1      38.735  29.850  29.361  1.00  0.00     0.031 C 
ATOM     44  C   UNL A   1      38.099  34.117  34.741  1.00  0.00     0.029 A 
ATOM     45  C   UNL A   1      39.152  33.113  34.854  1.00  0.00     0.049 A 
ATOM     46  H   UNL A   1      39.716  31.712  33.416  1.00  0.00     0.167 HD
ATOM     47  C   UNL A   1      40.673  28.689  30.391  1.00  0.00     0.034 A 
ATOM     48  C   UNL A   1      39.942  32.932  35.931  1.00  0.00     0.034 A 
ATOM     49  C   UNL A   1      41.628  28.485  31.454  1.00  0.00     0.049 A 
ATOM     50  C   UNL A   1      40.990  31.845  35.895  1.00  0.00     0.074 A 
ATOM     51  C   UNL A   1      42.679  27.585  31.507  1.00  0.00     0.029 A 
ATOM     52  N   UNL A   1      41.645  29.179  32.658  1.00  0.00    -0.354 N 
ATOM     53  N   UNL A   1      41.259  30.989  34.935  1.00  0.00    -0.248 NA
ATOM     54  C   UNL A   1      41.845  31.708  37.081  1.00  0.00     0.031 C 
ATOM     55  C   UNL A   1      43.279  27.681  32.766  1.00  0.00     0.029 A 
ATOM     56  C   UNL A   1      42.664  28.703  33.469  1.00  0.00     0.049 A 
ATOM     57  H   UNL A   1      41.022  29.903  32.900  1.00  0.00     0.167 HD
ATOM     58  C   UNL A   1      42.338  30.235  35.392  1.00  0.00     0.074 A 
ATOM     59  C   UNL A   1      42.677  30.749  36.703  1.00  0.00     0.031 C 
ATOM     60  C   UNL A   1      42.990  29.214  34.781  1.00  0.00     0.034 A 
BRANCH  47  61
ATOM     61  C   UNL A   1      40.734  27.790  29.176  1.00  0.00     0.023 A 
ATOM     62  C   UNL A   1      41.670  28.002  28.149  1.00  0.00     0.031 A 
ATOM     63  C   UNL A   1      39.834  26.718  29.033  1.00  0.00     0.131 A 
ATOM     64  C   UNL A   1      41.634  27.210  26.992  1.00  0.00     0.055 A 
ATOM     65  C   UNL A   1      39.862  25.877  27.918  1.00  0.00     0.041 A 
ATOM     66  F   UNL A   1      38.904  26.476  29.969  1.00  0.00    -0.206 F 
ATOM     67  C   UNL A   1      40.756  26.131  26.881  1.00  0.00     0.022 A 
BRANCH  64  68
ATOM     68  S   UNL A   1      42.646  27.708  25.572  1.00  0.00     0.124 S 
ATOM     69  O   UNL A   1      42.354  26.642  24.615  1.00  0.00    -0.237 OA
ATOM     70  O   UNL A   1      42.108  29.024  25.247  1.00  0.00    -0.237 OA
ATOM     71  O   UNL A   1      44.008  27.702  26.102  1.00  0.00    -0.744 OA
ENDBRANCH  64  68
ENDBRANCH  47  61
BRANCH  48  72
ATOM     72  C   UNL A   1      39.769  33.778  37.149  1.00  0.00     0.023 A 
ATOM     73  C   UNL A   1      39.264  33.241  38.344  1.00  0.00     0.031 A 
ATOM     74  C   UNL A   1      40.060  35.155  37.119  1.00  0.00     0.131 A 
ATOM     75  C   UNL A   1      39.016  34.081  39.441  1.00  0.00     0.055 A 
ATOM     76  C   UNL A   1      39.871  35.974  38.233  1.00  0.00     0.041 A 
ATOM     77  F   UNL A   1      40.546  35.723  36.004  1.00  0.00    -0.206 F 
ATOM     78  C   UNL A   1      39.332  35.440  39.399  1.00  0.00     0.022 A 
BRANCH  75  79
ATOM     79  S   UNL A   1      38.179  33.389  40.894  1.00  0.00     0.124 S 
ATOM     80  O   UNL A   1      38.584  34.323  41.940  1.00  0.00    -0.237 OA
ATOM     81  O   UNL A   1      36.777  33.445  40.491  1.00  0.00    -0.237 OA
ATOM     82  O   UNL A   1      38.741  32.046  41.004  1.00  0.00    -0.744 OA
ENDBRANCH  75  79
ENDBRANCH  48  72
BRANCH  60  83
ATOM     83  C   UNL A   1      44.176  28.619  35.506  1.00  0.00     0.023 A 
ATOM     84  C   UNL A   1      44.033  27.572  36.433  1.00  0.00     0.031 A 
ATOM     85  C   UNL A   1      45.471  29.117  35.269  1.00  0.00     0.131 A 
ATOM     86  C   UNL A   1      45.153  27.097  37.131  1.00  0.00     0.055 A 
ATOM     87  C   UNL A   1      46.590  28.594  35.916  1.00  0.00     0.041 A 
ATOM     88  F   UNL A   1      45.669  30.119  34.398  1.00  0.00    -0.206 F 
ATOM     89  C   UNL A   1      46.434  27.587  36.864  1.00  0.00     0.022 A 
BRANCH  86  90
ATOM     90  S   UNL A   1      44.904  25.899  38.470  1.00  0.00     0.124 S 
ATOM     91  O   UNL A   1      43.930  26.584  39.313  1.00  0.00    -0.237 OA
ATOM     92  O   UNL A   1      44.414  24.727  37.752  1.00  0.00    -0.237 OA
ATOM     93  O   UNL A   1      46.237  25.754  39.054  1.00  0.00    -0.744 OA
ENDBRANCH  86  90
ENDBRANCH  60  83
ENDBRANCH  34  35
ENDBRANCH  26  29
ENDBRANCH  24  25
ENDBRANCH  23  24
ENDBRANCH   1  23
TORSDOF 18
ENDMDL
MODEL 3
REMARK VINA RESULT:     -11.1      2.553      8.454
REMARK SMILES O=C(CCC(=O)Nc1ccc(Br)c([N+](=O)[O-])c1)NCCCCNC(=O)c1ccc(-c2c3nc(c(-c4cc(S(=O)(=O)[O-])ccc4F)c4ccc([nH]4)c(-c4cc(S(=O)(=O)[O-])ccc4F)c4nc(c(-c5cc(S(=O)(=O)[O-])ccc5F)c5ccc2[nH]5)C=C4)C=C3)cc1
REMARK SMILES IDX 20 1 19 2 18 3 1 4 2 5 3 7 4 8 5 9 6 10 7 11 8 13 9 14 17 15
REMARK SMILES IDX 10 16 13 17 11 18 12 19 14 20 15 21 16 22 21 23 22 24 23 25
REMARK SMILES IDX 24 26 25 28 26 29 27 30 88 31 28 32 87 33 29 34 30 35 31 36
REMARK SMILES IDX 81 37 32 38 86 39 80 40 82 41 33 42 85 43 79 44 78 45 34 47
REMARK SMILES IDX 66 48 46 49 65 50 47 51 50 52 64 53 83 54 48 55 49 56 63 58
REMARK SMILES IDX 84 59 51 60 35 61 36 62 44 63 37 64 43 65 45 66 42 67 38 68
REMARK SMILES IDX 39 69 40 70 41 71 67 72 68 73 76 74 69 75 75 76 77 77 74 78
REMARK SMILES IDX 70 79 71 80 72 81 73 82 52 83 53 84 61 85 54 86 60 87 62 88
REMARK SMILES IDX 59 89 55 90 56 91 57 92 58 93
REMARK H PARENT 18 6 7 12 23 27 82 46 50 57
REMARK Flexibility Score: inf
ROOT
ATOM      1  C   UNL A   1      31.750  27.219  26.738  1.00  0.00     0.023 C 
ENDROOT
BRANCH   1   2
ATOM      2  C   UNL A   1      31.089  25.871  26.473  1.00  0.00     0.116 C 
BRANCH   2   3
ATOM      3  N   UNL A   1      31.941  24.723  26.722  1.00  0.00    -0.356 N 
ATOM      4  O   UNL A   1      30.242  23.263  27.251  1.00  0.00    -0.275 OA
ATOM      5  C   UNL A   1      31.423  23.475  26.990  1.00  0.00     0.220 C 
ATOM      6  H   UNL A   1      32.918  24.840  26.698  1.00  0.00     0.163 HD
BRANCH   5   7
ATOM      7  C   UNL A   1      32.412  22.341  26.828  1.00  0.00     0.110 C 
BRANCH   7   8
ATOM      8  C   UNL A   1      32.191  21.542  25.544  1.00  0.00     0.110 C 
BRANCH   8   9
ATOM      9  C   UNL A   1      33.450  21.379  24.730  1.00  0.00     0.224 C 
ATOM     10  O   UNL A   1      34.108  20.339  24.854  1.00  0.00    -0.275 OA
ATOM     11  N   UNL A   1      33.951  22.317  23.882  1.00  0.00    -0.326 N 
ATOM     12  H   UNL A   1      34.617  21.943  23.260  1.00  0.00     0.169 HD
BRANCH  11  13
ATOM     13  C   UNL A   1      33.746  23.696  23.678  1.00  0.00     0.048 A 
ATOM     14  C   UNL A   1      34.230  24.719  24.485  1.00  0.00     0.028 A 
ATOM     15  C   UNL A   1      33.115  24.056  22.478  1.00  0.00     0.113 A 
ATOM     16  C   UNL A   1      34.222  26.051  24.049  1.00  0.00     0.025 A 
ATOM     17  C   UNL A   1      33.077  25.402  22.048  1.00  0.00     0.285 A 
ATOM     18  C   UNL A   1      33.677  26.403  22.814  1.00  0.00     0.095 A 
ATOM     19  Br  UNL A   1      33.929  28.208  22.285  1.00  0.00    -0.043 Br
BRANCH  17  20
ATOM     20  N   UNL A   1      32.419  25.678  20.773  1.00  0.00     0.064 N 
ATOM     21  O   UNL A   1      31.343  26.288  20.817  1.00  0.00    -0.258 OA
ATOM     22  O   UNL A   1      32.992  25.345  19.729  1.00  0.00    -0.258 OA
ENDBRANCH  17  20
ENDBRANCH  11  13
ENDBRANCH   8   9
ENDBRANCH   7   8
ENDBRANCH   5   7
ENDBRANCH   2   3
ENDBRANCH   1   2
BRANCH   1  23
ATOM     23  C   UNL A   1      31.744  28.198  25.563  1.00  0.00     0.023 C 
BRANCH  23  24
ATOM     24  C   UNL A   1      32.850  29.251  25.575  1.00  0.00     0.116 C 
BRANCH  24  25
ATOM     25  N   UNL A   1      32.350  30.596  25.819  1.00  0.00    -0.352 N 
ATOM     26  C   UNL A   1      32.699  31.504  26.793  1.00  0.00     0.251 C 
ATOM     27  H   UNL A   1      31.657  30.903  25.191  1.00  0.00     0.163 HD
ATOM     28  O   UNL A   1      32.018  32.520  26.940  1.00  0.00    -0.269 OA
BRANCH  26  29
ATOM     29  C   UNL A   1      33.852  31.251  27.689  1.00  0.00     0.039 A 
ATOM     30  C   UNL A   1      34.145  29.936  28.060  1.00  0.00     0.014 A 
ATOM     31  C   UNL A   1      34.645  32.297  28.166  1.00  0.00     0.014 A 
ATOM     32  C   UNL A   1      35.284  29.664  28.825  1.00  0.00     0.010 A 
ATOM     33  C   UNL A   1      35.825  32.019  28.856  1.00  0.00     0.010 A 
ATOM     34  C   UNL A   1      36.166  30.697  29.186  1.00  0.00    -0.014 A 
BRANCH  34  35
ATOM     35  C   UNL A   1      37.448  30.411  29.891  1.00  0.00     0.031 A 
ATOM     36  C   UNL A   1      38.499  29.548  29.243  1.00  0.00     0.074 A 
ATOM     37  C   UNL A   1      37.643  30.879  31.141  1.00  0.00     0.049 A 
ATOM     38  N   UNL A   1      39.638  29.124  29.730  1.00  0.00    -0.248 NA
ATOM     39  C   UNL A   1      38.219  29.079  27.879  1.00  0.00     0.031 C 
ATOM     40  C   UNL A   1      36.689  31.695  31.896  1.00  0.00     0.029 A 
ATOM     41  N   UNL A   1      38.702  30.730  32.005  1.00  0.00    -0.354 N 
ATOM     42  C   UNL A   1      40.207  28.334  28.737  1.00  0.00     0.074 A 
ATOM     43  C   UNL A   1      39.252  28.285  27.648  1.00  0.00     0.031 C 
ATOM     44  C   UNL A   1      37.215  31.994  33.094  1.00  0.00     0.029 A 
ATOM     45  C   UNL A   1      38.518  31.349  33.222  1.00  0.00     0.049 A 
ATOM     46  H   UNL A   1      39.516  30.228  31.775  1.00  0.00     0.167 HD
ATOM     47  C   UNL A   1      41.421  27.727  28.721  1.00  0.00     0.034 A 
ATOM     48  C   UNL A   1      39.296  31.379  34.322  1.00  0.00     0.034 A 
ATOM     49  C   UNL A   1      42.363  27.786  29.813  1.00  0.00     0.049 A 
ATOM     50  C   UNL A   1      40.622  30.659  34.299  1.00  0.00     0.074 A 
ATOM     51  C   UNL A   1      43.635  27.242  29.883  1.00  0.00     0.029 A 
ATOM     52  N   UNL A   1      42.137  28.415  31.031  1.00  0.00    -0.354 N 
ATOM     53  N   UNL A   1      41.162  29.954  33.332  1.00  0.00    -0.248 NA
ATOM     54  C   UNL A   1      41.446  30.747  35.512  1.00  0.00     0.031 C 
ATOM     55  C   UNL A   1      44.144  27.474  31.164  1.00  0.00     0.029 A 
ATOM     56  C   UNL A   1      43.230  28.242  31.868  1.00  0.00     0.049 A 
ATOM     57  H   UNL A   1      41.320  28.911  31.266  1.00  0.00     0.167 HD
ATOM     58  C   UNL A   1      42.405  29.544  33.811  1.00  0.00     0.074 A 
ATOM     59  C   UNL A   1      42.538  30.095  35.143  1.00  0.00     0.031 C 
ATOM     60  C   UNL A   1      43.352  28.786  33.201  1.00  0.00     0.034 A 
BRANCH  47  61
ATOM     61  C   UNL A   1      41.783  26.927  27.490  1.00  0.00     0.023 A 
ATOM     62  C   UNL A   1      41.523  25.548  27.404  1.00  0.00     0.031 A 
ATOM     63  C   UNL A   1      42.411  27.546  26.394  1.00  0.00     0.131 A 
ATOM     64  C   UNL A   1      41.961  24.820  26.289  1.00  0.00     0.055 A 
ATOM     65  C   UNL A   1      42.764  26.830  25.247  1.00  0.00     0.041 A 
ATOM     66  F   UNL A   1      42.704  28.855  26.422  1.00  0.00    -0.206 F 
ATOM     67  C   UNL A   1      42.554  25.455  25.196  1.00  0.00     0.022 A 
BRANCH  64  68
ATOM     68  S   UNL A   1      41.883  23.009  26.354  1.00  0.00     0.124 S 
ATOM     69  O   UNL A   1      42.616  22.727  27.587  1.00  0.00    -0.237 OA
ATOM     70  O   UNL A   1      40.448  22.756  26.390  1.00  0.00    -0.237 OA
ATOM     71  O   UNL A   1      42.560  22.592  25.127  1.00  0.00    -0.744 OA
ENDBRANCH  64  68
ENDBRANCH  47  61
BRANCH  48  72
ATOM     72  C   UNL A   1      38.843  32.096  35.551  1.00  0.00     0.023 A 
ATOM     73  C   UNL A   1      38.275  31.402  36.632  1.00  0.00     0.031 A 
ATOM     74  C   UNL A   1      38.926  33.498  35.642  1.00  0.00     0.131 A 
ATOM     75  C   UNL A   1      37.765  32.111  37.730  1.00  0.00     0.055 A 
ATOM     76  C   UNL A   1      38.474  34.194  36.764  1.00  0.00     0.041 A 
ATOM     77  F   UNL A   1      39.460  34.213  34.639  1.00  0.00    -0.206 F 
ATOM     78  C   UNL A   1      37.876  33.501  37.811  1.00  0.00     0.022 A 
BRANCH  75  79
ATOM     79  S   UNL A   1      36.861  31.199  39.012  1.00  0.00     0.124 S 
ATOM     80  O   UNL A   1      35.631  31.977  39.117  1.00  0.00    -0.237 OA
ATOM     81  O   UNL A   1      36.735  29.876  38.409  1.00  0.00    -0.237 OA
ATOM     82  O   UNL A   1      37.748  31.272  40.170  1.00  0.00    -0.744 OA
ENDBRANCH  75  79
ENDBRANCH  48  72
BRANCH  60  83
ATOM     83  C   UNL A   1      44.641  28.552  33.955  1.00  0.00     0.023 A 
ATOM     84  C   UNL A   1      44.769  27.530  34.912  1.00  0.00     0.031 A 
ATOM     85  C   UNL A   1      45.758  29.373  33.714  1.00  0.00     0.131 A 
ATOM     86  C   UNL A   1      45.964  27.393  35.635  1.00  0.00     0.055 A 
ATOM     87  C   UNL A   1      46.966  29.188  34.387  1.00  0.00     0.041 A 
ATOM     88  F   UNL A   1      45.694  30.367  32.815  1.00  0.00    -0.206 F 
ATOM     89  C   UNL A   1      47.070  28.202  35.364  1.00  0.00     0.022 A 
BRANCH  86  90
ATOM     90  S   UNL A   1      46.023  26.208  37.007  1.00  0.00     0.124 S 
ATOM     91  O   UNL A   1      44.701  25.595  36.934  1.00  0.00    -0.237 OA
ATOM     92  O   UNL A   1      47.144  25.353  36.632  1.00  0.00    -0.237 OA
ATOM     93  O   UNL A   1      46.253  27.051  38.179  1.00  0.00    -0.744 OA
ENDBRANCH  86  90
ENDBRANCH  60  83
ENDBRANCH  34  35
ENDBRANCH  26  29
ENDBRANCH  24  25
ENDBRANCH  23  24
ENDBRANCH   1  23
TORSDOF 18
ENDMDL
