MODEL 1
REMARK VINA RESULT:     -11.4      0.000      0.000
REMARK SMILES O=C(CN(CC(F)(F)F)C(=O)Nc1ccccc1Cl)NCCCCNC(=O)c1ccc(-c2c3nc(c(-c4cc(S(=O)(=O)[O-])ccc4F)c4ccc([nH]4)c(-c4cc(S(=O)(=O)[O-])ccc4F)c4nc(c(-c5cc(S(=O)(=O)[O-])ccc5F)c5ccc2[nH]5)C=C4)C=C3)cc1
REMARK SMILES IDX 22 1 21 2 20 3 1 4 2 5 3 7 4 8 5 9 6 10 7 11 8 12 9 13 10 14
REMARK SMILES IDX 11 15 12 16 13 18 14 19 18 20 15 21 17 22 19 23 16 24 23 25
REMARK SMILES IDX 24 26 25 27 26 28 27 30 28 31 29 32 90 33 30 34 89 35 31 36
REMARK SMILES IDX 32 37 33 38 83 39 34 40 88 41 82 42 84 43 35 44 87 45 81 46
REMARK SMILES IDX 80 47 36 49 68 50 48 51 67 52 49 53 52 54 66 55 85 56 50 57
REMARK SMILES IDX 51 58 65 60 86 61 53 62 37 63 38 64 46 65 39 66 45 67 47 68
REMARK SMILES IDX 44 69 40 70 41 71 42 72 43 73 69 74 70 75 78 76 71 77 77 78
REMARK SMILES IDX 79 79 76 80 72 81 73 82 74 83 75 84 54 85 55 86 63 87 56 88
REMARK SMILES IDX 62 89 64 90 61 91 57 92 58 93 59 94 60 95
REMARK H PARENT 20 6 12 17 25 29 84 48 52 59
REMARK Flexibility Score: inf
ROOT
ATOM      1  C   UNL A   1      35.194  20.098  24.973  1.00  0.00     0.023 C 
ENDROOT
BRANCH   1   2
ATOM      2  C   UNL A   1      33.683  19.919  24.829  1.00  0.00     0.116 C 
BRANCH   2   3
ATOM      3  N   UNL A   1      32.918  21.120  25.111  1.00  0.00    -0.355 N 
ATOM      4  O   UNL A   1      32.378  21.545  22.927  1.00  0.00    -0.273 OA
ATOM      5  C   UNL A   1      32.220  21.787  24.123  1.00  0.00     0.239 C 
ATOM      6  H   UNL A   1      32.894  21.467  26.032  1.00  0.00     0.163 HD
BRANCH   5   7
ATOM      7  C   UNL A   1      31.335  22.965  24.590  1.00  0.00     0.221 C 
BRANCH   7   8
ATOM      8  N   UNL A   1      32.046  24.114  25.188  1.00  0.00    -0.306 N 
BRANCH   8   9
ATOM      9  C   UNL A   1      33.332  24.479  24.537  1.00  0.00     0.237 C 
BRANCH   9  10
ATOM     10  C   UNL A   1      34.514  24.846  25.459  1.00  0.00     0.406 C 
ATOM     11  F   UNL A   1      35.713  24.722  24.865  1.00  0.00    -0.169 F 
ATOM     12  F   UNL A   1      34.403  26.137  25.856  1.00  0.00    -0.169 F 
ATOM     13  F   UNL A   1      34.538  24.093  26.581  1.00  0.00    -0.169 F 
ENDBRANCH   9  10
ENDBRANCH   8   9
BRANCH   8  14
ATOM     14  C   UNL A   1      31.455  24.625  26.328  1.00  0.00     0.322 C 
ATOM     15  O   UNL A   1      31.155  23.886  27.270  1.00  0.00    -0.248 OA
ATOM     16  N   UNL A   1      31.384  25.957  26.567  1.00  0.00    -0.306 N 
ATOM     17  H   UNL A   1      31.479  26.195  27.518  1.00  0.00     0.171 HD
BRANCH  16  18
ATOM     18  C   UNL A   1      31.203  27.059  25.725  1.00  0.00     0.061 A 
ATOM     19  C   UNL A   1      30.438  26.842  24.575  1.00  0.00     0.028 A 
ATOM     20  C   UNL A   1      31.743  28.328  25.967  1.00  0.00     0.064 A 
ATOM     21  C   UNL A   1      30.069  27.918  23.768  1.00  0.00     0.002 A 
ATOM     22  C   UNL A   1      31.364  29.406  25.164  1.00  0.00     0.023 A 
ATOM     23  Cl  UNL A   1      32.997  28.572  27.134  1.00  0.00    -0.082 Cl
ATOM     24  C   UNL A   1      30.502  29.205  24.084  1.00  0.00     0.002 A 
ENDBRANCH  16  18
ENDBRANCH   8  14
ENDBRANCH   7   8
ENDBRANCH   5   7
ENDBRANCH   2   3
ENDBRANCH   1   2
BRANCH   1  25
ATOM     25  C   UNL A   1      35.731  21.489  24.628  1.00  0.00     0.023 C 
BRANCH  25  26
ATOM     26  C   UNL A   1      36.861  22.013  25.511  1.00  0.00     0.116 C 
BRANCH  26  27
ATOM     27  N   UNL A   1      37.954  21.068  25.682  1.00  0.00    -0.352 N 
ATOM     28  C   UNL A   1      39.238  21.283  26.133  1.00  0.00     0.251 C 
ATOM     29  H   UNL A   1      37.745  20.138  25.440  1.00  0.00     0.163 HD
ATOM     30  O   UNL A   1      40.049  20.359  26.099  1.00  0.00    -0.269 OA
BRANCH  28  31
ATOM     31  C   UNL A   1      39.658  22.620  26.617  1.00  0.00     0.039 A 
ATOM     32  C   UNL A   1      40.621  22.698  27.629  1.00  0.00     0.014 A 
ATOM     33  C   UNL A   1      39.116  23.794  26.086  1.00  0.00     0.014 A 
ATOM     34  C   UNL A   1      41.097  23.946  28.047  1.00  0.00     0.010 A 
ATOM     35  C   UNL A   1      39.642  25.034  26.453  1.00  0.00     0.010 A 
ATOM     36  C   UNL A   1      40.646  25.124  27.431  1.00  0.00    -0.014 A 
BRANCH  36  37
ATOM     37  C   UNL A   1      41.219  26.453  27.784  1.00  0.00     0.031 A 
ATOM     38  C   UNL A   1      42.650  26.781  27.445  1.00  0.00     0.074 A 
ATOM     39  C   UNL A   1      40.475  27.343  28.471  1.00  0.00     0.049 A 
ATOM     40  N   UNL A   1      43.354  27.839  27.754  1.00  0.00    -0.248 NA
ATOM     41  C   UNL A   1      43.392  25.766  26.681  1.00  0.00     0.031 C 
ATOM     42  C   UNL A   1      39.087  27.135  28.893  1.00  0.00     0.029 A 
ATOM     43  N   UNL A   1      40.778  28.595  28.948  1.00  0.00    -0.354 N 
ATOM     44  C   UNL A   1      44.624  27.619  27.230  1.00  0.00     0.074 A 
ATOM     45  C   UNL A   1      44.607  26.294  26.644  1.00  0.00     0.031 C 
ATOM     46  C   UNL A   1      38.657  28.226  29.547  1.00  0.00     0.029 A 
ATOM     47  C   UNL A   1      39.747  29.192  29.637  1.00  0.00     0.049 A 
ATOM     48  H   UNL A   1      41.653  29.025  28.809  1.00  0.00     0.167 HD
ATOM     49  C   UNL A   1      45.697  28.450  27.218  1.00  0.00     0.034 A 
ATOM     50  C   UNL A   1      39.688  30.375  30.283  1.00  0.00     0.034 A 
ATOM     51  C   UNL A   1      45.698  29.772  27.800  1.00  0.00     0.049 A 
ATOM     52  C   UNL A   1      40.902  31.269  30.286  1.00  0.00     0.074 A 
ATOM     53  C   UNL A   1      46.716  30.711  27.803  1.00  0.00     0.029 A 
ATOM     54  N   UNL A   1      44.633  30.343  28.485  1.00  0.00    -0.354 N 
ATOM     55  N   UNL A   1      42.084  31.059  29.751  1.00  0.00    -0.248 NA
ATOM     56  C   UNL A   1      40.771  32.563  30.969  1.00  0.00     0.031 C 
ATOM     57  C   UNL A   1      46.292  31.817  28.549  1.00  0.00     0.029 A 
ATOM     58  C   UNL A   1      44.982  31.606  28.942  1.00  0.00     0.049 A 
ATOM     59  H   UNL A   1      43.758  29.914  28.626  1.00  0.00     0.167 HD
ATOM     60  C   UNL A   1      42.825  32.210  30.007  1.00  0.00     0.074 A 
ATOM     61  C   UNL A   1      41.953  33.114  30.729  1.00  0.00     0.031 C 
ATOM     62  C   UNL A   1      44.109  32.496  29.672  1.00  0.00     0.034 A 
BRANCH  49  63
ATOM     63  C   UNL A   1      46.965  27.939  26.574  1.00  0.00     0.023 A 
ATOM     64  C   UNL A   1      47.212  28.104  25.200  1.00  0.00     0.031 A 
ATOM     65  C   UNL A   1      47.930  27.257  27.336  1.00  0.00     0.131 A 
ATOM     66  C   UNL A   1      48.350  27.527  24.617  1.00  0.00     0.055 A 
ATOM     67  C   UNL A   1      49.105  26.762  26.766  1.00  0.00     0.041 A 
ATOM     68  F   UNL A   1      47.743  27.049  28.649  1.00  0.00    -0.206 F 
ATOM     69  C   UNL A   1      49.312  26.880  25.394  1.00  0.00     0.022 A 
BRANCH  66  70
ATOM     70  S   UNL A   1      48.472  27.498  22.808  1.00  0.00     0.124 S 
ATOM     71  O   UNL A   1      47.293  28.269  22.421  1.00  0.00    -0.237 OA
ATOM     72  O   UNL A   1      49.761  28.135  22.569  1.00  0.00    -0.237 OA
ATOM     73  O   UNL A   1      48.409  26.074  22.483  1.00  0.00    -0.744 OA
ENDBRANCH  66  70
ENDBRANCH  49  63
BRANCH  50  74
ATOM     74  C   UNL A   1      38.444  30.781  31.001  1.00  0.00     0.023 A 
ATOM     75  C   UNL A   1      37.394  31.424  30.328  1.00  0.00     0.031 A 
ATOM     76  C   UNL A   1      38.309  30.574  32.387  1.00  0.00     0.131 A 
ATOM     77  C   UNL A   1      36.277  31.880  31.044  1.00  0.00     0.055 A 
ATOM     78  C   UNL A   1      37.171  30.979  33.086  1.00  0.00     0.041 A 
ATOM     79  F   UNL A   1      39.282  29.963  33.080  1.00  0.00    -0.206 F 
ATOM     80  C   UNL A   1      36.152  31.650  32.416  1.00  0.00     0.022 A 
BRANCH  77  81
ATOM     81  S   UNL A   1      35.029  32.866  30.172  1.00  0.00     0.124 S 
ATOM     82  O   UNL A   1      34.560  31.924  29.162  1.00  0.00    -0.237 OA
ATOM     83  O   UNL A   1      34.089  33.178  31.244  1.00  0.00    -0.237 OA
ATOM     84  O   UNL A   1      35.790  34.004  29.662  1.00  0.00    -0.744 OA
ENDBRANCH  77  81
ENDBRANCH  50  74
BRANCH  62  85
ATOM     85  C   UNL A   1      44.628  33.864  30.044  1.00  0.00     0.023 A 
ATOM     86  C   UNL A   1      44.494  34.969  29.184  1.00  0.00     0.031 A 
ATOM     87  C   UNL A   1      45.277  34.062  31.276  1.00  0.00     0.131 A 
ATOM     88  C   UNL A   1      45.051  36.206  29.542  1.00  0.00     0.055 A 
ATOM     89  C   UNL A   1      45.774  35.310  31.654  1.00  0.00     0.041 A 
ATOM     90  F   UNL A   1      45.438  33.043  32.136  1.00  0.00    -0.206 F 
ATOM     91  C   UNL A   1      45.675  36.387  30.779  1.00  0.00     0.022 A 
BRANCH  88  92
ATOM     92  S   UNL A   1      45.031  37.555  28.329  1.00  0.00     0.124 S 
ATOM     93  O   UNL A   1      45.715  36.949  27.192  1.00  0.00    -0.237 OA
ATOM     94  O   UNL A   1      43.602  37.797  28.157  1.00  0.00    -0.237 OA
ATOM     95  O   UNL A   1      45.765  38.627  28.996  1.00  0.00    -0.744 OA
ENDBRANCH  88  92
ENDBRANCH  62  85
ENDBRANCH  36  37
ENDBRANCH  28  31
ENDBRANCH  26  27
ENDBRANCH  25  26
ENDBRANCH   1  25
TORSDOF 19
ENDMDL
MODEL 2
REMARK VINA RESULT:     -11.2      5.551      8.592
REMARK SMILES O=C(CN(CC(F)(F)F)C(=O)Nc1ccccc1Cl)NCCCCNC(=O)c1ccc(-c2c3nc(c(-c4cc(S(=O)(=O)[O-])ccc4F)c4ccc([nH]4)c(-c4cc(S(=O)(=O)[O-])ccc4F)c4nc(c(-c5cc(S(=O)(=O)[O-])ccc5F)c5ccc2[nH]5)C=C4)C=C3)cc1
REMARK SMILES IDX 22 1 21 2 20 3 1 4 2 5 3 7 4 8 5 9 6 10 7 11 8 12 9 13 10 14
REMARK SMILES IDX 11 15 12 16 13 18 14 19 18 20 15 21 17 22 19 23 16 24 23 25
REMARK SMILES IDX 24 26 25 27 26 28 27 30 28 31 29 32 90 33 30 34 89 35 31 36
REMARK SMILES IDX 32 37 33 38 83 39 34 40 88 41 82 42 84 43 35 44 87 45 81 46
REMARK SMILES IDX 80 47 36 49 68 50 48 51 67 52 49 53 52 54 66 55 85 56 50 57
REMARK SMILES IDX 51 58 65 60 86 61 53 62 37 63 38 64 46 65 39 66 45 67 47 68
REMARK SMILES IDX 44 69 40 70 41 71 42 72 43 73 69 74 70 75 78 76 71 77 77 78
REMARK SMILES IDX 79 79 76 80 72 81 73 82 74 83 75 84 54 85 55 86 63 87 56 88
REMARK SMILES IDX 62 89 64 90 61 91 57 92 58 93 59 94 60 95
REMARK H PARENT 20 6 12 17 25 29 84 48 52 59
REMARK Flexibility Score: inf
ROOT
ATOM      1  C   UNL A   1      31.902  29.976  26.448  1.00  0.00     0.023 C 
ENDROOT
BRANCH   1   2
ATOM      2  C   UNL A   1      32.150  29.402  25.053  1.00  0.00     0.116 C 
BRANCH   2   3
ATOM      3  N   UNL A   1      32.659  28.044  25.056  1.00  0.00    -0.355 N 
ATOM      4  O   UNL A   1      32.397  27.716  22.805  1.00  0.00    -0.273 OA
ATOM      5  C   UNL A   1      32.847  27.335  23.886  1.00  0.00     0.239 C 
ATOM      6  H   UNL A   1      32.877  27.616  25.915  1.00  0.00     0.163 HD
BRANCH   5   7
ATOM      7  C   UNL A   1      33.528  25.954  24.026  1.00  0.00     0.221 C 
BRANCH   7   8
ATOM      8  N   UNL A   1      32.622  24.796  24.176  1.00  0.00    -0.306 N 
BRANCH   8   9
ATOM      9  C   UNL A   1      32.129  24.203  22.905  1.00  0.00     0.237 C 
BRANCH   9  10
ATOM     10  C   UNL A   1      33.064  23.218  22.172  1.00  0.00     0.406 C 
ATOM     11  F   UNL A   1      32.557  21.978  22.068  1.00  0.00    -0.169 F 
ATOM     12  F   UNL A   1      33.297  23.656  20.912  1.00  0.00    -0.169 F 
ATOM     13  F   UNL A   1      34.268  23.113  22.778  1.00  0.00    -0.169 F 
ENDBRANCH   9  10
ENDBRANCH   8   9
BRANCH   8  14
ATOM     14  C   UNL A   1      32.291  24.491  25.482  1.00  0.00     0.322 C 
ATOM     15  O   UNL A   1      31.873  25.364  26.249  1.00  0.00    -0.248 OA
ATOM     16  N   UNL A   1      32.188  23.213  25.919  1.00  0.00    -0.306 N 
ATOM     17  H   UNL A   1      31.478  23.078  26.587  1.00  0.00     0.171 HD
BRANCH  16  18
ATOM     18  C   UNL A   1      32.896  22.048  25.605  1.00  0.00     0.061 A 
ATOM     19  C   UNL A   1      32.134  20.955  25.181  1.00  0.00     0.028 A 
ATOM     20  C   UNL A   1      34.288  21.926  25.701  1.00  0.00     0.064 A 
ATOM     21  C   UNL A   1      32.767  19.812  24.691  1.00  0.00     0.002 A 
ATOM     22  C   UNL A   1      34.919  20.785  25.199  1.00  0.00     0.023 A 
ATOM     23  Cl  UNL A   1      35.241  23.078  26.571  1.00  0.00    -0.082 Cl
ATOM     24  C   UNL A   1      34.159  19.743  24.666  1.00  0.00     0.002 A 
ENDBRANCH  16  18
ENDBRANCH   8  14
ENDBRANCH   7   8
ENDBRANCH   5   7
ENDBRANCH   2   3
ENDBRANCH   1   2
BRANCH   1  25
ATOM     25  C   UNL A   1      31.783  31.501  26.524  1.00  0.00     0.023 C 
BRANCH  25  26
ATOM     26  C   UNL A   1      32.920  32.231  27.235  1.00  0.00     0.116 C 
BRANCH  26  27
ATOM     27  N   UNL A   1      32.608  33.612  27.568  1.00  0.00    -0.352 N 
ATOM     28  C   UNL A   1      33.181  34.440  28.508  1.00  0.00     0.251 C 
ATOM     29  H   UNL A   1      31.880  34.015  27.043  1.00  0.00     0.163 HD
ATOM     30  O   UNL A   1      32.693  35.550  28.709  1.00  0.00    -0.269 OA
BRANCH  28  31
ATOM     31  C   UNL A   1      34.348  33.989  29.305  1.00  0.00     0.039 A 
ATOM     32  C   UNL A   1      34.129  33.170  30.417  1.00  0.00     0.014 A 
ATOM     33  C   UNL A   1      35.652  34.364  28.968  1.00  0.00     0.014 A 
ATOM     34  C   UNL A   1      35.216  32.664  31.138  1.00  0.00     0.010 A 
ATOM     35  C   UNL A   1      36.736  33.801  29.643  1.00  0.00     0.010 A 
ATOM     36  C   UNL A   1      36.531  32.936  30.731  1.00  0.00    -0.014 A 
BRANCH  36  37
ATOM     37  C   UNL A   1      37.701  32.318  31.417  1.00  0.00     0.031 A 
ATOM     38  C   UNL A   1      38.446  31.177  30.774  1.00  0.00     0.074 A 
ATOM     39  C   UNL A   1      38.052  32.736  32.649  1.00  0.00     0.049 A 
ATOM     40  N   UNL A   1      39.421  30.449  31.254  1.00  0.00    -0.248 NA
ATOM     41  C   UNL A   1      38.013  30.789  29.423  1.00  0.00     0.031 C 
ATOM     42  C   UNL A   1      37.389  33.807  33.398  1.00  0.00     0.029 A 
ATOM     43  N   UNL A   1      39.043  32.307  33.498  1.00  0.00    -0.354 N 
ATOM     44  C   UNL A   1      39.717  29.511  30.269  1.00  0.00     0.074 A 
ATOM     45  C   UNL A   1      38.769  29.724  29.195  1.00  0.00     0.031 C 
ATOM     46  C   UNL A   1      38.003  33.962  34.582  1.00  0.00     0.029 A 
ATOM     47  C   UNL A   1      39.070  32.973  34.703  1.00  0.00     0.049 A 
ATOM     48  H   UNL A   1      39.676  31.589  33.266  1.00  0.00     0.167 HD
ATOM     49  C   UNL A   1      40.700  28.576  30.251  1.00  0.00     0.034 A 
ATOM     50  C   UNL A   1      39.851  32.798  35.789  1.00  0.00     0.034 A 
ATOM     51  C   UNL A   1      41.644  28.379  31.326  1.00  0.00     0.049 A 
ATOM     52  C   UNL A   1      40.915  31.730  35.760  1.00  0.00     0.074 A 
ATOM     53  C   UNL A   1      42.705  27.491  31.390  1.00  0.00     0.029 A 
ATOM     54  N   UNL A   1      41.641  29.076  32.528  1.00  0.00    -0.354 N 
ATOM     55  N   UNL A   1      41.205  30.878  34.804  1.00  0.00    -0.248 NA
ATOM     56  C   UNL A   1      41.765  31.609  36.953  1.00  0.00     0.031 C 
ATOM     57  C   UNL A   1      43.296  27.601  32.653  1.00  0.00     0.029 A 
ATOM     58  C   UNL A   1      42.660  28.615  33.350  1.00  0.00     0.049 A 
ATOM     59  H   UNL A   1      41.008  29.792  32.763  1.00  0.00     0.167 HD
ATOM     60  C   UNL A   1      42.292  30.142  35.269  1.00  0.00     0.074 A 
ATOM     61  C   UNL A   1      42.613  30.661  36.583  1.00  0.00     0.031 C 
ATOM     62  C   UNL A   1      42.966  29.131  34.664  1.00  0.00     0.034 A 
BRANCH  49  63
ATOM     63  C   UNL A   1      40.785  27.680  29.037  1.00  0.00     0.023 A 
ATOM     64  C   UNL A   1      41.738  27.897  28.026  1.00  0.00     0.031 A 
ATOM     65  C   UNL A   1      39.889  26.608  28.874  1.00  0.00     0.131 A 
ATOM     66  C   UNL A   1      41.720  27.110  26.865  1.00  0.00     0.055 A 
ATOM     67  C   UNL A   1      39.934  25.772  27.757  1.00  0.00     0.041 A 
ATOM     68  F   UNL A   1      38.943  26.363  29.795  1.00  0.00    -0.206 F 
ATOM     69  C   UNL A   1      40.843  26.032  26.735  1.00  0.00     0.022 A 
BRANCH  66  70
ATOM     70  S   UNL A   1      42.754  27.616  25.464  1.00  0.00     0.124 S 
ATOM     71  O   UNL A   1      42.696  26.430  24.612  1.00  0.00    -0.237 OA
ATOM     72  O   UNL A   1      42.058  28.796  24.968  1.00  0.00    -0.237 OA
ATOM     73  O   UNL A   1      44.058  27.870  26.075  1.00  0.00    -0.744 OA
ENDBRANCH  66  70
ENDBRANCH  49  63
BRANCH  50  74
ATOM     74  C   UNL A   1      39.648  33.636  37.006  1.00  0.00     0.023 A 
ATOM     75  C   UNL A   1      39.130  33.086  38.189  1.00  0.00     0.031 A 
ATOM     76  C   UNL A   1      39.925  35.016  36.989  1.00  0.00     0.131 A 
ATOM     77  C   UNL A   1      38.860  33.915  39.288  1.00  0.00     0.055 A 
ATOM     78  C   UNL A   1      39.708  35.827  38.104  1.00  0.00     0.041 A 
ATOM     79  F   UNL A   1      40.423  35.595  35.884  1.00  0.00    -0.206 F 
ATOM     80  C   UNL A   1      39.158  35.279  39.259  1.00  0.00     0.022 A 
BRANCH  77  81
ATOM     81  S   UNL A   1      38.022  33.201  40.730  1.00  0.00     0.124 S 
ATOM     82  O   UNL A   1      36.619  33.416  40.394  1.00  0.00    -0.237 OA
ATOM     83  O   UNL A   1      38.486  31.818  40.694  1.00  0.00    -0.237 OA
ATOM     84  O   UNL A   1      38.528  33.997  41.846  1.00  0.00    -0.744 OA
ENDBRANCH  77  81
ENDBRANCH  50  74
BRANCH  62  85
ATOM     85  C   UNL A   1      44.150  28.555  35.402  1.00  0.00     0.023 A 
ATOM     86  C   UNL A   1      44.009  27.513  36.336  1.00  0.00     0.031 A 
ATOM     87  C   UNL A   1      45.441  29.064  35.173  1.00  0.00     0.131 A 
ATOM     88  C   UNL A   1      45.128  27.054  37.048  1.00  0.00     0.055 A 
ATOM     89  C   UNL A   1      46.560  28.560  35.838  1.00  0.00     0.041 A 
ATOM     90  F   UNL A   1      45.638  30.060  34.294  1.00  0.00    -0.206 F 
ATOM     91  C   UNL A   1      46.405  27.559  36.792  1.00  0.00     0.022 A 
BRANCH  88  92
ATOM     92  S   UNL A   1      44.878  25.849  38.381  1.00  0.00     0.124 S 
ATOM     93  O   UNL A   1      44.059  24.836  37.724  1.00  0.00    -0.237 OA
ATOM     94  O   UNL A   1      46.246  25.453  38.703  1.00  0.00    -0.237 OA
ATOM     95  O   UNL A   1      44.198  26.622  39.418  1.00  0.00    -0.744 OA
ENDBRANCH  88  92
ENDBRANCH  62  85
ENDBRANCH  36  37
ENDBRANCH  28  31
ENDBRANCH  26  27
ENDBRANCH  25  26
ENDBRANCH   1  25
TORSDOF 19
ENDMDL
MODEL 3
REMARK VINA RESULT:     -11.1      5.181     10.467
REMARK SMILES O=C(CN(CC(F)(F)F)C(=O)Nc1ccccc1Cl)NCCCCNC(=O)c1ccc(-c2c3nc(c(-c4cc(S(=O)(=O)[O-])ccc4F)c4ccc([nH]4)c(-c4cc(S(=O)(=O)[O-])ccc4F)c4nc(c(-c5cc(S(=O)(=O)[O-])ccc5F)c5ccc2[nH]5)C=C4)C=C3)cc1
REMARK SMILES IDX 22 1 21 2 20 3 1 4 2 5 3 7 4 8 5 9 6 10 7 11 8 12 9 13 10 14
REMARK SMILES IDX 11 15 12 16 13 18 14 19 18 20 15 21 17 22 19 23 16 24 23 25
REMARK SMILES IDX 24 26 25 27 26 28 27 30 28 31 29 32 90 33 30 34 89 35 31 36
REMARK SMILES IDX 32 37 33 38 83 39 34 40 88 41 82 42 84 43 35 44 87 45 81 46
REMARK SMILES IDX 80 47 36 49 68 50 48 51 67 52 49 53 52 54 66 55 85 56 50 57
REMARK SMILES IDX 51 58 65 60 86 61 53 62 37 63 38 64 46 65 39 66 45 67 47 68
REMARK SMILES IDX 44 69 40 70 41 71 42 72 43 73 69 74 70 75 78 76 71 77 77 78
REMARK SMILES IDX 79 79 76 80 72 81 73 82 74 83 75 84 54 85 55 86 63 87 56 88
REMARK SMILES IDX 62 89 64 90 61 91 57 92 58 93 59 94 60 95
REMARK H PARENT 20 6 12 17 25 29 84 48 52 59
REMARK Flexibility Score: inf
ROOT
ATOM      1  C   UNL A   1      31.624  30.186  25.834  1.00  0.00     0.023 C 
ENDROOT
BRANCH   1   2
ATOM      2  C   UNL A   1      30.746  29.939  24.607  1.00  0.00     0.116 C 
BRANCH   2   3
ATOM      3  N   UNL A   1      30.674  28.547  24.204  1.00  0.00    -0.355 N 
ATOM      4  O   UNL A   1      31.916  28.814  22.299  1.00  0.00    -0.273 OA
ATOM      5  C   UNL A   1      31.374  28.068  23.114  1.00  0.00     0.239 C 
ATOM      6  H   UNL A   1      30.110  27.927  24.721  1.00  0.00     0.163 HD
BRANCH   5   7
ATOM      7  C   UNL A   1      31.317  26.540  22.884  1.00  0.00     0.221 C 
BRANCH   7   8
ATOM      8  N   UNL A   1      32.457  25.762  23.409  1.00  0.00    -0.306 N 
BRANCH   8   9
ATOM      9  C   UNL A   1      32.563  25.706  24.892  1.00  0.00     0.237 C 
BRANCH   9  10
ATOM     10  C   UNL A   1      33.652  26.573  25.557  1.00  0.00     0.406 C 
ATOM     11  F   UNL A   1      33.276  27.087  26.741  1.00  0.00    -0.169 F 
ATOM     12  F   UNL A   1      34.760  25.826  25.785  1.00  0.00    -0.169 F 
ATOM     13  F   UNL A   1      34.033  27.605  24.771  1.00  0.00    -0.169 F 
ENDBRANCH   9  10
ENDBRANCH   8   9
BRANCH   8  14
ATOM     14  C   UNL A   1      33.315  25.275  22.442  1.00  0.00     0.322 C 
ATOM     15  O   UNL A   1      33.653  25.978  21.484  1.00  0.00    -0.248 OA
ATOM     16  N   UNL A   1      33.999  24.116  22.602  1.00  0.00    -0.306 N 
ATOM     17  H   UNL A   1      34.901  24.130  22.207  1.00  0.00     0.171 HD
BRANCH  16  18
ATOM     18  C   UNL A   1      33.671  22.905  23.220  1.00  0.00     0.061 A 
ATOM     19  C   UNL A   1      32.474  22.306  22.817  1.00  0.00     0.028 A 
ATOM     20  C   UNL A   1      34.458  22.288  24.201  1.00  0.00     0.064 A 
ATOM     21  C   UNL A   1      32.153  21.023  23.258  1.00  0.00     0.002 A 
ATOM     22  C   UNL A   1      34.140  20.998  24.632  1.00  0.00     0.023 A 
ATOM     23  Cl  UNL A   1      35.723  23.140  25.017  1.00  0.00    -0.082 Cl
ATOM     24  C   UNL A   1      33.004  20.354  24.136  1.00  0.00     0.002 A 
ENDBRANCH  16  18
ENDBRANCH   8  14
ENDBRANCH   7   8
ENDBRANCH   5   7
ENDBRANCH   2   3
ENDBRANCH   1   2
BRANCH   1  25
ATOM     25  C   UNL A   1      31.454  31.552  26.503  1.00  0.00     0.023 C 
BRANCH  25  26
ATOM     26  C   UNL A   1      32.739  32.260  26.926  1.00  0.00     0.116 C 
BRANCH  26  27
ATOM     27  N   UNL A   1      32.530  33.623  27.388  1.00  0.00    -0.352 N 
ATOM     28  C   UNL A   1      33.183  34.326  28.376  1.00  0.00     0.251 C 
ATOM     29  H   UNL A   1      31.816  34.117  26.925  1.00  0.00     0.163 HD
ATOM     30  O   UNL A   1      32.776  35.443  28.689  1.00  0.00    -0.269 OA
BRANCH  28  31
ATOM     31  C   UNL A   1      34.339  33.733  29.091  1.00  0.00     0.039 A 
ATOM     32  C   UNL A   1      34.098  32.885  30.176  1.00  0.00     0.014 A 
ATOM     33  C   UNL A   1      35.656  34.003  28.704  1.00  0.00     0.014 A 
ATOM     34  C   UNL A   1      35.166  32.246  30.817  1.00  0.00     0.010 A 
ATOM     35  C   UNL A   1      36.713  33.311  29.296  1.00  0.00     0.010 A 
ATOM     36  C   UNL A   1      36.480  32.417  30.354  1.00  0.00    -0.014 A 
BRANCH  36  37
ATOM     37  C   UNL A   1      37.618  31.662  30.951  1.00  0.00     0.031 A 
ATOM     38  C   UNL A   1      38.101  31.984  32.340  1.00  0.00     0.074 A 
ATOM     39  C   UNL A   1      38.261  30.730  30.218  1.00  0.00     0.049 A 
ATOM     40  N   UNL A   1      39.131  31.508  32.991  1.00  0.00    -0.248 NA
ATOM     41  C   UNL A   1      37.339  33.000  33.081  1.00  0.00     0.031 C 
ATOM     42  C   UNL A   1      37.915  30.349  28.846  1.00  0.00     0.029 A 
ATOM     43  N   UNL A   1      39.346  29.942  30.514  1.00  0.00    -0.354 N 
ATOM     44  C   UNL A   1      39.148  32.169  34.216  1.00  0.00     0.074 A 
ATOM     45  C   UNL A   1      38.063  33.127  34.184  1.00  0.00     0.031 C 
ATOM     46  C   UNL A   1      38.758  29.390  28.430  1.00  0.00     0.029 A 
ATOM     47  C   UNL A   1      39.734  29.120  29.480  1.00  0.00     0.049 A 
ATOM     48  H   UNL A   1      39.803  29.963  31.386  1.00  0.00     0.167 HD
ATOM     49  C   UNL A   1      39.975  31.978  35.275  1.00  0.00     0.034 A 
ATOM     50  C   UNL A   1      40.768  28.260  29.380  1.00  0.00     0.034 A 
ATOM     51  C   UNL A   1      41.049  31.013  35.295  1.00  0.00     0.049 A 
ATOM     52  C   UNL A   1      41.695  28.089  30.557  1.00  0.00     0.074 A 
ATOM     53  C   UNL A   1      41.915  30.710  36.332  1.00  0.00     0.029 A 
ATOM     54  N   UNL A   1      41.408  30.197  34.230  1.00  0.00    -0.354 N 
ATOM     55  N   UNL A   1      41.671  28.695  31.722  1.00  0.00    -0.248 NA
ATOM     56  C   UNL A   1      42.780  27.110  30.410  1.00  0.00     0.031 C 
ATOM     57  C   UNL A   1      42.840  29.766  35.872  1.00  0.00     0.029 A 
ATOM     58  C   UNL A   1      42.502  29.416  34.576  1.00  0.00     0.049 A 
ATOM     59  H   UNL A   1      40.954  30.175  33.358  1.00  0.00     0.167 HD
ATOM     60  C   UNL A   1      42.719  28.146  32.456  1.00  0.00     0.074 A 
ATOM     61  C   UNL A   1      43.343  27.151  31.609  1.00  0.00     0.031 C 
ATOM     62  C   UNL A   1      43.126  28.434  33.719  1.00  0.00     0.034 A 
BRANCH  49  63
ATOM     63  C   UNL A   1      39.760  32.852  36.489  1.00  0.00     0.023 A 
ATOM     64  C   UNL A   1      38.975  32.425  37.575  1.00  0.00     0.031 A 
ATOM     65  C   UNL A   1      40.327  34.137  36.556  1.00  0.00     0.131 A 
ATOM     66  C   UNL A   1      38.712  33.301  38.638  1.00  0.00     0.055 A 
ATOM     67  C   UNL A   1      40.135  34.972  37.659  1.00  0.00     0.041 A 
ATOM     68  F   UNL A   1      41.070  34.610  35.542  1.00  0.00    -0.206 F 
ATOM     69  C   UNL A   1      39.308  34.562  38.701  1.00  0.00     0.022 A 
BRANCH  66  70
ATOM     70  S   UNL A   1      37.455  32.828  39.856  1.00  0.00     0.124 S 
ATOM     71  O   UNL A   1      38.006  31.579  40.377  1.00  0.00    -0.237 OA
ATOM     72  O   UNL A   1      37.460  33.961  40.772  1.00  0.00    -0.237 OA
ATOM     73  O   UNL A   1      36.241  32.677  39.055  1.00  0.00    -0.744 OA
ENDBRANCH  66  70
ENDBRANCH  49  63
BRANCH  50  74
ATOM     74  C   UNL A   1      41.002  27.506  28.113  1.00  0.00     0.023 A 
ATOM     75  C   UNL A   1      40.712  26.135  28.021  1.00  0.00     0.031 A 
ATOM     76  C   UNL A   1      41.566  28.136  26.989  1.00  0.00     0.131 A 
ATOM     77  C   UNL A   1      41.029  25.430  26.851  1.00  0.00     0.055 A 
ATOM     78  C   UNL A   1      41.827  27.442  25.807  1.00  0.00     0.041 A 
ATOM     79  F   UNL A   1      41.861  29.446  27.022  1.00  0.00    -0.206 F 
ATOM     80  C   UNL A   1      41.572  26.076  25.738  1.00  0.00     0.022 A 
BRANCH  77  81
ATOM     81  S   UNL A   1      40.809  23.629  26.836  1.00  0.00     0.124 S 
ATOM     82  O   UNL A   1      41.750  23.224  25.798  1.00  0.00    -0.237 OA
ATOM     83  O   UNL A   1      41.169  23.270  28.204  1.00  0.00    -0.237 OA
ATOM     84  O   UNL A   1      39.397  23.462  26.500  1.00  0.00    -0.744 OA
ENDBRANCH  77  81
ENDBRANCH  50  74
BRANCH  62  85
ATOM     85  C   UNL A   1      44.274  27.625  34.274  1.00  0.00     0.023 A 
ATOM     86  C   UNL A   1      44.068  26.407  34.946  1.00  0.00     0.031 A 
ATOM     87  C   UNL A   1      45.595  28.086  34.134  1.00  0.00     0.131 A 
ATOM     88  C   UNL A   1      45.159  25.722  35.504  1.00  0.00     0.055 A 
ATOM     89  C   UNL A   1      46.682  27.369  34.636  1.00  0.00     0.041 A 
ATOM     90  F   UNL A   1      45.853  29.244  33.503  1.00  0.00    -0.206 F 
ATOM     91  C   UNL A   1      46.466  26.187  35.337  1.00  0.00     0.022 A 
BRANCH  88  92
ATOM     92  S   UNL A   1      44.838  24.262  36.530  1.00  0.00     0.124 S 
ATOM     93  O   UNL A   1      43.892  23.515  35.708  1.00  0.00    -0.237 OA
ATOM     94  O   UNL A   1      46.169  23.675  36.662  1.00  0.00    -0.237 OA
ATOM     95  O   UNL A   1      44.284  24.822  37.761  1.00  0.00    -0.744 OA
ENDBRANCH  88  92
ENDBRANCH  62  85
ENDBRANCH  36  37
ENDBRANCH  28  31
ENDBRANCH  26  27
ENDBRANCH  25  26
ENDBRANCH   1  25
TORSDOF 19
ENDMDL
