MODEL 1
REMARK VINA RESULT:     -12.2      0.000      0.000
REMARK SMILES Cc1cc(O[C@@H]2C[C@H](C)C[C@H](C)C2)cc(C(=O)NCCCCNC(=O)c2ccc(-c3c4nc(c(-c5cc(S(=O)(=O)[O-])ccc5F)c5ccc([nH]5)c(-c5cc(S(=O)(=O)[O-])ccc5F)c5nc(c(-c6cc(S(=O)(=O)[O-])ccc6F)c6ccc3[nH]6)C=C5)C=C4)cc2)c1N
REMARK SMILES IDX 21 1 20 2 19 3 18 4 16 5 17 6 15 8 1 9 2 10 3 11 89 12 4 13
REMARK SMILES IDX 14 14 90 15 5 18 6 19 13 20 7 21 11 22 8 23 12 24 10 25 9 26
REMARK SMILES IDX 22 27 23 28 24 29 25 31 26 32 27 33 88 34 28 35 87 36 29 37
REMARK SMILES IDX 30 38 31 39 81 40 32 41 86 42 80 43 82 44 33 45 85 46 79 47
REMARK SMILES IDX 78 48 34 50 66 51 46 52 65 53 47 54 50 55 64 56 83 57 48 58
REMARK SMILES IDX 49 59 63 61 84 62 51 63 35 64 36 65 44 66 37 67 43 68 45 69
REMARK SMILES IDX 42 70 38 71 39 72 40 73 41 74 67 75 68 76 76 77 69 78 75 79
REMARK SMILES IDX 77 80 74 81 70 82 71 83 72 84 73 85 52 86 53 87 61 88 54 89
REMARK SMILES IDX 60 90 62 91 59 92 55 93 56 94 57 95 58 96
REMARK H PARENT 18 7 90 16 90 17 23 30 82 49 50 60
REMARK Flexibility Score: inf
ROOT
ATOM      1  C   UNL A   1      31.507  31.866  26.892  1.00  0.00     0.023 C 
ENDROOT
BRANCH   1   2
ATOM      2  C   UNL A   1      31.805  30.368  26.874  1.00  0.00     0.023 C 
BRANCH   2   3
ATOM      3  C   UNL A   1      33.254  29.962  26.625  1.00  0.00     0.116 C 
BRANCH   3   4
ATOM      4  N   UNL A   1      33.573  29.738  25.233  1.00  0.00    -0.352 N 
ATOM      5  C   UNL A   1      33.097  28.837  24.314  1.00  0.00     0.253 C 
ATOM      6  O   UNL A   1      33.585  28.910  23.181  1.00  0.00    -0.269 OA
ATOM      7  H   UNL A   1      34.261  30.346  24.878  1.00  0.00     0.163 HD
BRANCH   5   8
ATOM      8  C   UNL A   1      32.069  27.780  24.603  1.00  0.00     0.066 A 
ATOM      9  C   UNL A   1      28.416  27.010  23.715  1.00  0.00     0.047 C 
ATOM     10  C   UNL A   1      29.760  27.017  24.399  1.00  0.00    -0.024 A 
ATOM     11  C   UNL A   1      30.055  25.963  25.270  1.00  0.00     0.052 A 
ATOM     12  C   UNL A   1      30.762  27.951  24.065  1.00  0.00     0.048 A 
ATOM     13  C   UNL A   1      31.375  25.629  25.488  1.00  0.00     0.120 A 
ATOM     14  C   UNL A   1      32.349  26.614  25.336  1.00  0.00     0.062 A 
BRANCH  12  15
ATOM     15  N   UNL A   1      30.512  28.882  23.046  1.00  0.00    -0.398 N 
ATOM     16  H   UNL A   1      30.751  29.829  23.176  1.00  0.00     0.156 HD
ATOM     17  H   UNL A   1      30.100  28.590  22.201  1.00  0.00     0.156 HD
ENDBRANCH  12  15
BRANCH  13  18
ATOM     18  O   UNL A   1      31.805  24.345  25.708  1.00  0.00    -0.490 OA
BRANCH  18  19
ATOM     19  C   UNL A   1      31.209  23.224  24.972  1.00  0.00     0.173 C 
ATOM     20  C   UNL A   1      31.292  23.159  23.442  1.00  0.00     0.048 C 
ATOM     21  C   UNL A   1      31.762  21.880  25.556  1.00  0.00     0.048 C 
ATOM     22  C   UNL A   1      32.613  22.611  22.904  1.00  0.00    -0.010 C 
ATOM     23  C   UNL A   1      32.181  20.731  24.564  1.00  0.00    -0.010 C 
ATOM     24  C   UNL A   1      33.916  23.135  23.511  1.00  0.00     0.008 C 
ATOM     25  C   UNL A   1      32.516  21.115  23.107  1.00  0.00     0.007 C 
ATOM     26  C   UNL A   1      33.335  19.893  25.137  1.00  0.00     0.008 C 
ENDBRANCH  18  19
ENDBRANCH  13  18
ENDBRANCH   5   8
ENDBRANCH   3   4
ENDBRANCH   2   3
ENDBRANCH   1   2
BRANCH   1  27
ATOM     27  C   UNL A   1      32.719  32.790  26.893  1.00  0.00     0.116 C 
BRANCH  27  28
ATOM     28  N   UNL A   1      32.532  33.988  27.699  1.00  0.00    -0.352 N 
ATOM     29  C   UNL A   1      33.257  34.442  28.777  1.00  0.00     0.251 C 
ATOM     30  H   UNL A   1      31.774  34.559  27.432  1.00  0.00     0.163 HD
ATOM     31  O   UNL A   1      32.874  35.429  29.401  1.00  0.00    -0.269 OA
BRANCH  29  32
ATOM     32  C   UNL A   1      34.464  33.706  29.209  1.00  0.00     0.039 A 
ATOM     33  C   UNL A   1      35.715  34.304  29.045  1.00  0.00     0.014 A 
ATOM     34  C   UNL A   1      34.353  32.461  29.831  1.00  0.00     0.014 A 
ATOM     35  C   UNL A   1      36.845  33.702  29.605  1.00  0.00     0.010 A 
ATOM     36  C   UNL A   1      35.465  31.906  30.459  1.00  0.00     0.010 A 
ATOM     37  C   UNL A   1      36.719  32.529  30.368  1.00  0.00    -0.014 A 
BRANCH  37  38
ATOM     38  C   UNL A   1      37.878  31.957  31.106  1.00  0.00     0.031 A 
ATOM     39  C   UNL A   1      38.699  30.858  30.489  1.00  0.00     0.074 A 
ATOM     40  C   UNL A   1      38.137  32.371  32.363  1.00  0.00     0.049 A 
ATOM     41  N   UNL A   1      39.687  30.172  31.006  1.00  0.00    -0.248 NA
ATOM     42  C   UNL A   1      38.337  30.455  29.123  1.00  0.00     0.031 C 
ATOM     43  C   UNL A   1      37.380  33.394  33.090  1.00  0.00     0.029 A 
ATOM     44  N   UNL A   1      39.101  31.978  33.259  1.00  0.00    -0.354 N 
ATOM     45  C   UNL A   1      40.054  29.248  30.035  1.00  0.00     0.074 A 
ATOM     46  C   UNL A   1      39.138  29.419  28.928  1.00  0.00     0.031 C 
ATOM     47  C   UNL A   1      37.924  33.564  34.306  1.00  0.00     0.029 A 
ATOM     48  C   UNL A   1      39.035  32.633  34.467  1.00  0.00     0.049 A 
ATOM     49  H   UNL A   1      39.776  31.291  33.055  1.00  0.00     0.167 HD
ATOM     50  C   UNL A   1      41.076  28.355  30.055  1.00  0.00     0.034 A 
ATOM     51  C   UNL A   1      39.777  32.492  35.585  1.00  0.00     0.034 A 
ATOM     52  C   UNL A   1      41.986  28.204  31.166  1.00  0.00     0.049 A 
ATOM     53  C   UNL A   1      40.895  31.482  35.592  1.00  0.00     0.074 A 
ATOM     54  C   UNL A   1      43.089  27.373  31.270  1.00  0.00     0.029 A 
ATOM     55  N   UNL A   1      41.894  28.891  32.370  1.00  0.00    -0.354 N 
ATOM     56  N   UNL A   1      41.266  30.653  34.644  1.00  0.00    -0.248 NA
ATOM     57  C   UNL A   1      41.701  31.395  36.817  1.00  0.00     0.031 C 
ATOM     58  C   UNL A   1      43.620  27.509  32.558  1.00  0.00     0.029 A 
ATOM     59  C   UNL A   1      42.899  28.481  33.233  1.00  0.00     0.049 A 
ATOM     60  H   UNL A   1      41.212  29.570  32.581  1.00  0.00     0.167 HD
ATOM     61  C   UNL A   1      42.370  29.970  35.148  1.00  0.00     0.074 A 
ATOM     62  C   UNL A   1      42.610  30.493  36.477  1.00  0.00     0.031 C 
ATOM     63  C   UNL A   1      43.121  29.003  34.561  1.00  0.00     0.034 A 
BRANCH  50  64
ATOM     64  C   UNL A   1      41.239  27.463  28.847  1.00  0.00     0.023 A 
ATOM     65  C   UNL A   1      42.258  27.679  27.902  1.00  0.00     0.031 A 
ATOM     66  C   UNL A   1      40.343  26.405  28.613  1.00  0.00     0.131 A 
ATOM     67  C   UNL A   1      42.303  26.910  26.729  1.00  0.00     0.055 A 
ATOM     68  C   UNL A   1      40.447  25.585  27.487  1.00  0.00     0.041 A 
ATOM     69  F   UNL A   1      39.338  26.159  29.467  1.00  0.00    -0.206 F 
ATOM     70  C   UNL A   1      41.421  25.848  26.527  1.00  0.00     0.022 A 
BRANCH  67  71
ATOM     71  S   UNL A   1      43.428  27.424  25.401  1.00  0.00     0.124 S 
ATOM     72  O   UNL A   1      44.167  26.189  25.147  1.00  0.00    -0.237 OA
ATOM     73  O   UNL A   1      42.507  27.845  24.353  1.00  0.00    -0.237 OA
ATOM     74  O   UNL A   1      44.211  28.495  26.012  1.00  0.00    -0.744 OA
ENDBRANCH  67  71
ENDBRANCH  50  64
BRANCH  51  75
ATOM     75  C   UNL A   1      39.488  33.318  36.792  1.00  0.00     0.023 A 
ATOM     76  C   UNL A   1      38.754  32.795  37.869  1.00  0.00     0.031 A 
ATOM     77  C   UNL A   1      39.913  34.656  36.874  1.00  0.00     0.131 A 
ATOM     78  C   UNL A   1      38.428  33.616  38.960  1.00  0.00     0.055 A 
ATOM     79  C   UNL A   1      39.631  35.455  37.985  1.00  0.00     0.041 A 
ATOM     80  F   UNL A   1      40.624  35.205  35.875  1.00  0.00    -0.206 F 
ATOM     81  C   UNL A   1      38.874  34.938  39.031  1.00  0.00     0.022 A 
BRANCH  78  82
ATOM     82  S   UNL A   1      37.346  32.952  40.255  1.00  0.00     0.124 S 
ATOM     83  O   UNL A   1      36.096  32.760  39.528  1.00  0.00    -0.237 OA
ATOM     84  O   UNL A   1      38.053  31.738  40.649  1.00  0.00    -0.237 OA
ATOM     85  O   UNL A   1      37.328  34.013  41.261  1.00  0.00    -0.744 OA
ENDBRANCH  78  82
ENDBRANCH  51  75
BRANCH  63  86
ATOM     86  C   UNL A   1      44.306  28.487  35.342  1.00  0.00     0.023 A 
ATOM     87  C   UNL A   1      44.173  27.487  36.321  1.00  0.00     0.031 A 
ATOM     88  C   UNL A   1      45.589  29.014  35.104  1.00  0.00     0.131 A 
ATOM     89  C   UNL A   1      45.293  27.083  37.063  1.00  0.00     0.055 A 
ATOM     90  C   UNL A   1      46.709  28.564  35.803  1.00  0.00     0.041 A 
ATOM     91  F   UNL A   1      45.774  29.973  34.183  1.00  0.00    -0.206 F 
ATOM     92  C   UNL A   1      46.563  27.603  36.798  1.00  0.00     0.022 A 
BRANCH  89  93
ATOM     93  S   UNL A   1      45.056  25.932  38.445  1.00  0.00     0.124 S 
ATOM     94  O   UNL A   1      44.703  24.696  37.753  1.00  0.00    -0.237 OA
ATOM     95  O   UNL A   1      46.363  25.949  39.093  1.00  0.00    -0.237 OA
ATOM     96  O   UNL A   1      43.974  26.540  39.217  1.00  0.00    -0.744 OA
ENDBRANCH  89  93
ENDBRANCH  63  86
ENDBRANCH  37  38
ENDBRANCH  29  32
ENDBRANCH  27  28
ENDBRANCH   1  27
TORSDOF 17
ENDMDL
MODEL 2
REMARK VINA RESULT:     -12.0      1.563      2.024
REMARK SMILES Cc1cc(O[C@@H]2C[C@H](C)C[C@H](C)C2)cc(C(=O)NCCCCNC(=O)c2ccc(-c3c4nc(c(-c5cc(S(=O)(=O)[O-])ccc5F)c5ccc([nH]5)c(-c5cc(S(=O)(=O)[O-])ccc5F)c5nc(c(-c6cc(S(=O)(=O)[O-])ccc6F)c6ccc3[nH]6)C=C5)C=C4)cc2)c1N
REMARK SMILES IDX 21 1 20 2 19 3 18 4 16 5 17 6 15 8 1 9 2 10 3 11 89 12 4 13
REMARK SMILES IDX 14 14 90 15 5 18 6 19 13 20 7 21 11 22 8 23 12 24 10 25 9 26
REMARK SMILES IDX 22 27 23 28 24 29 25 31 26 32 27 33 88 34 28 35 87 36 29 37
REMARK SMILES IDX 30 38 31 39 81 40 32 41 86 42 80 43 82 44 33 45 85 46 79 47
REMARK SMILES IDX 78 48 34 50 66 51 46 52 65 53 47 54 50 55 64 56 83 57 48 58
REMARK SMILES IDX 49 59 63 61 84 62 51 63 35 64 36 65 44 66 37 67 43 68 45 69
REMARK SMILES IDX 42 70 38 71 39 72 40 73 41 74 67 75 68 76 76 77 69 78 75 79
REMARK SMILES IDX 77 80 74 81 70 82 71 83 72 84 73 85 52 86 53 87 61 88 54 89
REMARK SMILES IDX 60 90 62 91 59 92 55 93 56 94 57 95 58 96
REMARK H PARENT 18 7 90 16 90 17 23 30 82 49 50 60
REMARK Flexibility Score: inf
ROOT
ATOM      1  C   UNL A   1      31.370  32.034  26.732  1.00  0.00     0.023 C 
ENDROOT
BRANCH   1   2
ATOM      2  C   UNL A   1      31.622  30.534  26.601  1.00  0.00     0.023 C 
BRANCH   2   3
ATOM      3  C   UNL A   1      33.078  30.093  26.481  1.00  0.00     0.116 C 
BRANCH   3   4
ATOM      4  N   UNL A   1      33.506  29.837  25.123  1.00  0.00    -0.352 N 
ATOM      5  C   UNL A   1      33.250  28.804  24.257  1.00  0.00     0.253 C 
ATOM      6  O   UNL A   1      33.777  28.888  23.143  1.00  0.00    -0.269 OA
ATOM      7  H   UNL A   1      34.092  30.536  24.751  1.00  0.00     0.163 HD
BRANCH   5   8
ATOM      8  C   UNL A   1      32.416  27.598  24.585  1.00  0.00     0.066 A 
ATOM      9  C   UNL A   1      28.835  26.345  24.009  1.00  0.00     0.047 C 
ATOM     10  C   UNL A   1      30.227  26.519  24.561  1.00  0.00    -0.024 A 
ATOM     11  C   UNL A   1      30.754  25.484  25.340  1.00  0.00     0.052 A 
ATOM     12  C   UNL A   1      31.049  27.600  24.184  1.00  0.00     0.048 A 
ATOM     13  C   UNL A   1      32.123  25.336  25.413  1.00  0.00     0.120 A 
ATOM     14  C   UNL A   1      32.929  26.457  25.223  1.00  0.00     0.062 A 
BRANCH  12  15
ATOM     15  N   UNL A   1      30.569  28.527  23.246  1.00  0.00    -0.398 N 
ATOM     16  H   UNL A   1      29.610  28.546  23.021  1.00  0.00     0.156 HD
ATOM     17  H   UNL A   1      31.189  29.157  22.814  1.00  0.00     0.156 HD
ENDBRANCH  12  15
BRANCH  13  18
ATOM     18  O   UNL A   1      32.749  24.120  25.520  1.00  0.00    -0.490 OA
BRANCH  18  19
ATOM     19  C   UNL A   1      34.130  24.034  26.010  1.00  0.00     0.173 C 
ATOM     20  C   UNL A   1      34.571  22.873  26.910  1.00  0.00     0.048 C 
ATOM     21  C   UNL A   1      35.109  24.117  24.791  1.00  0.00     0.048 C 
ATOM     22  C   UNL A   1      34.920  21.590  26.157  1.00  0.00    -0.010 C 
ATOM     23  C   UNL A   1      36.349  23.147  24.738  1.00  0.00    -0.010 C 
ATOM     24  C   UNL A   1      33.970  21.113  25.058  1.00  0.00     0.008 C 
ATOM     25  C   UNL A   1      36.292  21.850  25.575  1.00  0.00     0.007 C 
ATOM     26  C   UNL A   1      36.718  22.791  23.290  1.00  0.00     0.008 C 
ENDBRANCH  18  19
ENDBRANCH  13  18
ENDBRANCH   5   8
ENDBRANCH   3   4
ENDBRANCH   2   3
ENDBRANCH   1   2
BRANCH   1  27
ATOM     27  C   UNL A   1      32.609  32.921  26.770  1.00  0.00     0.116 C 
BRANCH  27  28
ATOM     28  N   UNL A   1      32.462  34.083  27.636  1.00  0.00    -0.352 N 
ATOM     29  C   UNL A   1      33.229  34.481  28.708  1.00  0.00     0.251 C 
ATOM     30  H   UNL A   1      31.701  34.671  27.423  1.00  0.00     0.163 HD
ATOM     31  O   UNL A   1      32.877  35.441  29.389  1.00  0.00    -0.269 OA
BRANCH  29  32
ATOM     32  C   UNL A   1      34.443  33.716  29.063  1.00  0.00     0.039 A 
ATOM     33  C   UNL A   1      35.693  34.314  28.891  1.00  0.00     0.014 A 
ATOM     34  C   UNL A   1      34.342  32.441  29.623  1.00  0.00     0.014 A 
ATOM     35  C   UNL A   1      36.835  33.676  29.382  1.00  0.00     0.010 A 
ATOM     36  C   UNL A   1      35.468  31.847  30.186  1.00  0.00     0.010 A 
ATOM     37  C   UNL A   1      36.724  32.466  30.088  1.00  0.00    -0.014 A 
BRANCH  37  38
ATOM     38  C   UNL A   1      37.901  31.850  30.758  1.00  0.00     0.031 A 
ATOM     39  C   UNL A   1      38.703  30.790  30.054  1.00  0.00     0.074 A 
ATOM     40  C   UNL A   1      38.193  32.185  32.031  1.00  0.00     0.049 A 
ATOM     41  N   UNL A   1      39.703  30.074  30.501  1.00  0.00    -0.248 NA
ATOM     42  C   UNL A   1      38.305  30.472  28.675  1.00  0.00     0.031 C 
ATOM     43  C   UNL A   1      37.458  33.161  32.839  1.00  0.00     0.029 A 
ATOM     44  N   UNL A   1      39.180  31.737  32.876  1.00  0.00    -0.354 N 
ATOM     45  C   UNL A   1      40.043  29.211  29.465  1.00  0.00     0.074 A 
ATOM     46  C   UNL A   1      39.098  29.450  28.395  1.00  0.00     0.031 C 
ATOM     47  C   UNL A   1      38.033  33.256  34.049  1.00  0.00     0.029 A 
ATOM     48  C   UNL A   1      39.146  32.316  34.123  1.00  0.00     0.049 A 
ATOM     49  H   UNL A   1      39.848  31.064  32.612  1.00  0.00     0.167 HD
ATOM     50  C   UNL A   1      41.064  28.319  29.404  1.00  0.00     0.034 A 
ATOM     51  C   UNL A   1      39.917  32.106  35.211  1.00  0.00     0.034 A 
ATOM     52  C   UNL A   1      42.002  28.099  30.479  1.00  0.00     0.049 A 
ATOM     53  C   UNL A   1      41.033  31.098  35.126  1.00  0.00     0.074 A 
ATOM     54  C   UNL A   1      43.105  27.263  30.502  1.00  0.00     0.029 A 
ATOM     55  N   UNL A   1      41.942  28.710  31.725  1.00  0.00    -0.354 N 
ATOM     56  N   UNL A   1      41.378  30.329  34.119  1.00  0.00    -0.248 NA
ATOM     57  C   UNL A   1      41.871  30.935  36.322  1.00  0.00     0.031 C 
ATOM     58  C   UNL A   1      43.671  27.319  31.781  1.00  0.00     0.029 A 
ATOM     59  C   UNL A   1      42.970  28.248  32.534  1.00  0.00     0.049 A 
ATOM     60  H   UNL A   1      41.268  29.375  31.995  1.00  0.00     0.167 HD
ATOM     61  C   UNL A   1      42.493  29.616  34.551  1.00  0.00     0.074 A 
ATOM     62  C   UNL A   1      42.769  30.056  35.903  1.00  0.00     0.031 C 
ATOM     63  C   UNL A   1      43.227  28.687  33.886  1.00  0.00     0.034 A 
BRANCH  50  64
ATOM     64  C   UNL A   1      41.193  27.503  28.139  1.00  0.00     0.023 A 
ATOM     65  C   UNL A   1      40.824  26.147  28.094  1.00  0.00     0.031 A 
ATOM     66  C   UNL A   1      41.727  28.075  26.970  1.00  0.00     0.131 A 
ATOM     67  C   UNL A   1      41.075  25.388  26.940  1.00  0.00     0.055 A 
ATOM     68  C   UNL A   1      41.890  27.337  25.796  1.00  0.00     0.041 A 
ATOM     69  F   UNL A   1      42.115  29.360  26.953  1.00  0.00    -0.206 F 
ATOM     70  C   UNL A   1      41.581  25.980  25.783  1.00  0.00     0.022 A 
BRANCH  67  71
ATOM     71  S   UNL A   1      40.879  23.587  27.032  1.00  0.00     0.124 S 
ATOM     72  O   UNL A   1      39.434  23.439  26.874  1.00  0.00    -0.237 OA
ATOM     73  O   UNL A   1      41.693  23.124  25.915  1.00  0.00    -0.237 OA
ATOM     74  O   UNL A   1      41.391  23.253  28.359  1.00  0.00    -0.744 OA
ENDBRANCH  67  71
ENDBRANCH  50  64
BRANCH  51  75
ATOM     75  C   UNL A   1      39.661  32.857  36.474  1.00  0.00     0.023 A 
ATOM     76  C   UNL A   1      38.770  32.364  37.441  1.00  0.00     0.031 A 
ATOM     77  C   UNL A   1      40.279  34.096  36.718  1.00  0.00     0.131 A 
ATOM     78  C   UNL A   1      38.488  33.126  38.586  1.00  0.00     0.055 A 
ATOM     79  C   UNL A   1      40.034  34.826  37.884  1.00  0.00     0.041 A 
ATOM     80  F   UNL A   1      41.144  34.611  35.830  1.00  0.00    -0.206 F 
ATOM     81  C   UNL A   1      39.124  34.347  38.819  1.00  0.00     0.022 A 
BRANCH  78  82
ATOM     82  S   UNL A   1      37.214  32.531  39.732  1.00  0.00     0.124 S 
ATOM     83  O   UNL A   1      36.061  32.393  38.850  1.00  0.00    -0.237 OA
ATOM     84  O   UNL A   1      37.802  31.287  40.220  1.00  0.00    -0.237 OA
ATOM     85  O   UNL A   1      37.120  33.602  40.722  1.00  0.00    -0.744 OA
ENDBRANCH  78  82
ENDBRANCH  51  75
BRANCH  63  86
ATOM     86  C   UNL A   1      44.431  28.123  34.602  1.00  0.00     0.023 A 
ATOM     87  C   UNL A   1      44.363  26.935  35.350  1.00  0.00     0.031 A 
ATOM     88  C   UNL A   1      45.666  28.795  34.538  1.00  0.00     0.131 A 
ATOM     89  C   UNL A   1      45.493  26.483  36.047  1.00  0.00     0.055 A 
ATOM     90  C   UNL A   1      46.802  28.307  35.184  1.00  0.00     0.041 A 
ATOM     91  F   UNL A   1      45.789  29.936  33.840  1.00  0.00    -0.206 F 
ATOM     92  C   UNL A   1      46.716  27.152  35.955  1.00  0.00     0.022 A 
BRANCH  89  93
ATOM     93  S   UNL A   1      45.323  25.056  37.154  1.00  0.00     0.124 S 
ATOM     94  O   UNL A   1      44.510  25.605  38.234  1.00  0.00    -0.237 OA
ATOM     95  O   UNL A   1      44.665  24.074  36.297  1.00  0.00    -0.237 OA
ATOM     96  O   UNL A   1      46.702  24.735  37.517  1.00  0.00    -0.744 OA
ENDBRANCH  89  93
ENDBRANCH  63  86
ENDBRANCH  37  38
ENDBRANCH  29  32
ENDBRANCH  27  28
ENDBRANCH   1  27
TORSDOF 17
ENDMDL
MODEL 3
REMARK VINA RESULT:     -12.0      1.720      7.821
REMARK SMILES Cc1cc(O[C@@H]2C[C@H](C)C[C@H](C)C2)cc(C(=O)NCCCCNC(=O)c2ccc(-c3c4nc(c(-c5cc(S(=O)(=O)[O-])ccc5F)c5ccc([nH]5)c(-c5cc(S(=O)(=O)[O-])ccc5F)c5nc(c(-c6cc(S(=O)(=O)[O-])ccc6F)c6ccc3[nH]6)C=C5)C=C4)cc2)c1N
REMARK SMILES IDX 21 1 20 2 19 3 18 4 16 5 17 6 15 8 1 9 2 10 3 11 89 12 4 13
REMARK SMILES IDX 14 14 90 15 5 18 6 19 13 20 7 21 11 22 8 23 12 24 10 25 9 26
REMARK SMILES IDX 22 27 23 28 24 29 25 31 26 32 27 33 88 34 28 35 87 36 29 37
REMARK SMILES IDX 30 38 31 39 81 40 32 41 86 42 80 43 82 44 33 45 85 46 79 47
REMARK SMILES IDX 78 48 34 50 66 51 46 52 65 53 47 54 50 55 64 56 83 57 48 58
REMARK SMILES IDX 49 59 63 61 84 62 51 63 35 64 36 65 44 66 37 67 43 68 45 69
REMARK SMILES IDX 42 70 38 71 39 72 40 73 41 74 67 75 68 76 76 77 69 78 75 79
REMARK SMILES IDX 77 80 74 81 70 82 71 83 72 84 73 85 52 86 53 87 61 88 54 89
REMARK SMILES IDX 60 90 62 91 59 92 55 93 56 94 57 95 58 96
REMARK H PARENT 18 7 90 16 90 17 23 30 82 49 50 60
REMARK Flexibility Score: inf
ROOT
ATOM      1  C   UNL A   1      31.463  32.028  26.922  1.00  0.00     0.023 C 
ENDROOT
BRANCH   1   2
ATOM      2  C   UNL A   1      31.880  30.561  26.993  1.00  0.00     0.023 C 
BRANCH   2   3
ATOM      3  C   UNL A   1      32.089  29.844  25.663  1.00  0.00     0.116 C 
BRANCH   3   4
ATOM      4  N   UNL A   1      31.053  30.099  24.687  1.00  0.00    -0.352 N 
ATOM      5  C   UNL A   1      30.400  29.278  23.802  1.00  0.00     0.253 C 
ATOM      6  O   UNL A   1      29.545  29.817  23.092  1.00  0.00    -0.269 OA
ATOM      7  H   UNL A   1      30.762  31.039  24.650  1.00  0.00     0.163 HD
BRANCH   5   8
ATOM      8  C   UNL A   1      30.675  27.811  23.632  1.00  0.00     0.066 A 
ATOM      9  C   UNL A   1      32.874  25.537  21.459  1.00  0.00     0.047 C 
ATOM     10  C   UNL A   1      31.786  26.038  22.374  1.00  0.00    -0.024 A 
ATOM     11  C   UNL A   1      31.076  25.093  23.122  1.00  0.00     0.052 A 
ATOM     12  C   UNL A   1      31.584  27.413  22.610  1.00  0.00     0.048 A 
ATOM     13  C   UNL A   1      30.488  25.486  24.307  1.00  0.00     0.120 A 
ATOM     14  C   UNL A   1      30.118  26.821  24.460  1.00  0.00     0.062 A 
BRANCH  12  15
ATOM     15  N   UNL A   1      32.438  28.342  21.996  1.00  0.00    -0.398 N 
ATOM     16  H   UNL A   1      32.267  29.307  22.095  1.00  0.00     0.156 HD
ATOM     17  H   UNL A   1      33.208  28.030  21.469  1.00  0.00     0.156 HD
ENDBRANCH  12  15
BRANCH  13  18
ATOM     18  O   UNL A   1      30.375  24.671  25.403  1.00  0.00    -0.490 OA
BRANCH  18  19
ATOM     19  C   UNL A   1      31.451  24.609  26.400  1.00  0.00     0.173 C 
ATOM     20  C   UNL A   1      31.749  23.304  27.150  1.00  0.00     0.048 C 
ATOM     21  C   UNL A   1      32.779  25.121  25.747  1.00  0.00     0.048 C 
ATOM     22  C   UNL A   1      32.617  22.315  26.375  1.00  0.00    -0.010 C 
ATOM     23  C   UNL A   1      34.119  24.340  26.027  1.00  0.00    -0.010 C 
ATOM     24  C   UNL A   1      32.278  22.048  24.907  1.00  0.00     0.008 C 
ATOM     25  C   UNL A   1      34.020  22.869  26.486  1.00  0.00     0.007 C 
ATOM     26  C   UNL A   1      35.076  24.427  24.828  1.00  0.00     0.008 C 
ENDBRANCH  18  19
ENDBRANCH  13  18
ENDBRANCH   5   8
ENDBRANCH   3   4
ENDBRANCH   2   3
ENDBRANCH   1   2
BRANCH   1  27
ATOM     27  C   UNL A   1      32.587  33.035  26.708  1.00  0.00     0.116 C 
BRANCH  27  28
ATOM     28  N   UNL A   1      32.526  34.172  27.616  1.00  0.00    -0.352 N 
ATOM     29  C   UNL A   1      33.325  34.477  28.695  1.00  0.00     0.251 C 
ATOM     30  H   UNL A   1      31.806  34.818  27.431  1.00  0.00     0.163 HD
ATOM     31  O   UNL A   1      33.045  35.433  29.413  1.00  0.00    -0.269 OA
BRANCH  29  32
ATOM     32  C   UNL A   1      34.487  33.618  29.010  1.00  0.00     0.039 A 
ATOM     33  C   UNL A   1      35.772  34.147  28.884  1.00  0.00     0.014 A 
ATOM     34  C   UNL A   1      34.301  32.320  29.490  1.00  0.00     0.014 A 
ATOM     35  C   UNL A   1      36.868  33.412  29.344  1.00  0.00     0.010 A 
ATOM     36  C   UNL A   1      35.383  31.625  30.024  1.00  0.00     0.010 A 
ATOM     37  C   UNL A   1      36.675  32.170  29.974  1.00  0.00    -0.014 A 
BRANCH  37  38
ATOM     38  C   UNL A   1      37.805  31.443  30.613  1.00  0.00     0.031 A 
ATOM     39  C   UNL A   1      38.199  31.755  32.031  1.00  0.00     0.074 A 
ATOM     40  C   UNL A   1      38.525  30.562  29.889  1.00  0.00     0.049 A 
ATOM     41  N   UNL A   1      39.206  31.297  32.731  1.00  0.00    -0.248 NA
ATOM     42  C   UNL A   1      37.372  32.741  32.741  1.00  0.00     0.031 C 
ATOM     43  C   UNL A   1      38.273  30.213  28.489  1.00  0.00     0.029 A 
ATOM     44  N   UNL A   1      39.622  29.807  30.224  1.00  0.00    -0.354 N 
ATOM     45  C   UNL A   1      39.141  31.948  33.957  1.00  0.00     0.074 A 
ATOM     46  C   UNL A   1      38.037  32.881  33.877  1.00  0.00     0.031 C 
ATOM     47  C   UNL A   1      39.171  29.295  28.095  1.00  0.00     0.029 A 
ATOM     48  C   UNL A   1      40.092  29.025  29.193  1.00  0.00     0.049 A 
ATOM     49  H   UNL A   1      40.034  29.823  31.118  1.00  0.00     0.167 HD
ATOM     50  C   UNL A   1      39.915  31.767  35.057  1.00  0.00     0.034 A 
ATOM     51  C   UNL A   1      41.153  28.193  29.134  1.00  0.00     0.034 A 
ATOM     52  C   UNL A   1      41.008  30.825  35.122  1.00  0.00     0.049 A 
ATOM     53  C   UNL A   1      42.010  28.021  30.361  1.00  0.00     0.074 A 
ATOM     54  C   UNL A   1      41.820  30.520  36.200  1.00  0.00     0.029 A 
ATOM     55  N   UNL A   1      41.449  30.044  34.061  1.00  0.00    -0.354 N 
ATOM     56  N   UNL A   1      41.902  28.602  31.534  1.00  0.00    -0.248 NA
ATOM     57  C   UNL A   1      43.128  27.073  30.260  1.00  0.00     0.031 C 
ATOM     58  C   UNL A   1      42.791  29.607  35.774  1.00  0.00     0.029 A 
ATOM     59  C   UNL A   1      42.540  29.281  34.451  1.00  0.00     0.049 A 
ATOM     60  H   UNL A   1      41.046  30.034  33.162  1.00  0.00     0.167 HD
ATOM     61  C   UNL A   1      42.918  28.065  32.319  1.00  0.00     0.074 A 
ATOM     62  C   UNL A   1      43.618  27.105  31.491  1.00  0.00     0.031 C 
ATOM     63  C   UNL A   1      43.237  28.335  33.611  1.00  0.00     0.034 A 
BRANCH  50  64
ATOM     64  C   UNL A   1      39.615  32.626  36.263  1.00  0.00     0.023 A 
ATOM     65  C   UNL A   1      38.775  32.177  37.298  1.00  0.00     0.031 A 
ATOM     66  C   UNL A   1      40.143  33.925  36.364  1.00  0.00     0.131 A 
ATOM     67  C   UNL A   1      38.418  33.047  38.340  1.00  0.00     0.055 A 
ATOM     68  C   UNL A   1      39.855  34.755  37.451  1.00  0.00     0.041 A 
ATOM     69  F   UNL A   1      40.935  34.419  35.401  1.00  0.00    -0.206 F 
ATOM     70  C   UNL A   1      38.972  34.324  38.437  1.00  0.00     0.022 A 
BRANCH  67  71
ATOM     71  S   UNL A   1      37.096  32.540  39.474  1.00  0.00     0.124 S 
ATOM     72  O   UNL A   1      37.283  33.474  40.581  1.00  0.00    -0.237 OA
ATOM     73  O   UNL A   1      35.897  32.736  38.669  1.00  0.00    -0.237 OA
ATOM     74  O   UNL A   1      37.423  31.149  39.781  1.00  0.00    -0.744 OA
ENDBRANCH  67  71
ENDBRANCH  50  64
BRANCH  51  75
ATOM     75  C   UNL A   1      41.471  27.464  27.873  1.00  0.00     0.023 A 
ATOM     76  C   UNL A   1      41.298  26.073  27.778  1.00  0.00     0.031 A 
ATOM     77  C   UNL A   1      41.984  28.142  26.753  1.00  0.00     0.131 A 
ATOM     78  C   UNL A   1      41.678  25.398  26.607  1.00  0.00     0.055 A 
ATOM     79  C   UNL A   1      42.312  27.473  25.571  1.00  0.00     0.041 A 
ATOM     80  F   UNL A   1      42.163  29.472  26.787  1.00  0.00    -0.206 F 
ATOM     81  C   UNL A   1      42.171  26.091  25.499  1.00  0.00     0.022 A 
BRANCH  78  82
ATOM     82  S   UNL A   1      41.589  23.587  26.580  1.00  0.00     0.124 S 
ATOM     83  O   UNL A   1      42.230  23.239  27.844  1.00  0.00    -0.237 OA
ATOM     84  O   UNL A   1      40.150  23.355  26.504  1.00  0.00    -0.237 OA
ATOM     85  O   UNL A   1      42.339  23.227  25.379  1.00  0.00    -0.744 OA
ENDBRANCH  78  82
ENDBRANCH  51  75
BRANCH  63  86
ATOM     86  C   UNL A   1      44.368  27.540  34.218  1.00  0.00     0.023 A 
ATOM     87  C   UNL A   1      44.153  26.296  34.838  1.00  0.00     0.031 A 
ATOM     88  C   UNL A   1      45.681  28.042  34.181  1.00  0.00     0.131 A 
ATOM     89  C   UNL A   1      45.224  25.622  35.442  1.00  0.00     0.055 A 
ATOM     90  C   UNL A   1      46.753  27.338  34.731  1.00  0.00     0.041 A 
ATOM     91  F   UNL A   1      45.945  29.226  33.605  1.00  0.00    -0.206 F 
ATOM     92  C   UNL A   1      46.526  26.127  35.377  1.00  0.00     0.022 A 
BRANCH  89  93
ATOM     93  S   UNL A   1      44.883  24.117  36.396  1.00  0.00     0.124 S 
ATOM     94  O   UNL A   1      44.483  24.663  37.689  1.00  0.00    -0.237 OA
ATOM     95  O   UNL A   1      43.824  23.486  35.615  1.00  0.00    -0.237 OA
ATOM     96  O   UNL A   1      46.162  23.410  36.391  1.00  0.00    -0.744 OA
ENDBRANCH  89  93
ENDBRANCH  63  86
ENDBRANCH  37  38
ENDBRANCH  29  32
ENDBRANCH  27  28
ENDBRANCH   1  27
TORSDOF 17
ENDMDL
