MODEL 1
REMARK VINA RESULT:     -11.7      0.000      0.000
REMARK SMILES Cc1cccc(C)c1Nc1ccccc1CC(=O)NCCCCNC(=O)c1ccc(-c2c3nc(c(-c4cc(S(=O)(=O)[O-])ccc4F)c4ccc([nH]4)c(-c4cc(S(=O)(=O)[O-])ccc4F)c4nc(c(-c5cc(S(=O)(=O)[O-])ccc5F)c5ccc2[nH]5)C=C4)C=C3)cc1
REMARK SMILES IDX 21 1 20 2 19 3 17 4 18 5 16 7 15 8 10 9 11 10 12 11 14 12
REMARK SMILES IDX 13 13 9 14 8 16 1 17 2 18 3 19 4 20 6 21 5 22 7 23 22 24
REMARK SMILES IDX 23 25 24 26 25 27 26 29 27 30 28 31 89 32 29 33 88 34 30 35
REMARK SMILES IDX 31 36 32 37 82 38 33 39 87 40 81 41 83 42 34 43 86 44 80 45
REMARK SMILES IDX 79 46 35 48 67 49 47 50 66 51 48 52 51 53 65 54 84 55 49 56
REMARK SMILES IDX 50 57 64 59 85 60 52 61 36 62 37 63 45 64 38 65 44 66 46 67
REMARK SMILES IDX 43 68 39 69 40 70 41 71 42 72 68 73 69 74 77 75 70 76 76 77
REMARK SMILES IDX 78 78 75 79 71 80 72 81 73 82 74 83 53 84 54 85 62 86 55 87
REMARK SMILES IDX 61 88 63 89 60 90 56 91 57 92 58 93 59 94
REMARK H PARENT 19 6 9 15 24 28 83 47 51 58
REMARK Flexibility Score: inf
ROOT
ATOM      1  C   UNL A   1      33.219  29.295  24.441  1.00  0.00     0.023 C 
ENDROOT
BRANCH   1   2
ATOM      2  C   UNL A   1      32.635  28.748  23.139  1.00  0.00     0.116 C 
BRANCH   2   3
ATOM      3  N   UNL A   1      33.470  27.704  22.582  1.00  0.00    -0.356 N 
ATOM      4  C   UNL A   1      33.130  26.405  22.324  1.00  0.00     0.224 C 
ATOM      5  O   UNL A   1      34.012  25.622  21.968  1.00  0.00    -0.275 OA
ATOM      6  H   UNL A   1      34.395  27.960  22.363  1.00  0.00     0.163 HD
BRANCH   4   7
ATOM      7  C   UNL A   1      31.679  25.968  22.434  1.00  0.00     0.137 C 
BRANCH   7   8
ATOM      8  C   UNL A   1      31.271  25.494  23.816  1.00  0.00    -0.015 A 
ATOM      9  C   UNL A   1      31.740  24.291  24.387  1.00  0.00     0.042 A 
ATOM     10  C   UNL A   1      31.202  23.876  25.620  1.00  0.00     0.026 A 
ATOM     11  C   UNL A   1      30.254  24.640  26.299  1.00  0.00     0.002 A 
ATOM     12  C   UNL A   1      30.336  26.272  24.532  1.00  0.00     0.006 A 
ATOM     13  C   UNL A   1      29.832  25.848  25.759  1.00  0.00     0.000 A 
BRANCH   9  14
ATOM     14  N   UNL A   1      32.752  23.482  23.834  1.00  0.00    -0.355 N 
ATOM     15  H   UNL A   1      32.737  23.455  22.850  1.00  0.00     0.167 HD
BRANCH  14  16
ATOM     16  C   UNL A   1      33.785  22.702  24.404  1.00  0.00     0.044 A 
ATOM     17  C   UNL A   1      32.478  20.611  23.705  1.00  0.00     0.046 C 
ATOM     18  C   UNL A   1      33.679  21.286  24.320  1.00  0.00    -0.027 A 
ATOM     19  C   UNL A   1      34.722  20.470  24.787  1.00  0.00     0.005 A 
ATOM     20  C   UNL A   1      35.869  21.031  25.331  1.00  0.00     0.001 A 
ATOM     21  C   UNL A   1      34.939  23.259  25.004  1.00  0.00    -0.027 A 
ATOM     22  C   UNL A   1      35.976  22.412  25.438  1.00  0.00     0.005 A 
ATOM     23  C   UNL A   1      35.122  24.734  25.243  1.00  0.00     0.046 C 
ENDBRANCH  14  16
ENDBRANCH   9  14
ENDBRANCH   7   8
ENDBRANCH   4   7
ENDBRANCH   2   3
ENDBRANCH   1   2
BRANCH   1  24
ATOM     24  C   UNL A   1      33.463  28.237  25.519  1.00  0.00     0.023 C 
BRANCH  24  25
ATOM     25  C   UNL A   1      33.247  28.717  26.947  1.00  0.00     0.116 C 
BRANCH  25  26
ATOM     26  N   UNL A   1      33.283  30.166  27.068  1.00  0.00    -0.352 N 
ATOM     27  C   UNL A   1      34.250  30.951  27.645  1.00  0.00     0.251 C 
ATOM     28  H   UNL A   1      32.513  30.646  26.688  1.00  0.00     0.163 HD
ATOM     29  O   UNL A   1      34.054  32.155  27.783  1.00  0.00    -0.269 OA
BRANCH  27  30
ATOM     30  C   UNL A   1      35.500  30.329  28.130  1.00  0.00     0.039 A 
ATOM     31  C   UNL A   1      36.613  30.311  27.287  1.00  0.00     0.014 A 
ATOM     32  C   UNL A   1      35.580  29.784  29.415  1.00  0.00     0.014 A 
ATOM     33  C   UNL A   1      37.821  29.792  27.754  1.00  0.00     0.010 A 
ATOM     34  C   UNL A   1      36.805  29.339  29.905  1.00  0.00     0.010 A 
ATOM     35  C   UNL A   1      37.935  29.328  29.076  1.00  0.00    -0.014 A 
BRANCH  35  36
ATOM     36  C   UNL A   1      39.229  28.806  29.589  1.00  0.00     0.031 A 
ATOM     37  C   UNL A   1      39.876  29.443  30.788  1.00  0.00     0.074 A 
ATOM     38  C   UNL A   1      39.832  27.782  28.954  1.00  0.00     0.049 A 
ATOM     39  N   UNL A   1      41.002  29.137  31.382  1.00  0.00    -0.248 NA
ATOM     40  C   UNL A   1      39.182  30.598  31.377  1.00  0.00     0.031 C 
ATOM     41  C   UNL A   1      39.326  27.119  27.749  1.00  0.00     0.029 A 
ATOM     42  N   UNL A   1      40.997  27.114  29.234  1.00  0.00    -0.354 N 
ATOM     43  C   UNL A   1      41.151  30.063  32.411  1.00  0.00     0.074 A 
ATOM     44  C   UNL A   1      40.041  30.985  32.307  1.00  0.00     0.031 C 
ATOM     45  C   UNL A   1      40.156  26.117  27.417  1.00  0.00     0.029 A 
ATOM     46  C   UNL A   1      41.269  26.087  28.361  1.00  0.00     0.049 A 
ATOM     47  H   UNL A   1      41.584  27.349  29.988  1.00  0.00     0.167 HD
ATOM     48  C   UNL A   1      42.109  30.120  33.370  1.00  0.00     0.034 A 
ATOM     49  C   UNL A   1      42.297  25.216  28.329  1.00  0.00     0.034 A 
ATOM     50  C   UNL A   1      43.207  29.188  33.460  1.00  0.00     0.049 A 
ATOM     51  C   UNL A   1      43.350  25.299  29.405  1.00  0.00     0.074 A 
ATOM     52  C   UNL A   1      44.214  29.127  34.408  1.00  0.00     0.029 A 
ATOM     53  N   UNL A   1      43.446  28.153  32.564  1.00  0.00    -0.354 N 
ATOM     54  N   UNL A   1      43.448  26.146  30.405  1.00  0.00    -0.248 NA
ATOM     55  C   UNL A   1      44.416  24.293  29.359  1.00  0.00     0.031 C 
ATOM     56  C   UNL A   1      45.093  28.097  34.053  1.00  0.00     0.029 A 
ATOM     57  C   UNL A   1      44.594  27.462  32.926  1.00  0.00     0.049 A 
ATOM     58  H   UNL A   1      42.882  27.939  31.786  1.00  0.00     0.167 HD
ATOM     59  C   UNL A   1      44.571  25.749  31.127  1.00  0.00     0.074 A 
ATOM     60  C   UNL A   1      45.097  24.576  30.459  1.00  0.00     0.031 C 
ATOM     61  C   UNL A   1      45.116  26.302  32.242  1.00  0.00     0.034 A 
BRANCH  48  62
ATOM     62  C   UNL A   1      42.011  31.244  34.376  1.00  0.00     0.023 A 
ATOM     63  C   UNL A   1      41.005  31.266  35.361  1.00  0.00     0.031 A 
ATOM     64  C   UNL A   1      42.903  32.329  34.329  1.00  0.00     0.131 A 
ATOM     65  C   UNL A   1      40.863  32.385  36.195  1.00  0.00     0.055 A 
ATOM     66  C   UNL A   1      42.811  33.399  35.221  1.00  0.00     0.041 A 
ATOM     67  F   UNL A   1      43.871  32.377  33.401  1.00  0.00    -0.206 F 
ATOM     68  C   UNL A   1      41.776  33.441  36.151  1.00  0.00     0.022 A 
BRANCH  65  69
ATOM     69  S   UNL A   1      39.376  32.512  37.227  1.00  0.00     0.124 S 
ATOM     70  O   UNL A   1      38.728  31.229  36.969  1.00  0.00    -0.237 OA
ATOM     71  O   UNL A   1      39.933  32.689  38.563  1.00  0.00    -0.237 OA
ATOM     72  O   UNL A   1      38.678  33.675  36.681  1.00  0.00    -0.744 OA
ENDBRANCH  65  69
ENDBRANCH  48  62
BRANCH  49  73
ATOM     73  C   UNL A   1      42.381  24.182  27.258  1.00  0.00     0.023 A 
ATOM     74  C   UNL A   1      41.577  23.031  27.300  1.00  0.00     0.031 A 
ATOM     75  C   UNL A   1      43.301  24.305  26.202  1.00  0.00     0.131 A 
ATOM     76  C   UNL A   1      41.742  22.025  26.336  1.00  0.00     0.055 A 
ATOM     77  C   UNL A   1      43.425  23.325  25.215  1.00  0.00     0.041 A 
ATOM     78  F   UNL A   1      44.088  25.388  26.110  1.00  0.00    -0.206 F 
ATOM     79  C   UNL A   1      42.653  22.170  25.287  1.00  0.00     0.022 A 
BRANCH  76  80
ATOM     80  S   UNL A   1      40.810  20.481  26.524  1.00  0.00     0.124 S 
ATOM     81  O   UNL A   1      40.831  20.293  27.969  1.00  0.00    -0.237 OA
ATOM     82  O   UNL A   1      39.520  20.835  25.940  1.00  0.00    -0.237 OA
ATOM     83  O   UNL A   1      41.594  19.515  25.756  1.00  0.00    -0.744 OA
ENDBRANCH  76  80
ENDBRANCH  49  73
BRANCH  61  84
ATOM     84  C   UNL A   1      46.320  25.601  32.827  1.00  0.00     0.023 A 
ATOM     85  C   UNL A   1      46.190  24.540  33.741  1.00  0.00     0.031 A 
ATOM     86  C   UNL A   1      47.618  26.032  32.497  1.00  0.00     0.131 A 
ATOM     87  C   UNL A   1      47.332  24.001  34.354  1.00  0.00     0.055 A 
ATOM     88  C   UNL A   1      48.753  25.444  33.058  1.00  0.00     0.041 A 
ATOM     89  F   UNL A   1      47.804  27.041  31.632  1.00  0.00    -0.206 F 
ATOM     90  C   UNL A   1      48.613  24.435  34.006  1.00  0.00     0.022 A 
BRANCH  87  91
ATOM     91  S   UNL A   1      47.111  22.818  35.711  1.00  0.00     0.124 S 
ATOM     92  O   UNL A   1      46.106  23.483  36.535  1.00  0.00    -0.237 OA
ATOM     93  O   UNL A   1      46.667  21.618  35.009  1.00  0.00    -0.237 OA
ATOM     94  O   UNL A   1      48.442  22.730  36.309  1.00  0.00    -0.744 OA
ENDBRANCH  87  91
ENDBRANCH  61  84
ENDBRANCH  35  36
ENDBRANCH  27  30
ENDBRANCH  25  26
ENDBRANCH  24  25
ENDBRANCH   1  24
TORSDOF 17
ENDMDL
MODEL 2
REMARK VINA RESULT:     -11.7      3.274      8.665
REMARK SMILES Cc1cccc(C)c1Nc1ccccc1CC(=O)NCCCCNC(=O)c1ccc(-c2c3nc(c(-c4cc(S(=O)(=O)[O-])ccc4F)c4ccc([nH]4)c(-c4cc(S(=O)(=O)[O-])ccc4F)c4nc(c(-c5cc(S(=O)(=O)[O-])ccc5F)c5ccc2[nH]5)C=C4)C=C3)cc1
REMARK SMILES IDX 21 1 20 2 19 3 17 4 18 5 16 7 15 8 10 9 11 10 12 11 14 12
REMARK SMILES IDX 13 13 9 14 8 16 1 17 2 18 3 19 4 20 6 21 5 22 7 23 22 24
REMARK SMILES IDX 23 25 24 26 25 27 26 29 27 30 28 31 89 32 29 33 88 34 30 35
REMARK SMILES IDX 31 36 32 37 82 38 33 39 87 40 81 41 83 42 34 43 86 44 80 45
REMARK SMILES IDX 79 46 35 48 67 49 47 50 66 51 48 52 51 53 65 54 84 55 49 56
REMARK SMILES IDX 50 57 64 59 85 60 52 61 36 62 37 63 45 64 38 65 44 66 46 67
REMARK SMILES IDX 43 68 39 69 40 70 41 71 42 72 68 73 69 74 77 75 70 76 76 77
REMARK SMILES IDX 78 78 75 79 71 80 72 81 73 82 74 83 53 84 54 85 62 86 55 87
REMARK SMILES IDX 61 88 63 89 60 90 56 91 57 92 58 93 59 94
REMARK H PARENT 19 6 9 15 24 28 83 47 51 58
REMARK Flexibility Score: inf
ROOT
ATOM      1  C   UNL A   1      31.917  30.474  26.152  1.00  0.00     0.023 C 
ENDROOT
BRANCH   1   2
ATOM      2  C   UNL A   1      32.353  29.483  27.232  1.00  0.00     0.116 C 
BRANCH   2   3
ATOM      3  N   UNL A   1      31.503  28.311  27.248  1.00  0.00    -0.356 N 
ATOM      4  C   UNL A   1      31.770  27.074  26.732  1.00  0.00     0.224 C 
ATOM      5  O   UNL A   1      30.872  26.229  26.725  1.00  0.00    -0.275 OA
ATOM      6  H   UNL A   1      30.627  28.418  27.684  1.00  0.00     0.163 HD
BRANCH   4   7
ATOM      7  C   UNL A   1      33.166  26.752  26.225  1.00  0.00     0.137 C 
BRANCH   7   8
ATOM      8  C   UNL A   1      33.221  26.327  24.770  1.00  0.00    -0.015 A 
ATOM      9  C   UNL A   1      33.595  25.028  24.360  1.00  0.00     0.042 A 
ATOM     10  C   UNL A   1      33.740  24.771  22.984  1.00  0.00     0.026 A 
ATOM     11  C   UNL A   1      33.488  25.753  22.027  1.00  0.00     0.002 A 
ATOM     12  C   UNL A   1      32.938  27.299  23.787  1.00  0.00     0.006 A 
ATOM     13  C   UNL A   1      33.072  27.015  22.429  1.00  0.00     0.000 A 
BRANCH   9  14
ATOM     14  N   UNL A   1      33.794  23.939  25.232  1.00  0.00    -0.355 N 
ATOM     15  H   UNL A   1      33.354  24.052  26.105  1.00  0.00     0.167 HD
BRANCH  14  16
ATOM     16  C   UNL A   1      34.496  22.718  25.107  1.00  0.00     0.044 A 
ATOM     17  C   UNL A   1      36.619  23.961  25.824  1.00  0.00     0.046 C 
ATOM     18  C   UNL A   1      35.882  22.706  25.426  1.00  0.00    -0.027 A 
ATOM     19  C   UNL A   1      36.601  21.500  25.408  1.00  0.00     0.005 A 
ATOM     20  C   UNL A   1      35.972  20.306  25.085  1.00  0.00     0.001 A 
ATOM     21  C   UNL A   1      33.878  21.501  24.733  1.00  0.00    -0.027 A 
ATOM     22  C   UNL A   1      34.623  20.307  24.751  1.00  0.00     0.005 A 
ATOM     23  C   UNL A   1      32.447  21.401  24.276  1.00  0.00     0.046 C 
ENDBRANCH  14  16
ENDBRANCH   9  14
ENDBRANCH   7   8
ENDBRANCH   4   7
ENDBRANCH   2   3
ENDBRANCH   1   2
BRANCH   1  24
ATOM     24  C   UNL A   1      31.647  31.891  26.666  1.00  0.00     0.023 C 
BRANCH  24  25
ATOM     25  C   UNL A   1      32.834  32.562  27.343  1.00  0.00     0.116 C 
BRANCH  25  26
ATOM     26  N   UNL A   1      32.587  33.959  27.662  1.00  0.00    -0.352 N 
ATOM     27  C   UNL A   1      33.185  34.735  28.624  1.00  0.00     0.251 C 
ATOM     28  H   UNL A   1      31.901  34.407  27.117  1.00  0.00     0.163 HD
ATOM     29  O   UNL A   1      32.757  35.862  28.850  1.00  0.00    -0.269 OA
BRANCH  27  30
ATOM     30  C   UNL A   1      34.312  34.184  29.406  1.00  0.00     0.039 A 
ATOM     31  C   UNL A   1      34.032  33.405  30.531  1.00  0.00     0.014 A 
ATOM     32  C   UNL A   1      35.636  34.416  29.021  1.00  0.00     0.014 A 
ATOM     33  C   UNL A   1      35.081  32.818  31.240  1.00  0.00     0.010 A 
ATOM     34  C   UNL A   1      36.675  33.767  29.682  1.00  0.00     0.010 A 
ATOM     35  C   UNL A   1      36.409  32.970  30.805  1.00  0.00    -0.014 A 
BRANCH  35  36
ATOM     36  C   UNL A   1      37.527  32.318  31.536  1.00  0.00     0.031 A 
ATOM     37  C   UNL A   1      38.282  31.183  30.901  1.00  0.00     0.074 A 
ATOM     38  C   UNL A   1      37.837  32.730  32.781  1.00  0.00     0.049 A 
ATOM     39  N   UNL A   1      39.281  30.483  31.377  1.00  0.00    -0.248 NA
ATOM     40  C   UNL A   1      37.832  30.755  29.568  1.00  0.00     0.031 C 
ATOM     41  C   UNL A   1      37.140  33.785  33.521  1.00  0.00     0.029 A 
ATOM     42  N   UNL A   1      38.819  32.316  33.644  1.00  0.00    -0.354 N 
ATOM     43  C   UNL A   1      39.576  29.533  30.405  1.00  0.00     0.074 A 
ATOM     44  C   UNL A   1      38.599  29.698  29.350  1.00  0.00     0.031 C 
ATOM     45  C   UNL A   1      37.741  33.961  34.709  1.00  0.00     0.029 A 
ATOM     46  C   UNL A   1      38.841  33.009  34.832  1.00  0.00     0.049 A 
ATOM     47  H   UNL A   1      39.450  31.589  33.434  1.00  0.00     0.167 HD
ATOM     48  C   UNL A   1      40.585  28.627  30.380  1.00  0.00     0.034 A 
ATOM     49  C   UNL A   1      39.660  32.894  35.896  1.00  0.00     0.034 A 
ATOM     50  C   UNL A   1      41.554  28.480  31.440  1.00  0.00     0.049 A 
ATOM     51  C   UNL A   1      40.774  31.881  35.846  1.00  0.00     0.074 A 
ATOM     52  C   UNL A   1      42.639  27.623  31.507  1.00  0.00     0.029 A 
ATOM     53  N   UNL A   1      41.552  29.207  32.624  1.00  0.00    -0.354 N 
ATOM     54  N   UNL A   1      41.075  31.026  34.895  1.00  0.00    -0.248 NA
ATOM     55  C   UNL A   1      41.673  31.834  37.005  1.00  0.00     0.031 C 
ATOM     56  C   UNL A   1      43.255  27.789  32.753  1.00  0.00     0.029 A 
ATOM     57  C   UNL A   1      42.603  28.804  33.436  1.00  0.00     0.049 A 
ATOM     58  H   UNL A   1      40.900  29.908  32.854  1.00  0.00     0.167 HD
ATOM     59  C   UNL A   1      42.221  30.364  35.330  1.00  0.00     0.074 A 
ATOM     60  C   UNL A   1      42.565  30.938  36.615  1.00  0.00     0.031 C 
ATOM     61  C   UNL A   1      42.927  29.376  34.721  1.00  0.00     0.034 A 
BRANCH  48  62
ATOM     62  C   UNL A   1      40.668  27.718  29.175  1.00  0.00     0.023 A 
ATOM     63  C   UNL A   1      41.616  27.929  28.156  1.00  0.00     0.031 A 
ATOM     64  C   UNL A   1      39.763  26.654  29.016  1.00  0.00     0.131 A 
ATOM     65  C   UNL A   1      41.581  27.148  26.991  1.00  0.00     0.055 A 
ATOM     66  C   UNL A   1      39.791  25.823  27.894  1.00  0.00     0.041 A 
ATOM     67  F   UNL A   1      38.822  26.413  29.942  1.00  0.00    -0.206 F 
ATOM     68  C   UNL A   1      40.692  26.078  26.864  1.00  0.00     0.022 A 
BRANCH  65  69
ATOM     69  S   UNL A   1      42.604  27.651  25.580  1.00  0.00     0.124 S 
ATOM     70  O   UNL A   1      41.865  28.806  25.076  1.00  0.00    -0.237 OA
ATOM     71  O   UNL A   1      43.889  27.940  26.208  1.00  0.00    -0.237 OA
ATOM     72  O   UNL A   1      42.585  26.479  24.707  1.00  0.00    -0.744 OA
ENDBRANCH  65  69
ENDBRANCH  48  62
BRANCH  49  73
ATOM     73  C   UNL A   1      39.474  33.765  37.092  1.00  0.00     0.023 A 
ATOM     74  C   UNL A   1      38.837  33.282  38.247  1.00  0.00     0.031 A 
ATOM     75  C   UNL A   1      39.889  35.108  37.082  1.00  0.00     0.131 A 
ATOM     76  C   UNL A   1      38.585  34.147  39.323  1.00  0.00     0.055 A 
ATOM     77  C   UNL A   1      39.684  35.952  38.176  1.00  0.00     0.041 A 
ATOM     78  F   UNL A   1      40.510  35.619  36.008  1.00  0.00    -0.206 F 
ATOM     79  C   UNL A   1      39.015  35.476  39.300  1.00  0.00     0.022 A 
BRANCH  76  80
ATOM     80  S   UNL A   1      37.607  33.531  40.721  1.00  0.00     0.124 S 
ATOM     81  O   UNL A   1      38.527  32.580  41.333  1.00  0.00    -0.237 OA
ATOM     82  O   UNL A   1      37.353  34.756  41.473  1.00  0.00    -0.237 OA
ATOM     83  O   UNL A   1      36.433  32.942  40.080  1.00  0.00    -0.744 OA
ENDBRANCH  76  80
ENDBRANCH  49  73
BRANCH  61  84
ATOM     84  C   UNL A   1      44.171  28.894  35.432  1.00  0.00     0.023 A 
ATOM     85  C   UNL A   1      44.139  27.814  36.333  1.00  0.00     0.031 A 
ATOM     86  C   UNL A   1      45.397  29.555  35.238  1.00  0.00     0.131 A 
ATOM     87  C   UNL A   1      45.289  27.480  37.065  1.00  0.00     0.055 A 
ATOM     88  C   UNL A   1      46.554  29.171  35.917  1.00  0.00     0.041 A 
ATOM     89  F   UNL A   1      45.487  30.593  34.392  1.00  0.00    -0.206 F 
ATOM     90  C   UNL A   1      46.500  28.141  36.850  1.00  0.00     0.022 A 
BRANCH  87  91
ATOM     91  S   UNL A   1      45.144  26.258  38.397  1.00  0.00     0.124 S 
ATOM     92  O   UNL A   1      46.532  26.104  38.822  1.00  0.00    -0.237 OA
ATOM     93  O   UNL A   1      44.260  26.931  39.343  1.00  0.00    -0.237 OA
ATOM     94  O   UNL A   1      44.568  25.091  37.732  1.00  0.00    -0.744 OA
ENDBRANCH  87  91
ENDBRANCH  61  84
ENDBRANCH  35  36
ENDBRANCH  27  30
ENDBRANCH  25  26
ENDBRANCH  24  25
ENDBRANCH   1  24
TORSDOF 17
ENDMDL
MODEL 3
REMARK VINA RESULT:     -11.6      1.673      2.263
REMARK SMILES Cc1cccc(C)c1Nc1ccccc1CC(=O)NCCCCNC(=O)c1ccc(-c2c3nc(c(-c4cc(S(=O)(=O)[O-])ccc4F)c4ccc([nH]4)c(-c4cc(S(=O)(=O)[O-])ccc4F)c4nc(c(-c5cc(S(=O)(=O)[O-])ccc5F)c5ccc2[nH]5)C=C4)C=C3)cc1
REMARK SMILES IDX 21 1 20 2 19 3 17 4 18 5 16 7 15 8 10 9 11 10 12 11 14 12
REMARK SMILES IDX 13 13 9 14 8 16 1 17 2 18 3 19 4 20 6 21 5 22 7 23 22 24
REMARK SMILES IDX 23 25 24 26 25 27 26 29 27 30 28 31 89 32 29 33 88 34 30 35
REMARK SMILES IDX 31 36 32 37 82 38 33 39 87 40 81 41 83 42 34 43 86 44 80 45
REMARK SMILES IDX 79 46 35 48 67 49 47 50 66 51 48 52 51 53 65 54 84 55 49 56
REMARK SMILES IDX 50 57 64 59 85 60 52 61 36 62 37 63 45 64 38 65 44 66 46 67
REMARK SMILES IDX 43 68 39 69 40 70 41 71 42 72 68 73 69 74 77 75 70 76 76 77
REMARK SMILES IDX 78 78 75 79 71 80 72 81 73 82 74 83 53 84 54 85 62 86 55 87
REMARK SMILES IDX 61 88 63 89 60 90 56 91 57 92 58 93 59 94
REMARK H PARENT 19 6 9 15 24 28 83 47 51 58
REMARK Flexibility Score: inf
ROOT
ATOM      1  C   UNL A   1      31.591  27.882  26.426  1.00  0.00     0.023 C 
ENDROOT
BRANCH   1   2
ATOM      2  C   UNL A   1      30.668  26.704  26.114  1.00  0.00     0.116 C 
BRANCH   2   3
ATOM      3  N   UNL A   1      31.032  25.529  26.878  1.00  0.00    -0.356 N 
ATOM      4  C   UNL A   1      31.003  24.224  26.475  1.00  0.00     0.224 C 
ATOM      5  O   UNL A   1      31.227  23.343  27.307  1.00  0.00    -0.275 OA
ATOM      6  H   UNL A   1      31.336  25.690  27.801  1.00  0.00     0.163 HD
BRANCH   4   7
ATOM      7  C   UNL A   1      30.746  23.889  25.015  1.00  0.00     0.137 C 
BRANCH   7   8
ATOM      8  C   UNL A   1      31.805  24.405  24.059  1.00  0.00    -0.015 A 
ATOM      9  C   UNL A   1      33.188  24.212  24.264  1.00  0.00     0.042 A 
ATOM     10  C   UNL A   1      34.093  24.842  23.389  1.00  0.00     0.026 A 
ATOM     11  C   UNL A   1      33.654  25.611  22.312  1.00  0.00     0.002 A 
ATOM     12  C   UNL A   1      31.377  25.160  22.946  1.00  0.00     0.006 A 
ATOM     13  C   UNL A   1      32.293  25.759  22.083  1.00  0.00     0.000 A 
BRANCH   9  14
ATOM     14  N   UNL A   1      33.743  23.391  25.265  1.00  0.00    -0.355 N 
ATOM     15  H   UNL A   1      33.359  23.547  26.157  1.00  0.00     0.167 HD
BRANCH  14  16
ATOM     16  C   UNL A   1      34.739  22.387  25.249  1.00  0.00     0.044 A 
ATOM     17  C   UNL A   1      32.882  20.666  24.857  1.00  0.00     0.046 C 
ATOM     18  C   UNL A   1      34.334  21.044  25.018  1.00  0.00    -0.027 A 
ATOM     19  C   UNL A   1      35.294  20.026  24.899  1.00  0.00     0.005 A 
ATOM     20  C   UNL A   1      36.648  20.315  25.001  1.00  0.00     0.001 A 
ATOM     21  C   UNL A   1      36.120  22.660  25.398  1.00  0.00    -0.027 A 
ATOM     22  C   UNL A   1      37.056  21.620  25.248  1.00  0.00     0.005 A 
ATOM     23  C   UNL A   1      36.666  24.019  25.747  1.00  0.00     0.046 C 
ENDBRANCH  14  16
ENDBRANCH   9  14
ENDBRANCH   7   8
ENDBRANCH   4   7
ENDBRANCH   2   3
ENDBRANCH   1   2
BRANCH   1  24
ATOM     24  C   UNL A   1      33.074  27.515  26.528  1.00  0.00     0.023 C 
BRANCH  24  25
ATOM     25  C   UNL A   1      34.031  28.566  25.987  1.00  0.00     0.116 C 
BRANCH  25  26
ATOM     26  N   UNL A   1      33.674  29.917  26.389  1.00  0.00    -0.352 N 
ATOM     27  C   UNL A   1      34.305  30.733  27.296  1.00  0.00     0.251 C 
ATOM     28  H   UNL A   1      32.876  30.295  25.956  1.00  0.00     0.163 HD
ATOM     29  O   UNL A   1      33.786  31.798  27.619  1.00  0.00    -0.269 OA
BRANCH  27  30
ATOM     30  C   UNL A   1      35.580  30.299  27.903  1.00  0.00     0.039 A 
ATOM     31  C   UNL A   1      35.554  29.696  29.162  1.00  0.00     0.014 A 
ATOM     32  C   UNL A   1      36.792  30.466  27.226  1.00  0.00     0.014 A 
ATOM     33  C   UNL A   1      36.739  29.215  29.719  1.00  0.00     0.010 A 
ATOM     34  C   UNL A   1      37.960  29.917  27.749  1.00  0.00     0.010 A 
ATOM     35  C   UNL A   1      37.947  29.295  29.005  1.00  0.00    -0.014 A 
BRANCH  35  36
ATOM     36  C   UNL A   1      39.206  28.753  29.580  1.00  0.00     0.031 A 
ATOM     37  C   UNL A   1      39.757  29.321  30.859  1.00  0.00     0.074 A 
ATOM     38  C   UNL A   1      39.866  27.773  28.931  1.00  0.00     0.049 A 
ATOM     39  N   UNL A   1      40.840  28.988  31.515  1.00  0.00    -0.248 NA
ATOM     40  C   UNL A   1      39.008  30.433  31.464  1.00  0.00     0.031 C 
ATOM     41  C   UNL A   1      39.457  27.181  27.655  1.00  0.00     0.029 A 
ATOM     42  N   UNL A   1      41.015  27.099  29.255  1.00  0.00    -0.354 N 
ATOM     43  C   UNL A   1      40.904  29.851  32.605  1.00  0.00     0.074 A 
ATOM     44  C   UNL A   1      39.794  30.769  32.475  1.00  0.00     0.031 C 
ATOM     45  C   UNL A   1      40.321  26.207  27.325  1.00  0.00     0.029 A 
ATOM     46  C   UNL A   1      41.363  26.128  28.344  1.00  0.00     0.049 A 
ATOM     47  H   UNL A   1      41.543  27.292  30.063  1.00  0.00     0.167 HD
ATOM     48  C   UNL A   1      41.788  29.857  33.633  1.00  0.00     0.034 A 
ATOM     49  C   UNL A   1      42.400  25.269  28.336  1.00  0.00     0.034 A 
ATOM     50  C   UNL A   1      42.888  28.930  33.748  1.00  0.00     0.049 A 
ATOM     51  C   UNL A   1      43.371  25.294  29.489  1.00  0.00     0.074 A 
ATOM     52  C   UNL A   1      43.824  28.819  34.762  1.00  0.00     0.029 A 
ATOM     53  N   UNL A   1      43.204  27.952  32.812  1.00  0.00    -0.354 N 
ATOM     54  N   UNL A   1      43.386  26.080  30.542  1.00  0.00    -0.248 NA
ATOM     55  C   UNL A   1      44.450  24.301  29.462  1.00  0.00     0.031 C 
ATOM     56  C   UNL A   1      44.738  27.819  34.411  1.00  0.00     0.029 A 
ATOM     57  C   UNL A   1      44.331  27.249  33.214  1.00  0.00     0.049 A 
ATOM     58  H   UNL A   1      42.700  27.782  31.983  1.00  0.00     0.167 HD
ATOM     59  C   UNL A   1      44.458  25.648  31.319  1.00  0.00     0.074 A 
ATOM     60  C   UNL A   1      45.046  24.522  30.623  1.00  0.00     0.031 C 
ATOM     61  C   UNL A   1      44.914  26.136  32.503  1.00  0.00     0.034 A 
BRANCH  48  62
ATOM     62  C   UNL A   1      41.604  30.917  34.695  1.00  0.00     0.023 A 
ATOM     63  C   UNL A   1      40.484  30.920  35.548  1.00  0.00     0.031 A 
ATOM     64  C   UNL A   1      42.533  31.963  34.833  1.00  0.00     0.131 A 
ATOM     65  C   UNL A   1      40.278  31.989  36.433  1.00  0.00     0.055 A 
ATOM     66  C   UNL A   1      42.368  32.977  35.779  1.00  0.00     0.041 A 
ATOM     67  F   UNL A   1      43.612  32.028  34.037  1.00  0.00    -0.206 F 
ATOM     68  C   UNL A   1      41.226  33.005  36.574  1.00  0.00     0.022 A 
BRANCH  65  69
ATOM     69  S   UNL A   1      38.678  32.115  37.280  1.00  0.00     0.124 S 
ATOM     70  O   UNL A   1      39.093  32.331  38.663  1.00  0.00    -0.237 OA
ATOM     71  O   UNL A   1      38.057  33.254  36.614  1.00  0.00    -0.237 OA
ATOM     72  O   UNL A   1      38.050  30.820  37.021  1.00  0.00    -0.744 OA
ENDBRANCH  65  69
ENDBRANCH  48  62
BRANCH  49  73
ATOM     73  C   UNL A   1      42.574  24.301  27.215  1.00  0.00     0.023 A 
ATOM     74  C   UNL A   1      42.003  23.019  27.270  1.00  0.00     0.031 A 
ATOM     75  C   UNL A   1      43.354  24.626  26.091  1.00  0.00     0.131 A 
ATOM     76  C   UNL A   1      42.261  22.092  26.249  1.00  0.00     0.055 A 
ATOM     77  C   UNL A   1      43.564  23.718  25.051  1.00  0.00     0.041 A 
ATOM     78  F   UNL A   1      43.916  25.840  25.983  1.00  0.00    -0.206 F 
ATOM     79  C   UNL A   1      43.028  22.437  25.134  1.00  0.00     0.022 A 
BRANCH  76  80
ATOM     80  S   UNL A   1      41.650  20.395  26.442  1.00  0.00     0.124 S 
ATOM     81  O   UNL A   1      42.089  20.072  27.795  1.00  0.00    -0.237 OA
ATOM     82  O   UNL A   1      40.213  20.569  26.257  1.00  0.00    -0.237 OA
ATOM     83  O   UNL A   1      42.329  19.666  25.373  1.00  0.00    -0.744 OA
ENDBRANCH  76  80
ENDBRANCH  49  73
BRANCH  61  84
ATOM     84  C   UNL A   1      46.081  25.410  33.131  1.00  0.00     0.023 A 
ATOM     85  C   UNL A   1      47.410  25.683  32.762  1.00  0.00     0.031 A 
ATOM     86  C   UNL A   1      45.855  24.400  34.084  1.00  0.00     0.131 A 
ATOM     87  C   UNL A   1      48.454  24.900  33.278  1.00  0.00     0.055 A 
ATOM     88  C   UNL A   1      46.905  23.673  34.647  1.00  0.00     0.041 A 
ATOM     89  F   UNL A   1      44.608  24.095  34.474  1.00  0.00    -0.206 F 
ATOM     90  C   UNL A   1      48.211  23.907  34.230  1.00  0.00     0.022 A 
BRANCH  87  91
ATOM     91  S   UNL A   1      50.118  25.108  32.587  1.00  0.00     0.124 S 
ATOM     92  O   UNL A   1      50.870  25.590  33.741  1.00  0.00    -0.237 OA
ATOM     93  O   UNL A   1      50.440  23.757  32.137  1.00  0.00    -0.237 OA
ATOM     94  O   UNL A   1      49.926  26.088  31.519  1.00  0.00    -0.744 OA
ENDBRANCH  87  91
ENDBRANCH  61  84
ENDBRANCH  35  36
ENDBRANCH  27  30
ENDBRANCH  25  26
ENDBRANCH  24  25
ENDBRANCH   1  24
TORSDOF 17
ENDMDL
