MODEL 1
REMARK VINA RESULT:     -12.2      0.000      0.000
REMARK SMILES O=C(NCCCCNC(=O)[C@H]1C=C[C@H](Nc2ccc([N+](=O)[O-])cc2C(F)F)C1)c1ccc(-c2c3nc(c(-c4cc(S(=O)(=O)[O-])ccc4F)c4ccc([nH]4)c(-c4cc(S(=O)(=O)[O-])ccc4F)c4nc(c(-c5cc(S(=O)(=O)[O-])ccc5F)c5ccc2[nH]5)C=C4)C=C3)cc1
REMARK SMILES IDX 5 1 4 2 3 3 1 4 2 5 29 7 30 8 91 9 31 10 90 11 32 12 33 13
REMARK SMILES IDX 34 14 84 15 35 16 89 17 83 18 85 19 36 20 88 21 82 22 81 23
REMARK SMILES IDX 37 25 69 26 49 27 68 28 50 29 53 30 67 31 86 32 51 33 52 34
REMARK SMILES IDX 66 36 87 37 54 38 38 39 39 40 47 41 40 42 46 43 48 44 45 45
REMARK SMILES IDX 41 46 42 47 43 48 44 49 70 50 71 51 79 52 72 53 78 54 80 55
REMARK SMILES IDX 77 56 73 57 74 58 75 59 76 60 55 61 56 62 64 63 57 64 63 65
REMARK SMILES IDX 65 66 62 67 58 68 59 69 60 70 61 71 6 72 7 73 8 74 9 75
REMARK SMILES IDX 10 77 11 78 12 79 28 80 13 81 14 82 15 83 16 85 17 86 24 87
REMARK SMILES IDX 18 88 23 89 19 90 25 91 26 92 27 93 20 94 21 95 22 96
REMARK H PARENT 3 6 85 24 53 35 8 76 15 84
REMARK Flexibility Score: inf
ROOT
ATOM      1  C   UNL A   1      35.512  21.050  24.988  1.00  0.00     0.023 C 
ENDROOT
BRANCH   1   2
ATOM      2  C   UNL A   1      36.933  21.551  25.211  1.00  0.00     0.116 C 
BRANCH   2   3
ATOM      3  N   UNL A   1      37.884  20.475  25.458  1.00  0.00    -0.352 N 
ATOM      4  O   UNL A   1      39.882  19.539  25.924  1.00  0.00    -0.269 OA
ATOM      5  C   UNL A   1      39.183  20.543  25.916  1.00  0.00     0.251 C 
ATOM      6  H   UNL A   1      37.550  19.567  25.272  1.00  0.00     0.163 HD
BRANCH   5   7
ATOM      7  C   UNL A   1      39.727  21.841  26.370  1.00  0.00     0.039 A 
ATOM      8  C   UNL A   1      39.204  23.034  25.871  1.00  0.00     0.014 A 
ATOM      9  C   UNL A   1      40.786  21.864  27.282  1.00  0.00     0.014 A 
ATOM     10  C   UNL A   1      39.849  24.233  26.143  1.00  0.00     0.010 A 
ATOM     11  C   UNL A   1      41.367  23.086  27.637  1.00  0.00     0.010 A 
ATOM     12  C   UNL A   1      40.927  24.279  27.043  1.00  0.00    -0.014 A 
BRANCH  12  13
ATOM     13  C   UNL A   1      41.518  25.600  27.382  1.00  0.00     0.031 A 
ATOM     14  C   UNL A   1      42.866  26.014  26.859  1.00  0.00     0.074 A 
ATOM     15  C   UNL A   1      40.786  26.451  28.129  1.00  0.00     0.049 A 
ATOM     16  N   UNL A   1      43.505  27.144  27.034  1.00  0.00    -0.248 NA
ATOM     17  C   UNL A   1      43.599  25.035  26.043  1.00  0.00     0.031 C 
ATOM     18  C   UNL A   1      39.466  26.149  28.692  1.00  0.00     0.029 A 
ATOM     19  N   UNL A   1      41.021  27.743  28.520  1.00  0.00    -0.354 N 
ATOM     20  C   UNL A   1      44.716  27.011  26.363  1.00  0.00     0.074 A 
ATOM     21  C   UNL A   1      44.735  25.675  25.803  1.00  0.00     0.031 C 
ATOM     22  C   UNL A   1      38.984  27.242  29.299  1.00  0.00     0.029 A 
ATOM     23  C   UNL A   1      39.990  28.295  29.243  1.00  0.00     0.049 A 
ATOM     24  H   UNL A   1      41.848  28.230  28.302  1.00  0.00     0.167 HD
ATOM     25  C   UNL A   1      45.711  27.922  26.224  1.00  0.00     0.034 A 
ATOM     26  C   UNL A   1      39.870  29.506  29.820  1.00  0.00     0.034 A 
ATOM     27  C   UNL A   1      45.669  29.253  26.788  1.00  0.00     0.049 A 
ATOM     28  C   UNL A   1      41.005  30.482  29.675  1.00  0.00     0.074 A 
ATOM     29  C   UNL A   1      46.615  30.261  26.693  1.00  0.00     0.029 A 
ATOM     30  N   UNL A   1      44.630  29.761  27.559  1.00  0.00    -0.354 N 
ATOM     31  N   UNL A   1      42.140  30.338  29.031  1.00  0.00    -0.248 NA
ATOM     32  C   UNL A   1      40.842  31.783  30.333  1.00  0.00     0.031 C 
ATOM     33  C   UNL A   1      46.177  31.351  27.455  1.00  0.00     0.029 A 
ATOM     34  C   UNL A   1      44.925  31.054  27.968  1.00  0.00     0.049 A 
ATOM     35  H   UNL A   1      43.805  29.274  27.782  1.00  0.00     0.167 HD
ATOM     36  C   UNL A   1      42.823  31.538  29.200  1.00  0.00     0.074 A 
ATOM     37  C   UNL A   1      41.955  32.402  29.974  1.00  0.00     0.031 C 
ATOM     38  C   UNL A   1      44.058  31.892  28.762  1.00  0.00     0.034 A 
BRANCH  25  39
ATOM     39  C   UNL A   1      46.949  27.501  25.469  1.00  0.00     0.023 A 
ATOM     40  C   UNL A   1      47.146  27.837  24.117  1.00  0.00     0.031 A 
ATOM     41  C   UNL A   1      47.953  26.756  26.113  1.00  0.00     0.131 A 
ATOM     42  C   UNL A   1      48.292  27.386  23.442  1.00  0.00     0.055 A 
ATOM     43  C   UNL A   1      49.123  26.368  25.456  1.00  0.00     0.041 A 
ATOM     44  F   UNL A   1      47.813  26.388  27.396  1.00  0.00    -0.206 F 
ATOM     45  C   UNL A   1      49.293  26.675  24.109  1.00  0.00     0.022 A 
BRANCH  42  46
ATOM     46  S   UNL A   1      48.406  27.647  21.651  1.00  0.00     0.124 S 
ATOM     47  O   UNL A   1      49.521  28.586  21.558  1.00  0.00    -0.237 OA
ATOM     48  O   UNL A   1      48.662  26.301  21.150  1.00  0.00    -0.237 OA
ATOM     49  O   UNL A   1      47.101  28.204  21.302  1.00  0.00    -0.744 OA
ENDBRANCH  42  46
ENDBRANCH  25  39
BRANCH  26  50
ATOM     50  C   UNL A   1      38.659  29.844  30.618  1.00  0.00     0.023 A 
ATOM     51  C   UNL A   1      37.646  30.660  30.093  1.00  0.00     0.031 A 
ATOM     52  C   UNL A   1      38.516  29.384  31.941  1.00  0.00     0.131 A 
ATOM     53  C   UNL A   1      36.559  31.028  30.899  1.00  0.00     0.055 A 
ATOM     54  C   UNL A   1      37.403  29.703  32.718  1.00  0.00     0.041 A 
ATOM     55  F   UNL A   1      39.456  28.598  32.492  1.00  0.00    -0.206 F 
ATOM     56  C   UNL A   1      36.423  30.543  32.202  1.00  0.00     0.022 A 
BRANCH  53  57
ATOM     57  S   UNL A   1      35.369  32.236  30.253  1.00  0.00     0.124 S 
ATOM     58  O   UNL A   1      34.870  31.554  29.064  1.00  0.00    -0.237 OA
ATOM     59  O   UNL A   1      34.431  32.358  31.364  1.00  0.00    -0.237 OA
ATOM     60  O   UNL A   1      36.189  33.417  29.998  1.00  0.00    -0.744 OA
ENDBRANCH  53  57
ENDBRANCH  26  50
BRANCH  38  61
ATOM     61  C   UNL A   1      44.515  33.288  29.104  1.00  0.00     0.023 A 
ATOM     62  C   UNL A   1      44.228  34.380  28.265  1.00  0.00     0.031 A 
ATOM     63  C   UNL A   1      45.289  33.522  30.254  1.00  0.00     0.131 A 
ATOM     64  C   UNL A   1      44.772  35.640  28.549  1.00  0.00     0.055 A 
ATOM     65  C   UNL A   1      45.773  34.793  30.565  1.00  0.00     0.041 A 
ATOM     66  F   UNL A   1      45.595  32.515  31.087  1.00  0.00    -0.206 F 
ATOM     67  C   UNL A   1      45.530  35.858  29.702  1.00  0.00     0.022 A 
BRANCH  64  68
ATOM     68  S   UNL A   1      44.566  36.969  27.331  1.00  0.00     0.124 S 
ATOM     69  O   UNL A   1      43.354  36.554  26.631  1.00  0.00    -0.237 OA
ATOM     70  O   UNL A   1      44.440  38.151  28.178  1.00  0.00    -0.237 OA
ATOM     71  O   UNL A   1      45.793  36.902  26.540  1.00  0.00    -0.744 OA
ENDBRANCH  64  68
ENDBRANCH  38  61
ENDBRANCH  12  13
ENDBRANCH   5   7
ENDBRANCH   2   3
ENDBRANCH   1   2
BRANCH   1  72
ATOM     72  C   UNL A   1      34.505  21.447  26.064  1.00  0.00     0.023 C 
BRANCH  72  73
ATOM     73  C   UNL A   1      33.104  21.766  25.556  1.00  0.00     0.116 C 
BRANCH  73  74
ATOM     74  N   UNL A   1      32.970  21.643  24.117  1.00  0.00    -0.356 N 
ATOM     75  C   UNL A   1      32.770  22.647  23.206  1.00  0.00     0.227 C 
ATOM     76  H   UNL A   1      33.031  20.731  23.752  1.00  0.00     0.163 HD
ATOM     77  O   UNL A   1      32.776  22.369  22.008  1.00  0.00    -0.274 OA
BRANCH  75  78
ATOM     78  C   UNL A   1      32.513  24.060  23.732  1.00  0.00     0.103 C 
ATOM     79  C   UNL A   1      33.777  24.868  23.799  1.00  0.00    -0.016 C 
ATOM     80  C   UNL A   1      31.641  24.916  22.797  1.00  0.00     0.046 C 
ATOM     81  C   UNL A   1      33.584  26.115  23.360  1.00  0.00    -0.006 C 
ATOM     82  C   UNL A   1      32.178  26.351  22.917  1.00  0.00     0.103 C 
BRANCH  82  83
ATOM     83  N   UNL A   1      31.448  27.087  23.947  1.00  0.00    -0.378 N 
ATOM     84  H   UNL A   1      31.503  26.758  24.873  1.00  0.00     0.161 HD
BRANCH  83  85
ATOM     85  C   UNL A   1      30.681  28.221  23.706  1.00  0.00     0.044 A 
ATOM     86  C   UNL A   1      29.649  28.096  22.751  1.00  0.00     0.033 A 
ATOM     87  C   UNL A   1      30.807  29.445  24.388  1.00  0.00     0.048 A 
ATOM     88  C   UNL A   1      28.745  29.129  22.493  1.00  0.00     0.088 A 
ATOM     89  C   UNL A   1      29.879  30.483  24.145  1.00  0.00     0.097 A 
ATOM     90  C   UNL A   1      28.857  30.321  23.204  1.00  0.00     0.270 A 
BRANCH  87  91
ATOM     91  C   UNL A   1      31.917  29.721  25.371  1.00  0.00     0.375 C 
ATOM     92  F   UNL A   1      33.149  29.746  24.779  1.00  0.00    -0.205 F 
ATOM     93  F   UNL A   1      31.784  30.935  25.975  1.00  0.00    -0.205 F 
ENDBRANCH  87  91
BRANCH  90  94
ATOM     94  N   UNL A   1      27.905  31.411  22.958  1.00  0.00     0.062 N 
ATOM     95  O   UNL A   1      27.021  31.606  23.804  1.00  0.00    -0.258 OA
ATOM     96  O   UNL A   1      28.036  32.068  21.914  1.00  0.00    -0.258 OA
ENDBRANCH  90  94
ENDBRANCH  83  85
ENDBRANCH  82  83
ENDBRANCH  75  78
ENDBRANCH  73  74
ENDBRANCH  72  73
ENDBRANCH   1  72
TORSDOF 18
ENDMDL
MODEL 2
REMARK VINA RESULT:     -12.2      5.238     10.620
REMARK SMILES O=C(NCCCCNC(=O)[C@H]1C=C[C@H](Nc2ccc([N+](=O)[O-])cc2C(F)F)C1)c1ccc(-c2c3nc(c(-c4cc(S(=O)(=O)[O-])ccc4F)c4ccc([nH]4)c(-c4cc(S(=O)(=O)[O-])ccc4F)c4nc(c(-c5cc(S(=O)(=O)[O-])ccc5F)c5ccc2[nH]5)C=C4)C=C3)cc1
REMARK SMILES IDX 5 1 4 2 3 3 1 4 2 5 29 7 30 8 91 9 31 10 90 11 32 12 33 13
REMARK SMILES IDX 34 14 84 15 35 16 89 17 83 18 85 19 36 20 88 21 82 22 81 23
REMARK SMILES IDX 37 25 69 26 49 27 68 28 50 29 53 30 67 31 86 32 51 33 52 34
REMARK SMILES IDX 66 36 87 37 54 38 38 39 39 40 47 41 40 42 46 43 48 44 45 45
REMARK SMILES IDX 41 46 42 47 43 48 44 49 70 50 71 51 79 52 72 53 78 54 80 55
REMARK SMILES IDX 77 56 73 57 74 58 75 59 76 60 55 61 56 62 64 63 57 64 63 65
REMARK SMILES IDX 65 66 62 67 58 68 59 69 60 70 61 71 6 72 7 73 8 74 9 75
REMARK SMILES IDX 10 77 11 78 12 79 28 80 13 81 14 82 15 83 16 85 17 86 24 87
REMARK SMILES IDX 18 88 23 89 19 90 25 91 26 92 27 93 20 94 21 95 22 96
REMARK H PARENT 3 6 85 24 53 35 8 76 15 84
REMARK Flexibility Score: inf
ROOT
ATOM      1  C   UNL A   1      32.382  27.865  26.006  1.00  0.00     0.023 C 
ENDROOT
BRANCH   1   2
ATOM      2  C   UNL A   1      33.242  29.021  25.510  1.00  0.00     0.116 C 
BRANCH   2   3
ATOM      3  N   UNL A   1      32.752  30.323  25.944  1.00  0.00    -0.352 N 
ATOM      4  O   UNL A   1      32.615  32.160  27.244  1.00  0.00    -0.269 OA
ATOM      5  C   UNL A   1      33.247  31.165  26.916  1.00  0.00     0.251 C 
ATOM      6  H   UNL A   1      31.950  30.648  25.473  1.00  0.00     0.163 HD
BRANCH   5   7
ATOM      7  C   UNL A   1      34.532  30.841  27.573  1.00  0.00     0.039 A 
ATOM      8  C   UNL A   1      34.765  29.556  28.062  1.00  0.00     0.014 A 
ATOM      9  C   UNL A   1      35.501  31.837  27.724  1.00  0.00     0.014 A 
ATOM     10  C   UNL A   1      35.880  29.314  28.853  1.00  0.00     0.010 A 
ATOM     11  C   UNL A   1      36.675  31.559  28.431  1.00  0.00     0.010 A 
ATOM     12  C   UNL A   1      36.859  30.305  29.033  1.00  0.00    -0.014 A 
BRANCH  12  13
ATOM     13  C   UNL A   1      38.086  29.966  29.801  1.00  0.00     0.031 A 
ATOM     14  C   UNL A   1      38.314  30.496  31.191  1.00  0.00     0.074 A 
ATOM     15  C   UNL A   1      38.972  29.117  29.242  1.00  0.00     0.049 A 
ATOM     16  N   UNL A   1      39.313  30.266  32.005  1.00  0.00    -0.248 NA
ATOM     17  C   UNL A   1      37.297  31.408  31.736  1.00  0.00     0.031 C 
ATOM     18  C   UNL A   1      38.851  28.546  27.897  1.00  0.00     0.029 A 
ATOM     19  N   UNL A   1      40.125  28.561  29.732  1.00  0.00    -0.354 N 
ATOM     20  C   UNL A   1      39.056  31.010  33.152  1.00  0.00     0.074 A 
ATOM     21  C   UNL A   1      37.818  31.725  32.913  1.00  0.00     0.031 C 
ATOM     22  C   UNL A   1      39.850  27.676  27.695  1.00  0.00     0.029 A 
ATOM     23  C   UNL A   1      40.728  27.688  28.858  1.00  0.00     0.049 A 
ATOM     24  H   UNL A   1      40.485  28.765  30.625  1.00  0.00     0.167 HD
ATOM     25  C   UNL A   1      39.782  31.082  34.295  1.00  0.00     0.034 A 
ATOM     26  C   UNL A   1      41.873  26.988  28.965  1.00  0.00     0.034 A 
ATOM     27  C   UNL A   1      41.013  30.356  34.514  1.00  0.00     0.049 A 
ATOM     28  C   UNL A   1      42.673  27.114  30.232  1.00  0.00     0.074 A 
ATOM     29  C   UNL A   1      41.819  30.343  35.641  1.00  0.00     0.029 A 
ATOM     30  N   UNL A   1      41.622  29.519  33.586  1.00  0.00    -0.354 N 
ATOM     31  N   UNL A   1      42.408  27.820  31.308  1.00  0.00    -0.248 NA
ATOM     32  C   UNL A   1      43.922  26.350  30.301  1.00  0.00     0.031 C 
ATOM     33  C   UNL A   1      42.942  29.551  35.372  1.00  0.00     0.029 A 
ATOM     34  C   UNL A   1      42.805  29.009  34.104  1.00  0.00     0.049 A 
ATOM     35  H   UNL A   1      41.266  29.317  32.692  1.00  0.00     0.167 HD
ATOM     36  C   UNL A   1      43.458  27.574  32.186  1.00  0.00     0.074 A 
ATOM     37  C   UNL A   1      44.336  26.629  31.527  1.00  0.00     0.031 C 
ATOM     38  C   UNL A   1      43.682  28.088  33.422  1.00  0.00     0.034 A 
BRANCH  25  39
ATOM     39  C   UNL A   1      39.291  32.007  35.383  1.00  0.00     0.023 A 
ATOM     40  C   UNL A   1      39.727  33.341  35.478  1.00  0.00     0.031 A 
ATOM     41  C   UNL A   1      38.365  31.550  36.338  1.00  0.00     0.131 A 
ATOM     42  C   UNL A   1      39.277  34.152  36.533  1.00  0.00     0.055 A 
ATOM     43  C   UNL A   1      37.868  32.382  37.344  1.00  0.00     0.041 A 
ATOM     44  F   UNL A   1      37.927  30.281  36.311  1.00  0.00    -0.206 F 
ATOM     45  C   UNL A   1      38.332  33.689  37.451  1.00  0.00     0.022 A 
BRANCH  42  46
ATOM     46  S   UNL A   1      40.027  35.789  36.752  1.00  0.00     0.124 S 
ATOM     47  O   UNL A   1      39.655  36.456  35.506  1.00  0.00    -0.237 OA
ATOM     48  O   UNL A   1      39.372  36.279  37.959  1.00  0.00    -0.237 OA
ATOM     49  O   UNL A   1      41.453  35.497  36.891  1.00  0.00    -0.744 OA
ENDBRANCH  42  46
ENDBRANCH  25  39
BRANCH  26  50
ATOM     50  C   UNL A   1      42.352  26.147  27.831  1.00  0.00     0.023 A 
ATOM     51  C   UNL A   1      41.901  24.830  27.662  1.00  0.00     0.031 A 
ATOM     52  C   UNL A   1      43.303  26.643  26.919  1.00  0.00     0.131 A 
ATOM     53  C   UNL A   1      42.435  24.038  26.634  1.00  0.00     0.055 A 
ATOM     54  C   UNL A   1      43.784  25.871  25.862  1.00  0.00     0.041 A 
ATOM     55  F   UNL A   1      43.766  27.898  27.035  1.00  0.00    -0.206 F 
ATOM     56  C   UNL A   1      43.361  24.554  25.724  1.00  0.00     0.022 A 
BRANCH  53  57
ATOM     57  S   UNL A   1      41.973  22.285  26.562  1.00  0.00     0.124 S 
ATOM     58  O   UNL A   1      42.491  21.788  27.832  1.00  0.00    -0.237 OA
ATOM     59  O   UNL A   1      40.521  22.361  26.448  1.00  0.00    -0.237 OA
ATOM     60  O   UNL A   1      42.667  21.800  25.371  1.00  0.00    -0.744 OA
ENDBRANCH  53  57
ENDBRANCH  26  50
BRANCH  38  61
ATOM     61  C   UNL A   1      44.921  27.606  34.134  1.00  0.00     0.023 A 
ATOM     62  C   UNL A   1      44.908  26.444  34.925  1.00  0.00     0.031 A 
ATOM     63  C   UNL A   1      46.116  28.344  34.061  1.00  0.00     0.131 A 
ATOM     64  C   UNL A   1      46.042  26.093  35.670  1.00  0.00     0.055 A 
ATOM     65  C   UNL A   1      47.262  27.954  34.754  1.00  0.00     0.041 A 
ATOM     66  F   UNL A   1      46.182  29.464  33.322  1.00  0.00    -0.206 F 
ATOM     67  C   UNL A   1      47.225  26.832  35.578  1.00  0.00     0.022 A 
BRANCH  64  68
ATOM     68  S   UNL A   1      45.918  24.719  36.848  1.00  0.00     0.124 S 
ATOM     69  O   UNL A   1      47.048  24.976  37.734  1.00  0.00    -0.237 OA
ATOM     70  O   UNL A   1      44.594  24.924  37.427  1.00  0.00    -0.237 OA
ATOM     71  O   UNL A   1      46.047  23.532  36.004  1.00  0.00    -0.744 OA
ENDBRANCH  64  68
ENDBRANCH  38  61
ENDBRANCH  12  13
ENDBRANCH   5   7
ENDBRANCH   2   3
ENDBRANCH   1   2
BRANCH   1  72
ATOM     72  C   UNL A   1      31.112  27.605  25.200  1.00  0.00     0.023 C 
BRANCH  72  73
ATOM     73  C   UNL A   1      31.172  26.404  24.265  1.00  0.00     0.116 C 
BRANCH  73  74
ATOM     74  N   UNL A   1      31.956  26.642  23.068  1.00  0.00    -0.356 N 
ATOM     75  C   UNL A   1      32.951  25.858  22.549  1.00  0.00     0.227 C 
ATOM     76  H   UNL A   1      31.748  27.466  22.570  1.00  0.00     0.163 HD
ATOM     77  O   UNL A   1      33.446  26.168  21.466  1.00  0.00    -0.274 OA
BRANCH  75  78
ATOM     78  C   UNL A   1      33.419  24.651  23.364  1.00  0.00     0.103 C 
ATOM     79  C   UNL A   1      34.082  23.617  22.500  1.00  0.00    -0.016 C 
ATOM     80  C   UNL A   1      34.537  24.985  24.369  1.00  0.00     0.046 C 
ATOM     81  C   UNL A   1      35.180  23.125  23.080  1.00  0.00    -0.006 C 
ATOM     82  C   UNL A   1      35.447  23.747  24.411  1.00  0.00     0.103 C 
BRANCH  82  83
ATOM     83  N   UNL A   1      35.031  22.839  25.477  1.00  0.00    -0.378 N 
ATOM     84  H   UNL A   1      35.047  23.177  26.401  1.00  0.00     0.161 HD
BRANCH  83  85
ATOM     85  C   UNL A   1      34.614  21.529  25.274  1.00  0.00     0.044 A 
ATOM     86  C   UNL A   1      33.221  21.300  25.273  1.00  0.00     0.033 A 
ATOM     87  C   UNL A   1      35.464  20.442  24.999  1.00  0.00     0.048 A 
ATOM     88  C   UNL A   1      32.673  20.050  24.979  1.00  0.00     0.088 A 
ATOM     89  C   UNL A   1      34.910  19.181  24.679  1.00  0.00     0.097 A 
ATOM     90  C   UNL A   1      33.524  18.992  24.670  1.00  0.00     0.270 A 
BRANCH  87  91
ATOM     91  C   UNL A   1      36.967  20.547  25.049  1.00  0.00     0.375 C 
ATOM     92  F   UNL A   1      37.581  19.325  25.014  1.00  0.00    -0.205 F 
ATOM     93  F   UNL A   1      37.475  21.234  23.989  1.00  0.00    -0.205 F 
ENDBRANCH  87  91
BRANCH  90  94
ATOM     94  N   UNL A   1      32.964  17.675  24.341  1.00  0.00     0.062 N 
ATOM     95  O   UNL A   1      31.776  17.466  24.627  1.00  0.00    -0.258 OA
ATOM     96  O   UNL A   1      33.713  16.846  23.804  1.00  0.00    -0.258 OA
ENDBRANCH  90  94
ENDBRANCH  83  85
ENDBRANCH  82  83
ENDBRANCH  75  78
ENDBRANCH  73  74
ENDBRANCH  72  73
ENDBRANCH   1  72
TORSDOF 18
ENDMDL
MODEL 3
REMARK VINA RESULT:     -12.0      4.943     10.146
REMARK SMILES O=C(NCCCCNC(=O)[C@H]1C=C[C@H](Nc2ccc([N+](=O)[O-])cc2C(F)F)C1)c1ccc(-c2c3nc(c(-c4cc(S(=O)(=O)[O-])ccc4F)c4ccc([nH]4)c(-c4cc(S(=O)(=O)[O-])ccc4F)c4nc(c(-c5cc(S(=O)(=O)[O-])ccc5F)c5ccc2[nH]5)C=C4)C=C3)cc1
REMARK SMILES IDX 5 1 4 2 3 3 1 4 2 5 29 7 30 8 91 9 31 10 90 11 32 12 33 13
REMARK SMILES IDX 34 14 84 15 35 16 89 17 83 18 85 19 36 20 88 21 82 22 81 23
REMARK SMILES IDX 37 25 69 26 49 27 68 28 50 29 53 30 67 31 86 32 51 33 52 34
REMARK SMILES IDX 66 36 87 37 54 38 38 39 39 40 47 41 40 42 46 43 48 44 45 45
REMARK SMILES IDX 41 46 42 47 43 48 44 49 70 50 71 51 79 52 72 53 78 54 80 55
REMARK SMILES IDX 77 56 73 57 74 58 75 59 76 60 55 61 56 62 64 63 57 64 63 65
REMARK SMILES IDX 65 66 62 67 58 68 59 69 60 70 61 71 6 72 7 73 8 74 9 75
REMARK SMILES IDX 10 77 11 78 12 79 28 80 13 81 14 82 15 83 16 85 17 86 24 87
REMARK SMILES IDX 18 88 23 89 19 90 25 91 26 92 27 93 20 94 21 95 22 96
REMARK H PARENT 3 6 85 24 53 35 8 76 15 84
REMARK Flexibility Score: inf
ROOT
ATOM      1  C   UNL A   1      33.145  28.047  26.858  1.00  0.00     0.023 C 
ENDROOT
BRANCH   1   2
ATOM      2  C   UNL A   1      34.160  29.065  26.352  1.00  0.00     0.116 C 
BRANCH   2   3
ATOM      3  N   UNL A   1      33.855  30.428  26.766  1.00  0.00    -0.352 N 
ATOM      4  O   UNL A   1      33.997  32.296  28.022  1.00  0.00    -0.269 OA
ATOM      5  C   UNL A   1      34.485  31.221  27.701  1.00  0.00     0.251 C 
ATOM      6  H   UNL A   1      33.087  30.844  26.311  1.00  0.00     0.163 HD
BRANCH   5   7
ATOM      7  C   UNL A   1      35.738  30.748  28.329  1.00  0.00     0.039 A 
ATOM      8  C   UNL A   1      36.956  31.343  27.999  1.00  0.00     0.014 A 
ATOM      9  C   UNL A   1      35.698  29.685  29.236  1.00  0.00     0.014 A 
ATOM     10  C   UNL A   1      38.142  30.765  28.432  1.00  0.00     0.010 A 
ATOM     11  C   UNL A   1      36.892  29.173  29.756  1.00  0.00     0.010 A 
ATOM     12  C   UNL A   1      38.127  29.686  29.330  1.00  0.00    -0.014 A 
BRANCH  12  13
ATOM     13  C   UNL A   1      39.421  29.169  29.847  1.00  0.00     0.031 A 
ATOM     14  C   UNL A   1      40.050  29.731  31.093  1.00  0.00     0.074 A 
ATOM     15  C   UNL A   1      39.995  28.133  29.201  1.00  0.00     0.049 A 
ATOM     16  N   UNL A   1      41.156  29.366  31.693  1.00  0.00    -0.248 NA
ATOM     17  C   UNL A   1      39.358  30.851  31.746  1.00  0.00     0.031 C 
ATOM     18  C   UNL A   1      39.472  27.514  27.980  1.00  0.00     0.029 A 
ATOM     19  N   UNL A   1      41.118  27.400  29.487  1.00  0.00    -0.354 N 
ATOM     20  C   UNL A   1      41.301  30.216  32.784  1.00  0.00     0.074 A 
ATOM     21  C   UNL A   1      40.183  31.136  32.745  1.00  0.00     0.031 C 
ATOM     22  C   UNL A   1      40.233  26.459  27.659  1.00  0.00     0.029 A 
ATOM     23  C   UNL A   1      41.344  26.376  28.598  1.00  0.00     0.049 A 
ATOM     24  H   UNL A   1      41.703  27.588  30.255  1.00  0.00     0.167 HD
ATOM     25  C   UNL A   1      42.272  30.219  33.731  1.00  0.00     0.034 A 
ATOM     26  C   UNL A   1      42.347  25.479  28.527  1.00  0.00     0.034 A 
ATOM     27  C   UNL A   1      43.378  29.288  33.753  1.00  0.00     0.049 A 
ATOM     28  C   UNL A   1      43.427  25.530  29.573  1.00  0.00     0.074 A 
ATOM     29  C   UNL A   1      44.407  29.192  34.676  1.00  0.00     0.029 A 
ATOM     30  N   UNL A   1      43.604  28.295  32.808  1.00  0.00    -0.354 N 
ATOM     31  N   UNL A   1      43.541  26.338  30.602  1.00  0.00    -0.248 NA
ATOM     32  C   UNL A   1      44.509  24.548  29.450  1.00  0.00     0.031 C 
ATOM     33  C   UNL A   1      45.286  28.186  34.255  1.00  0.00     0.029 A 
ATOM     34  C   UNL A   1      44.769  27.603  33.109  1.00  0.00     0.049 A 
ATOM     35  H   UNL A   1      43.023  28.109  32.037  1.00  0.00     0.167 HD
ATOM     36  C   UNL A   1      44.708  25.953  31.254  1.00  0.00     0.074 A 
ATOM     37  C   UNL A   1      45.235  24.819  30.522  1.00  0.00     0.031 C 
ATOM     38  C   UNL A   1      45.295  26.491  32.353  1.00  0.00     0.034 A 
BRANCH  25  39
ATOM     39  C   UNL A   1      42.210  31.287  34.798  1.00  0.00     0.023 A 
ATOM     40  C   UNL A   1      42.836  32.536  34.636  1.00  0.00     0.031 A 
ATOM     41  C   UNL A   1      41.509  31.054  35.994  1.00  0.00     0.131 A 
ATOM     42  C   UNL A   1      42.789  33.483  35.673  1.00  0.00     0.055 A 
ATOM     43  C   UNL A   1      41.408  32.024  36.993  1.00  0.00     0.041 A 
ATOM     44  F   UNL A   1      40.908  29.873  36.214  1.00  0.00    -0.206 F 
ATOM     45  C   UNL A   1      42.059  33.244  36.840  1.00  0.00     0.022 A 
BRANCH  42  46
ATOM     46  S   UNL A   1      43.789  34.988  35.521  1.00  0.00     0.124 S 
ATOM     47  O   UNL A   1      42.774  35.986  35.192  1.00  0.00    -0.237 OA
ATOM     48  O   UNL A   1      44.391  35.104  36.845  1.00  0.00    -0.237 OA
ATOM     49  O   UNL A   1      44.719  34.675  34.438  1.00  0.00    -0.744 OA
ENDBRANCH  42  46
ENDBRANCH  25  39
BRANCH  26  50
ATOM     50  C   UNL A   1      42.400  24.495  27.411  1.00  0.00     0.023 A 
ATOM     51  C   UNL A   1      41.627  23.325  27.434  1.00  0.00     0.031 A 
ATOM     52  C   UNL A   1      43.262  24.694  26.315  1.00  0.00     0.131 A 
ATOM     53  C   UNL A   1      41.763  22.378  26.408  1.00  0.00     0.055 A 
ATOM     54  C   UNL A   1      43.348  23.778  25.267  1.00  0.00     0.041 A 
ATOM     55  F   UNL A   1      44.023  25.798  26.242  1.00  0.00    -0.206 F 
ATOM     56  C   UNL A   1      42.606  22.604  25.317  1.00  0.00     0.022 A 
BRANCH  53  57
ATOM     57  S   UNL A   1      40.893  20.794  26.569  1.00  0.00     0.124 S 
ATOM     58  O   UNL A   1      40.924  20.583  28.012  1.00  0.00    -0.237 OA
ATOM     59  O   UNL A   1      39.590  21.107  25.994  1.00  0.00    -0.237 OA
ATOM     60  O   UNL A   1      41.715  19.875  25.785  1.00  0.00    -0.744 OA
ENDBRANCH  53  57
ENDBRANCH  26  50
BRANCH  38  61
ATOM     61  C   UNL A   1      46.564  25.828  32.827  1.00  0.00     0.023 A 
ATOM     62  C   UNL A   1      47.805  26.111  32.232  1.00  0.00     0.031 A 
ATOM     63  C   UNL A   1      46.524  24.865  33.851  1.00  0.00     0.131 A 
ATOM     64  C   UNL A   1      48.944  25.387  32.613  1.00  0.00     0.055 A 
ATOM     65  C   UNL A   1      47.672  24.195  34.271  1.00  0.00     0.041 A 
ATOM     66  F   UNL A   1      45.363  24.554  34.451  1.00  0.00    -0.206 F 
ATOM     67  C   UNL A   1      48.889  24.441  33.640  1.00  0.00     0.022 A 
BRANCH  64  68
ATOM     68  S   UNL A   1      50.478  25.621  31.673  1.00  0.00     0.124 S 
ATOM     69  O   UNL A   1      50.675  24.303  31.081  1.00  0.00    -0.237 OA
ATOM     70  O   UNL A   1      50.116  26.690  30.747  1.00  0.00    -0.237 OA
ATOM     71  O   UNL A   1      51.453  25.994  32.697  1.00  0.00    -0.744 OA
ENDBRANCH  64  68
ENDBRANCH  38  61
ENDBRANCH  12  13
ENDBRANCH   5   7
ENDBRANCH   2   3
ENDBRANCH   1   2
BRANCH   1  72
ATOM     72  C   UNL A   1      31.766  28.124  26.208  1.00  0.00     0.023 C 
BRANCH  72  73
ATOM     73  C   UNL A   1      31.470  27.035  25.184  1.00  0.00     0.116 C 
BRANCH  73  74
ATOM     74  N   UNL A   1      32.061  27.290  23.884  1.00  0.00    -0.356 N 
ATOM     75  C   UNL A   1      32.540  26.371  22.988  1.00  0.00     0.227 C 
ATOM     76  H   UNL A   1      32.125  28.234  23.614  1.00  0.00     0.163 HD
ATOM     77  O   UNL A   1      32.922  26.761  21.886  1.00  0.00    -0.274 OA
BRANCH  75  78
ATOM     78  C   UNL A   1      32.607  24.906  23.422  1.00  0.00     0.103 C 
ATOM     79  C   UNL A   1      32.828  23.988  22.254  1.00  0.00    -0.016 C 
ATOM     80  C   UNL A   1      33.822  24.582  24.311  1.00  0.00     0.046 C 
ATOM     81  C   UNL A   1      33.719  23.035  22.543  1.00  0.00    -0.006 C 
ATOM     82  C   UNL A   1      34.252  23.156  23.932  1.00  0.00     0.103 C 
BRANCH  82  83
ATOM     83  N   UNL A   1      33.605  22.176  24.801  1.00  0.00    -0.378 N 
ATOM     84  H   UNL A   1      33.054  22.514  25.544  1.00  0.00     0.161 HD
BRANCH  83  85
ATOM     85  C   UNL A   1      33.717  20.799  24.651  1.00  0.00     0.044 A 
ATOM     86  C   UNL A   1      32.557  20.112  24.233  1.00  0.00     0.033 A 
ATOM     87  C   UNL A   1      34.903  20.060  24.811  1.00  0.00     0.048 A 
ATOM     88  C   UNL A   1      32.565  18.745  23.948  1.00  0.00     0.088 A 
ATOM     89  C   UNL A   1      34.919  18.681  24.501  1.00  0.00     0.097 A 
ATOM     90  C   UNL A   1      33.756  18.033  24.072  1.00  0.00     0.270 A 
BRANCH  87  91
ATOM     91  C   UNL A   1      36.182  20.670  25.327  1.00  0.00     0.375 C 
ATOM     92  F   UNL A   1      36.841  21.396  24.373  1.00  0.00    -0.205 F 
ATOM     93  F   UNL A   1      35.965  21.538  26.353  1.00  0.00    -0.205 F 
ENDBRANCH  87  91
BRANCH  90  94
ATOM     94  N   UNL A   1      33.786  16.599  23.760  1.00  0.00     0.062 N 
ATOM     95  O   UNL A   1      34.130  16.264  22.617  1.00  0.00    -0.258 OA
ATOM     96  O   UNL A   1      33.458  15.806  24.655  1.00  0.00    -0.258 OA
ENDBRANCH  90  94
ENDBRANCH  83  85
ENDBRANCH  82  83
ENDBRANCH  75  78
ENDBRANCH  73  74
ENDBRANCH  72  73
ENDBRANCH   1  72
TORSDOF 18
ENDMDL
