MODEL 1
REMARK VINA RESULT:     -11.7      0.000      0.000
REMARK SMILES Cc1cc(C(=O)NC2(CC(=O)NCCCCNC(=O)c3ccc(-c4c5nc(c(-c6cc(S(=O)(=O)[O-])ccc6F)c6ccc([nH]6)c(-c6cc(S(=O)(=O)[O-])ccc6F)c6nc(c(-c7cc(S(=O)(=O)[O-])ccc7F)c7ccc4[nH]7)C=C6)C=C5)cc3)CCC2)sc1C
REMARK SMILES IDX 14 1 13 2 12 3 10 4 11 5 9 7 8 8 83 9 85 10 84 11 7 12 5 13
REMARK SMILES IDX 6 14 4 16 1 17 2 18 3 19 87 20 86 21 88 22 15 23 16 24 17 25
REMARK SMILES IDX 18 26 19 28 20 29 21 30 82 31 22 32 81 33 23 34 24 35 25 36
REMARK SMILES IDX 75 37 26 38 80 39 74 40 76 41 27 42 79 43 73 44 72 45 28 47
REMARK SMILES IDX 60 48 40 49 59 50 41 51 44 52 58 53 77 54 42 55 43 56 57 58
REMARK SMILES IDX 78 59 45 60 29 61 30 62 38 63 31 64 37 65 39 66 36 67 32 68
REMARK SMILES IDX 33 69 34 70 35 71 61 72 62 73 70 74 63 75 69 76 71 77 68 78
REMARK SMILES IDX 64 79 65 80 66 81 67 82 46 83 47 84 55 85 48 86 54 87 56 88
REMARK SMILES IDX 53 89 49 90 50 91 51 92 52 93
REMARK H PARENT 12 6 7 15 17 27 76 46 44 57
REMARK Flexibility Score: inf
ROOT
ATOM      1  C   UNL A   1      32.214  27.070  25.824  1.00  0.00     0.023 C 
ENDROOT
BRANCH   1   2
ATOM      2  C   UNL A   1      31.044  26.184  25.386  1.00  0.00     0.116 C 
BRANCH   2   3
ATOM      3  N   UNL A   1      30.653  25.300  26.461  1.00  0.00    -0.356 N 
ATOM      4  C   UNL A   1      30.619  23.942  26.475  1.00  0.00     0.222 C 
ATOM      5  O   UNL A   1      30.002  23.377  27.379  1.00  0.00    -0.275 OA
ATOM      6  H   UNL A   1      30.373  25.742  27.296  1.00  0.00     0.163 HD
BRANCH   4   7
ATOM      7  C   UNL A   1      31.306  23.127  25.402  1.00  0.00     0.128 C 
BRANCH   7   8
ATOM      8  C   UNL A   1      32.828  22.892  25.578  1.00  0.00     0.049 C 
ATOM      9  C   UNL A   1      33.072  21.479  26.170  1.00  0.00     0.029 C 
ATOM     10  C   UNL A   1      33.391  23.494  26.887  1.00  0.00     0.029 C 
ATOM     11  C   UNL A   1      33.286  22.115  27.553  1.00  0.00     0.005 C 
BRANCH   8  12
ATOM     12  N   UNL A   1      33.544  23.232  24.322  1.00  0.00    -0.345 N 
ATOM     13  C   UNL A   1      34.842  23.271  23.846  1.00  0.00     0.261 C 
ATOM     14  O   UNL A   1      34.919  23.489  22.630  1.00  0.00    -0.268 OA
ATOM     15  H   UNL A   1      32.909  23.509  23.622  1.00  0.00     0.164 HD
BRANCH  13  16
ATOM     16  C   UNL A   1      36.052  23.023  24.615  1.00  0.00     0.092 A 
ATOM     17  C   UNL A   1      38.806  24.321  26.855  1.00  0.00     0.045 C 
ATOM     18  C   UNL A   1      37.919  23.485  25.998  1.00  0.00    -0.037 A 
ATOM     19  C   UNL A   1      36.721  23.975  25.374  1.00  0.00     0.029 A 
ATOM     20  C   UNL A   1      38.123  22.159  25.665  1.00  0.00     0.005 A 
ATOM     21  S   UNL A   1      36.747  21.503  24.910  1.00  0.00    -0.135 S 
ATOM     22  C   UNL A   1      39.296  21.278  25.928  1.00  0.00     0.056 C 
ENDBRANCH  13  16
ENDBRANCH   8  12
ENDBRANCH   7   8
ENDBRANCH   4   7
ENDBRANCH   2   3
ENDBRANCH   1   2
BRANCH   1  23
ATOM     23  C   UNL A   1      31.826  28.491  26.219  1.00  0.00     0.023 C 
BRANCH  23  24
ATOM     24  C   UNL A   1      32.883  29.543  25.913  1.00  0.00     0.116 C 
BRANCH  24  25
ATOM     25  N   UNL A   1      32.521  30.881  26.358  1.00  0.00    -0.352 N 
ATOM     26  C   UNL A   1      33.215  31.726  27.196  1.00  0.00     0.251 C 
ATOM     27  H   UNL A   1      31.666  31.228  26.014  1.00  0.00     0.163 HD
ATOM     28  O   UNL A   1      32.720  32.782  27.549  1.00  0.00    -0.269 OA
BRANCH  26  29
ATOM     29  C   UNL A   1      34.540  31.297  27.693  1.00  0.00     0.039 A 
ATOM     30  C   UNL A   1      35.531  32.262  27.876  1.00  0.00     0.014 A 
ATOM     31  C   UNL A   1      34.772  29.964  28.044  1.00  0.00     0.014 A 
ATOM     32  C   UNL A   1      36.733  31.899  28.482  1.00  0.00     0.010 A 
ATOM     33  C   UNL A   1      35.929  29.627  28.735  1.00  0.00     0.010 A 
ATOM     34  C   UNL A   1      36.924  30.589  28.956  1.00  0.00    -0.014 A 
BRANCH  34  35
ATOM     35  C   UNL A   1      38.161  30.221  29.691  1.00  0.00     0.031 A 
ATOM     36  C   UNL A   1      38.385  30.724  31.090  1.00  0.00     0.074 A 
ATOM     37  C   UNL A   1      39.094  29.471  29.074  1.00  0.00     0.049 A 
ATOM     38  N   UNL A   1      39.396  30.508  31.893  1.00  0.00    -0.248 NA
ATOM     39  C   UNL A   1      37.358  31.617  31.647  1.00  0.00     0.031 C 
ATOM     40  C   UNL A   1      39.016  28.993  27.689  1.00  0.00     0.029 A 
ATOM     41  N   UNL A   1      40.288  28.972  29.526  1.00  0.00    -0.354 N 
ATOM     42  C   UNL A   1      39.129  31.242  33.043  1.00  0.00     0.074 A 
ATOM     43  C   UNL A   1      37.903  31.971  32.800  1.00  0.00     0.031 C 
ATOM     44  C   UNL A   1      40.091  28.234  27.424  1.00  0.00     0.029 A 
ATOM     45  C   UNL A   1      40.952  28.198  28.601  1.00  0.00     0.049 A 
ATOM     46  H   UNL A   1      40.639  29.151  30.429  1.00  0.00     0.167 HD
ATOM     47  C   UNL A   1      39.824  31.280  34.206  1.00  0.00     0.034 A 
ATOM     48  C   UNL A   1      42.117  27.530  28.698  1.00  0.00     0.034 A 
ATOM     49  C   UNL A   1      41.038  30.533  34.431  1.00  0.00     0.049 A 
ATOM     50  C   UNL A   1      42.862  27.570  30.007  1.00  0.00     0.074 A 
ATOM     51  C   UNL A   1      41.797  30.447  35.585  1.00  0.00     0.029 A 
ATOM     52  N   UNL A   1      41.675  29.747  33.478  1.00  0.00    -0.354 N 
ATOM     53  N   UNL A   1      42.557  28.210  31.114  1.00  0.00    -0.248 NA
ATOM     54  C   UNL A   1      44.095  26.780  30.085  1.00  0.00     0.031 C 
ATOM     55  C   UNL A   1      42.924  29.662  35.311  1.00  0.00     0.029 A 
ATOM     56  C   UNL A   1      42.831  29.195  34.009  1.00  0.00     0.049 A 
ATOM     57  H   UNL A   1      41.353  29.603  32.559  1.00  0.00     0.167 HD
ATOM     58  C   UNL A   1      43.554  27.879  32.028  1.00  0.00     0.074 A 
ATOM     59  C   UNL A   1      44.445  26.959  31.350  1.00  0.00     0.031 C 
ATOM     60  C   UNL A   1      43.721  28.299  33.309  1.00  0.00     0.034 A 
BRANCH  47  61
ATOM     61  C   UNL A   1      39.291  32.170  35.305  1.00  0.00     0.023 A 
ATOM     62  C   UNL A   1      39.687  33.516  35.424  1.00  0.00     0.031 A 
ATOM     63  C   UNL A   1      38.403  31.662  36.268  1.00  0.00     0.131 A 
ATOM     64  C   UNL A   1      39.264  34.278  36.523  1.00  0.00     0.055 A 
ATOM     65  C   UNL A   1      37.916  32.452  37.313  1.00  0.00     0.041 A 
ATOM     66  F   UNL A   1      38.004  30.380  36.223  1.00  0.00    -0.206 F 
ATOM     67  C   UNL A   1      38.360  33.765  37.454  1.00  0.00     0.022 A 
BRANCH  64  68
ATOM     68  S   UNL A   1      40.028  35.901  36.797  1.00  0.00     0.124 S 
ATOM     69  O   UNL A   1      41.414  35.530  37.075  1.00  0.00    -0.237 OA
ATOM     70  O   UNL A   1      39.790  36.581  35.529  1.00  0.00    -0.237 OA
ATOM     71  O   UNL A   1      39.293  36.437  37.942  1.00  0.00    -0.744 OA
ENDBRANCH  64  68
ENDBRANCH  47  61
BRANCH  48  72
ATOM     72  C   UNL A   1      42.647  26.758  27.537  1.00  0.00     0.023 A 
ATOM     73  C   UNL A   1      42.489  25.364  27.463  1.00  0.00     0.031 A 
ATOM     74  C   UNL A   1      43.357  27.396  26.506  1.00  0.00     0.131 A 
ATOM     75  C   UNL A   1      43.077  24.648  26.408  1.00  0.00     0.055 A 
ATOM     76  C   UNL A   1      43.894  26.686  25.430  1.00  0.00     0.041 A 
ATOM     77  F   UNL A   1      43.529  28.727  26.523  1.00  0.00    -0.206 F 
ATOM     78  C   UNL A   1      43.769  25.301  25.385  1.00  0.00     0.022 A 
BRANCH  75  79
ATOM     79  S   UNL A   1      42.999  22.836  26.439  1.00  0.00     0.124 S 
ATOM     80  O   UNL A   1      42.018  22.598  27.492  1.00  0.00    -0.237 OA
ATOM     81  O   UNL A   1      42.569  22.529  25.079  1.00  0.00    -0.237 OA
ATOM     82  O   UNL A   1      44.369  22.442  26.761  1.00  0.00    -0.744 OA
ENDBRANCH  75  79
ENDBRANCH  48  72
BRANCH  60  83
ATOM     83  C   UNL A   1      44.909  27.734  34.053  1.00  0.00     0.023 A 
ATOM     84  C   UNL A   1      44.809  26.551  34.808  1.00  0.00     0.031 A 
ATOM     85  C   UNL A   1      46.140  28.412  34.046  1.00  0.00     0.131 A 
ATOM     86  C   UNL A   1      45.891  26.129  35.591  1.00  0.00     0.055 A 
ATOM     87  C   UNL A   1      47.238  27.946  34.770  1.00  0.00     0.041 A 
ATOM     88  F   UNL A   1      46.293  29.546  33.344  1.00  0.00    -0.206 F 
ATOM     89  C   UNL A   1      47.111  26.810  35.564  1.00  0.00     0.022 A 
BRANCH  86  90
ATOM     90  S   UNL A   1      45.641  24.757  36.750  1.00  0.00     0.124 S 
ATOM     91  O   UNL A   1      44.821  23.841  35.962  1.00  0.00    -0.237 OA
ATOM     92  O   UNL A   1      47.009  24.320  37.014  1.00  0.00    -0.237 OA
ATOM     93  O   UNL A   1      44.960  25.382  37.881  1.00  0.00    -0.744 OA
ENDBRANCH  86  90
ENDBRANCH  60  83
ENDBRANCH  34  35
ENDBRANCH  26  29
ENDBRANCH  24  25
ENDBRANCH  23  24
ENDBRANCH   1  23
TORSDOF 17
ENDMDL
MODEL 2
REMARK VINA RESULT:     -11.5      2.847      8.238
REMARK SMILES Cc1cc(C(=O)NC2(CC(=O)NCCCCNC(=O)c3ccc(-c4c5nc(c(-c6cc(S(=O)(=O)[O-])ccc6F)c6ccc([nH]6)c(-c6cc(S(=O)(=O)[O-])ccc6F)c6nc(c(-c7cc(S(=O)(=O)[O-])ccc7F)c7ccc4[nH]7)C=C6)C=C5)cc3)CCC2)sc1C
REMARK SMILES IDX 14 1 13 2 12 3 10 4 11 5 9 7 8 8 83 9 85 10 84 11 7 12 5 13
REMARK SMILES IDX 6 14 4 16 1 17 2 18 3 19 87 20 86 21 88 22 15 23 16 24 17 25
REMARK SMILES IDX 18 26 19 28 20 29 21 30 82 31 22 32 81 33 23 34 24 35 25 36
REMARK SMILES IDX 75 37 26 38 80 39 74 40 76 41 27 42 79 43 73 44 72 45 28 47
REMARK SMILES IDX 60 48 40 49 59 50 41 51 44 52 58 53 77 54 42 55 43 56 57 58
REMARK SMILES IDX 78 59 45 60 29 61 30 62 38 63 31 64 37 65 39 66 36 67 32 68
REMARK SMILES IDX 33 69 34 70 35 71 61 72 62 73 70 74 63 75 69 76 71 77 68 78
REMARK SMILES IDX 64 79 65 80 66 81 67 82 46 83 47 84 55 85 48 86 54 87 56 88
REMARK SMILES IDX 53 89 49 90 50 91 51 92 52 93
REMARK H PARENT 12 6 7 15 17 27 76 46 44 57
REMARK Flexibility Score: inf
ROOT
ATOM      1  C   UNL A   1      32.039  30.623  25.958  1.00  0.00     0.023 C 
ENDROOT
BRANCH   1   2
ATOM      2  C   UNL A   1      32.824  29.308  25.953  1.00  0.00     0.116 C 
BRANCH   2   3
ATOM      3  N   UNL A   1      33.716  29.258  24.817  1.00  0.00    -0.356 N 
ATOM      4  C   UNL A   1      33.432  28.939  23.527  1.00  0.00     0.222 C 
ATOM      5  O   UNL A   1      34.365  28.688  22.763  1.00  0.00    -0.275 OA
ATOM      6  H   UNL A   1      34.656  29.487  25.002  1.00  0.00     0.163 HD
BRANCH   4   7
ATOM      7  C   UNL A   1      32.005  28.876  23.028  1.00  0.00     0.128 C 
BRANCH   7   8
ATOM      8  C   UNL A   1      31.410  27.463  22.809  1.00  0.00     0.049 C 
ATOM      9  C   UNL A   1      29.863  27.556  22.724  1.00  0.00     0.029 C 
ATOM     10  C   UNL A   1      31.250  26.657  24.120  1.00  0.00     0.029 C 
ATOM     11  C   UNL A   1      29.773  27.071  24.181  1.00  0.00     0.005 C 
BRANCH   8  12
ATOM     12  N   UNL A   1      32.108  26.784  21.687  1.00  0.00    -0.345 N 
ATOM     13  C   UNL A   1      32.883  25.658  21.477  1.00  0.00     0.261 C 
ATOM     14  O   UNL A   1      33.117  25.432  20.283  1.00  0.00    -0.268 OA
ATOM     15  H   UNL A   1      31.983  27.281  20.846  1.00  0.00     0.164 HD
BRANCH  13  16
ATOM     16  C   UNL A   1      33.359  24.734  22.495  1.00  0.00     0.092 A 
ATOM     17  C   UNL A   1      35.680  23.992  25.384  1.00  0.00     0.045 C 
ATOM     18  C   UNL A   1      34.660  23.923  24.301  1.00  0.00    -0.037 A 
ATOM     19  C   UNL A   1      34.336  25.025  23.438  1.00  0.00     0.029 A 
ATOM     20  C   UNL A   1      33.912  22.812  23.957  1.00  0.00     0.005 A 
ATOM     21  S   UNL A   1      32.674  23.227  22.867  1.00  0.00    -0.135 S 
ATOM     22  C   UNL A   1      34.010  21.407  24.444  1.00  0.00     0.056 C 
ENDBRANCH  13  16
ENDBRANCH   8  12
ENDBRANCH   7   8
ENDBRANCH   4   7
ENDBRANCH   2   3
ENDBRANCH   1   2
BRANCH   1  23
ATOM     23  C   UNL A   1      32.123  31.414  27.259  1.00  0.00     0.023 C 
BRANCH  23  24
ATOM     24  C   UNL A   1      33.254  32.431  27.309  1.00  0.00     0.116 C 
BRANCH  24  25
ATOM     25  N   UNL A   1      32.814  33.777  27.646  1.00  0.00    -0.352 N 
ATOM     26  C   UNL A   1      33.270  34.605  28.649  1.00  0.00     0.251 C 
ATOM     27  H   UNL A   1      32.095  34.144  27.083  1.00  0.00     0.163 HD
ATOM     28  O   UNL A   1      32.721  35.672  28.859  1.00  0.00    -0.269 OA
BRANCH  26  29
ATOM     29  C   UNL A   1      34.397  34.144  29.489  1.00  0.00     0.039 A 
ATOM     30  C   UNL A   1      34.116  33.407  30.639  1.00  0.00     0.014 A 
ATOM     31  C   UNL A   1      35.718  34.380  29.100  1.00  0.00     0.014 A 
ATOM     32  C   UNL A   1      35.166  32.841  31.360  1.00  0.00     0.010 A 
ATOM     33  C   UNL A   1      36.755  33.734  29.763  1.00  0.00     0.010 A 
ATOM     34  C   UNL A   1      36.490  32.963  30.903  1.00  0.00    -0.014 A 
BRANCH  34  35
ATOM     35  C   UNL A   1      37.603  32.280  31.609  1.00  0.00     0.031 A 
ATOM     36  C   UNL A   1      38.349  31.160  30.938  1.00  0.00     0.074 A 
ATOM     37  C   UNL A   1      37.906  32.646  32.870  1.00  0.00     0.049 A 
ATOM     38  N   UNL A   1      39.350  30.447  31.389  1.00  0.00    -0.248 NA
ATOM     39  C   UNL A   1      37.886  30.763  29.600  1.00  0.00     0.031 C 
ATOM     40  C   UNL A   1      37.196  33.667  33.647  1.00  0.00     0.029 A 
ATOM     41  N   UNL A   1      38.888  32.209  33.721  1.00  0.00    -0.354 N 
ATOM     42  C   UNL A   1      39.629  29.516  30.394  1.00  0.00     0.074 A 
ATOM     43  C   UNL A   1      38.642  29.705  29.354  1.00  0.00     0.031 C 
ATOM     44  C   UNL A   1      37.797  33.809  34.840  1.00  0.00     0.029 A 
ATOM     45  C   UNL A   1      38.907  32.868  34.929  1.00  0.00     0.049 A 
ATOM     46  H   UNL A   1      39.521  31.490  33.489  1.00  0.00     0.167 HD
ATOM     47  C   UNL A   1      40.636  28.610  30.339  1.00  0.00     0.034 A 
ATOM     48  C   UNL A   1      39.734  32.732  35.984  1.00  0.00     0.034 A 
ATOM     49  C   UNL A   1      41.619  28.450  31.383  1.00  0.00     0.049 A 
ATOM     50  C   UNL A   1      40.858  31.733  35.891  1.00  0.00     0.074 A 
ATOM     51  C   UNL A   1      42.717  27.607  31.413  1.00  0.00     0.029 A 
ATOM     52  N   UNL A   1      41.619  29.143  32.588  1.00  0.00    -0.354 N 
ATOM     53  N   UNL A   1      41.157  30.911  34.910  1.00  0.00    -0.248 NA
ATOM     54  C   UNL A   1      41.769  31.661  37.039  1.00  0.00     0.031 C 
ATOM     55  C   UNL A   1      43.342  27.746  32.659  1.00  0.00     0.029 A 
ATOM     56  C   UNL A   1      42.681  28.729  33.378  1.00  0.00     0.049 A 
ATOM     57  H   UNL A   1      40.961  29.829  32.843  1.00  0.00     0.167 HD
ATOM     58  C   UNL A   1      42.306  30.239  35.317  1.00  0.00     0.074 A 
ATOM     59  C   UNL A   1      42.660  30.779  36.615  1.00  0.00     0.031 C 
ATOM     60  C   UNL A   1      43.004  29.262  34.681  1.00  0.00     0.034 A 
BRANCH  47  61
ATOM     61  C   UNL A   1      40.704  27.721  29.119  1.00  0.00     0.023 A 
ATOM     62  C   UNL A   1      41.637  27.949  28.090  1.00  0.00     0.031 A 
ATOM     63  C   UNL A   1      39.805  26.653  28.962  1.00  0.00     0.131 A 
ATOM     64  C   UNL A   1      41.595  27.177  26.920  1.00  0.00     0.055 A 
ATOM     65  C   UNL A   1      39.824  25.832  27.831  1.00  0.00     0.041 A 
ATOM     66  F   UNL A   1      38.877  26.397  29.898  1.00  0.00    -0.206 F 
ATOM     67  C   UNL A   1      40.713  26.102  26.794  1.00  0.00     0.022 A 
BRANCH  64  68
ATOM     68  S   UNL A   1      42.610  27.691  25.506  1.00  0.00     0.124 S 
ATOM     69  O   UNL A   1      43.887  27.985  26.153  1.00  0.00    -0.237 OA
ATOM     70  O   UNL A   1      42.583  26.510  24.651  1.00  0.00    -0.237 OA
ATOM     71  O   UNL A   1      41.902  28.858  24.982  1.00  0.00    -0.744 OA
ENDBRANCH  64  68
ENDBRANCH  47  61
BRANCH  48  72
ATOM     72  C   UNL A   1      39.546  33.564  37.207  1.00  0.00     0.023 A 
ATOM     73  C   UNL A   1      39.030  33.008  38.389  1.00  0.00     0.031 A 
ATOM     74  C   UNL A   1      39.839  34.939  37.199  1.00  0.00     0.131 A 
ATOM     75  C   UNL A   1      38.775  33.831  39.497  1.00  0.00     0.055 A 
ATOM     76  C   UNL A   1      39.634  35.744  38.322  1.00  0.00     0.041 A 
ATOM     77  F   UNL A   1      40.343  35.519  36.099  1.00  0.00    -0.206 F 
ATOM     78  C   UNL A   1      39.084  35.193  39.475  1.00  0.00     0.022 A 
BRANCH  75  79
ATOM     79  S   UNL A   1      37.949  33.110  40.943  1.00  0.00     0.124 S 
ATOM     80  O   UNL A   1      38.244  31.691  40.777  1.00  0.00    -0.237 OA
ATOM     81  O   UNL A   1      38.628  33.782  42.045  1.00  0.00    -0.237 OA
ATOM     82  O   UNL A   1      36.549  33.483  40.755  1.00  0.00    -0.744 OA
ENDBRANCH  75  79
ENDBRANCH  48  72
BRANCH  60  83
ATOM     83  C   UNL A   1      44.235  28.744  35.388  1.00  0.00     0.023 A 
ATOM     84  C   UNL A   1      44.168  27.661  36.282  1.00  0.00     0.031 A 
ATOM     85  C   UNL A   1      45.478  29.373  35.203  1.00  0.00     0.131 A 
ATOM     86  C   UNL A   1      45.302  27.294  37.019  1.00  0.00     0.055 A 
ATOM     87  C   UNL A   1      46.621  28.955  35.886  1.00  0.00     0.041 A 
ATOM     88  F   UNL A   1      45.601  30.413  34.362  1.00  0.00    -0.206 F 
ATOM     89  C   UNL A   1      46.532  27.923  36.815  1.00  0.00     0.022 A 
BRANCH  86  90
ATOM     90  S   UNL A   1      45.114  26.073  38.348  1.00  0.00     0.124 S 
ATOM     91  O   UNL A   1      43.886  26.520  38.999  1.00  0.00    -0.237 OA
ATOM     92  O   UNL A   1      45.023  24.819  37.607  1.00  0.00    -0.237 OA
ATOM     93  O   UNL A   1      46.331  26.238  39.140  1.00  0.00    -0.744 OA
ENDBRANCH  86  90
ENDBRANCH  60  83
ENDBRANCH  34  35
ENDBRANCH  26  29
ENDBRANCH  24  25
ENDBRANCH  23  24
ENDBRANCH   1  23
TORSDOF 17
ENDMDL
MODEL 3
REMARK VINA RESULT:     -11.4      4.539      9.899
REMARK SMILES Cc1cc(C(=O)NC2(CC(=O)NCCCCNC(=O)c3ccc(-c4c5nc(c(-c6cc(S(=O)(=O)[O-])ccc6F)c6ccc([nH]6)c(-c6cc(S(=O)(=O)[O-])ccc6F)c6nc(c(-c7cc(S(=O)(=O)[O-])ccc7F)c7ccc4[nH]7)C=C6)C=C5)cc3)CCC2)sc1C
REMARK SMILES IDX 14 1 13 2 12 3 10 4 11 5 9 7 8 8 83 9 85 10 84 11 7 12 5 13
REMARK SMILES IDX 6 14 4 16 1 17 2 18 3 19 87 20 86 21 88 22 15 23 16 24 17 25
REMARK SMILES IDX 18 26 19 28 20 29 21 30 82 31 22 32 81 33 23 34 24 35 25 36
REMARK SMILES IDX 75 37 26 38 80 39 74 40 76 41 27 42 79 43 73 44 72 45 28 47
REMARK SMILES IDX 60 48 40 49 59 50 41 51 44 52 58 53 77 54 42 55 43 56 57 58
REMARK SMILES IDX 78 59 45 60 29 61 30 62 38 63 31 64 37 65 39 66 36 67 32 68
REMARK SMILES IDX 33 69 34 70 35 71 61 72 62 73 70 74 63 75 69 76 71 77 68 78
REMARK SMILES IDX 64 79 65 80 66 81 67 82 46 83 47 84 55 85 48 86 54 87 56 88
REMARK SMILES IDX 53 89 49 90 50 91 51 92 52 93
REMARK H PARENT 12 6 7 15 17 27 76 46 44 57
REMARK Flexibility Score: inf
ROOT
ATOM      1  C   UNL A   1      35.342  20.443  24.938  1.00  0.00     0.023 C 
ENDROOT
BRANCH   1   2
ATOM      2  C   UNL A   1      33.926  20.087  24.476  1.00  0.00     0.116 C 
BRANCH   2   3
ATOM      3  N   UNL A   1      33.288  21.238  23.879  1.00  0.00    -0.356 N 
ATOM      4  C   UNL A   1      32.247  21.973  24.350  1.00  0.00     0.222 C 
ATOM      5  O   UNL A   1      31.670  22.741  23.579  1.00  0.00    -0.275 OA
ATOM      6  H   UNL A   1      33.657  21.530  23.014  1.00  0.00     0.163 HD
BRANCH   4   7
ATOM      7  C   UNL A   1      31.785  21.852  25.786  1.00  0.00     0.128 C 
BRANCH   7   8
ATOM      8  C   UNL A   1      32.139  23.029  26.729  1.00  0.00     0.049 C 
ATOM      9  C   UNL A   1      33.576  23.528  26.421  1.00  0.00     0.029 C 
ATOM     10  C   UNL A   1      32.640  22.568  28.119  1.00  0.00     0.029 C 
ATOM     11  C   UNL A   1      34.089  22.750  27.645  1.00  0.00     0.005 C 
BRANCH   8  12
ATOM     12  N   UNL A   1      31.053  24.041  26.711  1.00  0.00    -0.345 N 
ATOM     13  C   UNL A   1      30.871  25.361  26.337  1.00  0.00     0.261 C 
ATOM     14  O   UNL A   1      29.691  25.731  26.382  1.00  0.00    -0.268 OA
ATOM     15  H   UNL A   1      30.217  23.663  27.068  1.00  0.00     0.164 HD
BRANCH  13  16
ATOM     16  C   UNL A   1      31.898  26.273  25.857  1.00  0.00     0.092 A 
ATOM     17  C   UNL A   1      34.506  28.909  26.589  1.00  0.00     0.045 C 
ATOM     18  C   UNL A   1      33.581  27.938  25.940  1.00  0.00    -0.037 A 
ATOM     19  C   UNL A   1      32.670  27.097  26.666  1.00  0.00     0.029 A 
ATOM     20  C   UNL A   1      33.446  27.725  24.581  1.00  0.00     0.005 A 
ATOM     21  S   UNL A   1      32.498  26.347  24.272  1.00  0.00    -0.135 S 
ATOM     22  C   UNL A   1      34.045  28.467  23.435  1.00  0.00     0.056 C 
ENDBRANCH  13  16
ENDBRANCH   8  12
ENDBRANCH   7   8
ENDBRANCH   4   7
ENDBRANCH   2   3
ENDBRANCH   1   2
BRANCH   1  23
ATOM     23  C   UNL A   1      35.838  21.811  24.483  1.00  0.00     0.023 C 
BRANCH  23  24
ATOM     24  C   UNL A   1      37.352  21.968  24.485  1.00  0.00     0.116 C 
BRANCH  24  25
ATOM     25  N   UNL A   1      38.057  20.831  25.056  1.00  0.00    -0.352 N 
ATOM     26  C   UNL A   1      39.089  20.829  25.969  1.00  0.00     0.251 C 
ATOM     27  H   UNL A   1      37.757  19.945  24.749  1.00  0.00     0.163 HD
ATOM     28  O   UNL A   1      39.638  19.785  26.271  1.00  0.00    -0.269 OA
BRANCH  26  29
ATOM     29  C   UNL A   1      39.543  22.122  26.526  1.00  0.00     0.039 A 
ATOM     30  C   UNL A   1      40.602  22.124  27.434  1.00  0.00     0.014 A 
ATOM     31  C   UNL A   1      38.973  23.323  26.095  1.00  0.00     0.014 A 
ATOM     32  C   UNL A   1      41.138  23.341  27.854  1.00  0.00     0.010 A 
ATOM     33  C   UNL A   1      39.571  24.529  26.438  1.00  0.00     0.010 A 
ATOM     34  C   UNL A   1      40.656  24.551  27.325  1.00  0.00    -0.014 A 
BRANCH  34  35
ATOM     35  C   UNL A   1      41.287  25.844  27.691  1.00  0.00     0.031 A 
ATOM     36  C   UNL A   1      42.699  26.142  27.267  1.00  0.00     0.074 A 
ATOM     37  C   UNL A   1      40.597  26.724  28.442  1.00  0.00     0.049 A 
ATOM     38  N   UNL A   1      43.418  27.213  27.485  1.00  0.00    -0.248 NA
ATOM     39  C   UNL A   1      43.409  25.082  26.534  1.00  0.00     0.031 C 
ATOM     40  C   UNL A   1      39.249  26.507  28.975  1.00  0.00     0.029 A 
ATOM     41  N   UNL A   1      40.927  27.979  28.884  1.00  0.00    -0.354 N 
ATOM     42  C   UNL A   1      44.664  26.953  26.923  1.00  0.00     0.074 A 
ATOM     43  C   UNL A   1      44.624  25.594  26.427  1.00  0.00     0.031 C 
ATOM     44  C   UNL A   1      38.852  27.609  29.631  1.00  0.00     0.029 A 
ATOM     45  C   UNL A   1      39.924  28.596  29.598  1.00  0.00     0.049 A 
ATOM     46  H   UNL A   1      41.799  28.401  28.707  1.00  0.00     0.167 HD
ATOM     47  C   UNL A   1      45.730  27.781  26.804  1.00  0.00     0.034 A 
ATOM     48  C   UNL A   1      39.876  29.822  30.154  1.00  0.00     0.034 A 
ATOM     49  C   UNL A   1      45.742  29.138  27.294  1.00  0.00     0.049 A 
ATOM     50  C   UNL A   1      41.065  30.732  29.990  1.00  0.00     0.074 A 
ATOM     51  C   UNL A   1      46.741  30.089  27.179  1.00  0.00     0.029 A 
ATOM     52  N   UNL A   1      44.705  29.737  28.000  1.00  0.00    -0.354 N 
ATOM     53  N   UNL A   1      42.211  30.498  29.389  1.00  0.00    -0.248 NA
ATOM     54  C   UNL A   1      40.946  32.078  30.561  1.00  0.00     0.031 C 
ATOM     55  C   UNL A   1      46.334  31.237  27.869  1.00  0.00     0.029 A 
ATOM     56  C   UNL A   1      45.050  31.033  28.350  1.00  0.00     0.049 A 
ATOM     57  H   UNL A   1      43.849  29.303  28.219  1.00  0.00     0.167 HD
ATOM     58  C   UNL A   1      42.939  31.680  29.492  1.00  0.00     0.074 A 
ATOM     59  C   UNL A   1      42.089  32.629  30.181  1.00  0.00     0.031 C 
ATOM     60  C   UNL A   1      44.198  31.957  29.060  1.00  0.00     0.034 A 
BRANCH  47  61
ATOM     61  C   UNL A   1      46.967  27.229  26.133  1.00  0.00     0.023 A 
ATOM     62  C   UNL A   1      47.956  26.538  26.859  1.00  0.00     0.031 A 
ATOM     63  C   UNL A   1      47.180  27.422  24.757  1.00  0.00     0.131 A 
ATOM     64  C   UNL A   1      49.143  26.142  26.226  1.00  0.00     0.055 A 
ATOM     65  C   UNL A   1      48.328  26.949  24.115  1.00  0.00     0.041 A 
ATOM     66  F   UNL A   1      46.286  28.093  24.014  1.00  0.00    -0.206 F 
ATOM     67  C   UNL A   1      49.325  26.318  24.854  1.00  0.00     0.022 A 
BRANCH  64  68
ATOM     68  S   UNL A   1      50.507  25.525  27.253  1.00  0.00     0.124 S 
ATOM     69  O   UNL A   1      49.987  24.230  27.685  1.00  0.00    -0.237 OA
ATOM     70  O   UNL A   1      51.619  25.486  26.311  1.00  0.00    -0.237 OA
ATOM     71  O   UNL A   1      50.619  26.527  28.311  1.00  0.00    -0.744 OA
ENDBRANCH  64  68
ENDBRANCH  47  61
BRANCH  48  72
ATOM     72  C   UNL A   1      38.665  30.269  30.901  1.00  0.00     0.023 A 
ATOM     73  C   UNL A   1      37.615  30.934  30.247  1.00  0.00     0.031 A 
ATOM     74  C   UNL A   1      38.560  30.077  32.290  1.00  0.00     0.131 A 
ATOM     75  C   UNL A   1      36.529  31.427  30.987  1.00  0.00     0.055 A 
ATOM     76  C   UNL A   1      37.451  30.522  33.014  1.00  0.00     0.041 A 
ATOM     77  F   UNL A   1      39.530  29.440  32.963  1.00  0.00    -0.206 F 
ATOM     78  C   UNL A   1      36.435  31.216  32.364  1.00  0.00     0.022 A 
BRANCH  75  79
ATOM     79  S   UNL A   1      35.280  32.428  30.133  1.00  0.00     0.124 S 
ATOM     80  O   UNL A   1      34.320  32.681  31.201  1.00  0.00    -0.237 OA
ATOM     81  O   UNL A   1      36.064  33.575  29.689  1.00  0.00    -0.237 OA
ATOM     82  O   UNL A   1      34.810  31.547  29.066  1.00  0.00    -0.744 OA
ENDBRANCH  75  79
ENDBRANCH  48  72
BRANCH  60  83
ATOM     83  C   UNL A   1      44.702  33.359  29.311  1.00  0.00     0.023 A 
ATOM     84  C   UNL A   1      44.560  34.374  28.348  1.00  0.00     0.031 A 
ATOM     85  C   UNL A   1      45.376  33.669  30.504  1.00  0.00     0.131 A 
ATOM     86  C   UNL A   1      45.157  35.624  28.559  1.00  0.00     0.055 A 
ATOM     87  C   UNL A   1      45.904  34.939  30.740  1.00  0.00     0.041 A 
ATOM     88  F   UNL A   1      45.542  32.740  31.459  1.00  0.00    -0.206 F 
ATOM     89  C   UNL A   1      45.814  35.919  29.756  1.00  0.00     0.022 A 
BRANCH  86  90
ATOM     90  S   UNL A   1      45.181  36.816  27.191  1.00  0.00     0.124 S 
ATOM     91  O   UNL A   1      45.859  37.959  27.797  1.00  0.00    -0.237 OA
ATOM     92  O   UNL A   1      45.933  36.098  26.167  1.00  0.00    -0.237 OA
ATOM     93  O   UNL A   1      43.765  37.023  26.891  1.00  0.00    -0.744 OA
ENDBRANCH  86  90
ENDBRANCH  60  83
ENDBRANCH  34  35
ENDBRANCH  26  29
ENDBRANCH  24  25
ENDBRANCH  23  24
ENDBRANCH   1  23
TORSDOF 17
ENDMDL
