MODEL 1
REMARK VINA RESULT:     -12.1      0.000      0.000
REMARK SMILES COC(=O)[C@H]1Sc2nnc(CCC(=O)NCCCCNC(=O)c3ccc(-c4c5nc(c(-c6cc(S(=O)(=O)[O-])ccc6F)c6ccc([nH]6)c(-c6cc(S(=O)(=O)[O-])ccc6F)c6nc(c(-c7cc(S(=O)(=O)[O-])ccc7F)c7ccc4[nH]7)C=C6)C=C5)cc3)c(=O)n2N=C1C
REMARK SMILES IDX 17 1 16 2 15 3 13 4 14 5 12 7 11 8 10 9 5 10 6 11 90 12 7 13
REMARK SMILES IDX 89 14 91 15 8 16 88 17 9 18 86 19 87 20 3 21 4 22 2 23 1 24
REMARK SMILES IDX 18 25 19 26 20 27 21 28 22 30 23 31 24 32 85 33 25 34 84 35
REMARK SMILES IDX 26 36 27 37 28 38 78 39 29 40 83 41 77 42 79 43 30 44 82 45
REMARK SMILES IDX 76 46 75 47 31 49 63 50 43 51 62 52 44 53 47 54 61 55 80 56
REMARK SMILES IDX 45 57 46 58 60 60 81 61 48 62 32 63 33 64 41 65 34 66 40 67
REMARK SMILES IDX 42 68 39 69 35 70 36 71 37 72 38 73 64 74 65 75 73 76 66 77
REMARK SMILES IDX 72 78 74 79 71 80 67 81 68 82 69 83 70 84 49 85 50 86 58 87
REMARK SMILES IDX 51 88 57 89 59 90 56 91 52 92 53 93 54 94 55 95
REMARK H PARENT 15 6 20 29 79 48 47 59
REMARK Flexibility Score: inf
ROOT
ATOM      1  C   UNL A   1      32.518  30.010  25.602  1.00  0.00     0.023 C 
ENDROOT
BRANCH   1   2
ATOM      2  C   UNL A   1      31.422  29.079  25.103  1.00  0.00     0.116 C 
BRANCH   2   3
ATOM      3  N   UNL A   1      30.636  29.741  24.083  1.00  0.00    -0.356 N 
ATOM      4  C   UNL A   1      30.017  29.213  22.990  1.00  0.00     0.220 C 
ATOM      5  O   UNL A   1      29.524  29.979  22.162  1.00  0.00    -0.275 OA
ATOM      6  H   UNL A   1      30.534  30.714  24.195  1.00  0.00     0.163 HD
BRANCH   4   7
ATOM      7  C   UNL A   1      29.933  27.709  22.806  1.00  0.00     0.106 C 
BRANCH   7   8
ATOM      8  C   UNL A   1      31.138  27.150  22.053  1.00  0.00     0.074 C 
BRANCH   8   9
ATOM      9  C   UNL A   1      31.513  25.753  22.507  1.00  0.00     0.131 A 
ATOM     10  C   UNL A   1      34.448  21.992  24.338  1.00  0.00     0.210 C 
ATOM     11  S   UNL A   1      32.733  21.734  23.834  1.00  0.00    -0.063 SA
ATOM     12  C   UNL A   1      35.153  22.932  23.399  1.00  0.00     0.061 C 
ATOM     13  C   UNL A   1      32.327  23.379  23.433  1.00  0.00     0.214 A 
ATOM     14  N   UNL A   1      34.598  23.831  22.643  1.00  0.00    -0.171 NA
ATOM     15  C   UNL A   1      36.657  22.813  23.266  1.00  0.00     0.065 C 
ATOM     16  N   UNL A   1      31.139  23.807  23.719  1.00  0.00    -0.123 NA
ATOM     17  N   UNL A   1      33.250  24.098  22.726  1.00  0.00    -0.169 N 
ATOM     18  N   UNL A   1      30.774  25.118  23.366  1.00  0.00    -0.147 NA
ATOM     19  C   UNL A   1      32.783  25.150  21.966  1.00  0.00     0.296 A 
ATOM     20  O   UNL A   1      33.290  25.634  20.962  1.00  0.00    -0.265 OA
BRANCH  10  21
ATOM     21  C   UNL A   1      34.472  22.278  25.821  1.00  0.00     0.325 C 
ATOM     22  O   UNL A   1      35.412  22.872  26.345  1.00  0.00    -0.250 OA
BRANCH  21  23
ATOM     23  O   UNL A   1      33.457  21.676  26.507  1.00  0.00    -0.468 OA
ATOM     24  C   UNL A   1      33.229  22.225  27.818  1.00  0.00     0.282 C 
ENDBRANCH  21  23
ENDBRANCH  10  21
ENDBRANCH   8   9
ENDBRANCH   7   8
ENDBRANCH   4   7
ENDBRANCH   2   3
ENDBRANCH   1   2
BRANCH   1  25
ATOM     25  C   UNL A   1      32.082  31.031  26.645  1.00  0.00     0.023 C 
BRANCH  25  26
ATOM     26  C   UNL A   1      33.224  31.818  27.272  1.00  0.00     0.116 C 
BRANCH  26  27
ATOM     27  N   UNL A   1      32.835  33.173  27.642  1.00  0.00    -0.352 N 
ATOM     28  C   UNL A   1      33.328  34.039  28.583  1.00  0.00     0.251 C 
ATOM     29  H   UNL A   1      32.080  33.532  27.121  1.00  0.00     0.163 HD
ATOM     30  O   UNL A   1      32.724  35.081  28.826  1.00  0.00    -0.269 OA
BRANCH  28  31
ATOM     31  C   UNL A   1      34.513  33.708  29.380  1.00  0.00     0.039 A 
ATOM     32  C   UNL A   1      34.358  32.796  30.433  1.00  0.00     0.014 A 
ATOM     33  C   UNL A   1      35.754  34.270  29.098  1.00  0.00     0.014 A 
ATOM     34  C   UNL A   1      35.472  32.373  31.140  1.00  0.00     0.010 A 
ATOM     35  C   UNL A   1      36.877  33.770  29.728  1.00  0.00     0.010 A 
ATOM     36  C   UNL A   1      36.738  32.824  30.754  1.00  0.00    -0.014 A 
BRANCH  36  37
ATOM     37  C   UNL A   1      37.954  32.392  31.458  1.00  0.00     0.031 A 
ATOM     38  C   UNL A   1      38.782  31.319  30.821  1.00  0.00     0.074 A 
ATOM     39  C   UNL A   1      38.227  32.896  32.673  1.00  0.00     0.049 A 
ATOM     40  N   UNL A   1      39.720  30.582  31.341  1.00  0.00    -0.248 NA
ATOM     41  C   UNL A   1      38.460  30.995  29.419  1.00  0.00     0.031 C 
ATOM     42  C   UNL A   1      37.458  33.947  33.348  1.00  0.00     0.029 A 
ATOM     43  N   UNL A   1      39.221  32.592  33.559  1.00  0.00    -0.354 N 
ATOM     44  C   UNL A   1      40.070  29.675  30.348  1.00  0.00     0.074 A 
ATOM     45  C   UNL A   1      39.208  29.924  29.214  1.00  0.00     0.031 C 
ATOM     46  C   UNL A   1      38.032  34.221  34.530  1.00  0.00     0.029 A 
ATOM     47  C   UNL A   1      39.166  33.326  34.720  1.00  0.00     0.049 A 
ATOM     48  H   UNL A   1      39.909  31.910  33.384  1.00  0.00     0.167 HD
ATOM     49  C   UNL A   1      41.039  28.731  30.388  1.00  0.00     0.034 A 
ATOM     50  C   UNL A   1      39.945  33.258  35.814  1.00  0.00     0.034 A 
ATOM     51  C   UNL A   1      41.897  28.556  31.530  1.00  0.00     0.049 A 
ATOM     52  C   UNL A   1      41.034  32.219  35.826  1.00  0.00     0.074 A 
ATOM     53  C   UNL A   1      42.916  27.644  31.722  1.00  0.00     0.029 A 
ATOM     54  N   UNL A   1      41.839  29.343  32.676  1.00  0.00    -0.354 N 
ATOM     55  N   UNL A   1      41.322  31.323  34.908  1.00  0.00    -0.248 NA
ATOM     56  C   UNL A   1      41.894  32.175  37.012  1.00  0.00     0.031 C 
ATOM     57  C   UNL A   1      43.459  27.866  32.993  1.00  0.00     0.029 A 
ATOM     58  C   UNL A   1      42.808  28.944  33.576  1.00  0.00     0.049 A 
ATOM     59  H   UNL A   1      41.200  30.077  32.824  1.00  0.00     0.167 HD
ATOM     60  C   UNL A   1      42.405  30.609  35.403  1.00  0.00     0.074 A 
ATOM     61  C   UNL A   1      42.727  31.193  36.693  1.00  0.00     0.031 C 
ATOM     62  C   UNL A   1      43.076  29.564  34.853  1.00  0.00     0.034 A 
BRANCH  49  63
ATOM     63  C   UNL A   1      41.177  27.836  29.185  1.00  0.00     0.023 A 
ATOM     64  C   UNL A   1      42.168  28.063  28.213  1.00  0.00     0.031 A 
ATOM     65  C   UNL A   1      40.261  26.793  28.961  1.00  0.00     0.131 A 
ATOM     66  C   UNL A   1      42.168  27.315  27.025  1.00  0.00     0.055 A 
ATOM     67  C   UNL A   1      40.316  25.999  27.812  1.00  0.00     0.041 A 
ATOM     68  F   UNL A   1      39.276  26.548  29.840  1.00  0.00    -0.206 F 
ATOM     69  C   UNL A   1      41.265  26.268  26.830  1.00  0.00     0.022 A 
BRANCH  66  70
ATOM     70  S   UNL A   1      43.283  27.813  25.685  1.00  0.00     0.124 S 
ATOM     71  O   UNL A   1      42.333  28.186  24.640  1.00  0.00    -0.237 OA
ATOM     72  O   UNL A   1      44.034  28.911  26.284  1.00  0.00    -0.237 OA
ATOM     73  O   UNL A   1      44.056  26.603  25.417  1.00  0.00    -0.744 OA
ENDBRANCH  66  70
ENDBRANCH  49  63
BRANCH  50  74
ATOM     74  C   UNL A   1      39.722  34.187  36.954  1.00  0.00     0.023 A 
ATOM     75  C   UNL A   1      39.111  33.736  38.134  1.00  0.00     0.031 A 
ATOM     76  C   UNL A   1      40.151  35.525  36.902  1.00  0.00     0.131 A 
ATOM     77  C   UNL A   1      38.932  34.618  39.211  1.00  0.00     0.055 A 
ATOM     78  C   UNL A   1      39.998  36.391  37.986  1.00  0.00     0.041 A 
ATOM     79  F   UNL A   1      40.761  35.999  35.804  1.00  0.00    -0.206 F 
ATOM     80  C   UNL A   1      39.381  35.940  39.149  1.00  0.00     0.022 A 
BRANCH  77  81
ATOM     81  S   UNL A   1      38.088  34.014  40.698  1.00  0.00     0.124 S 
ATOM     82  O   UNL A   1      36.999  33.231  40.126  1.00  0.00    -0.237 OA
ATOM     83  O   UNL A   1      39.145  33.256  41.360  1.00  0.00    -0.237 OA
ATOM     84  O   UNL A   1      37.683  35.240  41.382  1.00  0.00    -0.744 OA
ENDBRANCH  77  81
ENDBRANCH  50  74
BRANCH  62  85
ATOM     85  C   UNL A   1      44.224  29.015  35.646  1.00  0.00     0.023 A 
ATOM     86  C   UNL A   1      44.033  27.975  36.567  1.00  0.00     0.031 A 
ATOM     87  C   UNL A   1      45.523  29.512  35.444  1.00  0.00     0.131 A 
ATOM     88  C   UNL A   1      45.128  27.478  37.282  1.00  0.00     0.055 A 
ATOM     89  C   UNL A   1      46.615  28.984  36.128  1.00  0.00     0.041 A 
ATOM     90  F   UNL A   1      45.745  30.503  34.567  1.00  0.00    -0.206 F 
ATOM     91  C   UNL A   1      46.421  27.963  37.057  1.00  0.00     0.022 A 
BRANCH  88  92
ATOM     92  S   UNL A   1      44.838  26.203  38.536  1.00  0.00     0.124 S 
ATOM     93  O   UNL A   1      43.457  26.472  38.923  1.00  0.00    -0.237 OA
ATOM     94  O   UNL A   1      45.060  24.968  37.789  1.00  0.00    -0.237 OA
ATOM     95  O   UNL A   1      45.839  26.495  39.559  1.00  0.00    -0.744 OA
ENDBRANCH  88  92
ENDBRANCH  62  85
ENDBRANCH  36  37
ENDBRANCH  28  31
ENDBRANCH  26  27
ENDBRANCH  25  26
ENDBRANCH   1  25
TORSDOF 18
ENDMDL
MODEL 2
REMARK VINA RESULT:     -11.9      5.631     11.662
REMARK SMILES COC(=O)[C@H]1Sc2nnc(CCC(=O)NCCCCNC(=O)c3ccc(-c4c5nc(c(-c6cc(S(=O)(=O)[O-])ccc6F)c6ccc([nH]6)c(-c6cc(S(=O)(=O)[O-])ccc6F)c6nc(c(-c7cc(S(=O)(=O)[O-])ccc7F)c7ccc4[nH]7)C=C6)C=C5)cc3)c(=O)n2N=C1C
REMARK SMILES IDX 17 1 16 2 15 3 13 4 14 5 12 7 11 8 10 9 5 10 6 11 90 12 7 13
REMARK SMILES IDX 89 14 91 15 8 16 88 17 9 18 86 19 87 20 3 21 4 22 2 23 1 24
REMARK SMILES IDX 18 25 19 26 20 27 21 28 22 30 23 31 24 32 85 33 25 34 84 35
REMARK SMILES IDX 26 36 27 37 28 38 78 39 29 40 83 41 77 42 79 43 30 44 82 45
REMARK SMILES IDX 76 46 75 47 31 49 63 50 43 51 62 52 44 53 47 54 61 55 80 56
REMARK SMILES IDX 45 57 46 58 60 60 81 61 48 62 32 63 33 64 41 65 34 66 40 67
REMARK SMILES IDX 42 68 39 69 35 70 36 71 37 72 38 73 64 74 65 75 73 76 66 77
REMARK SMILES IDX 72 78 74 79 71 80 67 81 68 82 69 83 70 84 49 85 50 86 58 87
REMARK SMILES IDX 51 88 57 89 59 90 56 91 52 92 53 93 54 94 55 95
REMARK H PARENT 15 6 20 29 79 48 47 59
REMARK Flexibility Score: inf
ROOT
ATOM      1  C   UNL A   1      37.137  21.762  24.414  1.00  0.00     0.023 C 
ENDROOT
BRANCH   1   2
ATOM      2  C   UNL A   1      36.406  22.763  25.296  1.00  0.00     0.116 C 
BRANCH   2   3
ATOM      3  N   UNL A   1      35.708  22.071  26.360  1.00  0.00    -0.356 N 
ATOM      4  C   UNL A   1      34.439  21.577  26.383  1.00  0.00     0.220 C 
ATOM      5  O   UNL A   1      33.988  21.155  27.449  1.00  0.00    -0.275 OA
ATOM      6  H   UNL A   1      36.227  21.939  27.187  1.00  0.00     0.163 HD
BRANCH   4   7
ATOM      7  C   UNL A   1      33.604  21.543  25.116  1.00  0.00     0.106 C 
BRANCH   7   8
ATOM      8  C   UNL A   1      32.107  21.608  25.408  1.00  0.00     0.074 C 
BRANCH   8   9
ATOM      9  C   UNL A   1      31.500  22.950  25.049  1.00  0.00     0.131 A 
ATOM     10  C   UNL A   1      30.927  28.027  24.983  1.00  0.00     0.210 C 
ATOM     11  S   UNL A   1      29.819  26.908  24.098  1.00  0.00    -0.063 SA
ATOM     12  C   UNL A   1      31.312  27.461  26.323  1.00  0.00     0.061 C 
ATOM     13  C   UNL A   1      30.624  25.406  24.453  1.00  0.00     0.214 A 
ATOM     14  N   UNL A   1      31.316  26.206  26.660  1.00  0.00    -0.171 NA
ATOM     15  C   UNL A   1      31.697  28.428  27.421  1.00  0.00     0.065 C 
ATOM     16  N   UNL A   1      30.668  24.499  23.531  1.00  0.00    -0.123 NA
ATOM     17  N   UNL A   1      31.066  25.219  25.733  1.00  0.00    -0.169 N 
ATOM     18  N   UNL A   1      31.275  23.261  23.808  1.00  0.00    -0.147 NA
ATOM     19  C   UNL A   1      31.210  23.917  26.166  1.00  0.00     0.296 A 
ATOM     20  O   UNL A   1      31.156  23.499  27.316  1.00  0.00    -0.265 OA
BRANCH  10  21
ATOM     21  C   UNL A   1      32.012  28.474  24.033  1.00  0.00     0.325 C 
ATOM     22  O   UNL A   1      31.745  29.015  22.962  1.00  0.00    -0.250 OA
BRANCH  21  23
ATOM     23  O   UNL A   1      33.262  28.073  24.407  1.00  0.00    -0.468 OA
ATOM     24  C   UNL A   1      33.737  26.907  23.710  1.00  0.00     0.282 C 
ENDBRANCH  21  23
ENDBRANCH  10  21
ENDBRANCH   8   9
ENDBRANCH   7   8
ENDBRANCH   4   7
ENDBRANCH   2   3
ENDBRANCH   1   2
BRANCH   1  25
ATOM     25  C   UNL A   1      37.755  20.578  25.147  1.00  0.00     0.023 C 
BRANCH  25  26
ATOM     26  C   UNL A   1      39.027  20.907  25.915  1.00  0.00     0.116 C 
BRANCH  26  27
ATOM     27  N   UNL A   1      40.007  19.829  25.864  1.00  0.00    -0.352 N 
ATOM     28  C   UNL A   1      41.372  19.829  26.002  1.00  0.00     0.251 C 
ATOM     29  H   UNL A   1      39.620  18.939  25.701  1.00  0.00     0.163 HD
ATOM     30  O   UNL A   1      42.007  18.807  25.755  1.00  0.00    -0.269 OA
BRANCH  28  31
ATOM     31  C   UNL A   1      42.106  21.050  26.346  1.00  0.00     0.039 A 
ATOM     32  C   UNL A   1      42.378  21.961  25.317  1.00  0.00     0.014 A 
ATOM     33  C   UNL A   1      42.511  21.306  27.652  1.00  0.00     0.014 A 
ATOM     34  C   UNL A   1      42.971  23.176  25.619  1.00  0.00     0.010 A 
ATOM     35  C   UNL A   1      43.002  22.557  27.971  1.00  0.00     0.010 A 
ATOM     36  C   UNL A   1      43.237  23.493  26.953  1.00  0.00    -0.014 A 
BRANCH  36  37
ATOM     37  C   UNL A   1      43.849  24.777  27.330  1.00  0.00     0.031 A 
ATOM     38  C   UNL A   1      42.957  25.824  27.921  1.00  0.00     0.074 A 
ATOM     39  C   UNL A   1      45.144  24.997  27.051  1.00  0.00     0.049 A 
ATOM     40  N   UNL A   1      43.172  27.098  28.079  1.00  0.00    -0.248 NA
ATOM     41  C   UNL A   1      41.612  25.378  28.330  1.00  0.00     0.031 C 
ATOM     42  C   UNL A   1      46.068  24.013  26.477  1.00  0.00     0.029 A 
ATOM     43  N   UNL A   1      45.908  26.118  27.206  1.00  0.00    -0.354 N 
ATOM     44  C   UNL A   1      41.977  27.617  28.563  1.00  0.00     0.074 A 
ATOM     45  C   UNL A   1      41.028  26.529  28.623  1.00  0.00     0.031 C 
ATOM     46  C   UNL A   1      47.284  24.569  26.360  1.00  0.00     0.029 A 
ATOM     47  C   UNL A   1      47.209  25.959  26.791  1.00  0.00     0.049 A 
ATOM     48  H   UNL A   1      45.560  26.961  27.577  1.00  0.00     0.167 HD
ATOM     49  C   UNL A   1      41.714  28.892  28.933  1.00  0.00     0.034 A 
ATOM     50  C   UNL A   1      48.213  26.854  26.754  1.00  0.00     0.034 A 
ATOM     51  C   UNL A   1      42.713  29.928  28.892  1.00  0.00     0.049 A 
ATOM     52  C   UNL A   1      47.905  28.258  27.197  1.00  0.00     0.074 A 
ATOM     53  C   UNL A   1      42.597  31.262  29.228  1.00  0.00     0.029 A 
ATOM     54  N   UNL A   1      44.033  29.722  28.501  1.00  0.00    -0.354 N 
ATOM     55  N   UNL A   1      46.757  28.759  27.597  1.00  0.00    -0.248 NA
ATOM     56  C   UNL A   1      49.014  29.216  27.179  1.00  0.00     0.031 C 
ATOM     57  C   UNL A   1      43.842  31.868  29.020  1.00  0.00     0.029 A 
ATOM     58  C   UNL A   1      44.745  30.902  28.596  1.00  0.00     0.049 A 
ATOM     59  H   UNL A   1      44.404  28.862  28.201  1.00  0.00     0.167 HD
ATOM     60  C   UNL A   1      47.006  30.094  27.886  1.00  0.00     0.074 A 
ATOM     61  C   UNL A   1      48.419  30.312  27.631  1.00  0.00     0.031 C 
ATOM     62  C   UNL A   1      46.154  31.058  28.320  1.00  0.00     0.034 A 
BRANCH  49  63
ATOM     63  C   UNL A   1      40.309  29.203  29.377  1.00  0.00     0.023 A 
ATOM     64  C   UNL A   1      39.930  29.112  30.728  1.00  0.00     0.031 A 
ATOM     65  C   UNL A   1      39.315  29.516  28.433  1.00  0.00     0.131 A 
ATOM     66  C   UNL A   1      38.580  29.247  31.087  1.00  0.00     0.055 A 
ATOM     67  C   UNL A   1      37.986  29.729  28.808  1.00  0.00     0.041 A 
ATOM     68  F   UNL A   1      39.611  29.588  27.126  1.00  0.00    -0.206 F 
ATOM     69  C   UNL A   1      37.609  29.581  30.141  1.00  0.00     0.022 A 
BRANCH  66  70
ATOM     70  S   UNL A   1      38.091  28.856  32.789  1.00  0.00     0.124 S 
ATOM     71  O   UNL A   1      38.176  27.398  32.788  1.00  0.00    -0.237 OA
ATOM     72  O   UNL A   1      39.099  29.553  33.581  1.00  0.00    -0.237 OA
ATOM     73  O   UNL A   1      36.738  29.398  32.888  1.00  0.00    -0.744 OA
ENDBRANCH  66  70
ENDBRANCH  49  63
BRANCH  50  74
ATOM     74  C   UNL A   1      49.566  26.445  26.294  1.00  0.00     0.023 A 
ATOM     75  C   UNL A   1      50.060  26.879  25.054  1.00  0.00     0.031 A 
ATOM     76  C   UNL A   1      50.404  25.652  27.098  1.00  0.00     0.131 A 
ATOM     77  C   UNL A   1      51.351  26.507  24.645  1.00  0.00     0.055 A 
ATOM     78  C   UNL A   1      51.699  25.309  26.701  1.00  0.00     0.041 A 
ATOM     79  F   UNL A   1      49.987  25.229  28.301  1.00  0.00    -0.206 F 
ATOM     80  C   UNL A   1      52.177  25.734  25.464  1.00  0.00     0.022 A 
BRANCH  77  81
ATOM     81  S   UNL A   1      51.933  27.041  23.013  1.00  0.00     0.124 S 
ATOM     82  O   UNL A   1      52.920  26.016  22.698  1.00  0.00    -0.237 OA
ATOM     83  O   UNL A   1      50.703  27.011  22.227  1.00  0.00    -0.237 OA
ATOM     84  O   UNL A   1      52.474  28.375  23.264  1.00  0.00    -0.744 OA
ENDBRANCH  77  81
ENDBRANCH  50  74
BRANCH  62  85
ATOM     85  C   UNL A   1      46.745  32.415  28.554  1.00  0.00     0.023 A 
ATOM     86  C   UNL A   1      46.730  33.393  27.548  1.00  0.00     0.031 A 
ATOM     87  C   UNL A   1      47.288  32.742  29.809  1.00  0.00     0.131 A 
ATOM     88  C   UNL A   1      47.280  34.654  27.805  1.00  0.00     0.055 A 
ATOM     89  C   UNL A   1      47.795  34.013  30.071  1.00  0.00     0.041 A 
ATOM     90  F   UNL A   1      47.315  31.835  30.797  1.00  0.00    -0.206 F 
ATOM     91  C   UNL A   1      47.797  34.976  29.064  1.00  0.00     0.022 A 
BRANCH  88  92
ATOM     92  S   UNL A   1      47.338  35.863  26.458  1.00  0.00     0.124 S 
ATOM     93  O   UNL A   1      46.300  35.365  25.561  1.00  0.00    -0.237 OA
ATOM     94  O   UNL A   1      47.037  37.117  27.145  1.00  0.00    -0.237 OA
ATOM     95  O   UNL A   1      48.704  35.749  25.953  1.00  0.00    -0.744 OA
ENDBRANCH  88  92
ENDBRANCH  62  85
ENDBRANCH  36  37
ENDBRANCH  28  31
ENDBRANCH  26  27
ENDBRANCH  25  26
ENDBRANCH   1  25
TORSDOF 18
ENDMDL
MODEL 3
REMARK VINA RESULT:     -11.7      5.438     10.391
REMARK SMILES COC(=O)[C@H]1Sc2nnc(CCC(=O)NCCCCNC(=O)c3ccc(-c4c5nc(c(-c6cc(S(=O)(=O)[O-])ccc6F)c6ccc([nH]6)c(-c6cc(S(=O)(=O)[O-])ccc6F)c6nc(c(-c7cc(S(=O)(=O)[O-])ccc7F)c7ccc4[nH]7)C=C6)C=C5)cc3)c(=O)n2N=C1C
REMARK SMILES IDX 17 1 16 2 15 3 13 4 14 5 12 7 11 8 10 9 5 10 6 11 90 12 7 13
REMARK SMILES IDX 89 14 91 15 8 16 88 17 9 18 86 19 87 20 3 21 4 22 2 23 1 24
REMARK SMILES IDX 18 25 19 26 20 27 21 28 22 30 23 31 24 32 85 33 25 34 84 35
REMARK SMILES IDX 26 36 27 37 28 38 78 39 29 40 83 41 77 42 79 43 30 44 82 45
REMARK SMILES IDX 76 46 75 47 31 49 63 50 43 51 62 52 44 53 47 54 61 55 80 56
REMARK SMILES IDX 45 57 46 58 60 60 81 61 48 62 32 63 33 64 41 65 34 66 40 67
REMARK SMILES IDX 42 68 39 69 35 70 36 71 37 72 38 73 64 74 65 75 73 76 66 77
REMARK SMILES IDX 72 78 74 79 71 80 67 81 68 82 69 83 70 84 49 85 50 86 58 87
REMARK SMILES IDX 51 88 57 89 59 90 56 91 52 92 53 93 54 94 55 95
REMARK H PARENT 15 6 20 29 79 48 47 59
REMARK Flexibility Score: inf
ROOT
ATOM      1  C   UNL A   1      35.304  22.055  26.636  1.00  0.00     0.023 C 
ENDROOT
BRANCH   1   2
ATOM      2  C   UNL A   1      33.921  21.603  27.083  1.00  0.00     0.116 C 
BRANCH   2   3
ATOM      3  N   UNL A   1      33.623  20.297  26.532  1.00  0.00    -0.356 N 
ATOM      4  C   UNL A   1      32.751  19.954  25.544  1.00  0.00     0.220 C 
ATOM      5  O   UNL A   1      32.539  18.760  25.331  1.00  0.00    -0.275 OA
ATOM      6  H   UNL A   1      34.124  19.548  26.930  1.00  0.00     0.163 HD
BRANCH   4   7
ATOM      7  C   UNL A   1      32.064  21.026  24.718  1.00  0.00     0.106 C 
BRANCH   7   8
ATOM      8  C   UNL A   1      31.069  21.841  25.542  1.00  0.00     0.074 C 
BRANCH   8   9
ATOM      9  C   UNL A   1      30.982  23.285  25.089  1.00  0.00     0.131 A 
ATOM     10  C   UNL A   1      31.691  28.344  25.218  1.00  0.00     0.210 C 
ATOM     11  S   UNL A   1      30.778  27.519  23.895  1.00  0.00    -0.063 SA
ATOM     12  C   UNL A   1      31.387  27.723  26.554  1.00  0.00     0.061 C 
ATOM     13  C   UNL A   1      31.006  25.871  24.405  1.00  0.00     0.214 A 
ATOM     14  N   UNL A   1      30.965  26.513  26.767  1.00  0.00    -0.171 NA
ATOM     15  C   UNL A   1      31.536  28.584  27.790  1.00  0.00     0.065 C 
ATOM     16  N   UNL A   1      31.186  24.965  23.498  1.00  0.00    -0.123 NA
ATOM     17  N   UNL A   1      30.865  25.603  25.739  1.00  0.00    -0.169 N 
ATOM     18  N   UNL A   1      31.331  23.621  23.884  1.00  0.00    -0.147 NA
ATOM     19  C   UNL A   1      30.521  24.314  26.089  1.00  0.00     0.296 A 
ATOM     20  O   UNL A   1      29.933  23.942  27.096  1.00  0.00    -0.265 OA
BRANCH  10  21
ATOM     21  C   UNL A   1      33.130  28.491  24.785  1.00  0.00     0.325 C 
ATOM     22  O   UNL A   1      33.905  29.240  25.376  1.00  0.00    -0.250 OA
BRANCH  21  23
ATOM     23  O   UNL A   1      33.412  27.857  23.609  1.00  0.00    -0.468 OA
ATOM     24  C   UNL A   1      34.079  28.686  22.640  1.00  0.00     0.282 C 
ENDBRANCH  21  23
ENDBRANCH  10  21
ENDBRANCH   8   9
ENDBRANCH   7   8
ENDBRANCH   4   7
ENDBRANCH   2   3
ENDBRANCH   1   2
BRANCH   1  25
ATOM     25  C   UNL A   1      35.358  22.742  25.277  1.00  0.00     0.023 C 
BRANCH  25  26
ATOM     26  C   UNL A   1      36.668  22.551  24.527  1.00  0.00     0.116 C 
BRANCH  26  27
ATOM     27  N   UNL A   1      37.412  21.384  24.984  1.00  0.00    -0.352 N 
ATOM     28  C   UNL A   1      38.562  21.266  25.721  1.00  0.00     0.251 C 
ATOM     29  H   UNL A   1      37.017  20.524  24.715  1.00  0.00     0.163 HD
ATOM     30  O   UNL A   1      39.095  20.167  25.845  1.00  0.00    -0.269 OA
BRANCH  28  31
ATOM     31  C   UNL A   1      39.230  22.441  26.290  1.00  0.00     0.039 A 
ATOM     32  C   UNL A   1      40.311  22.223  27.155  1.00  0.00     0.014 A 
ATOM     33  C   UNL A   1      38.814  23.731  25.976  1.00  0.00     0.014 A 
ATOM     34  C   UNL A   1      41.037  23.305  27.627  1.00  0.00     0.010 A 
ATOM     35  C   UNL A   1      39.600  24.801  26.357  1.00  0.00     0.010 A 
ATOM     36  C   UNL A   1      40.711  24.591  27.187  1.00  0.00    -0.014 A 
BRANCH  36  37
ATOM     37  C   UNL A   1      41.461  25.771  27.642  1.00  0.00     0.031 A 
ATOM     38  C   UNL A   1      40.730  26.782  28.471  1.00  0.00     0.074 A 
ATOM     39  C   UNL A   1      42.726  25.948  27.227  1.00  0.00     0.049 A 
ATOM     40  N   UNL A   1      41.061  28.006  28.761  1.00  0.00    -0.248 NA
ATOM     41  C   UNL A   1      39.414  26.367  28.991  1.00  0.00     0.031 C 
ATOM     42  C   UNL A   1      43.495  24.997  26.418  1.00  0.00     0.029 A 
ATOM     43  N   UNL A   1      43.588  26.989  27.423  1.00  0.00    -0.354 N 
ATOM     44  C   UNL A   1      39.977  28.527  29.457  1.00  0.00     0.074 A 
ATOM     45  C   UNL A   1      38.960  27.500  29.501  1.00  0.00     0.031 C 
ATOM     46  C   UNL A   1      44.728  25.488  26.217  1.00  0.00     0.029 A 
ATOM     47  C   UNL A   1      44.813  26.809  26.827  1.00  0.00     0.049 A 
ATOM     48  H   UNL A   1      43.354  27.793  27.941  1.00  0.00     0.167 HD
ATOM     49  C   UNL A   1      39.859  29.753  30.018  1.00  0.00     0.034 A 
ATOM     50  C   UNL A   1      45.871  27.637  26.774  1.00  0.00     0.034 A 
ATOM     51  C   UNL A   1      40.923  30.722  29.979  1.00  0.00     0.049 A 
ATOM     52  C   UNL A   1      45.729  28.985  27.429  1.00  0.00     0.074 A 
ATOM     53  C   UNL A   1      40.953  32.003  30.495  1.00  0.00     0.029 A 
ATOM     54  N   UNL A   1      42.167  30.491  29.399  1.00  0.00    -0.354 N 
ATOM     55  N   UNL A   1      44.680  29.496  28.034  1.00  0.00    -0.248 NA
ATOM     56  C   UNL A   1      46.899  29.867  27.390  1.00  0.00     0.031 C 
ATOM     57  C   UNL A   1      42.207  32.554  30.206  1.00  0.00     0.029 A 
ATOM     58  C   UNL A   1      42.975  31.602  29.550  1.00  0.00     0.049 A 
ATOM     59  H   UNL A   1      42.432  29.659  28.946  1.00  0.00     0.167 HD
ATOM     60  C   UNL A   1      45.065  30.761  28.456  1.00  0.00     0.074 A 
ATOM     61  C   UNL A   1      46.449  30.926  28.050  1.00  0.00     0.031 C 
ATOM     62  C   UNL A   1      44.348  31.707  29.115  1.00  0.00     0.034 A 
BRANCH  49  63
ATOM     63  C   UNL A   1      38.547  30.086  30.675  1.00  0.00     0.023 A 
ATOM     64  C   UNL A   1      37.542  30.792  29.990  1.00  0.00     0.031 A 
ATOM     65  C   UNL A   1      38.322  29.766  32.025  1.00  0.00     0.131 A 
ATOM     66  C   UNL A   1      36.400  31.230  30.677  1.00  0.00     0.055 A 
ATOM     67  C   UNL A   1      37.146  30.135  32.684  1.00  0.00     0.041 A 
ATOM     68  F   UNL A   1      39.257  29.118  32.739  1.00  0.00    -0.206 F 
ATOM     69  C   UNL A   1      36.182  30.883  32.013  1.00  0.00     0.022 A 
BRANCH  66  70
ATOM     70  S   UNL A   1      35.261  32.364  29.838  1.00  0.00     0.124 S 
ATOM     71  O   UNL A   1      34.779  31.531  28.740  1.00  0.00    -0.237 OA
ATOM     72  O   UNL A   1      34.288  32.672  30.880  1.00  0.00    -0.237 OA
ATOM     73  O   UNL A   1      36.121  33.477  29.440  1.00  0.00    -0.744 OA
ENDBRANCH  66  70
ENDBRANCH  49  63
BRANCH  50  74
ATOM     74  C   UNL A   1      47.124  27.213  26.095  1.00  0.00     0.023 A 
ATOM     75  C   UNL A   1      48.136  26.554  26.811  1.00  0.00     0.031 A 
ATOM     76  C   UNL A   1      47.315  27.418  24.717  1.00  0.00     0.131 A 
ATOM     77  C   UNL A   1      49.302  26.136  26.150  1.00  0.00     0.055 A 
ATOM     78  C   UNL A   1      48.464  26.973  24.058  1.00  0.00     0.041 A 
ATOM     79  F   UNL A   1      46.368  28.024  23.984  1.00  0.00    -0.206 F 
ATOM     80  C   UNL A   1      49.468  26.331  24.777  1.00  0.00     0.022 A 
BRANCH  77  81
ATOM     81  S   UNL A   1      50.611  25.339  27.119  1.00  0.00     0.124 S 
ATOM     82  O   UNL A   1      51.048  26.428  27.983  1.00  0.00    -0.237 OA
ATOM     83  O   UNL A   1      49.887  24.252  27.772  1.00  0.00    -0.237 OA
ATOM     84  O   UNL A   1      51.577  24.918  26.106  1.00  0.00    -0.744 OA
ENDBRANCH  77  81
ENDBRANCH  50  74
BRANCH  62  85
ATOM     85  C   UNL A   1      45.066  32.982  29.443  1.00  0.00     0.023 A 
ATOM     86  C   UNL A   1      45.787  33.118  30.639  1.00  0.00     0.031 A 
ATOM     87  C   UNL A   1      45.061  34.050  28.530  1.00  0.00     0.131 A 
ATOM     88  C   UNL A   1      46.456  34.317  30.908  1.00  0.00     0.055 A 
ATOM     89  C   UNL A   1      45.764  35.225  28.784  1.00  0.00     0.041 A 
ATOM     90  F   UNL A   1      44.387  33.955  27.373  1.00  0.00    -0.206 F 
ATOM     91  C   UNL A   1      46.464  35.366  29.981  1.00  0.00     0.022 A 
BRANCH  88  92
ATOM     92  S   UNL A   1      47.296  34.502  32.502  1.00  0.00     0.124 S 
ATOM     93  O   UNL A   1      47.617  33.118  32.834  1.00  0.00    -0.237 OA
ATOM     94  O   UNL A   1      48.432  35.355  32.164  1.00  0.00    -0.237 OA
ATOM     95  O   UNL A   1      46.285  35.127  33.351  1.00  0.00    -0.744 OA
ENDBRANCH  88  92
ENDBRANCH  62  85
ENDBRANCH  36  37
ENDBRANCH  28  31
ENDBRANCH  26  27
ENDBRANCH  25  26
ENDBRANCH   1  25
TORSDOF 18
ENDMDL
