MODEL 1
REMARK VINA RESULT:      -8.6      0.000      0.000
REMARK SMILES CCCn1c(N2CCC[C@@H](C)C2)c(/C=C2/SC(=S)N(CC(=O)NCCCCNC(=O)c3ccc(-c4c5nc(c(-c6cc(S(=O)(=O)[O-])ccc6F)c6ccc([nH]6)c(-c6cc(S(=O)(=O)[O-])ccc6F)c6nc(c(-c7cc(S(=O)(=O)[O-])ccc7F)c7ccc4[nH]7)C=C6)C=C5)cc3)C2=O)c(C)c(C#N)c1=O
REMARK SMILES IDX 25 1 24 2 23 3 21 4 22 5 20 7 19 8 14 9 15 10 16 11 94 12
REMARK SMILES IDX 17 13 95 14 18 15 13 16 4 17 5 18 101 19 98 20 102 21 96 22
REMARK SMILES IDX 97 23 3 24 2 25 1 26 6 27 7 28 12 29 8 30 10 31 9 32 11 33
REMARK SMILES IDX 99 34 100 35 26 36 27 37 28 38 29 39 30 41 31 42 32 43 93 44
REMARK SMILES IDX 33 45 92 46 34 47 35 48 36 49 86 50 37 51 91 52 85 53 87 54
REMARK SMILES IDX 38 55 90 56 84 57 83 58 39 60 71 61 51 62 70 63 52 64 55 65
REMARK SMILES IDX 69 66 88 67 53 68 54 69 68 71 89 72 56 73 40 74 41 75 49 76
REMARK SMILES IDX 42 77 48 78 50 79 47 80 43 81 44 82 45 83 46 84 72 85 73 86
REMARK SMILES IDX 81 87 74 88 80 89 82 90 79 91 75 92 76 93 77 94 78 95 57 96
REMARK SMILES IDX 58 97 66 98 59 99 65 100 67 101 64 102 60 103 61 104 62 105
REMARK SMILES IDX 63 106
REMARK H PARENT 23 6 28 40 87 59 55 70
REMARK Flexibility Score: inf
ROOT
ATOM      1  C   UNL A   1      44.236  35.860  29.039  1.00  0.00     0.023 C 
ENDROOT
BRANCH   1   2
ATOM      2  C   UNL A   1      43.324  35.682  30.248  1.00  0.00     0.116 C 
BRANCH   2   3
ATOM      3  N   UNL A   1      42.892  34.312  30.423  1.00  0.00    -0.355 N 
ATOM      4  C   UNL A   1      41.789  33.823  31.062  1.00  0.00     0.240 C 
ATOM      5  O   UNL A   1      41.444  32.669  30.800  1.00  0.00    -0.273 OA
ATOM      6  H   UNL A   1      43.481  33.633  30.023  1.00  0.00     0.163 HD
BRANCH   4   7
ATOM      7  C   UNL A   1      40.923  34.714  31.962  1.00  0.00     0.227 C 
BRANCH   7   8
ATOM      8  N   UNL A   1      39.907  33.965  32.705  1.00  0.00    -0.283 N 
ATOM      9  C   UNL A   1      36.518  32.645  32.650  1.00  0.00     0.033 C 
ATOM     10  C   UNL A   1      37.747  33.066  32.989  1.00  0.00     0.081 C 
ATOM     11  S   UNL A   1      38.565  32.591  34.425  1.00  0.00    -0.054 SA
ATOM     12  C   UNL A   1      38.623  33.968  32.194  1.00  0.00     0.266 C 
ATOM     13  C   UNL A   1      40.053  33.412  33.956  1.00  0.00     0.148 C 
ATOM     14  O   UNL A   1      38.241  34.647  31.250  1.00  0.00    -0.268 OA
ATOM     15  S   UNL A   1      41.371  33.480  34.977  1.00  0.00    -0.052 S 
BRANCH   9  16
ATOM     16  C   UNL A   1      35.815  32.974  31.403  1.00  0.00     0.021 A 
ATOM     17  N   UNL A   1      35.303  32.596  29.094  1.00  0.00    -0.293 N 
ATOM     18  C   UNL A   1      35.984  32.205  30.274  1.00  0.00     0.119 A 
ATOM     19  C   UNL A   1      34.579  33.788  28.994  1.00  0.00     0.270 A 
ATOM     20  C   UNL A   1      34.259  34.470  30.252  1.00  0.00     0.121 A 
ATOM     21  O   UNL A   1      34.232  34.290  27.927  1.00  0.00    -0.268 OA
ATOM     22  C   UNL A   1      34.924  34.150  31.373  1.00  0.00    -0.017 A 
ATOM     23  C   UNL A   1      34.822  35.012  32.618  1.00  0.00     0.047 C 
BRANCH  17  24
ATOM     24  C   UNL A   1      35.354  31.798  27.863  1.00  0.00     0.127 C 
BRANCH  24  25
ATOM     25  C   UNL A   1      34.223  30.766  27.707  1.00  0.00     0.019 C 
ATOM     26  C   UNL A   1      34.672  29.341  27.411  1.00  0.00     0.006 C 
ENDBRANCH  24  25
ENDBRANCH  17  24
BRANCH  18  27
ATOM     27  N   UNL A   1      36.869  31.090  30.247  1.00  0.00    -0.357 N 
ATOM     28  C   UNL A   1      36.365  29.756  30.632  1.00  0.00     0.118 C 
ATOM     29  C   UNL A   1      38.053  31.034  29.368  1.00  0.00     0.121 C 
ATOM     30  C   UNL A   1      37.471  28.943  31.305  1.00  0.00     0.022 C 
ATOM     31  C   UNL A   1      39.188  30.195  29.962  1.00  0.00     0.005 C 
ATOM     32  C   UNL A   1      38.686  28.814  30.395  1.00  0.00     0.007 C 
ATOM     33  C   UNL A   1      40.311  30.049  28.932  1.00  0.00     0.009 C 
ENDBRANCH  18  27
BRANCH  20  34
ATOM     34  C   UNL A   1      33.341  35.682  30.247  1.00  0.00     0.105 C 
ATOM     35  N   UNL A   1      32.578  36.685  30.244  1.00  0.00    -0.192 NA
ENDBRANCH  20  34
ENDBRANCH   9  16
ENDBRANCH   7   8
ENDBRANCH   4   7
ENDBRANCH   2   3
ENDBRANCH   1   2
BRANCH   1  36
ATOM     36  C   UNL A   1      43.514  36.269  27.751  1.00  0.00     0.023 C 
BRANCH  36  37
ATOM     37  C   UNL A   1      42.918  35.115  26.945  1.00  0.00     0.116 C 
BRANCH  37  38
ATOM     38  N   UNL A   1      43.490  35.011  25.610  1.00  0.00    -0.352 N 
ATOM     39  C   UNL A   1      44.481  34.165  25.174  1.00  0.00     0.251 C 
ATOM     40  H   UNL A   1      43.118  35.623  24.935  1.00  0.00     0.163 HD
ATOM     41  O   UNL A   1      44.949  34.288  24.048  1.00  0.00    -0.269 OA
BRANCH  39  42
ATOM     42  C   UNL A   1      44.988  33.124  26.089  1.00  0.00     0.039 A 
ATOM     43  C   UNL A   1      46.087  33.411  26.900  1.00  0.00     0.014 A 
ATOM     44  C   UNL A   1      44.352  31.881  26.159  1.00  0.00     0.014 A 
ATOM     45  C   UNL A   1      46.521  32.463  27.828  1.00  0.00     0.010 A 
ATOM     46  C   UNL A   1      44.759  30.954  27.114  1.00  0.00     0.010 A 
ATOM     47  C   UNL A   1      45.848  31.238  27.953  1.00  0.00    -0.014 A 
BRANCH  47  48
ATOM     48  C   UNL A   1      46.278  30.229  28.950  1.00  0.00     0.031 A 
ATOM     49  C   UNL A   1      47.420  29.309  28.636  1.00  0.00     0.074 A 
ATOM     50  C   UNL A   1      45.602  30.106  30.109  1.00  0.00     0.049 A 
ATOM     51  N   UNL A   1      47.924  28.345  29.362  1.00  0.00    -0.248 NA
ATOM     52  C   UNL A   1      48.072  29.483  27.328  1.00  0.00     0.031 C 
ATOM     53  C   UNL A   1      44.449  30.917  30.500  1.00  0.00     0.029 A 
ATOM     54  N   UNL A   1      45.780  29.245  31.162  1.00  0.00    -0.354 N 
ATOM     55  C   UNL A   1      48.949  27.798  28.601  1.00  0.00     0.074 A 
ATOM     56  C   UNL A   1      48.960  28.499  27.337  1.00  0.00     0.031 C 
ATOM     57  C   UNL A   1      44.029  30.523  31.714  1.00  0.00     0.029 A 
ATOM     58  C   UNL A   1      44.867  29.417  32.176  1.00  0.00     0.049 A 
ATOM     59  H   UNL A   1      46.494  28.569  31.190  1.00  0.00     0.167 HD
ATOM     60  C   UNL A   1      49.818  26.817  28.938  1.00  0.00     0.034 A 
ATOM     61  C   UNL A   1      44.723  28.761  33.345  1.00  0.00     0.034 A 
ATOM     62  C   UNL A   1      49.807  26.135  30.205  1.00  0.00     0.049 A 
ATOM     63  C   UNL A   1      45.694  27.664  33.695  1.00  0.00     0.074 A 
ATOM     64  C   UNL A   1      50.682  25.166  30.661  1.00  0.00     0.029 A 
ATOM     65  N   UNL A   1      48.879  26.346  31.213  1.00  0.00    -0.354 N 
ATOM     66  N   UNL A   1      46.719  27.220  33.004  1.00  0.00    -0.248 NA
ATOM     67  C   UNL A   1      45.501  26.984  34.983  1.00  0.00     0.031 C 
ATOM     68  C   UNL A   1      50.260  24.764  31.931  1.00  0.00     0.029 A 
ATOM     69  C   UNL A   1      49.149  25.513  32.285  1.00  0.00     0.049 A 
ATOM     70  H   UNL A   1      48.138  26.994  31.175  1.00  0.00     0.167 HD
ATOM     71  C   UNL A   1      47.305  26.227  33.783  1.00  0.00     0.074 A 
ATOM     72  C   UNL A   1      46.532  26.146  35.005  1.00  0.00     0.031 C 
ATOM     73  C   UNL A   1      48.383  25.452  33.507  1.00  0.00     0.034 A 
BRANCH  60  74
ATOM     74  C   UNL A   1      50.882  26.440  27.942  1.00  0.00     0.023 A 
ATOM     75  C   UNL A   1      52.110  27.123  27.922  1.00  0.00     0.031 A 
ATOM     76  C   UNL A   1      50.639  25.468  26.956  1.00  0.00     0.131 A 
ATOM     77  C   UNL A   1      53.046  26.835  26.921  1.00  0.00     0.055 A 
ATOM     78  C   UNL A   1      51.587  25.163  25.980  1.00  0.00     0.041 A 
ATOM     79  F   UNL A   1      49.480  24.788  26.940  1.00  0.00    -0.206 F 
ATOM     80  C   UNL A   1      52.794  25.854  25.956  1.00  0.00     0.022 A 
BRANCH  77  81
ATOM     81  S   UNL A   1      54.616  27.735  26.817  1.00  0.00     0.124 S 
ATOM     82  O   UNL A   1      55.394  26.883  25.919  1.00  0.00    -0.237 OA
ATOM     83  O   UNL A   1      54.195  29.015  26.255  1.00  0.00    -0.237 OA
ATOM     84  O   UNL A   1      55.090  27.772  28.196  1.00  0.00    -0.744 OA
ENDBRANCH  77  81
ENDBRANCH  60  74
BRANCH  61  85
ATOM     85  C   UNL A   1      43.654  29.185  34.291  1.00  0.00     0.023 A 
ATOM     86  C   UNL A   1      43.923  30.079  35.342  1.00  0.00     0.031 A 
ATOM     87  C   UNL A   1      42.367  28.628  34.205  1.00  0.00     0.131 A 
ATOM     88  C   UNL A   1      42.930  30.348  36.292  1.00  0.00     0.055 A 
ATOM     89  C   UNL A   1      41.365  28.941  35.124  1.00  0.00     0.041 A 
ATOM     90  F   UNL A   1      42.071  27.763  33.222  1.00  0.00    -0.206 F 
ATOM     91  C   UNL A   1      41.649  29.798  36.183  1.00  0.00     0.022 A 
BRANCH  88  92
ATOM     92  S   UNL A   1      43.292  31.357  37.756  1.00  0.00     0.124 S 
ATOM     93  O   UNL A   1      41.954  31.640  38.269  1.00  0.00    -0.237 OA
ATOM     94  O   UNL A   1      44.091  30.431  38.552  1.00  0.00    -0.237 OA
ATOM     95  O   UNL A   1      44.010  32.502  37.209  1.00  0.00    -0.744 OA
ENDBRANCH  88  92
ENDBRANCH  61  85
BRANCH  73  96
ATOM     96  C   UNL A   1      48.823  24.439  34.532  1.00  0.00     0.023 A 
ATOM     97  C   UNL A   1      48.192  23.182  34.594  1.00  0.00     0.031 A 
ATOM     98  C   UNL A   1      49.745  24.776  35.536  1.00  0.00     0.131 A 
ATOM     99  C   UNL A   1      48.464  22.321  35.665  1.00  0.00     0.055 A 
ATOM    100  C   UNL A   1      50.043  23.897  36.579  1.00  0.00     0.041 A 
ATOM    101  F   UNL A   1      50.363  25.967  35.522  1.00  0.00    -0.206 F 
ATOM    102  C   UNL A   1      49.392  22.668  36.653  1.00  0.00     0.022 A 
BRANCH  99 103
ATOM    103  S   UNL A   1      47.576  20.750  35.851  1.00  0.00     0.124 S 
ATOM    104  O   UNL A   1      48.477  19.992  36.717  1.00  0.00    -0.237 OA
ATOM    105  O   UNL A   1      46.326  21.177  36.472  1.00  0.00    -0.237 OA
ATOM    106  O   UNL A   1      47.460  20.247  34.486  1.00  0.00    -0.744 OA
ENDBRANCH  99 103
ENDBRANCH  73  96
ENDBRANCH  47  48
ENDBRANCH  39  42
ENDBRANCH  37  38
ENDBRANCH  36  37
ENDBRANCH   1  36
TORSDOF 20
ENDMDL
MODEL 2
REMARK VINA RESULT:      -8.5      6.996     14.112
REMARK SMILES CCCn1c(N2CCC[C@@H](C)C2)c(/C=C2/SC(=S)N(CC(=O)NCCCCNC(=O)c3ccc(-c4c5nc(c(-c6cc(S(=O)(=O)[O-])ccc6F)c6ccc([nH]6)c(-c6cc(S(=O)(=O)[O-])ccc6F)c6nc(c(-c7cc(S(=O)(=O)[O-])ccc7F)c7ccc4[nH]7)C=C6)C=C5)cc3)C2=O)c(C)c(C#N)c1=O
REMARK SMILES IDX 25 1 24 2 23 3 21 4 22 5 20 7 19 8 14 9 15 10 16 11 94 12
REMARK SMILES IDX 17 13 95 14 18 15 13 16 4 17 5 18 101 19 98 20 102 21 96 22
REMARK SMILES IDX 97 23 3 24 2 25 1 26 6 27 7 28 12 29 8 30 10 31 9 32 11 33
REMARK SMILES IDX 99 34 100 35 26 36 27 37 28 38 29 39 30 41 31 42 32 43 93 44
REMARK SMILES IDX 33 45 92 46 34 47 35 48 36 49 86 50 37 51 91 52 85 53 87 54
REMARK SMILES IDX 38 55 90 56 84 57 83 58 39 60 71 61 51 62 70 63 52 64 55 65
REMARK SMILES IDX 69 66 88 67 53 68 54 69 68 71 89 72 56 73 40 74 41 75 49 76
REMARK SMILES IDX 42 77 48 78 50 79 47 80 43 81 44 82 45 83 46 84 72 85 73 86
REMARK SMILES IDX 81 87 74 88 80 89 82 90 79 91 75 92 76 93 77 94 78 95 57 96
REMARK SMILES IDX 58 97 66 98 59 99 65 100 67 101 64 102 60 103 61 104 62 105
REMARK SMILES IDX 63 106
REMARK H PARENT 23 6 28 40 87 59 55 70
REMARK Flexibility Score: inf
ROOT
ATOM      1  C   UNL A   1      48.034  35.889  26.810  1.00  0.00     0.023 C 
ENDROOT
BRANCH   1   2
ATOM      2  C   UNL A   1      47.606  36.964  25.816  1.00  0.00     0.116 C 
BRANCH   2   3
ATOM      3  N   UNL A   1      46.538  37.798  26.323  1.00  0.00    -0.355 N 
ATOM      4  C   UNL A   1      46.094  39.010  25.877  1.00  0.00     0.240 C 
ATOM      5  O   UNL A   1      44.973  39.374  26.237  1.00  0.00    -0.273 OA
ATOM      6  H   UNL A   1      46.060  37.439  27.105  1.00  0.00     0.163 HD
BRANCH   4   7
ATOM      7  C   UNL A   1      46.892  39.829  24.853  1.00  0.00     0.227 C 
BRANCH   7   8
ATOM      8  N   UNL A   1      46.862  41.268  25.121  1.00  0.00    -0.283 N 
ATOM      9  C   UNL A   1      46.024  44.549  23.791  1.00  0.00     0.033 C 
ATOM     10  C   UNL A   1      46.490  43.513  24.507  1.00  0.00     0.081 C 
ATOM     11  S   UNL A   1      47.008  43.631  26.143  1.00  0.00    -0.054 SA
ATOM     12  C   UNL A   1      46.611  42.103  24.048  1.00  0.00     0.266 C 
ATOM     13  C   UNL A   1      47.241  41.889  26.289  1.00  0.00     0.148 C 
ATOM     14  O   UNL A   1      46.540  41.748  22.879  1.00  0.00    -0.268 OA
ATOM     15  S   UNL A   1      47.874  41.206  27.673  1.00  0.00    -0.052 S 
BRANCH   9  16
ATOM     16  C   UNL A   1      45.511  44.475  22.416  1.00  0.00     0.021 A 
ATOM     17  N   UNL A   1      45.754  44.721  20.046  1.00  0.00    -0.293 N 
ATOM     18  C   UNL A   1      46.319  44.782  21.345  1.00  0.00     0.119 A 
ATOM     19  C   UNL A   1      44.393  44.494  19.819  1.00  0.00     0.270 A 
ATOM     20  C   UNL A   1      43.615  43.982  20.952  1.00  0.00     0.121 A 
ATOM     21  O   UNL A   1      43.829  44.724  18.751  1.00  0.00    -0.268 OA
ATOM     22  C   UNL A   1      44.109  44.070  22.197  1.00  0.00    -0.017 A 
ATOM     23  C   UNL A   1      43.233  43.811  23.408  1.00  0.00     0.047 C 
BRANCH  17  24
ATOM     24  C   UNL A   1      46.553  44.951  18.836  1.00  0.00     0.127 C 
BRANCH  24  25
ATOM     25  C   UNL A   1      46.870  46.427  18.535  1.00  0.00     0.019 C 
ATOM     26  C   UNL A   1      45.986  47.086  17.484  1.00  0.00     0.006 C 
ENDBRANCH  24  25
ENDBRANCH  17  24
BRANCH  18  27
ATOM     27  N   UNL A   1      47.663  45.220  21.514  1.00  0.00    -0.357 N 
ATOM     28  C   UNL A   1      47.924  46.522  22.161  1.00  0.00     0.118 C 
ATOM     29  C   UNL A   1      48.799  44.284  21.610  1.00  0.00     0.121 C 
ATOM     30  C   UNL A   1      49.177  47.168  21.569  1.00  0.00     0.022 C 
ATOM     31  C   UNL A   1      50.103  44.883  21.075  1.00  0.00     0.005 C 
ATOM     32  C   UNL A   1      50.385  46.249  21.709  1.00  0.00     0.007 C 
ATOM     33  C   UNL A   1      51.262  43.923  21.354  1.00  0.00     0.009 C 
ENDBRANCH  18  27
BRANCH  20  34
ATOM     34  C   UNL A   1      42.170  43.556  20.750  1.00  0.00     0.105 C 
ATOM     35  N   UNL A   1      40.971  43.203  20.584  1.00  0.00    -0.192 NA
ENDBRANCH  20  34
ENDBRANCH   9  16
ENDBRANCH   7   8
ENDBRANCH   4   7
ENDBRANCH   2   3
ENDBRANCH   1   2
BRANCH   1  36
ATOM     36  C   UNL A   1      48.049  34.467  26.242  1.00  0.00     0.023 C 
BRANCH  36  37
ATOM     37  C   UNL A   1      46.753  33.679  26.429  1.00  0.00     0.116 C 
BRANCH  37  38
ATOM     38  N   UNL A   1      45.700  34.109  25.519  1.00  0.00    -0.352 N 
ATOM     39  C   UNL A   1      44.378  34.353  25.804  1.00  0.00     0.251 C 
ATOM     40  H   UNL A   1      45.970  34.242  24.582  1.00  0.00     0.163 HD
ATOM     41  O   UNL A   1      43.581  34.581  24.901  1.00  0.00    -0.269 OA
BRANCH  39  42
ATOM     42  C   UNL A   1      43.930  34.312  27.209  1.00  0.00     0.039 A 
ATOM     43  C   UNL A   1      43.709  35.513  27.886  1.00  0.00     0.014 A 
ATOM     44  C   UNL A   1      43.703  33.084  27.838  1.00  0.00     0.014 A 
ATOM     45  C   UNL A   1      43.205  35.483  29.188  1.00  0.00     0.010 A 
ATOM     46  C   UNL A   1      43.160  33.058  29.119  1.00  0.00     0.010 A 
ATOM     47  C   UNL A   1      42.910  34.257  29.804  1.00  0.00    -0.014 A 
BRANCH  47  48
ATOM     48  C   UNL A   1      42.350  34.207  31.175  1.00  0.00     0.031 A 
ATOM     49  C   UNL A   1      40.865  34.262  31.378  1.00  0.00     0.074 A 
ATOM     50  C   UNL A   1      43.182  34.170  32.234  1.00  0.00     0.049 A 
ATOM     51  N   UNL A   1      40.186  34.260  32.495  1.00  0.00    -0.248 NA
ATOM     52  C   UNL A   1      40.033  34.347  30.167  1.00  0.00     0.031 C 
ATOM     53  C   UNL A   1      44.643  34.159  32.157  1.00  0.00     0.029 A 
ATOM     54  N   UNL A   1      42.918  34.150  33.580  1.00  0.00    -0.354 N 
ATOM     55  C   UNL A   1      38.851  34.344  32.124  1.00  0.00     0.074 A 
ATOM     56  C   UNL A   1      38.816  34.451  30.683  1.00  0.00     0.031 C 
ATOM     57  C   UNL A   1      45.146  34.120  33.401  1.00  0.00     0.029 A 
ATOM     58  C   UNL A   1      44.047  34.129  34.365  1.00  0.00     0.049 A 
ATOM     59  H   UNL A   1      42.005  34.150  33.950  1.00  0.00     0.167 HD
ATOM     60  C   UNL A   1      37.752  34.310  32.913  1.00  0.00     0.034 A 
ATOM     61  C   UNL A   1      44.180  34.117  35.706  1.00  0.00     0.034 A 
ATOM     62  C   UNL A   1      37.797  34.190  34.346  1.00  0.00     0.049 A 
ATOM     63  C   UNL A   1      42.944  34.091  36.566  1.00  0.00     0.074 A 
ATOM     64  C   UNL A   1      36.737  34.089  35.229  1.00  0.00     0.029 A 
ATOM     65  N   UNL A   1      38.957  34.155  35.105  1.00  0.00    -0.354 N 
ATOM     66  N   UNL A   1      41.684  34.076  36.197  1.00  0.00    -0.248 NA
ATOM     67  C   UNL A   1      43.142  34.069  38.023  1.00  0.00     0.031 C 
ATOM     68  C   UNL A   1      37.255  34.033  36.525  1.00  0.00     0.029 A 
ATOM     69  C   UNL A   1      38.640  34.053  36.449  1.00  0.00     0.049 A 
ATOM     70  H   UNL A   1      39.872  34.195  34.743  1.00  0.00     0.167 HD
ATOM     71  C   UNL A   1      40.941  34.020  37.372  1.00  0.00     0.074 A 
ATOM     72  C   UNL A   1      41.892  33.986  38.465  1.00  0.00     0.031 C 
ATOM     73  C   UNL A   1      39.594  34.002  37.530  1.00  0.00     0.034 A 
BRANCH  60  74
ATOM     74  C   UNL A   1      36.402  34.365  32.251  1.00  0.00     0.023 A 
ATOM     75  C   UNL A   1      35.595  35.509  32.379  1.00  0.00     0.031 A 
ATOM     76  C   UNL A   1      35.881  33.249  31.573  1.00  0.00     0.131 A 
ATOM     77  C   UNL A   1      34.298  35.504  31.850  1.00  0.00     0.055 A 
ATOM     78  C   UNL A   1      34.601  33.261  31.020  1.00  0.00     0.041 A 
ATOM     79  F   UNL A   1      36.619  32.137  31.423  1.00  0.00    -0.206 F 
ATOM     80  C   UNL A   1      33.801  34.390  31.165  1.00  0.00     0.022 A 
BRANCH  77  81
ATOM     81  S   UNL A   1      33.199  36.932  32.047  1.00  0.00     0.124 S 
ATOM     82  O   UNL A   1      32.958  37.321  30.658  1.00  0.00    -0.237 OA
ATOM     83  O   UNL A   1      32.056  36.342  32.737  1.00  0.00    -0.237 OA
ATOM     84  O   UNL A   1      33.991  37.879  32.823  1.00  0.00    -0.744 OA
ENDBRANCH  77  81
ENDBRANCH  60  74
BRANCH  61  85
ATOM     85  C   UNL A   1      45.545  34.056  36.301  1.00  0.00     0.023 A 
ATOM     86  C   UNL A   1      46.168  32.826  36.571  1.00  0.00     0.031 A 
ATOM     87  C   UNL A   1      46.204  35.235  36.689  1.00  0.00     0.131 A 
ATOM     88  C   UNL A   1      47.390  32.805  37.255  1.00  0.00     0.055 A 
ATOM     89  C   UNL A   1      47.446  35.210  37.323  1.00  0.00     0.041 A 
ATOM     90  F   UNL A   1      45.639  36.431  36.458  1.00  0.00    -0.206 F 
ATOM     91  C   UNL A   1      48.041  33.988  37.620  1.00  0.00     0.022 A 
BRANCH  88  92
ATOM     92  S   UNL A   1      48.138  31.237  37.775  1.00  0.00     0.124 S 
ATOM     93  O   UNL A   1      49.546  31.449  37.450  1.00  0.00    -0.237 OA
ATOM     94  O   UNL A   1      47.814  31.221  39.198  1.00  0.00    -0.237 OA
ATOM     95  O   UNL A   1      47.448  30.244  36.959  1.00  0.00    -0.744 OA
ENDBRANCH  88  92
ENDBRANCH  61  85
BRANCH  73  96
ATOM     96  C   UNL A   1      39.034  33.935  38.927  1.00  0.00     0.023 A 
ATOM     97  C   UNL A   1      38.424  32.751  39.384  1.00  0.00     0.031 A 
ATOM     98  C   UNL A   1      38.965  35.080  39.737  1.00  0.00     0.131 A 
ATOM     99  C   UNL A   1      37.734  32.751  40.603  1.00  0.00     0.055 A 
ATOM    100  C   UNL A   1      38.312  35.064  40.971  1.00  0.00     0.041 A 
ATOM    101  F   UNL A   1      39.525  36.233  39.338  1.00  0.00    -0.206 F 
ATOM    102  C   UNL A   1      37.682  33.899  41.402  1.00  0.00     0.022 A 
BRANCH  99 103
ATOM    103  S   UNL A   1      36.825  31.286  41.163  1.00  0.00     0.124 S 
ATOM    104  O   UNL A   1      35.881  31.076  40.068  1.00  0.00    -0.237 OA
ATOM    105  O   UNL A   1      37.887  30.290  41.272  1.00  0.00    -0.237 OA
ATOM    106  O   UNL A   1      36.224  31.706  42.426  1.00  0.00    -0.744 OA
ENDBRANCH  99 103
ENDBRANCH  73  96
ENDBRANCH  47  48
ENDBRANCH  39  42
ENDBRANCH  37  38
ENDBRANCH  36  37
ENDBRANCH   1  36
TORSDOF 20
ENDMDL
MODEL 3
REMARK VINA RESULT:      -8.5      6.649     12.903
REMARK SMILES CCCn1c(N2CCC[C@@H](C)C2)c(/C=C2/SC(=S)N(CC(=O)NCCCCNC(=O)c3ccc(-c4c5nc(c(-c6cc(S(=O)(=O)[O-])ccc6F)c6ccc([nH]6)c(-c6cc(S(=O)(=O)[O-])ccc6F)c6nc(c(-c7cc(S(=O)(=O)[O-])ccc7F)c7ccc4[nH]7)C=C6)C=C5)cc3)C2=O)c(C)c(C#N)c1=O
REMARK SMILES IDX 25 1 24 2 23 3 21 4 22 5 20 7 19 8 14 9 15 10 16 11 94 12
REMARK SMILES IDX 17 13 95 14 18 15 13 16 4 17 5 18 101 19 98 20 102 21 96 22
REMARK SMILES IDX 97 23 3 24 2 25 1 26 6 27 7 28 12 29 8 30 10 31 9 32 11 33
REMARK SMILES IDX 99 34 100 35 26 36 27 37 28 38 29 39 30 41 31 42 32 43 93 44
REMARK SMILES IDX 33 45 92 46 34 47 35 48 36 49 86 50 37 51 91 52 85 53 87 54
REMARK SMILES IDX 38 55 90 56 84 57 83 58 39 60 71 61 51 62 70 63 52 64 55 65
REMARK SMILES IDX 69 66 88 67 53 68 54 69 68 71 89 72 56 73 40 74 41 75 49 76
REMARK SMILES IDX 42 77 48 78 50 79 47 80 43 81 44 82 45 83 46 84 72 85 73 86
REMARK SMILES IDX 81 87 74 88 80 89 82 90 79 91 75 92 76 93 77 94 78 95 57 96
REMARK SMILES IDX 58 97 66 98 59 99 65 100 67 101 64 102 60 103 61 104 62 105
REMARK SMILES IDX 63 106
REMARK H PARENT 23 6 28 40 87 59 55 70
REMARK Flexibility Score: inf
ROOT
ATOM      1  C   UNL A   1      47.822  37.758  26.907  1.00  0.00     0.023 C 
ENDROOT
BRANCH   1   2
ATOM      2  C   UNL A   1      47.091  38.130  25.621  1.00  0.00     0.116 C 
BRANCH   2   3
ATOM      3  N   UNL A   1      46.535  39.466  25.663  1.00  0.00    -0.355 N 
ATOM      4  C   UNL A   1      45.370  39.905  26.222  1.00  0.00     0.240 C 
ATOM      5  O   UNL A   1      45.261  41.114  26.436  1.00  0.00    -0.273 OA
ATOM      6  H   UNL A   1      47.077  40.159  25.223  1.00  0.00     0.163 HD
BRANCH   4   7
ATOM      7  C   UNL A   1      44.291  38.925  26.702  1.00  0.00     0.227 C 
BRANCH   7   8
ATOM      8  N   UNL A   1      43.423  39.488  27.738  1.00  0.00    -0.283 N 
ATOM      9  C   UNL A   1      43.206  40.581  31.201  1.00  0.00     0.033 C 
ATOM     10  C   UNL A   1      42.961  40.194  29.939  1.00  0.00     0.081 C 
ATOM     11  S   UNL A   1      41.488  40.503  29.107  1.00  0.00    -0.054 SA
ATOM     12  C   UNL A   1      43.901  39.478  29.034  1.00  0.00     0.266 C 
ATOM     13  C   UNL A   1      42.106  39.858  27.586  1.00  0.00     0.148 C 
ATOM     14  O   UNL A   1      44.928  38.924  29.404  1.00  0.00    -0.268 OA
ATOM     15  S   UNL A   1      41.136  39.724  26.236  1.00  0.00    -0.052 S 
BRANCH   9  16
ATOM     16  C   UNL A   1      44.473  40.396  31.920  1.00  0.00     0.021 A 
ATOM     17  N   UNL A   1      46.661  41.112  32.579  1.00  0.00    -0.293 N 
ATOM     18  C   UNL A   1      45.449  41.366  31.890  1.00  0.00     0.119 A 
ATOM     19  C   UNL A   1      46.956  39.880  33.171  1.00  0.00     0.270 A 
ATOM     20  C   UNL A   1      45.833  38.954  33.353  1.00  0.00     0.121 A 
ATOM     21  O   UNL A   1      48.086  39.535  33.510  1.00  0.00    -0.268 OA
ATOM     22  C   UNL A   1      44.690  39.148  32.676  1.00  0.00    -0.017 A 
ATOM     23  C   UNL A   1      43.619  38.074  32.623  1.00  0.00     0.047 C 
BRANCH  17  24
ATOM     24  C   UNL A   1      47.730  42.115  32.675  1.00  0.00     0.127 C 
BRANCH  24  25
ATOM     25  C   UNL A   1      47.891  42.766  34.060  1.00  0.00     0.019 C 
ATOM     26  C   UNL A   1      47.947  44.288  34.066  1.00  0.00     0.006 C 
ENDBRANCH  24  25
ENDBRANCH  17  24
BRANCH  18  27
ATOM     27  N   UNL A   1      45.298  42.565  31.137  1.00  0.00    -0.357 N 
ATOM     28  C   UNL A   1      44.849  43.797  31.818  1.00  0.00     0.118 C 
ATOM     29  C   UNL A   1      46.054  42.827  29.898  1.00  0.00     0.121 C 
ATOM     30  C   UNL A   1      44.009  44.652  30.870  1.00  0.00     0.022 C 
ATOM     31  C   UNL A   1      45.288  43.719  28.918  1.00  0.00     0.005 C 
ATOM     32  C   UNL A   1      44.787  44.993  29.605  1.00  0.00     0.007 C 
ATOM     33  C   UNL A   1      46.192  44.079  27.736  1.00  0.00     0.009 C 
ENDBRANCH  18  27
BRANCH  20  34
ATOM     34  C   UNL A   1      46.032  37.663  34.131  1.00  0.00     0.105 C 
ATOM     35  N   UNL A   1      46.196  36.592  34.775  1.00  0.00    -0.192 NA
ENDBRANCH  20  34
ENDBRANCH   9  16
ENDBRANCH   7   8
ENDBRANCH   4   7
ENDBRANCH   2   3
ENDBRANCH   1   2
BRANCH   1  36
ATOM     36  C   UNL A   1      47.022  36.860  27.856  1.00  0.00     0.023 C 
BRANCH  36  37
ATOM     37  C   UNL A   1      46.877  35.407  27.407  1.00  0.00     0.116 C 
BRANCH  37  38
ATOM     38  N   UNL A   1      45.883  35.243  26.356  1.00  0.00    -0.352 N 
ATOM     39  C   UNL A   1      44.574  34.844  26.479  1.00  0.00     0.251 C 
ATOM     40  H   UNL A   1      46.187  35.444  25.442  1.00  0.00     0.163 HD
ATOM     41  O   UNL A   1      43.896  34.624  25.482  1.00  0.00    -0.269 OA
BRANCH  39  42
ATOM     42  C   UNL A   1      44.006  34.661  27.829  1.00  0.00     0.039 A 
ATOM     43  C   UNL A   1      43.636  35.787  28.568  1.00  0.00     0.014 A 
ATOM     44  C   UNL A   1      43.815  33.375  28.342  1.00  0.00     0.014 A 
ATOM     45  C   UNL A   1      43.022  35.620  29.810  1.00  0.00     0.010 A 
ATOM     46  C   UNL A   1      43.164  33.210  29.560  1.00  0.00     0.010 A 
ATOM     47  C   UNL A   1      42.765  34.332  30.304  1.00  0.00    -0.014 A 
BRANCH  47  48
ATOM     48  C   UNL A   1      42.090  34.135  31.609  1.00  0.00     0.031 A 
ATOM     49  C   UNL A   1      40.597  34.248  31.701  1.00  0.00     0.074 A 
ATOM     50  C   UNL A   1      42.827  33.913  32.714  1.00  0.00     0.049 A 
ATOM     51  N   UNL A   1      39.827  34.139  32.752  1.00  0.00    -0.248 NA
ATOM     52  C   UNL A   1      39.875  34.538  30.452  1.00  0.00     0.031 C 
ATOM     53  C   UNL A   1      44.287  33.828  32.749  1.00  0.00     0.029 A 
ATOM     54  N   UNL A   1      42.449  33.732  34.020  1.00  0.00    -0.354 N 
ATOM     55  C   UNL A   1      38.533  34.347  32.294  1.00  0.00     0.074 A 
ATOM     56  C   UNL A   1      38.625  34.643  30.882  1.00  0.00     0.031 C 
ATOM     57  C   UNL A   1      44.681  33.598  34.012  1.00  0.00     0.029 A 
ATOM     58  C   UNL A   1      43.506  33.545  34.880  1.00  0.00     0.049 A 
ATOM     59  H   UNL A   1      41.510  33.736  34.315  1.00  0.00     0.167 HD
ATOM     60  C   UNL A   1      37.371  34.273  32.984  1.00  0.00     0.034 A 
ATOM     61  C   UNL A   1      43.525  33.350  36.214  1.00  0.00     0.034 A 
ATOM     62  C   UNL A   1      37.290  33.965  34.387  1.00  0.00     0.049 A 
ATOM     63  C   UNL A   1      42.221  33.282  36.964  1.00  0.00     0.074 A 
ATOM     64  C   UNL A   1      36.155  33.810  35.163  1.00  0.00     0.029 A 
ATOM     65  N   UNL A   1      38.379  33.764  35.222  1.00  0.00    -0.354 N 
ATOM     66  N   UNL A   1      40.998  33.387  36.500  1.00  0.00    -0.248 NA
ATOM     67  C   UNL A   1      42.294  33.060  38.416  1.00  0.00     0.031 C 
ATOM     68  C   UNL A   1      36.560  33.556  36.476  1.00  0.00     0.029 A 
ATOM     69  C   UNL A   1      37.945  33.506  36.510  1.00  0.00     0.049 A 
ATOM     70  H   UNL A   1      39.322  33.799  34.940  1.00  0.00     0.167 HD
ATOM     71  C   UNL A   1      40.157  33.221  37.596  1.00  0.00     0.074 A 
ATOM     72  C   UNL A   1      41.009  32.991  38.744  1.00  0.00     0.031 C 
ATOM     73  C   UNL A   1      38.801  33.260  37.645  1.00  0.00     0.034 A 
BRANCH  60  74
ATOM     74  C   UNL A   1      36.086  34.492  32.233  1.00  0.00     0.023 A 
ATOM     75  C   UNL A   1      35.337  35.665  32.433  1.00  0.00     0.031 A 
ATOM     76  C   UNL A   1      35.559  33.495  31.392  1.00  0.00     0.131 A 
ATOM     77  C   UNL A   1      34.091  35.805  31.810  1.00  0.00     0.055 A 
ATOM     78  C   UNL A   1      34.332  33.654  30.750  1.00  0.00     0.041 A 
ATOM     79  F   UNL A   1      36.242  32.360  31.169  1.00  0.00    -0.206 F 
ATOM     80  C   UNL A   1      33.588  34.810  30.964  1.00  0.00     0.022 A 
BRANCH  77  81
ATOM     81  S   UNL A   1      33.063  37.272  32.089  1.00  0.00     0.124 S 
ATOM     82  O   UNL A   1      33.918  38.080  32.956  1.00  0.00    -0.237 OA
ATOM     83  O   UNL A   1      32.888  37.782  30.732  1.00  0.00    -0.237 OA
ATOM     84  O   UNL A   1      31.863  36.742  32.727  1.00  0.00    -0.744 OA
ENDBRANCH  77  81
ENDBRANCH  60  74
BRANCH  61  85
ATOM     85  C   UNL A   1      44.830  33.134  36.899  1.00  0.00     0.023 A 
ATOM     86  C   UNL A   1      45.397  31.852  37.000  1.00  0.00     0.031 A 
ATOM     87  C   UNL A   1      45.482  34.202  37.540  1.00  0.00     0.131 A 
ATOM     88  C   UNL A   1      46.554  31.665  37.768  1.00  0.00     0.055 A 
ATOM     89  C   UNL A   1      46.663  34.019  38.259  1.00  0.00     0.041 A 
ATOM     90  F   UNL A   1      44.969  35.440  37.475  1.00  0.00    -0.206 F 
ATOM     91  C   UNL A   1      47.199  32.741  38.385  1.00  0.00     0.022 A 
BRANCH  88  92
ATOM     92  S   UNL A   1      47.215  30.003  38.065  1.00  0.00     0.124 S 
ATOM     93  O   UNL A   1      46.000  29.193  38.101  1.00  0.00    -0.237 OA
ATOM     94  O   UNL A   1      48.063  29.817  36.892  1.00  0.00    -0.237 OA
ATOM     95  O   UNL A   1      47.916  30.139  39.336  1.00  0.00    -0.744 OA
ENDBRANCH  88  92
ENDBRANCH  61  85
BRANCH  73  96
ATOM     96  C   UNL A   1      38.123  33.044  38.973  1.00  0.00     0.023 A 
ATOM     97  C   UNL A   1      38.282  33.988  40.005  1.00  0.00     0.031 A 
ATOM     98  C   UNL A   1      37.458  31.841  39.261  1.00  0.00     0.131 A 
ATOM     99  C   UNL A   1      37.817  33.693  41.293  1.00  0.00     0.055 A 
ATOM    100  C   UNL A   1      36.959  31.570  40.537  1.00  0.00     0.041 A 
ATOM    101  F   UNL A   1      37.291  30.909  38.310  1.00  0.00    -0.206 F 
ATOM    102  C   UNL A   1      37.149  32.493  41.562  1.00  0.00     0.022 A 
BRANCH  99 103
ATOM    103  S   UNL A   1      38.118  34.824  42.679  1.00  0.00     0.124 S 
ATOM    104  O   UNL A   1      36.820  34.835  43.350  1.00  0.00    -0.237 OA
ATOM    105  O   UNL A   1      39.188  34.143  43.401  1.00  0.00    -0.237 OA
ATOM    106  O   UNL A   1      38.493  36.078  42.034  1.00  0.00    -0.744 OA
ENDBRANCH  99 103
ENDBRANCH  73  96
ENDBRANCH  47  48
ENDBRANCH  39  42
ENDBRANCH  37  38
ENDBRANCH  36  37
ENDBRANCH   1  36
TORSDOF 20
ENDMDL
