MODEL 1
REMARK VINA RESULT:     -12.5      0.000      0.000
REMARK SMILES Cc1c(Br)c(C)c2c(c1Br)O[C@H](C(F)(F)F)C(C(=O)NCCCCNC(=O)c1ccc(-c3c4nc(c(-c5cc(S(=O)(=O)[O-])ccc5F)c5ccc([nH]5)c(-c5cc(S(=O)(=O)[O-])ccc5F)c5nc(c(-c6cc(S(=O)(=O)[O-])ccc6F)c6ccc3[nH]6)C=C5)C=C4)cc1)=C2
REMARK SMILES IDX 23 1 22 2 21 3 20 4 18 5 19 6 17 8 1 9 2 10 3 11 9 12 4 13
REMARK SMILES IDX 5 14 8 15 10 16 6 17 7 18 11 19 91 20 12 21 13 22 14 23
REMARK SMILES IDX 15 24 16 25 24 26 25 27 26 28 27 30 28 31 29 32 90 33 30 34
REMARK SMILES IDX 89 35 31 36 32 37 33 38 83 39 34 40 88 41 82 42 84 43 35 44
REMARK SMILES IDX 87 45 81 46 80 47 36 49 68 50 48 51 67 52 49 53 52 54 66 55
REMARK SMILES IDX 85 56 50 57 51 58 65 60 86 61 53 62 37 63 38 64 46 65 39 66
REMARK SMILES IDX 45 67 47 68 44 69 40 70 41 71 42 72 43 73 69 74 70 75 78 76
REMARK SMILES IDX 71 77 77 78 79 79 76 80 72 81 73 82 74 83 75 84 54 85 55 86
REMARK SMILES IDX 63 87 56 88 62 89 64 90 61 91 57 92 58 93 59 94 60 95
REMARK H PARENT 20 7 25 29 84 48 52 59
REMARK Flexibility Score: inf
ROOT
ATOM      1  C   UNL A   1      31.903  31.485  26.806  1.00  0.00     0.023 C 
ENDROOT
BRANCH   1   2
ATOM      2  C   UNL A   1      32.095  29.981  27.016  1.00  0.00     0.023 C 
BRANCH   2   3
ATOM      3  C   UNL A   1      33.524  29.499  26.780  1.00  0.00     0.116 C 
BRANCH   3   4
ATOM      4  N   UNL A   1      33.804  29.314  25.368  1.00  0.00    -0.352 N 
ATOM      5  C   UNL A   1      33.758  28.295  24.479  1.00  0.00     0.251 C 
ATOM      6  O   UNL A   1      34.114  28.579  23.331  1.00  0.00    -0.270 OA
ATOM      7  H   UNL A   1      34.105  30.151  24.944  1.00  0.00     0.163 HD
BRANCH   5   8
ATOM      8  C   UNL A   1      33.315  26.901  24.786  1.00  0.00     0.067 C 
ATOM      9  C   UNL A   1      32.805  20.485  26.067  1.00  0.00     0.047 C 
ATOM     10  C   UNL A   1      33.225  21.898  25.734  1.00  0.00    -0.019 A 
ATOM     11  C   UNL A   1      34.528  22.201  25.262  1.00  0.00     0.025 A 
ATOM     12  C   UNL A   1      32.295  22.951  25.830  1.00  0.00     0.064 A 
ATOM     13  Br  UNL A   1      35.780  20.766  25.008  1.00  0.00    -0.050 Br
ATOM     14  C   UNL A   1      34.917  23.532  24.957  1.00  0.00    -0.026 A 
ATOM     15  C   UNL A   1      32.667  24.270  25.528  1.00  0.00     0.142 A 
ATOM     16  Br  UNL A   1      30.473  22.623  26.331  1.00  0.00    -0.046 Br
ATOM     17  C   UNL A   1      36.309  23.886  24.477  1.00  0.00     0.046 C 
ATOM     18  C   UNL A   1      33.969  24.572  25.115  1.00  0.00     0.022 A 
ATOM     19  O   UNL A   1      31.726  25.251  25.705  1.00  0.00    -0.474 OA
ATOM     20  C   UNL A   1      34.297  25.985  24.879  1.00  0.00     0.026 C 
ATOM     21  C   UNL A   1      31.891  26.474  24.944  1.00  0.00     0.314 C 
BRANCH  21  22
ATOM     22  C   UNL A   1      31.145  26.360  23.602  1.00  0.00     0.429 C 
ATOM     23  F   UNL A   1      30.392  25.233  23.570  1.00  0.00    -0.167 F 
ATOM     24  F   UNL A   1      30.300  27.395  23.390  1.00  0.00    -0.167 F 
ATOM     25  F   UNL A   1      31.987  26.314  22.544  1.00  0.00    -0.167 F 
ENDBRANCH  21  22
ENDBRANCH   5   8
ENDBRANCH   3   4
ENDBRANCH   2   3
ENDBRANCH   1   2
BRANCH   1  26
ATOM     26  C   UNL A   1      33.022  32.372  27.349  1.00  0.00     0.116 C 
BRANCH  26  27
ATOM     27  N   UNL A   1      32.607  33.743  27.610  1.00  0.00    -0.352 N 
ATOM     28  C   UNL A   1      33.108  34.614  28.546  1.00  0.00     0.251 C 
ATOM     29  H   UNL A   1      31.878  34.087  27.045  1.00  0.00     0.163 HD
ATOM     30  O   UNL A   1      32.595  35.718  28.702  1.00  0.00    -0.269 OA
BRANCH  28  31
ATOM     31  C   UNL A   1      34.238  34.177  29.384  1.00  0.00     0.039 A 
ATOM     32  C   UNL A   1      33.975  33.421  30.527  1.00  0.00     0.014 A 
ATOM     33  C   UNL A   1      35.552  34.449  28.991  1.00  0.00     0.014 A 
ATOM     34  C   UNL A   1      35.037  32.876  31.245  1.00  0.00     0.010 A 
ATOM     35  C   UNL A   1      36.608  33.854  29.673  1.00  0.00     0.010 A 
ATOM     36  C   UNL A   1      36.358  33.061  30.803  1.00  0.00    -0.014 A 
BRANCH  36  37
ATOM     37  C   UNL A   1      37.493  32.443  31.530  1.00  0.00     0.031 A 
ATOM     38  C   UNL A   1      38.246  31.305  30.904  1.00  0.00     0.074 A 
ATOM     39  C   UNL A   1      37.819  32.888  32.759  1.00  0.00     0.049 A 
ATOM     40  N   UNL A   1      39.242  30.611  31.387  1.00  0.00    -0.248 NA
ATOM     41  C   UNL A   1      37.800  30.876  29.570  1.00  0.00     0.031 C 
ATOM     42  C   UNL A   1      37.135  33.964  33.480  1.00  0.00     0.029 A 
ATOM     43  N   UNL A   1      38.814  32.495  33.616  1.00  0.00    -0.354 N 
ATOM     44  C   UNL A   1      39.542  29.661  30.419  1.00  0.00     0.074 A 
ATOM     45  C   UNL A   1      38.578  29.827  29.352  1.00  0.00     0.031 C 
ATOM     46  C   UNL A   1      37.759  34.174  34.651  1.00  0.00     0.029 A 
ATOM     47  C   UNL A   1      38.863  33.228  34.778  1.00  0.00     0.049 A 
ATOM     48  H   UNL A   1      39.435  31.757  33.419  1.00  0.00     0.167 HD
ATOM     49  C   UNL A   1      40.548  28.754  30.405  1.00  0.00     0.034 A 
ATOM     50  C   UNL A   1      39.708  33.149  35.824  1.00  0.00     0.034 A 
ATOM     51  C   UNL A   1      41.515  28.615  31.462  1.00  0.00     0.049 A 
ATOM     52  C   UNL A   1      40.800  32.114  35.803  1.00  0.00     0.074 A 
ATOM     53  C   UNL A   1      42.604  27.766  31.530  1.00  0.00     0.029 A 
ATOM     54  N   UNL A   1      41.506  29.348  32.642  1.00  0.00    -0.354 N 
ATOM     55  N   UNL A   1      41.080  31.233  34.871  1.00  0.00    -0.248 NA
ATOM     56  C   UNL A   1      41.686  32.060  36.973  1.00  0.00     0.031 C 
ATOM     57  C   UNL A   1      43.229  27.953  32.768  1.00  0.00     0.029 A 
ATOM     58  C   UNL A   1      42.557  28.953  33.453  1.00  0.00     0.049 A 
ATOM     59  H   UNL A   1      40.850  30.045  32.868  1.00  0.00     0.167 HD
ATOM     60  C   UNL A   1      42.181  30.524  35.340  1.00  0.00     0.074 A 
ATOM     61  C   UNL A   1      42.518  31.085  36.634  1.00  0.00     0.031 C 
ATOM     62  C   UNL A   1      42.856  29.507  34.750  1.00  0.00     0.034 A 
BRANCH  49  63
ATOM     63  C   UNL A   1      40.636  27.847  29.208  1.00  0.00     0.023 A 
ATOM     64  C   UNL A   1      41.566  28.084  28.181  1.00  0.00     0.031 A 
ATOM     65  C   UNL A   1      39.757  26.760  29.069  1.00  0.00     0.131 A 
ATOM     66  C   UNL A   1      41.549  27.290  27.026  1.00  0.00     0.055 A 
ATOM     67  C   UNL A   1      39.793  25.927  27.948  1.00  0.00     0.041 A 
ATOM     68  F   UNL A   1      38.836  26.500  30.010  1.00  0.00    -0.206 F 
ATOM     69  C   UNL A   1      40.684  26.199  26.912  1.00  0.00     0.022 A 
BRANCH  66  70
ATOM     70  S   UNL A   1      42.595  27.774  25.627  1.00  0.00     0.124 S 
ATOM     71  O   UNL A   1      43.854  28.086  26.298  1.00  0.00    -0.237 OA
ATOM     72  O   UNL A   1      42.593  26.575  24.797  1.00  0.00    -0.237 OA
ATOM     73  O   UNL A   1      41.895  28.925  25.060  1.00  0.00    -0.744 OA
ENDBRANCH  66  70
ENDBRANCH  49  63
BRANCH  50  74
ATOM     74  C   UNL A   1      39.559  34.079  36.974  1.00  0.00     0.023 A 
ATOM     75  C   UNL A   1      38.958  33.651  38.167  1.00  0.00     0.031 A 
ATOM     76  C   UNL A   1      40.021  35.403  36.898  1.00  0.00     0.131 A 
ATOM     77  C   UNL A   1      38.818  34.548  39.237  1.00  0.00     0.055 A 
ATOM     78  C   UNL A   1      39.903  36.284  37.974  1.00  0.00     0.041 A 
ATOM     79  F   UNL A   1      40.615  35.851  35.780  1.00  0.00    -0.206 F 
ATOM     80  C   UNL A   1      39.295  35.859  39.152  1.00  0.00     0.022 A 
BRANCH  77  81
ATOM     81  S   UNL A   1      37.993  33.980  40.750  1.00  0.00     0.124 S 
ATOM     82  O   UNL A   1      36.871  33.221  40.208  1.00  0.00    -0.237 OA
ATOM     83  O   UNL A   1      39.044  33.200  41.397  1.00  0.00    -0.237 OA
ATOM     84  O   UNL A   1      37.639  35.224  41.430  1.00  0.00    -0.744 OA
ENDBRANCH  77  81
ENDBRANCH  50  74
BRANCH  62  85
ATOM     85  C   UNL A   1      44.030  28.939  35.496  1.00  0.00     0.023 A 
ATOM     86  C   UNL A   1      43.865  27.899  36.425  1.00  0.00     0.031 A 
ATOM     87  C   UNL A   1      45.328  29.412  35.240  1.00  0.00     0.131 A 
ATOM     88  C   UNL A   1      44.985  27.375  37.085  1.00  0.00     0.055 A 
ATOM     89  C   UNL A   1      46.443  28.862  35.872  1.00  0.00     0.041 A 
ATOM     90  F   UNL A   1      45.531  30.403  34.358  1.00  0.00    -0.206 F 
ATOM     91  C   UNL A   1      46.274  27.839  36.802  1.00  0.00     0.022 A 
BRANCH  88  92
ATOM     92  S   UNL A   1      44.741  26.079  38.329  1.00  0.00     0.124 S 
ATOM     93  O   UNL A   1      46.069  25.477  38.399  1.00  0.00    -0.237 OA
ATOM     94  O   UNL A   1      44.323  26.839  39.503  1.00  0.00    -0.237 OA
ATOM     95  O   UNL A   1      43.705  25.232  37.742  1.00  0.00    -0.744 OA
ENDBRANCH  88  92
ENDBRANCH  62  85
ENDBRANCH  36  37
ENDBRANCH  28  31
ENDBRANCH  26  27
ENDBRANCH   1  26
TORSDOF 15
ENDMDL
MODEL 2
REMARK VINA RESULT:     -12.4      2.323      3.153
REMARK SMILES Cc1c(Br)c(C)c2c(c1Br)O[C@H](C(F)(F)F)C(C(=O)NCCCCNC(=O)c1ccc(-c3c4nc(c(-c5cc(S(=O)(=O)[O-])ccc5F)c5ccc([nH]5)c(-c5cc(S(=O)(=O)[O-])ccc5F)c5nc(c(-c6cc(S(=O)(=O)[O-])ccc6F)c6ccc3[nH]6)C=C5)C=C4)cc1)=C2
REMARK SMILES IDX 23 1 22 2 21 3 20 4 18 5 19 6 17 8 1 9 2 10 3 11 9 12 4 13
REMARK SMILES IDX 5 14 8 15 10 16 6 17 7 18 11 19 91 20 12 21 13 22 14 23
REMARK SMILES IDX 15 24 16 25 24 26 25 27 26 28 27 30 28 31 29 32 90 33 30 34
REMARK SMILES IDX 89 35 31 36 32 37 33 38 83 39 34 40 88 41 82 42 84 43 35 44
REMARK SMILES IDX 87 45 81 46 80 47 36 49 68 50 48 51 67 52 49 53 52 54 66 55
REMARK SMILES IDX 85 56 50 57 51 58 65 60 86 61 53 62 37 63 38 64 46 65 39 66
REMARK SMILES IDX 45 67 47 68 44 69 40 70 41 71 42 72 43 73 69 74 70 75 78 76
REMARK SMILES IDX 71 77 77 78 79 79 76 80 72 81 73 82 74 83 75 84 54 85 55 86
REMARK SMILES IDX 63 87 56 88 62 89 64 90 61 91 57 92 58 93 59 94 60 95
REMARK H PARENT 20 7 25 29 84 48 52 59
REMARK Flexibility Score: inf
ROOT
ATOM      1  C   UNL A   1      32.818  29.327  24.352  1.00  0.00     0.023 C 
ENDROOT
BRANCH   1   2
ATOM      2  C   UNL A   1      33.288  27.933  23.927  1.00  0.00     0.023 C 
BRANCH   2   3
ATOM      3  C   UNL A   1      32.158  26.918  23.771  1.00  0.00     0.116 C 
BRANCH   3   4
ATOM      4  N   UNL A   1      31.564  26.571  25.049  1.00  0.00    -0.352 N 
ATOM      5  C   UNL A   1      31.474  25.468  25.827  1.00  0.00     0.251 C 
ATOM      6  O   UNL A   1      30.834  25.610  26.874  1.00  0.00    -0.270 OA
ATOM      7  H   UNL A   1      31.106  27.342  25.458  1.00  0.00     0.163 HD
BRANCH   5   8
ATOM      8  C   UNL A   1      32.084  24.140  25.516  1.00  0.00     0.067 C 
ATOM      9  C   UNL A   1      35.971  18.912  24.722  1.00  0.00     0.047 C 
ATOM     10  C   UNL A   1      35.337  20.254  25.005  1.00  0.00    -0.019 A 
ATOM     11  C   UNL A   1      36.114  21.398  25.324  1.00  0.00     0.025 A 
ATOM     12  C   UNL A   1      33.942  20.412  24.895  1.00  0.00     0.064 A 
ATOM     13  Br  UNL A   1      38.028  21.238  25.363  1.00  0.00    -0.050 Br
ATOM     14  C   UNL A   1      35.510  22.655  25.594  1.00  0.00    -0.026 A 
ATOM     15  C   UNL A   1      33.334  21.649  25.156  1.00  0.00     0.142 A 
ATOM     16  Br  UNL A   1      32.820  18.959  24.341  1.00  0.00    -0.046 Br
ATOM     17  C   UNL A   1      36.314  23.883  25.964  1.00  0.00     0.046 C 
ATOM     18  C   UNL A   1      34.100  22.762  25.524  1.00  0.00     0.022 A 
ATOM     19  O   UNL A   1      31.966  21.711  25.091  1.00  0.00    -0.474 OA
ATOM     20  C   UNL A   1      33.383  24.005  25.843  1.00  0.00     0.026 C 
ATOM     21  C   UNL A   1      31.372  23.010  24.844  1.00  0.00     0.314 C 
BRANCH  21  22
ATOM     22  C   UNL A   1      31.197  23.226  23.329  1.00  0.00     0.429 C 
ATOM     23  F   UNL A   1      32.246  23.918  22.821  1.00  0.00    -0.167 F 
ATOM     24  F   UNL A   1      31.135  22.060  22.645  1.00  0.00    -0.167 F 
ATOM     25  F   UNL A   1      30.073  23.918  23.031  1.00  0.00    -0.167 F 
ENDBRANCH  21  22
ENDBRANCH   5   8
ENDBRANCH   3   4
ENDBRANCH   2   3
ENDBRANCH   1   2
BRANCH   1  26
ATOM     26  C   UNL A   1      32.798  29.581  25.858  1.00  0.00     0.116 C 
BRANCH  26  27
ATOM     27  N   UNL A   1      32.414  30.939  26.216  1.00  0.00    -0.352 N 
ATOM     28  C   UNL A   1      33.060  31.805  27.064  1.00  0.00     0.251 C 
ATOM     29  H   UNL A   1      31.590  31.279  25.797  1.00  0.00     0.163 HD
ATOM     30  O   UNL A   1      32.565  32.896  27.331  1.00  0.00    -0.269 OA
BRANCH  28  31
ATOM     31  C   UNL A   1      34.328  31.376  27.679  1.00  0.00     0.039 A 
ATOM     32  C   UNL A   1      35.290  32.342  27.981  1.00  0.00     0.014 A 
ATOM     33  C   UNL A   1      34.524  30.035  28.026  1.00  0.00     0.014 A 
ATOM     34  C   UNL A   1      36.427  31.972  28.696  1.00  0.00     0.010 A 
ATOM     35  C   UNL A   1      35.629  29.681  28.792  1.00  0.00     0.010 A 
ATOM     36  C   UNL A   1      36.587  30.646  29.135  1.00  0.00    -0.014 A 
BRANCH  36  37
ATOM     37  C   UNL A   1      37.768  30.254  29.940  1.00  0.00     0.031 A 
ATOM     38  C   UNL A   1      38.834  29.393  29.325  1.00  0.00     0.074 A 
ATOM     39  C   UNL A   1      37.861  30.646  31.225  1.00  0.00     0.049 A 
ATOM     40  N   UNL A   1      39.923  28.916  29.867  1.00  0.00    -0.248 NA
ATOM     41  C   UNL A   1      38.632  28.996  27.923  1.00  0.00     0.031 C 
ATOM     42  C   UNL A   1      36.868  31.454  31.938  1.00  0.00     0.029 A 
ATOM     43  N   UNL A   1      38.841  30.425  32.158  1.00  0.00    -0.354 N 
ATOM     44  C   UNL A   1      40.536  28.161  28.875  1.00  0.00     0.074 A 
ATOM     45  C   UNL A   1      39.662  28.191  27.721  1.00  0.00     0.031 C 
ATOM     46  C   UNL A   1      37.312  31.697  33.182  1.00  0.00     0.029 A 
ATOM     47  C   UNL A   1      38.600  31.036  33.366  1.00  0.00     0.049 A 
ATOM     48  H   UNL A   1      39.640  29.879  31.981  1.00  0.00     0.167 HD
ATOM     49  C   UNL A   1      41.733  27.527  28.911  1.00  0.00     0.034 A 
ATOM     50  C   UNL A   1      39.340  31.064  34.491  1.00  0.00     0.034 A 
ATOM     51  C   UNL A   1      42.604  27.526  30.056  1.00  0.00     0.049 A 
ATOM     52  C   UNL A   1      40.651  30.328  34.521  1.00  0.00     0.074 A 
ATOM     53  C   UNL A   1      43.859  26.960  30.185  1.00  0.00     0.029 A 
ATOM     54  N   UNL A   1      42.306  28.121  31.275  1.00  0.00    -0.354 N 
ATOM     55  N   UNL A   1      41.225  29.631  33.568  1.00  0.00    -0.248 NA
ATOM     56  C   UNL A   1      41.413  30.378  35.776  1.00  0.00     0.031 C 
ATOM     57  C   UNL A   1      44.303  27.175  31.495  1.00  0.00     0.029 A 
ATOM     58  C   UNL A   1      43.344  27.915  32.169  1.00  0.00     0.049 A 
ATOM     59  H   UNL A   1      41.480  28.616  31.474  1.00  0.00     0.167 HD
ATOM     60  C   UNL A   1      42.420  29.166  34.106  1.00  0.00     0.074 A 
ATOM     61  C   UNL A   1      42.488  29.668  35.465  1.00  0.00     0.031 C 
ATOM     62  C   UNL A   1      43.378  28.401  33.526  1.00  0.00     0.034 A 
BRANCH  49  63
ATOM     63  C   UNL A   1      42.151  26.784  27.670  1.00  0.00     0.023 A 
ATOM     64  C   UNL A   1      41.914  25.406  27.533  1.00  0.00     0.031 A 
ATOM     65  C   UNL A   1      42.829  27.447  26.634  1.00  0.00     0.131 A 
ATOM     66  C   UNL A   1      42.415  24.719  26.418  1.00  0.00     0.055 A 
ATOM     67  C   UNL A   1      43.262  26.771  25.491  1.00  0.00     0.041 A 
ATOM     68  F   UNL A   1      43.099  28.759  26.723  1.00  0.00    -0.206 F 
ATOM     69  C   UNL A   1      43.067  25.396  25.385  1.00  0.00     0.022 A 
BRANCH  66  70
ATOM     70  S   UNL A   1      42.302  22.910  26.393  1.00  0.00     0.124 S 
ATOM     71  O   UNL A   1      42.650  22.615  25.005  1.00  0.00    -0.237 OA
ATOM     72  O   UNL A   1      43.285  22.515  27.396  1.00  0.00    -0.237 OA
ATOM     73  O   UNL A   1      40.909  22.650  26.749  1.00  0.00    -0.744 OA
ENDBRANCH  66  70
ENDBRANCH  49  63
BRANCH  50  74
ATOM     74  C   UNL A   1      38.860  31.819  35.679  1.00  0.00     0.023 A 
ATOM     75  C   UNL A   1      38.168  31.166  36.710  1.00  0.00     0.031 A 
ATOM     76  C   UNL A   1      39.095  33.199  35.802  1.00  0.00     0.131 A 
ATOM     77  C   UNL A   1      37.715  31.900  37.818  1.00  0.00     0.055 A 
ATOM     78  C   UNL A   1      38.666  33.919  36.918  1.00  0.00     0.041 A 
ATOM     79  F   UNL A   1      39.765  33.860  34.845  1.00  0.00    -0.206 F 
ATOM     80  C   UNL A   1      37.968  33.270  37.933  1.00  0.00     0.022 A 
BRANCH  77  81
ATOM     81  S   UNL A   1      36.781  31.038  39.112  1.00  0.00     0.124 S 
ATOM     82  O   UNL A   1      36.607  29.716  38.520  1.00  0.00    -0.237 OA
ATOM     83  O   UNL A   1      37.690  31.118  40.251  1.00  0.00    -0.237 OA
ATOM     84  O   UNL A   1      35.562  31.834  39.237  1.00  0.00    -0.744 OA
ENDBRANCH  77  81
ENDBRANCH  50  74
BRANCH  62  85
ATOM     85  C   UNL A   1      44.583  28.064  34.357  1.00  0.00     0.023 A 
ATOM     86  C   UNL A   1      44.619  26.902  35.146  1.00  0.00     0.031 A 
ATOM     87  C   UNL A   1      45.720  28.888  34.322  1.00  0.00     0.131 A 
ATOM     88  C   UNL A   1      45.769  26.605  35.889  1.00  0.00     0.055 A 
ATOM     89  C   UNL A   1      46.875  28.568  35.034  1.00  0.00     0.041 A 
ATOM     90  F   UNL A   1      45.730  30.006  33.579  1.00  0.00    -0.206 F 
ATOM     91  C   UNL A   1      46.903  27.422  35.825  1.00  0.00     0.022 A 
BRANCH  88  92
ATOM     92  S   UNL A   1      45.768  25.137  36.952  1.00  0.00     0.124 S 
ATOM     93  O   UNL A   1      46.009  25.719  38.269  1.00  0.00    -0.237 OA
ATOM     94  O   UNL A   1      44.435  24.585  36.733  1.00  0.00    -0.237 OA
ATOM     95  O   UNL A   1      46.864  24.329  36.421  1.00  0.00    -0.744 OA
ENDBRANCH  88  92
ENDBRANCH  62  85
ENDBRANCH  36  37
ENDBRANCH  28  31
ENDBRANCH  26  27
ENDBRANCH   1  26
TORSDOF 15
ENDMDL
MODEL 3
REMARK VINA RESULT:     -12.4      5.965     11.663
REMARK SMILES Cc1c(Br)c(C)c2c(c1Br)O[C@H](C(F)(F)F)C(C(=O)NCCCCNC(=O)c1ccc(-c3c4nc(c(-c5cc(S(=O)(=O)[O-])ccc5F)c5ccc([nH]5)c(-c5cc(S(=O)(=O)[O-])ccc5F)c5nc(c(-c6cc(S(=O)(=O)[O-])ccc6F)c6ccc3[nH]6)C=C5)C=C4)cc1)=C2
REMARK SMILES IDX 23 1 22 2 21 3 20 4 18 5 19 6 17 8 1 9 2 10 3 11 9 12 4 13
REMARK SMILES IDX 5 14 8 15 10 16 6 17 7 18 11 19 91 20 12 21 13 22 14 23
REMARK SMILES IDX 15 24 16 25 24 26 25 27 26 28 27 30 28 31 29 32 90 33 30 34
REMARK SMILES IDX 89 35 31 36 32 37 33 38 83 39 34 40 88 41 82 42 84 43 35 44
REMARK SMILES IDX 87 45 81 46 80 47 36 49 68 50 48 51 67 52 49 53 52 54 66 55
REMARK SMILES IDX 85 56 50 57 51 58 65 60 86 61 53 62 37 63 38 64 46 65 39 66
REMARK SMILES IDX 45 67 47 68 44 69 40 70 41 71 42 72 43 73 69 74 70 75 78 76
REMARK SMILES IDX 71 77 77 78 79 79 76 80 72 81 73 82 74 83 75 84 54 85 55 86
REMARK SMILES IDX 63 87 56 88 62 89 64 90 61 91 57 92 58 93 59 94 60 95
REMARK H PARENT 20 7 25 29 84 48 52 59
REMARK Flexibility Score: inf
ROOT
ATOM      1  C   UNL A   1      38.031  20.298  25.086  1.00  0.00     0.023 C 
ENDROOT
BRANCH   1   2
ATOM      2  C   UNL A   1      37.282  21.533  24.580  1.00  0.00     0.023 C 
BRANCH   2   3
ATOM      3  C   UNL A   1      37.260  22.695  25.570  1.00  0.00     0.116 C 
BRANCH   3   4
ATOM      4  N   UNL A   1      36.171  22.571  26.522  1.00  0.00    -0.352 N 
ATOM      5  C   UNL A   1      34.908  23.041  26.640  1.00  0.00     0.251 C 
ATOM      6  O   UNL A   1      34.306  22.690  27.660  1.00  0.00    -0.270 OA
ATOM      7  H   UNL A   1      36.414  21.992  27.281  1.00  0.00     0.163 HD
BRANCH   5   8
ATOM      8  C   UNL A   1      34.217  23.920  25.648  1.00  0.00     0.067 C 
ATOM      9  C   UNL A   1      31.363  28.806  22.324  1.00  0.00     0.047 C 
ATOM     10  C   UNL A   1      32.039  27.892  23.319  1.00  0.00    -0.019 A 
ATOM     11  C   UNL A   1      32.214  28.260  24.678  1.00  0.00     0.025 A 
ATOM     12  C   UNL A   1      32.459  26.607  22.923  1.00  0.00     0.064 A 
ATOM     13  Br  UNL A   1      31.542  29.959  25.272  1.00  0.00    -0.050 Br
ATOM     14  C   UNL A   1      32.855  27.397  25.605  1.00  0.00    -0.026 A 
ATOM     15  C   UNL A   1      33.090  25.744  23.831  1.00  0.00     0.142 A 
ATOM     16  Br  UNL A   1      32.147  25.966  21.143  1.00  0.00    -0.046 Br
ATOM     17  C   UNL A   1      33.079  27.778  27.053  1.00  0.00     0.046 C 
ATOM     18  C   UNL A   1      33.310  26.133  25.158  1.00  0.00     0.022 A 
ATOM     19  O   UNL A   1      33.529  24.534  23.358  1.00  0.00    -0.474 OA
ATOM     20  C   UNL A   1      34.035  25.198  26.030  1.00  0.00     0.026 C 
ATOM     21  C   UNL A   1      33.695  23.465  24.323  1.00  0.00     0.314 C 
BRANCH  21  22
ATOM     22  C   UNL A   1      32.389  22.656  24.437  1.00  0.00     0.429 C 
ATOM     23  F   UNL A   1      31.687  23.035  25.533  1.00  0.00    -0.167 F 
ATOM     24  F   UNL A   1      31.573  22.839  23.373  1.00  0.00    -0.167 F 
ATOM     25  F   UNL A   1      32.612  21.326  24.538  1.00  0.00    -0.167 F 
ENDBRANCH  21  22
ENDBRANCH   5   8
ENDBRANCH   3   4
ENDBRANCH   2   3
ENDBRANCH   1   2
BRANCH   1  26
ATOM     26  C   UNL A   1      39.334  20.580  25.831  1.00  0.00     0.116 C 
BRANCH  26  27
ATOM     27  N   UNL A   1      40.207  19.420  25.943  1.00  0.00    -0.352 N 
ATOM     28  C   UNL A   1      41.557  19.399  26.192  1.00  0.00     0.251 C 
ATOM     29  H   UNL A   1      39.775  18.544  25.825  1.00  0.00     0.163 HD
ATOM     30  O   UNL A   1      42.174  18.338  26.176  1.00  0.00    -0.269 OA
BRANCH  28  31
ATOM     31  C   UNL A   1      42.252  20.676  26.432  1.00  0.00     0.039 A 
ATOM     32  C   UNL A   1      42.658  21.437  25.335  1.00  0.00     0.014 A 
ATOM     33  C   UNL A   1      42.422  21.150  27.737  1.00  0.00     0.014 A 
ATOM     34  C   UNL A   1      43.180  22.712  25.545  1.00  0.00     0.010 A 
ATOM     35  C   UNL A   1      42.886  22.445  27.940  1.00  0.00     0.010 A 
ATOM     36  C   UNL A   1      43.265  23.236  26.846  1.00  0.00    -0.014 A 
BRANCH  36  37
ATOM     37  C   UNL A   1      43.771  24.611  27.075  1.00  0.00     0.031 A 
ATOM     38  C   UNL A   1      42.840  25.668  27.596  1.00  0.00     0.074 A 
ATOM     39  C   UNL A   1      45.053  24.907  26.787  1.00  0.00     0.049 A 
ATOM     40  N   UNL A   1      43.078  26.932  27.832  1.00  0.00    -0.248 NA
ATOM     41  C   UNL A   1      41.454  25.254  27.858  1.00  0.00     0.031 C 
ATOM     42  C   UNL A   1      46.038  23.968  26.244  1.00  0.00     0.029 A 
ATOM     43  N   UNL A   1      45.750  26.081  26.918  1.00  0.00    -0.354 N 
ATOM     44  C   UNL A   1      41.871  27.465  28.268  1.00  0.00     0.074 A 
ATOM     45  C   UNL A   1      40.891  26.402  28.200  1.00  0.00     0.031 C 
ATOM     46  C   UNL A   1      47.222  24.592  26.130  1.00  0.00     0.029 A 
ATOM     47  C   UNL A   1      47.074  25.979  26.559  1.00  0.00     0.049 A 
ATOM     48  H   UNL A   1      45.341  26.917  27.238  1.00  0.00     0.167 HD
ATOM     49  C   UNL A   1      41.611  28.716  28.716  1.00  0.00     0.034 A 
ATOM     50  C   UNL A   1      48.055  26.901  26.581  1.00  0.00     0.034 A 
ATOM     51  C   UNL A   1      42.601  29.758  28.802  1.00  0.00     0.049 A 
ATOM     52  C   UNL A   1      47.738  28.293  27.052  1.00  0.00     0.074 A 
ATOM     53  C   UNL A   1      42.460  31.045  29.287  1.00  0.00     0.029 A 
ATOM     54  N   UNL A   1      43.921  29.628  28.390  1.00  0.00    -0.354 N 
ATOM     55  N   UNL A   1      46.595  28.777  27.477  1.00  0.00    -0.248 NA
ATOM     56  C   UNL A   1      48.841  29.264  27.043  1.00  0.00     0.031 C 
ATOM     57  C   UNL A   1      43.681  31.709  29.128  1.00  0.00     0.029 A 
ATOM     58  C   UNL A   1      44.598  30.820  28.587  1.00  0.00     0.049 A 
ATOM     59  H   UNL A   1      44.316  28.811  28.013  1.00  0.00     0.167 HD
ATOM     60  C   UNL A   1      46.842  30.109  27.795  1.00  0.00     0.074 A 
ATOM     61  C   UNL A   1      48.245  30.349  27.519  1.00  0.00     0.031 C 
ATOM     62  C   UNL A   1      45.988  31.044  28.279  1.00  0.00     0.034 A 
BRANCH  49  63
ATOM     63  C   UNL A   1      40.197  29.013  29.137  1.00  0.00     0.023 A 
ATOM     64  C   UNL A   1      39.821  28.995  30.491  1.00  0.00     0.031 A 
ATOM     65  C   UNL A   1      39.206  29.276  28.177  1.00  0.00     0.131 A 
ATOM     66  C   UNL A   1      38.475  29.163  30.844  1.00  0.00     0.055 A 
ATOM     67  C   UNL A   1      37.878  29.515  28.540  1.00  0.00     0.041 A 
ATOM     68  F   UNL A   1      39.506  29.285  26.868  1.00  0.00    -0.206 F 
ATOM     69  C   UNL A   1      37.505  29.446  29.881  1.00  0.00     0.022 A 
BRANCH  66  70
ATOM     70  S   UNL A   1      37.993  28.893  32.571  1.00  0.00     0.124 S 
ATOM     71  O   UNL A   1      38.999  29.680  33.281  1.00  0.00    -0.237 OA
ATOM     72  O   UNL A   1      36.632  29.415  32.607  1.00  0.00    -0.237 OA
ATOM     73  O   UNL A   1      38.111  27.446  32.736  1.00  0.00    -0.744 OA
ENDBRANCH  66  70
ENDBRANCH  49  63
BRANCH  50  74
ATOM     74  C   UNL A   1      49.429  26.534  26.148  1.00  0.00     0.023 A 
ATOM     75  C   UNL A   1      49.953  27.019  24.940  1.00  0.00     0.031 A 
ATOM     76  C   UNL A   1      50.239  25.703  26.940  1.00  0.00     0.131 A 
ATOM     77  C   UNL A   1      51.248  26.653  24.546  1.00  0.00     0.055 A 
ATOM     78  C   UNL A   1      51.538  25.363  26.556  1.00  0.00     0.041 A 
ATOM     79  F   UNL A   1      49.784  25.228  28.110  1.00  0.00    -0.206 F 
ATOM     80  C   UNL A   1      52.048  25.836  25.350  1.00  0.00     0.022 A 
BRANCH  77  81
ATOM     81  S   UNL A   1      51.880  27.256  22.956  1.00  0.00     0.124 S 
ATOM     82  O   UNL A   1      50.809  26.865  22.045  1.00  0.00    -0.237 OA
ATOM     83  O   UNL A   1      52.022  28.687  23.205  1.00  0.00    -0.237 OA
ATOM     84  O   UNL A   1      53.137  26.529  22.793  1.00  0.00    -0.744 OA
ENDBRANCH  77  81
ENDBRANCH  50  74
BRANCH  62  85
ATOM     85  C   UNL A   1      46.549  32.412  28.545  1.00  0.00     0.023 A 
ATOM     86  C   UNL A   1      46.549  33.404  27.549  1.00  0.00     0.031 A 
ATOM     87  C   UNL A   1      47.045  32.739  29.818  1.00  0.00     0.131 A 
ATOM     88  C   UNL A   1      47.056  34.677  27.839  1.00  0.00     0.055 A 
ATOM     89  C   UNL A   1      47.514  34.019  30.112  1.00  0.00     0.041 A 
ATOM     90  F   UNL A   1      47.061  31.823  30.799  1.00  0.00    -0.206 F 
ATOM     91  C   UNL A   1      47.524  34.995  29.120  1.00  0.00     0.022 A 
BRANCH  88  92
ATOM     92  S   UNL A   1      47.107  35.920  26.521  1.00  0.00     0.124 S 
ATOM     93  O   UNL A   1      46.221  36.953  27.047  1.00  0.00    -0.237 OA
ATOM     94  O   UNL A   1      48.524  36.265  26.462  1.00  0.00    -0.237 OA
ATOM     95  O   UNL A   1      46.599  35.201  25.354  1.00  0.00    -0.744 OA
ENDBRANCH  88  92
ENDBRANCH  62  85
ENDBRANCH  36  37
ENDBRANCH  28  31
ENDBRANCH  26  27
ENDBRANCH   1  26
TORSDOF 15
ENDMDL
