MODEL 1
REMARK VINA RESULT:     -11.3      0.000      0.000
REMARK SMILES CC(C)OCCS(=O)(=O)Nc1nccnc1C(=O)NCCCCNC(=O)c1ccc(-c2c3nc(c(-c4cc(S(=O)(=O)[O-])ccc4F)c4ccc([nH]4)c(-c4cc(S(=O)(=O)[O-])ccc4F)c4nc(c(-c5cc(S(=O)(=O)[O-])ccc5F)c5ccc2[nH]5)C=C4)C=C3)cc1
REMARK SMILES IDX 20 1 19 2 17 3 18 4 16 6 11 7 12 8 13 9 15 10 14 11 10 12
REMARK SMILES IDX 7 14 8 15 9 16 6 17 5 18 4 19 2 20 1 21 3 22 21 23 22 24
REMARK SMILES IDX 23 25 24 26 25 27 26 29 27 30 28 31 89 32 29 33 88 34 30 35
REMARK SMILES IDX 31 36 32 37 82 38 33 39 87 40 81 41 83 42 34 43 86 44 80 45
REMARK SMILES IDX 79 46 35 48 67 49 47 50 66 51 48 52 51 53 65 54 84 55 49 56
REMARK SMILES IDX 50 57 64 59 85 60 52 61 36 62 37 63 45 64 38 65 44 66 46 67
REMARK SMILES IDX 43 68 39 69 40 70 41 71 42 72 68 73 69 74 77 75 70 76 76 77
REMARK SMILES IDX 78 78 75 79 71 80 72 81 73 82 74 83 53 84 54 85 62 86 55 87
REMARK SMILES IDX 61 88 63 89 60 90 56 91 57 92 58 93 59 94
REMARK H PARENT 19 5 10 13 24 28 83 47 51 58
REMARK Flexibility Score: inf
ROOT
ATOM      1  C   UNL A   1      33.298  27.801  24.581  1.00  0.00     0.116 C 
ENDROOT
BRANCH   1   2
ATOM      2  N   UNL A   1      33.764  27.168  23.406  1.00  0.00    -0.351 N 
ATOM      3  C   UNL A   1      32.945  26.502  22.531  1.00  0.00     0.273 C 
ATOM      4  O   UNL A   1      33.521  25.880  21.631  1.00  0.00    -0.267 OA
ATOM      5  H   UNL A   1      34.727  27.207  23.205  1.00  0.00     0.163 HD
BRANCH   3   6
ATOM      6  C   UNL A   1      31.410  26.486  22.589  1.00  0.00     0.171 A 
ATOM      7  C   UNL A   1      30.586  25.887  23.566  1.00  0.00     0.171 A 
ATOM      8  N   UNL A   1      29.571  26.622  24.096  1.00  0.00    -0.235 NA
ATOM      9  C   UNL A   1      29.284  27.828  23.543  1.00  0.00     0.133 A 
ATOM     10  N   UNL A   1      30.967  27.610  21.915  1.00  0.00    -0.246 NA
ATOM     11  C   UNL A   1      29.922  28.280  22.421  1.00  0.00     0.132 A 
BRANCH   7  12
ATOM     12  N   UNL A   1      30.587  24.663  24.313  1.00  0.00    -0.265 N 
ATOM     13  H   UNL A   1      30.238  23.897  23.802  1.00  0.00     0.181 HD
BRANCH  12  14
ATOM     14  S   UNL A   1      31.051  24.262  25.864  1.00  0.00     0.236 S 
ATOM     15  O   UNL A   1      30.531  22.918  26.021  1.00  0.00    -0.207 OA
ATOM     16  O   UNL A   1      30.609  25.276  26.792  1.00  0.00    -0.207 OA
BRANCH  14  17
ATOM     17  C   UNL A   1      32.798  24.172  26.232  1.00  0.00     0.188 C 
BRANCH  17  18
ATOM     18  C   UNL A   1      33.750  23.764  25.130  1.00  0.00     0.178 C 
BRANCH  18  19
ATOM     19  O   UNL A   1      33.158  23.032  24.054  1.00  0.00    -0.378 OA
BRANCH  19  20
ATOM     20  C   UNL A   1      33.579  21.687  23.844  1.00  0.00     0.112 C 
ATOM     21  C   UNL A   1      34.686  21.269  24.810  1.00  0.00     0.038 C 
ATOM     22  C   UNL A   1      32.352  20.791  23.712  1.00  0.00     0.038 C 
ENDBRANCH  19  20
ENDBRANCH  18  19
ENDBRANCH  17  18
ENDBRANCH  14  17
ENDBRANCH  12  14
ENDBRANCH   7  12
ENDBRANCH   3   6
ENDBRANCH   1   2
BRANCH   1  23
ATOM     23  C   UNL A   1      32.994  29.280  24.519  1.00  0.00     0.023 C 
BRANCH  23  24
ATOM     24  C   UNL A   1      31.808  29.730  25.340  1.00  0.00     0.023 C 
BRANCH  24  25
ATOM     25  C   UNL A   1      32.131  30.174  26.758  1.00  0.00     0.116 C 
BRANCH  25  26
ATOM     26  N   UNL A   1      31.976  31.608  27.009  1.00  0.00    -0.352 N 
ATOM     27  C   UNL A   1      32.916  32.520  27.444  1.00  0.00     0.251 C 
ATOM     28  H   UNL A   1      31.077  31.970  26.846  1.00  0.00     0.163 HD
ATOM     29  O   UNL A   1      32.619  33.696  27.642  1.00  0.00    -0.269 OA
BRANCH  27  30
ATOM     30  C   UNL A   1      34.275  32.032  27.734  1.00  0.00     0.039 A 
ATOM     31  C   UNL A   1      35.290  32.960  27.967  1.00  0.00     0.014 A 
ATOM     32  C   UNL A   1      34.476  30.675  27.979  1.00  0.00     0.014 A 
ATOM     33  C   UNL A   1      36.466  32.539  28.586  1.00  0.00     0.010 A 
ATOM     34  C   UNL A   1      35.580  30.290  28.723  1.00  0.00     0.010 A 
ATOM     35  C   UNL A   1      36.586  31.217  29.046  1.00  0.00    -0.014 A 
BRANCH  35  36
ATOM     36  C   UNL A   1      37.747  30.765  29.858  1.00  0.00     0.031 A 
ATOM     37  C   UNL A   1      38.750  29.826  29.244  1.00  0.00     0.074 A 
ATOM     38  C   UNL A   1      37.848  31.111  31.159  1.00  0.00     0.049 A 
ATOM     39  N   UNL A   1      39.741  29.185  29.806  1.00  0.00    -0.248 NA
ATOM     40  C   UNL A   1      38.574  29.524  27.815  1.00  0.00     0.031 C 
ATOM     41  C   UNL A   1      36.908  31.966  31.890  1.00  0.00     0.029 A 
ATOM     42  N   UNL A   1      38.785  30.776  32.106  1.00  0.00    -0.354 N 
ATOM     43  C   UNL A   1      40.278  28.379  28.808  1.00  0.00     0.074 A 
ATOM     44  C   UNL A   1      39.447  28.547  27.637  1.00  0.00     0.031 C 
ATOM     45  C   UNL A   1      37.339  32.120  33.153  1.00  0.00     0.029 A 
ATOM     46  C   UNL A   1      38.553  31.333  33.344  1.00  0.00     0.049 A 
ATOM     47  H   UNL A   1      39.554  30.190  31.917  1.00  0.00     0.167 HD
ATOM     48  C   UNL A   1      41.386  27.599  28.849  1.00  0.00     0.034 A 
ATOM     49  C   UNL A   1      39.233  31.213  34.502  1.00  0.00     0.034 A 
ATOM     50  C   UNL A   1      42.227  27.480  30.013  1.00  0.00     0.049 A 
ATOM     51  C   UNL A   1      40.467  30.344  34.527  1.00  0.00     0.074 A 
ATOM     52  C   UNL A   1      43.409  26.776  30.154  1.00  0.00     0.029 A 
ATOM     53  N   UNL A   1      41.974  28.083  31.240  1.00  0.00    -0.354 N 
ATOM     54  N   UNL A   1      40.993  29.625  33.561  1.00  0.00    -0.248 NA
ATOM     55  C   UNL A   1      41.204  30.274  35.796  1.00  0.00     0.031 C 
ATOM     56  C   UNL A   1      43.838  26.902  31.479  1.00  0.00     0.029 A 
ATOM     57  C   UNL A   1      42.965  27.748  32.147  1.00  0.00     0.049 A 
ATOM     58  H   UNL A   1      41.202  28.663  31.434  1.00  0.00     0.167 HD
ATOM     59  C   UNL A   1      42.142  29.050  34.097  1.00  0.00     0.074 A 
ATOM     60  C   UNL A   1      42.236  29.511  35.466  1.00  0.00     0.031 C 
ATOM     61  C   UNL A   1      43.041  28.220  33.509  1.00  0.00     0.034 A 
BRANCH  48  62
ATOM     62  C   UNL A   1      41.730  26.819  27.602  1.00  0.00     0.023 A 
ATOM     63  C   UNL A   1      41.416  25.453  27.477  1.00  0.00     0.031 A 
ATOM     64  C   UNL A   1      42.430  27.430  26.549  1.00  0.00     0.131 A 
ATOM     65  C   UNL A   1      41.889  24.723  26.378  1.00  0.00     0.055 A 
ATOM     66  C   UNL A   1      42.814  26.717  25.410  1.00  0.00     0.041 A 
ATOM     67  F   UNL A   1      42.777  28.724  26.617  1.00  0.00    -0.206 F 
ATOM     68  C   UNL A   1      42.562  25.350  25.329  1.00  0.00     0.022 A 
BRANCH  65  69
ATOM     69  S   UNL A   1      41.762  22.913  26.426  1.00  0.00     0.124 S 
ATOM     70  O   UNL A   1      40.314  22.720  26.411  1.00  0.00    -0.237 OA
ATOM     71  O   UNL A   1      42.473  22.515  25.218  1.00  0.00    -0.237 OA
ATOM     72  O   UNL A   1      42.417  22.557  27.683  1.00  0.00    -0.744 OA
ENDBRANCH  65  69
ENDBRANCH  48  62
BRANCH  49  73
ATOM     73  C   UNL A   1      38.779  31.925  35.733  1.00  0.00     0.023 A 
ATOM     74  C   UNL A   1      38.149  31.230  36.778  1.00  0.00     0.031 A 
ATOM     75  C   UNL A   1      38.926  33.316  35.864  1.00  0.00     0.131 A 
ATOM     76  C   UNL A   1      37.648  31.932  37.886  1.00  0.00     0.055 A 
ATOM     77  C   UNL A   1      38.472  34.004  36.993  1.00  0.00     0.041 A 
ATOM     78  F   UNL A   1      39.524  34.031  34.898  1.00  0.00    -0.206 F 
ATOM     79  C   UNL A   1      37.816  33.313  38.007  1.00  0.00     0.022 A 
BRANCH  76  80
ATOM     80  S   UNL A   1      36.692  31.023  39.133  1.00  0.00     0.124 S 
ATOM     81  O   UNL A   1      35.569  31.923  39.361  1.00  0.00    -0.237 OA
ATOM     82  O   UNL A   1      36.386  29.779  38.433  1.00  0.00    -0.237 OA
ATOM     83  O   UNL A   1      37.626  30.893  40.249  1.00  0.00    -0.744 OA
ENDBRANCH  76  80
ENDBRANCH  49  73
BRANCH  61  84
ATOM     84  C   UNL A   1      44.237  27.809  34.331  1.00  0.00     0.023 A 
ATOM     85  C   UNL A   1      44.230  26.651  35.126  1.00  0.00     0.031 A 
ATOM     86  C   UNL A   1      45.408  28.588  34.304  1.00  0.00     0.131 A 
ATOM     87  C   UNL A   1      45.355  26.329  35.899  1.00  0.00     0.055 A 
ATOM     88  C   UNL A   1      46.544  28.231  35.029  1.00  0.00     0.041 A 
ATOM     89  F   UNL A   1      45.468  29.705  33.562  1.00  0.00    -0.206 F 
ATOM     90  C   UNL A   1      46.518  27.102  35.842  1.00  0.00     0.022 A 
BRANCH  87  91
ATOM     91  S   UNL A   1      45.254  24.927  37.045  1.00  0.00     0.124 S 
ATOM     92  O   UNL A   1      46.291  25.254  38.018  1.00  0.00    -0.237 OA
ATOM     93  O   UNL A   1      43.879  25.014  37.525  1.00  0.00    -0.237 OA
ATOM     94  O   UNL A   1      45.540  23.771  36.198  1.00  0.00    -0.744 OA
ENDBRANCH  87  91
ENDBRANCH  61  84
ENDBRANCH  35  36
ENDBRANCH  27  30
ENDBRANCH  25  26
ENDBRANCH  24  25
ENDBRANCH  23  24
ENDBRANCH   1  23
TORSDOF 20
ENDMDL
MODEL 2
REMARK VINA RESULT:     -11.0      1.788      8.209
REMARK SMILES CC(C)OCCS(=O)(=O)Nc1nccnc1C(=O)NCCCCNC(=O)c1ccc(-c2c3nc(c(-c4cc(S(=O)(=O)[O-])ccc4F)c4ccc([nH]4)c(-c4cc(S(=O)(=O)[O-])ccc4F)c4nc(c(-c5cc(S(=O)(=O)[O-])ccc5F)c5ccc2[nH]5)C=C4)C=C3)cc1
REMARK SMILES IDX 20 1 19 2 17 3 18 4 16 6 11 7 12 8 13 9 15 10 14 11 10 12
REMARK SMILES IDX 7 14 8 15 9 16 6 17 5 18 4 19 2 20 1 21 3 22 21 23 22 24
REMARK SMILES IDX 23 25 24 26 25 27 26 29 27 30 28 31 89 32 29 33 88 34 30 35
REMARK SMILES IDX 31 36 32 37 82 38 33 39 87 40 81 41 83 42 34 43 86 44 80 45
REMARK SMILES IDX 79 46 35 48 67 49 47 50 66 51 48 52 51 53 65 54 84 55 49 56
REMARK SMILES IDX 50 57 64 59 85 60 52 61 36 62 37 63 45 64 38 65 44 66 46 67
REMARK SMILES IDX 43 68 39 69 40 70 41 71 42 72 68 73 69 74 77 75 70 76 76 77
REMARK SMILES IDX 78 78 75 79 71 80 72 81 73 82 74 83 53 84 54 85 62 86 55 87
REMARK SMILES IDX 61 88 63 89 60 90 56 91 57 92 58 93 59 94
REMARK H PARENT 19 5 10 13 24 28 83 47 51 58
REMARK Flexibility Score: inf
ROOT
ATOM      1  C   UNL A   1      32.273  26.825  26.443  1.00  0.00     0.116 C 
ENDROOT
BRANCH   1   2
ATOM      2  N   UNL A   1      31.397  25.806  26.881  1.00  0.00    -0.351 N 
ATOM      3  C   UNL A   1      31.400  24.534  26.368  1.00  0.00     0.273 C 
ATOM      4  O   UNL A   1      30.480  23.803  26.751  1.00  0.00    -0.267 OA
ATOM      5  H   UNL A   1      30.750  26.019  27.591  1.00  0.00     0.163 HD
BRANCH   3   6
ATOM      6  C   UNL A   1      32.443  23.975  25.388  1.00  0.00     0.171 A 
ATOM      7  C   UNL A   1      32.777  24.463  24.107  1.00  0.00     0.171 A 
ATOM      8  N   UNL A   1      34.093  24.631  23.801  1.00  0.00    -0.235 NA
ATOM      9  C   UNL A   1      35.027  24.162  24.667  1.00  0.00     0.133 A 
ATOM     10  N   UNL A   1      33.401  23.323  26.144  1.00  0.00    -0.246 NA
ATOM     11  C   UNL A   1      34.686  23.450  25.783  1.00  0.00     0.132 A 
BRANCH   7  12
ATOM     12  N   UNL A   1      32.064  24.994  22.982  1.00  0.00    -0.265 N 
ATOM     13  H   UNL A   1      31.805  24.305  22.328  1.00  0.00     0.181 HD
BRANCH  12  14
ATOM     14  S   UNL A   1      31.582  26.530  22.545  1.00  0.00     0.236 S 
ATOM     15  O   UNL A   1      31.401  26.416  21.111  1.00  0.00    -0.207 OA
ATOM     16  O   UNL A   1      32.527  27.505  23.037  1.00  0.00    -0.207 OA
BRANCH  14  17
ATOM     17  C   UNL A   1      30.042  27.156  23.200  1.00  0.00     0.188 C 
BRANCH  17  18
ATOM     18  C   UNL A   1      29.880  28.651  23.365  1.00  0.00     0.178 C 
BRANCH  18  19
ATOM     19  O   UNL A   1      28.578  29.159  23.068  1.00  0.00    -0.378 OA
BRANCH  19  20
ATOM     20  C   UNL A   1      28.469  30.506  22.615  1.00  0.00     0.112 C 
ATOM     21  C   UNL A   1      28.045  30.591  21.150  1.00  0.00     0.038 C 
ATOM     22  C   UNL A   1      27.696  31.321  23.646  1.00  0.00     0.038 C 
ENDBRANCH  19  20
ENDBRANCH  18  19
ENDBRANCH  17  18
ENDBRANCH  14  17
ENDBRANCH  12  14
ENDBRANCH   7  12
ENDBRANCH   3   6
ENDBRANCH   1   2
BRANCH   1  23
ATOM     23  C   UNL A   1      32.365  28.087  27.270  1.00  0.00     0.023 C 
BRANCH  23  24
ATOM     24  C   UNL A   1      31.887  29.345  26.583  1.00  0.00     0.023 C 
BRANCH  24  25
ATOM     25  C   UNL A   1      32.968  30.373  26.287  1.00  0.00     0.116 C 
BRANCH  25  26
ATOM     26  N   UNL A   1      32.905  31.590  27.098  1.00  0.00    -0.352 N 
ATOM     27  C   UNL A   1      33.872  32.143  27.912  1.00  0.00     0.251 C 
ATOM     28  H   UNL A   1      32.054  32.081  27.056  1.00  0.00     0.163 HD
ATOM     29  O   UNL A   1      33.652  33.162  28.561  1.00  0.00    -0.269 OA
BRANCH  27  30
ATOM     30  C   UNL A   1      35.158  31.437  28.039  1.00  0.00     0.039 A 
ATOM     31  C   UNL A   1      36.340  32.179  28.037  1.00  0.00     0.014 A 
ATOM     32  C   UNL A   1      35.165  30.083  28.368  1.00  0.00     0.014 A 
ATOM     33  C   UNL A   1      37.512  31.591  28.510  1.00  0.00     0.010 A 
ATOM     34  C   UNL A   1      36.294  29.551  28.971  1.00  0.00     0.010 A 
ATOM     35  C   UNL A   1      37.480  30.299  29.059  1.00  0.00    -0.014 A 
BRANCH  35  36
ATOM     36  C   UNL A   1      38.665  29.696  29.727  1.00  0.00     0.031 A 
ATOM     37  C   UNL A   1      39.063  30.183  31.094  1.00  0.00     0.074 A 
ATOM     38  C   UNL A   1      39.433  28.797  29.076  1.00  0.00     0.049 A 
ATOM     39  N   UNL A   1      40.136  29.919  31.791  1.00  0.00    -0.248 NA
ATOM     40  C   UNL A   1      38.152  31.145  31.736  1.00  0.00     0.031 C 
ATOM     41  C   UNL A   1      39.191  28.288  27.722  1.00  0.00     0.029 A 
ATOM     42  N   UNL A   1      40.585  28.156  29.462  1.00  0.00    -0.354 N 
ATOM     43  C   UNL A   1      40.045  30.710  32.931  1.00  0.00     0.074 A 
ATOM     44  C   UNL A   1      38.861  31.525  32.786  1.00  0.00     0.031 C 
ATOM     45  C   UNL A   1      40.138  27.387  27.412  1.00  0.00     0.029 A 
ATOM     46  C   UNL A   1      41.088  27.291  28.515  1.00  0.00     0.049 A 
ATOM     47  H   UNL A   1      41.013  28.301  30.337  1.00  0.00     0.167 HD
ATOM     48  C   UNL A   1      40.853  30.728  34.020  1.00  0.00     0.034 A 
ATOM     49  C   UNL A   1      42.194  26.520  28.530  1.00  0.00     0.034 A 
ATOM     50  C   UNL A   1      42.005  29.875  34.165  1.00  0.00     0.049 A 
ATOM     51  C   UNL A   1      43.079  26.550  29.753  1.00  0.00     0.074 A 
ATOM     52  C   UNL A   1      42.858  29.756  35.247  1.00  0.00     0.029 A 
ATOM     53  N   UNL A   1      42.465  28.992  33.195  1.00  0.00    -0.354 N 
ATOM     54  N   UNL A   1      42.954  27.267  30.846  1.00  0.00    -0.248 NA
ATOM     55  C   UNL A   1      44.249  25.663  29.747  1.00  0.00     0.031 C 
ATOM     56  C   UNL A   1      43.867  28.848  34.910  1.00  0.00     0.029 A 
ATOM     57  C   UNL A   1      43.602  28.343  33.646  1.00  0.00     0.049 A 
ATOM     58  H   UNL A   1      42.044  28.849  32.317  1.00  0.00     0.167 HD
ATOM     59  C   UNL A   1      44.009  26.889  31.672  1.00  0.00     0.074 A 
ATOM     60  C   UNL A   1      44.754  25.876  30.953  1.00  0.00     0.031 C 
ATOM     61  C   UNL A   1      44.330  27.333  32.913  1.00  0.00     0.034 A 
BRANCH  48  62
ATOM     62  C   UNL A   1      40.512  31.708  35.118  1.00  0.00     0.023 A 
ATOM     63  C   UNL A   1      39.565  31.402  36.112  1.00  0.00     0.031 A 
ATOM     64  C   UNL A   1      41.096  32.986  35.139  1.00  0.00     0.131 A 
ATOM     65  C   UNL A   1      39.155  32.389  37.018  1.00  0.00     0.055 A 
ATOM     66  C   UNL A   1      40.754  33.934  36.107  1.00  0.00     0.041 A 
ATOM     67  F   UNL A   1      41.990  33.347  34.207  1.00  0.00    -0.206 F 
ATOM     68  C   UNL A   1      39.763  33.645  37.042  1.00  0.00     0.022 A 
BRANCH  65  69
ATOM     69  S   UNL A   1      37.699  32.063  38.050  1.00  0.00     0.124 S 
ATOM     70  O   UNL A   1      38.228  32.303  39.390  1.00  0.00    -0.237 OA
ATOM     71  O   UNL A   1      36.737  33.042  37.557  1.00  0.00    -0.237 OA
ATOM     72  O   UNL A   1      37.376  30.668  37.755  1.00  0.00    -0.744 OA
ENDBRANCH  65  69
ENDBRANCH  48  62
BRANCH  49  73
ATOM     73  C   UNL A   1      42.536  25.652  27.365  1.00  0.00     0.023 A 
ATOM     74  C   UNL A   1      42.098  24.319  27.303  1.00  0.00     0.031 A 
ATOM     75  C   UNL A   1      43.343  26.127  26.316  1.00  0.00     0.131 A 
ATOM     76  C   UNL A   1      42.506  23.494  26.243  1.00  0.00     0.055 A 
ATOM     77  C   UNL A   1      43.704  25.317  25.236  1.00  0.00     0.041 A 
ATOM     78  F   UNL A   1      43.787  27.394  26.320  1.00  0.00    -0.206 F 
ATOM     79  C   UNL A   1      43.296  23.988  25.202  1.00  0.00     0.022 A 
BRANCH  76  80
ATOM     80  S   UNL A   1      42.060  21.735  26.287  1.00  0.00     0.124 S 
ATOM     81  O   UNL A   1      42.422  21.371  27.651  1.00  0.00    -0.237 OA
ATOM     82  O   UNL A   1      40.632  21.778  25.991  1.00  0.00    -0.237 OA
ATOM     83  O   UNL A   1      42.893  21.147  25.241  1.00  0.00    -0.744 OA
ENDBRANCH  76  80
ENDBRANCH  49  73
BRANCH  61  84
ATOM     84  C   UNL A   1      45.505  26.679  33.595  1.00  0.00     0.023 A 
ATOM     85  C   UNL A   1      45.361  25.520  34.377  1.00  0.00     0.031 A 
ATOM     86  C   UNL A   1      46.794  27.224  33.448  1.00  0.00     0.131 A 
ATOM     87  C   UNL A   1      46.480  24.969  35.019  1.00  0.00     0.055 A 
ATOM     88  C   UNL A   1      47.911  26.638  34.041  1.00  0.00     0.041 A 
ATOM     89  F   UNL A   1      46.988  28.331  32.714  1.00  0.00    -0.206 F 
ATOM     90  C   UNL A   1      47.756  25.510  34.842  1.00  0.00     0.022 A 
BRANCH  87  91
ATOM     91  S   UNL A   1      46.234  23.578  36.157  1.00  0.00     0.124 S 
ATOM     92  O   UNL A   1      47.543  22.933  36.135  1.00  0.00    -0.237 OA
ATOM     93  O   UNL A   1      45.875  24.251  37.401  1.00  0.00    -0.237 OA
ATOM     94  O   UNL A   1      45.154  22.814  35.534  1.00  0.00    -0.744 OA
ENDBRANCH  87  91
ENDBRANCH  61  84
ENDBRANCH  35  36
ENDBRANCH  27  30
ENDBRANCH  25  26
ENDBRANCH  24  25
ENDBRANCH  23  24
ENDBRANCH   1  23
TORSDOF 20
ENDMDL
MODEL 3
REMARK VINA RESULT:     -11.0      1.675      7.689
REMARK SMILES CC(C)OCCS(=O)(=O)Nc1nccnc1C(=O)NCCCCNC(=O)c1ccc(-c2c3nc(c(-c4cc(S(=O)(=O)[O-])ccc4F)c4ccc([nH]4)c(-c4cc(S(=O)(=O)[O-])ccc4F)c4nc(c(-c5cc(S(=O)(=O)[O-])ccc5F)c5ccc2[nH]5)C=C4)C=C3)cc1
REMARK SMILES IDX 20 1 19 2 17 3 18 4 16 6 11 7 12 8 13 9 15 10 14 11 10 12
REMARK SMILES IDX 7 14 8 15 9 16 6 17 5 18 4 19 2 20 1 21 3 22 21 23 22 24
REMARK SMILES IDX 23 25 24 26 25 27 26 29 27 30 28 31 89 32 29 33 88 34 30 35
REMARK SMILES IDX 31 36 32 37 82 38 33 39 87 40 81 41 83 42 34 43 86 44 80 45
REMARK SMILES IDX 79 46 35 48 67 49 47 50 66 51 48 52 51 53 65 54 84 55 49 56
REMARK SMILES IDX 50 57 64 59 85 60 52 61 36 62 37 63 45 64 38 65 44 66 46 67
REMARK SMILES IDX 43 68 39 69 40 70 41 71 42 72 68 73 69 74 77 75 70 76 76 77
REMARK SMILES IDX 78 78 75 79 71 80 72 81 73 82 74 83 53 84 54 85 62 86 55 87
REMARK SMILES IDX 61 88 63 89 60 90 56 91 57 92 58 93 59 94
REMARK H PARENT 19 5 10 13 24 28 83 47 51 58
REMARK Flexibility Score: inf
ROOT
ATOM      1  C   UNL A   1      33.225  27.783  24.308  1.00  0.00     0.116 C 
ENDROOT
BRANCH   1   2
ATOM      2  N   UNL A   1      33.644  27.226  23.079  1.00  0.00    -0.351 N 
ATOM      3  C   UNL A   1      32.812  26.529  22.241  1.00  0.00     0.273 C 
ATOM      4  O   UNL A   1      33.362  25.982  21.279  1.00  0.00    -0.267 OA
ATOM      5  H   UNL A   1      34.584  27.344  22.809  1.00  0.00     0.163 HD
BRANCH   3   6
ATOM      6  C   UNL A   1      31.291  26.394  22.412  1.00  0.00     0.171 A 
ATOM      7  C   UNL A   1      30.590  25.542  23.291  1.00  0.00     0.171 A 
ATOM      8  N   UNL A   1      29.590  26.074  24.047  1.00  0.00    -0.235 NA
ATOM      9  C   UNL A   1      29.195  27.348  23.799  1.00  0.00     0.133 A 
ATOM     10  N   UNL A   1      30.733  27.604  22.040  1.00  0.00    -0.246 NA
ATOM     11  C   UNL A   1      29.705  28.075  22.760  1.00  0.00     0.132 A 
BRANCH   7  12
ATOM     12  N   UNL A   1      30.719  24.188  23.746  1.00  0.00    -0.265 N 
ATOM     13  H   UNL A   1      30.141  23.559  23.258  1.00  0.00     0.181 HD
BRANCH  12  14
ATOM     14  S   UNL A   1      31.640  23.454  24.927  1.00  0.00     0.236 S 
ATOM     15  O   UNL A   1      30.653  22.736  25.708  1.00  0.00    -0.207 OA
ATOM     16  O   UNL A   1      32.458  24.437  25.600  1.00  0.00    -0.207 OA
BRANCH  14  17
ATOM     17  C   UNL A   1      32.861  22.250  24.427  1.00  0.00     0.188 C 
BRANCH  17  18
ATOM     18  C   UNL A   1      33.558  21.438  25.496  1.00  0.00     0.178 C 
BRANCH  18  19
ATOM     19  O   UNL A   1      34.463  22.170  26.325  1.00  0.00    -0.378 OA
BRANCH  19  20
ATOM     20  C   UNL A   1      35.806  22.329  25.877  1.00  0.00     0.112 C 
ATOM     21  C   UNL A   1      36.270  21.159  25.011  1.00  0.00     0.038 C 
ATOM     22  C   UNL A   1      35.995  23.747  25.347  1.00  0.00     0.038 C 
ENDBRANCH  19  20
ENDBRANCH  18  19
ENDBRANCH  17  18
ENDBRANCH  14  17
ENDBRANCH  12  14
ENDBRANCH   7  12
ENDBRANCH   3   6
ENDBRANCH   1   2
BRANCH   1  23
ATOM     23  C   UNL A   1      32.876  29.253  24.340  1.00  0.00     0.023 C 
BRANCH  23  24
ATOM     24  C   UNL A   1      31.839  29.649  25.366  1.00  0.00     0.023 C 
BRANCH  24  25
ATOM     25  C   UNL A   1      32.389  30.012  26.736  1.00  0.00     0.116 C 
BRANCH  25  26
ATOM     26  N   UNL A   1      32.338  31.437  27.067  1.00  0.00    -0.352 N 
ATOM     27  C   UNL A   1      33.343  32.255  27.541  1.00  0.00     0.251 C 
ATOM     28  H   UNL A   1      31.466  31.872  26.932  1.00  0.00     0.163 HD
ATOM     29  O   UNL A   1      33.133  33.436  27.806  1.00  0.00    -0.269 OA
BRANCH  27  30
ATOM     30  C   UNL A   1      34.665  31.656  27.792  1.00  0.00     0.039 A 
ATOM     31  C   UNL A   1      35.754  32.497  28.028  1.00  0.00     0.014 A 
ATOM     32  C   UNL A   1      34.765  30.282  27.997  1.00  0.00     0.014 A 
ATOM     33  C   UNL A   1      36.904  31.969  28.612  1.00  0.00     0.010 A 
ATOM     34  C   UNL A   1      35.849  29.793  28.709  1.00  0.00     0.010 A 
ATOM     35  C   UNL A   1      36.929  30.630  29.035  1.00  0.00    -0.014 A 
BRANCH  35  36
ATOM     36  C   UNL A   1      38.067  30.068  29.812  1.00  0.00     0.031 A 
ATOM     37  C   UNL A   1      38.277  30.519  31.233  1.00  0.00     0.074 A 
ATOM     38  C   UNL A   1      38.959  29.245  29.222  1.00  0.00     0.049 A 
ATOM     39  N   UNL A   1      39.280  30.288  32.038  1.00  0.00    -0.248 NA
ATOM     40  C   UNL A   1      37.241  31.398  31.800  1.00  0.00     0.031 C 
ATOM     41  C   UNL A   1      38.903  28.782  27.832  1.00  0.00     0.029 A 
ATOM     42  N   UNL A   1      40.098  28.656  29.714  1.00  0.00    -0.354 N 
ATOM     43  C   UNL A   1      39.011  31.023  33.188  1.00  0.00     0.074 A 
ATOM     44  C   UNL A   1      37.802  31.773  32.937  1.00  0.00     0.031 C 
ATOM     45  C   UNL A   1      39.933  27.951  27.600  1.00  0.00     0.029 A 
ATOM     46  C   UNL A   1      40.758  27.864  28.801  1.00  0.00     0.049 A 
ATOM     47  H   UNL A   1      40.415  28.788  30.638  1.00  0.00     0.167 HD
ATOM     48  C   UNL A   1      39.689  31.041  34.362  1.00  0.00     0.034 A 
ATOM     49  C   UNL A   1      41.901  27.158  28.915  1.00  0.00     0.034 A 
ATOM     50  C   UNL A   1      40.869  30.252  34.608  1.00  0.00     0.049 A 
ATOM     51  C   UNL A   1      42.639  27.188  30.231  1.00  0.00     0.074 A 
ATOM     52  C   UNL A   1      41.600  30.136  35.776  1.00  0.00     0.029 A 
ATOM     53  N   UNL A   1      41.490  29.439  33.667  1.00  0.00    -0.354 N 
ATOM     54  N   UNL A   1      42.347  27.849  31.329  1.00  0.00    -0.248 NA
ATOM     55  C   UNL A   1      43.856  26.372  30.328  1.00  0.00     0.031 C 
ATOM     56  C   UNL A   1      42.696  29.304  35.525  1.00  0.00     0.029 A 
ATOM     57  C   UNL A   1      42.607  28.839  34.221  1.00  0.00     0.049 A 
ATOM     58  H   UNL A   1      41.180  29.310  32.741  1.00  0.00     0.167 HD
ATOM     59  C   UNL A   1      43.324  27.497  32.256  1.00  0.00     0.074 A 
ATOM     60  C   UNL A   1      44.207  26.561  31.592  1.00  0.00     0.031 C 
ATOM     61  C   UNL A   1      43.475  27.906  33.541  1.00  0.00     0.034 A 
BRANCH  48  62
ATOM     62  C   UNL A   1      39.166  31.952  35.448  1.00  0.00     0.023 A 
ATOM     63  C   UNL A   1      39.582  33.292  35.550  1.00  0.00     0.031 A 
ATOM     64  C   UNL A   1      38.286  31.462  36.428  1.00  0.00     0.131 A 
ATOM     65  C   UNL A   1      39.203  34.062  36.659  1.00  0.00     0.055 A 
ATOM     66  C   UNL A   1      37.834  32.265  37.478  1.00  0.00     0.041 A 
ATOM     67  F   UNL A   1      37.869  30.187  36.398  1.00  0.00    -0.206 F 
ATOM     68  C   UNL A   1      38.309  33.567  37.610  1.00  0.00     0.022 A 
BRANCH  65  69
ATOM     69  S   UNL A   1      40.032  35.653  36.929  1.00  0.00     0.124 S 
ATOM     70  O   UNL A   1      39.430  36.088  38.188  1.00  0.00    -0.237 OA
ATOM     71  O   UNL A   1      41.437  35.270  36.990  1.00  0.00    -0.237 OA
ATOM     72  O   UNL A   1      39.649  36.441  35.759  1.00  0.00    -0.744 OA
ENDBRANCH  65  69
ENDBRANCH  48  62
BRANCH  49  73
ATOM     73  C   UNL A   1      42.426  26.363  27.766  1.00  0.00     0.023 A 
ATOM     74  C   UNL A   1      41.972  25.056  27.525  1.00  0.00     0.031 A 
ATOM     75  C   UNL A   1      43.420  26.880  26.918  1.00  0.00     0.131 A 
ATOM     76  C   UNL A   1      42.545  24.293  26.495  1.00  0.00     0.055 A 
ATOM     77  C   UNL A   1      43.950  26.135  25.861  1.00  0.00     0.041 A 
ATOM     78  F   UNL A   1      43.888  28.126  27.098  1.00  0.00    -0.206 F 
ATOM     79  C   UNL A   1      43.522  24.828  25.653  1.00  0.00     0.022 A 
BRANCH  76  80
ATOM     80  S   UNL A   1      42.054  22.554  26.323  1.00  0.00     0.124 S 
ATOM     81  O   UNL A   1      42.642  22.205  25.036  1.00  0.00    -0.237 OA
ATOM     82  O   UNL A   1      42.674  21.947  27.497  1.00  0.00    -0.237 OA
ATOM     83  O   UNL A   1      40.595  22.607  26.350  1.00  0.00    -0.744 OA
ENDBRANCH  76  80
ENDBRANCH  49  73
BRANCH  61  84
ATOM     84  C   UNL A   1      44.604  27.293  34.330  1.00  0.00     0.023 A 
ATOM     85  C   UNL A   1      44.483  26.039  34.952  1.00  0.00     0.031 A 
ATOM     86  C   UNL A   1      45.829  27.976  34.449  1.00  0.00     0.131 A 
ATOM     87  C   UNL A   1      45.551  25.526  35.703  1.00  0.00     0.055 A 
ATOM     88  C   UNL A   1      46.906  27.435  35.148  1.00  0.00     0.041 A 
ATOM     89  F   UNL A   1      45.998  29.178  33.876  1.00  0.00    -0.206 F 
ATOM     90  C   UNL A   1      46.767  26.208  35.790  1.00  0.00     0.022 A 
BRANCH  87  91
ATOM     91  S   UNL A   1      45.303  23.989  36.634  1.00  0.00     0.124 S 
ATOM     92  O   UNL A   1      44.234  23.345  35.878  1.00  0.00    -0.237 OA
ATOM     93  O   UNL A   1      46.615  23.357  36.549  1.00  0.00    -0.237 OA
ATOM     94  O   UNL A   1      44.926  24.454  37.968  1.00  0.00    -0.744 OA
ENDBRANCH  87  91
ENDBRANCH  61  84
ENDBRANCH  35  36
ENDBRANCH  27  30
ENDBRANCH  25  26
ENDBRANCH  24  25
ENDBRANCH  23  24
ENDBRANCH   1  23
TORSDOF 20
ENDMDL
