MODEL 1
REMARK VINA RESULT:     -11.7      0.000      0.000
REMARK SMILES C[C@@H]1CN([C@@H](CCS(C)(=O)=O)C(=O)NCCCCNC(=O)c2ccc(-c3c4nc(c(-c5cc(S(=O)(=O)[O-])ccc5F)c5ccc([nH]5)c(-c5cc(S(=O)(=O)[O-])ccc5F)c5nc(c(-c6cc(S(=O)(=O)[O-])ccc6F)c6ccc3[nH]6)C=C5)C=C4)cc2)S(=O)(=O)C1
REMARK SMILES IDX 16 1 15 2 14 3 12 4 13 5 5 7 4 8 1 9 2 10 3 11 88 12 85 13
REMARK SMILES IDX 86 14 87 15 6 16 7 17 8 18 9 19 10 20 11 21 17 22 18 23
REMARK SMILES IDX 19 24 20 25 21 27 22 28 23 29 84 30 24 31 83 32 25 33 26 34
REMARK SMILES IDX 27 35 77 36 28 37 82 38 76 39 78 40 29 41 81 42 75 43 74 44
REMARK SMILES IDX 30 46 62 47 42 48 61 49 43 50 46 51 60 52 79 53 44 54 45 55
REMARK SMILES IDX 59 57 80 58 47 59 31 60 32 61 40 62 33 63 39 64 41 65 38 66
REMARK SMILES IDX 34 67 35 68 36 69 37 70 63 71 64 72 72 73 65 74 71 75 73 76
REMARK SMILES IDX 70 77 66 78 67 79 68 80 69 81 48 82 49 83 57 84 50 85 56 86
REMARK SMILES IDX 58 87 55 88 51 89 52 90 53 91 54 92
REMARK H PARENT 14 6 19 26 78 45 46 56
REMARK Flexibility Score: inf
ROOT
ATOM      1  C   UNL A   1      34.877  22.101  25.757  1.00  0.00     0.023 C 
ENDROOT
BRANCH   1   2
ATOM      2  C   UNL A   1      34.901  23.298  24.814  1.00  0.00     0.116 C 
BRANCH   2   3
ATOM      3  N   UNL A   1      34.396  22.994  23.501  1.00  0.00    -0.355 N 
ATOM      4  C   UNL A   1      33.401  23.558  22.782  1.00  0.00     0.238 C 
ATOM      5  O   UNL A   1      33.383  23.299  21.569  1.00  0.00    -0.273 OA
ATOM      6  H   UNL A   1      34.853  22.248  23.050  1.00  0.00     0.163 HD
BRANCH   4   7
ATOM      7  C   UNL A   1      32.364  24.534  23.332  1.00  0.00     0.163 C 
BRANCH   7   8
ATOM      8  N   UNL A   1      32.023  25.879  22.775  1.00  0.00    -0.189 NA
ATOM      9  C   UNL A   1      29.433  28.634  22.825  1.00  0.00     0.010 C 
ATOM     10  C   UNL A   1      30.612  27.761  22.447  1.00  0.00     0.017 C 
ATOM     11  C   UNL A   1      30.724  26.449  23.236  1.00  0.00     0.107 C 
ATOM     12  C   UNL A   1      31.938  28.469  22.687  1.00  0.00     0.159 C 
ATOM     13  S   UNL A   1      33.143  27.160  22.702  1.00  0.00     0.215 S 
ATOM     14  O   UNL A   1      33.855  27.244  23.955  1.00  0.00    -0.212 OA
ATOM     15  O   UNL A   1      33.770  27.124  21.405  1.00  0.00    -0.212 OA
ENDBRANCH   7   8
BRANCH   7  16
ATOM     16  C   UNL A   1      31.085  23.837  23.876  1.00  0.00     0.046 C 
BRANCH  16  17
ATOM     17  C   UNL A   1      31.212  22.935  25.101  1.00  0.00     0.139 C 
BRANCH  17  18
ATOM     18  S   UNL A   1      31.128  23.787  26.680  1.00  0.00     0.147 S 
ATOM     19  C   UNL A   1      32.193  25.192  26.517  1.00  0.00     0.158 C 
ATOM     20  O   UNL A   1      29.775  24.286  26.827  1.00  0.00    -0.229 OA
ATOM     21  O   UNL A   1      31.728  22.960  27.704  1.00  0.00    -0.229 OA
ENDBRANCH  17  18
ENDBRANCH  16  17
ENDBRANCH   7  16
ENDBRANCH   4   7
ENDBRANCH   2   3
ENDBRANCH   1   2
BRANCH   1  22
ATOM     22  C   UNL A   1      35.868  21.024  25.343  1.00  0.00     0.023 C 
BRANCH  22  23
ATOM     23  C   UNL A   1      37.306  21.508  25.199  1.00  0.00     0.116 C 
BRANCH  23  24
ATOM     24  N   UNL A   1      38.312  20.476  25.410  1.00  0.00    -0.352 N 
ATOM     25  C   UNL A   1      39.499  20.598  26.101  1.00  0.00     0.251 C 
ATOM     26  H   UNL A   1      38.123  19.593  25.016  1.00  0.00     0.163 HD
ATOM     27  O   UNL A   1      40.304  19.677  26.163  1.00  0.00    -0.269 OA
BRANCH  25  28
ATOM     28  C   UNL A   1      39.796  21.911  26.707  1.00  0.00     0.039 A 
ATOM     29  C   UNL A   1      40.794  21.986  27.678  1.00  0.00     0.014 A 
ATOM     30  C   UNL A   1      39.238  23.070  26.158  1.00  0.00     0.014 A 
ATOM     31  C   UNL A   1      41.306  23.236  28.029  1.00  0.00     0.010 A 
ATOM     32  C   UNL A   1      39.826  24.300  26.433  1.00  0.00     0.010 A 
ATOM     33  C   UNL A   1      40.872  24.396  27.364  1.00  0.00    -0.014 A 
BRANCH  33  34
ATOM     34  C   UNL A   1      41.515  25.713  27.624  1.00  0.00     0.031 A 
ATOM     35  C   UNL A   1      40.763  26.775  28.380  1.00  0.00     0.074 A 
ATOM     36  C   UNL A   1      42.752  25.968  27.148  1.00  0.00     0.049 A 
ATOM     37  N   UNL A   1      41.125  27.997  28.670  1.00  0.00    -0.248 NA
ATOM     38  C   UNL A   1      39.412  26.423  28.848  1.00  0.00     0.031 C 
ATOM     39  C   UNL A   1      43.566  25.037  26.361  1.00  0.00     0.029 A 
ATOM     40  N   UNL A   1      43.546  27.085  27.251  1.00  0.00    -0.354 N 
ATOM     41  C   UNL A   1      40.051  28.558  29.351  1.00  0.00     0.074 A 
ATOM     42  C   UNL A   1      38.996  27.570  29.362  1.00  0.00     0.031 C 
ATOM     43  C   UNL A   1      44.753  25.605  26.092  1.00  0.00     0.029 A 
ATOM     44  C   UNL A   1      44.770  26.960  26.632  1.00  0.00     0.049 A 
ATOM     45  H   UNL A   1      43.265  27.901  27.726  1.00  0.00     0.167 HD
ATOM     46  C   UNL A   1      39.963  29.776  29.939  1.00  0.00     0.034 A 
ATOM     47  C   UNL A   1      45.784  27.841  26.500  1.00  0.00     0.034 A 
ATOM     48  C   UNL A   1      41.024  30.750  29.925  1.00  0.00     0.049 A 
ATOM     49  C   UNL A   1      45.637  29.211  27.121  1.00  0.00     0.074 A 
ATOM     50  C   UNL A   1      41.055  31.996  30.527  1.00  0.00     0.029 A 
ATOM     51  N   UNL A   1      42.240  30.595  29.271  1.00  0.00    -0.354 N 
ATOM     52  N   UNL A   1      44.633  29.703  27.810  1.00  0.00    -0.248 NA
ATOM     53  C   UNL A   1      46.764  30.139  26.955  1.00  0.00     0.031 C 
ATOM     54  C   UNL A   1      42.251  32.625  30.170  1.00  0.00     0.029 A 
ATOM     55  C   UNL A   1      43.010  31.738  29.424  1.00  0.00     0.049 A 
ATOM     56  H   UNL A   1      42.514  29.792  28.773  1.00  0.00     0.167 HD
ATOM     57  C   UNL A   1      45.024  30.986  28.186  1.00  0.00     0.074 A 
ATOM     58  C   UNL A   1      46.362  31.179  27.668  1.00  0.00     0.031 C 
ATOM     59  C   UNL A   1      44.341  31.920  28.897  1.00  0.00     0.034 A 
BRANCH  46  60
ATOM     60  C   UNL A   1      38.666  30.125  30.629  1.00  0.00     0.023 A 
ATOM     61  C   UNL A   1      37.648  30.840  29.971  1.00  0.00     0.031 A 
ATOM     62  C   UNL A   1      38.443  29.739  31.962  1.00  0.00     0.131 A 
ATOM     63  C   UNL A   1      36.484  31.198  30.665  1.00  0.00     0.055 A 
ATOM     64  C   UNL A   1      37.248  30.029  32.621  1.00  0.00     0.041 A 
ATOM     65  F   UNL A   1      39.388  29.078  32.649  1.00  0.00    -0.206 F 
ATOM     66  C   UNL A   1      36.264  30.773  31.976  1.00  0.00     0.022 A 
BRANCH  63  67
ATOM     67  S   UNL A   1      35.317  32.337  29.870  1.00  0.00     0.124 S 
ATOM     68  O   UNL A   1      36.201  33.421  29.451  1.00  0.00    -0.237 OA
ATOM     69  O   UNL A   1      34.756  31.520  28.800  1.00  0.00    -0.237 OA
ATOM     70  O   UNL A   1      34.388  32.681  30.946  1.00  0.00    -0.744 OA
ENDBRANCH  63  67
ENDBRANCH  46  60
BRANCH  47  71
ATOM     71  C   UNL A   1      47.017  27.486  25.735  1.00  0.00     0.023 A 
ATOM     72  C   UNL A   1      47.179  27.875  24.395  1.00  0.00     0.031 A 
ATOM     73  C   UNL A   1      48.019  26.679  26.307  1.00  0.00     0.131 A 
ATOM     74  C   UNL A   1      48.275  27.405  23.654  1.00  0.00     0.055 A 
ATOM     75  C   UNL A   1      49.144  26.273  25.586  1.00  0.00     0.041 A 
ATOM     76  F   UNL A   1      47.917  26.271  27.581  1.00  0.00    -0.206 F 
ATOM     77  C   UNL A   1      49.268  26.621  24.245  1.00  0.00     0.022 A 
BRANCH  74  78
ATOM     78  S   UNL A   1      48.318  27.725  21.868  1.00  0.00     0.124 S 
ATOM     79  O   UNL A   1      47.003  28.313  21.641  1.00  0.00    -0.237 OA
ATOM     80  O   UNL A   1      49.456  28.631  21.750  1.00  0.00    -0.237 OA
ATOM     81  O   UNL A   1      48.518  26.399  21.289  1.00  0.00    -0.744 OA
ENDBRANCH  74  78
ENDBRANCH  47  71
BRANCH  59  82
ATOM     82  C   UNL A   1      45.054  33.218  29.194  1.00  0.00     0.023 A 
ATOM     83  C   UNL A   1      44.902  34.352  28.377  1.00  0.00     0.031 A 
ATOM     84  C   UNL A   1      45.904  33.317  30.311  1.00  0.00     0.131 A 
ATOM     85  C   UNL A   1      45.636  35.516  28.654  1.00  0.00     0.055 A 
ATOM     86  C   UNL A   1      46.575  34.500  30.622  1.00  0.00     0.041 A 
ATOM     87  F   UNL A   1      46.090  32.266  31.124  1.00  0.00    -0.206 F 
ATOM     88  C   UNL A   1      46.454  35.604  29.783  1.00  0.00     0.022 A 
BRANCH  85  89
ATOM     89  S   UNL A   1      45.587  36.880  27.461  1.00  0.00     0.124 S 
ATOM     90  O   UNL A   1      45.843  38.037  28.312  1.00  0.00    -0.237 OA
ATOM     91  O   UNL A   1      46.655  36.522  26.532  1.00  0.00    -0.237 OA
ATOM     92  O   UNL A   1      44.236  36.804  26.908  1.00  0.00    -0.744 OA
ENDBRANCH  85  89
ENDBRANCH  59  82
ENDBRANCH  33  34
ENDBRANCH  25  28
ENDBRANCH  23  24
ENDBRANCH  22  23
ENDBRANCH   1  22
TORSDOF 18
ENDMDL
MODEL 2
REMARK VINA RESULT:     -11.3      1.809      7.784
REMARK SMILES C[C@@H]1CN([C@@H](CCS(C)(=O)=O)C(=O)NCCCCNC(=O)c2ccc(-c3c4nc(c(-c5cc(S(=O)(=O)[O-])ccc5F)c5ccc([nH]5)c(-c5cc(S(=O)(=O)[O-])ccc5F)c5nc(c(-c6cc(S(=O)(=O)[O-])ccc6F)c6ccc3[nH]6)C=C5)C=C4)cc2)S(=O)(=O)C1
REMARK SMILES IDX 16 1 15 2 14 3 12 4 13 5 5 7 4 8 1 9 2 10 3 11 88 12 85 13
REMARK SMILES IDX 86 14 87 15 6 16 7 17 8 18 9 19 10 20 11 21 17 22 18 23
REMARK SMILES IDX 19 24 20 25 21 27 22 28 23 29 84 30 24 31 83 32 25 33 26 34
REMARK SMILES IDX 27 35 77 36 28 37 82 38 76 39 78 40 29 41 81 42 75 43 74 44
REMARK SMILES IDX 30 46 62 47 42 48 61 49 43 50 46 51 60 52 79 53 44 54 45 55
REMARK SMILES IDX 59 57 80 58 47 59 31 60 32 61 40 62 33 63 39 64 41 65 38 66
REMARK SMILES IDX 34 67 35 68 36 69 37 70 63 71 64 72 72 73 65 74 71 75 73 76
REMARK SMILES IDX 70 77 66 78 67 79 68 80 69 81 48 82 49 83 57 84 50 85 56 86
REMARK SMILES IDX 58 87 55 88 51 89 52 90 53 91 54 92
REMARK H PARENT 14 6 19 26 78 45 46 56
REMARK Flexibility Score: inf
ROOT
ATOM      1  C   UNL A   1      35.292  22.359  25.861  1.00  0.00     0.023 C 
ENDROOT
BRANCH   1   2
ATOM      2  C   UNL A   1      35.680  23.696  25.241  1.00  0.00     0.116 C 
BRANCH   2   3
ATOM      3  N   UNL A   1      35.121  23.895  23.930  1.00  0.00    -0.355 N 
ATOM      4  C   UNL A   1      33.986  24.514  23.536  1.00  0.00     0.238 C 
ATOM      5  O   UNL A   1      33.906  24.802  22.332  1.00  0.00    -0.273 OA
ATOM      6  H   UNL A   1      35.656  23.517  23.195  1.00  0.00     0.163 HD
BRANCH   4   7
ATOM      7  C   UNL A   1      32.851  24.942  24.463  1.00  0.00     0.163 C 
BRANCH   7   8
ATOM      8  N   UNL A   1      32.621  26.312  25.016  1.00  0.00    -0.189 NA
ATOM      9  C   UNL A   1      34.194  29.083  27.053  1.00  0.00     0.010 C 
ATOM     10  C   UNL A   1      33.195  28.217  26.311  1.00  0.00     0.017 C 
ATOM     11  C   UNL A   1      33.747  26.872  25.819  1.00  0.00     0.107 C 
ATOM     12  C   UNL A   1      32.676  28.904  25.056  1.00  0.00     0.159 C 
ATOM     13  S   UNL A   1      31.975  27.586  24.088  1.00  0.00     0.215 S 
ATOM     14  O   UNL A   1      32.619  27.610  22.796  1.00  0.00    -0.212 OA
ATOM     15  O   UNL A   1      30.548  27.600  24.292  1.00  0.00    -0.212 OA
ENDBRANCH   7   8
BRANCH   7  16
ATOM     16  C   UNL A   1      31.493  24.259  24.134  1.00  0.00     0.046 C 
BRANCH  16  17
ATOM     17  C   UNL A   1      30.996  23.147  25.053  1.00  0.00     0.139 C 
BRANCH  17  18
ATOM     18  S   UNL A   1      30.511  23.682  26.697  1.00  0.00     0.147 S 
ATOM     19  C   UNL A   1      29.167  22.626  27.161  1.00  0.00     0.158 C 
ATOM     20  O   UNL A   1      31.617  23.389  27.588  1.00  0.00    -0.229 OA
ATOM     21  O   UNL A   1      29.953  25.014  26.624  1.00  0.00    -0.229 OA
ENDBRANCH  17  18
ENDBRANCH  16  17
ENDBRANCH   7  16
ENDBRANCH   4   7
ENDBRANCH   2   3
ENDBRANCH   1   2
BRANCH   1  22
ATOM     22  C   UNL A   1      36.093  21.203  25.281  1.00  0.00     0.023 C 
BRANCH  22  23
ATOM     23  C   UNL A   1      37.542  21.541  24.949  1.00  0.00     0.116 C 
BRANCH  23  24
ATOM     24  N   UNL A   1      38.493  20.483  25.262  1.00  0.00    -0.352 N 
ATOM     25  C   UNL A   1      39.593  20.569  26.088  1.00  0.00     0.251 C 
ATOM     26  H   UNL A   1      38.332  19.609  24.838  1.00  0.00     0.163 HD
ATOM     27  O   UNL A   1      40.365  19.629  26.233  1.00  0.00    -0.269 OA
BRANCH  25  28
ATOM     28  C   UNL A   1      39.847  21.868  26.743  1.00  0.00     0.039 A 
ATOM     29  C   UNL A   1      40.843  21.941  27.715  1.00  0.00     0.014 A 
ATOM     30  C   UNL A   1      39.248  23.027  26.238  1.00  0.00     0.014 A 
ATOM     31  C   UNL A   1      41.313  23.194  28.112  1.00  0.00     0.010 A 
ATOM     32  C   UNL A   1      39.794  24.265  26.558  1.00  0.00     0.010 A 
ATOM     33  C   UNL A   1      40.839  24.362  27.491  1.00  0.00    -0.014 A 
BRANCH  33  34
ATOM     34  C   UNL A   1      41.437  25.690  27.800  1.00  0.00     0.031 A 
ATOM     35  C   UNL A   1      42.840  25.999  27.356  1.00  0.00     0.074 A 
ATOM     36  C   UNL A   1      40.735  26.598  28.511  1.00  0.00     0.049 A 
ATOM     37  N   UNL A   1      43.556  27.073  27.563  1.00  0.00    -0.248 NA
ATOM     38  C   UNL A   1      43.543  24.947  26.602  1.00  0.00     0.031 C 
ATOM     39  C   UNL A   1      39.382  26.401  29.038  1.00  0.00     0.029 A 
ATOM     40  N   UNL A   1      41.060  27.870  28.918  1.00  0.00    -0.354 N 
ATOM     41  C   UNL A   1      44.788  26.827  26.968  1.00  0.00     0.074 A 
ATOM     42  C   UNL A   1      44.749  25.474  26.461  1.00  0.00     0.031 C 
ATOM     43  C   UNL A   1      38.980  27.523  29.658  1.00  0.00     0.029 A 
ATOM     44  C   UNL A   1      40.062  28.501  29.629  1.00  0.00     0.049 A 
ATOM     45  H   UNL A   1      41.927  28.293  28.719  1.00  0.00     0.167 HD
ATOM     46  C   UNL A   1      45.846  27.664  26.831  1.00  0.00     0.034 A 
ATOM     47  C   UNL A   1      40.028  29.721  30.204  1.00  0.00     0.034 A 
ATOM     48  C   UNL A   1      45.869  29.013  27.336  1.00  0.00     0.049 A 
ATOM     49  C   UNL A   1      41.241  30.613  30.081  1.00  0.00     0.074 A 
ATOM     50  C   UNL A   1      46.872  29.959  27.214  1.00  0.00     0.029 A 
ATOM     51  N   UNL A   1      44.849  29.608  28.068  1.00  0.00    -0.354 N 
ATOM     52  N   UNL A   1      42.378  30.382  29.465  1.00  0.00    -0.248 NA
ATOM     53  C   UNL A   1      41.163  31.933  30.721  1.00  0.00     0.031 C 
ATOM     54  C   UNL A   1      46.494  31.093  27.938  1.00  0.00     0.029 A 
ATOM     55  C   UNL A   1      45.217  30.893  28.434  1.00  0.00     0.049 A 
ATOM     56  H   UNL A   1      43.992  29.180  28.292  1.00  0.00     0.167 HD
ATOM     57  C   UNL A   1      43.134  31.542  29.617  1.00  0.00     0.074 A 
ATOM     58  C   UNL A   1      42.315  32.476  30.360  1.00  0.00     0.031 C 
ATOM     59  C   UNL A   1      44.392  31.813  29.181  1.00  0.00     0.034 A 
BRANCH  46  60
ATOM     60  C   UNL A   1      47.068  27.132  26.122  1.00  0.00     0.023 A 
ATOM     61  C   UNL A   1      48.077  26.436  26.811  1.00  0.00     0.031 A 
ATOM     62  C   UNL A   1      47.227  27.324  24.738  1.00  0.00     0.131 A 
ATOM     63  C   UNL A   1      49.226  26.012  26.129  1.00  0.00     0.055 A 
ATOM     64  C   UNL A   1      48.336  26.828  24.051  1.00  0.00     0.041 A 
ATOM     65  F   UNL A   1      46.309  28.003  24.032  1.00  0.00    -0.206 F 
ATOM     66  C   UNL A   1      49.349  26.178  24.748  1.00  0.00     0.022 A 
BRANCH  63  67
ATOM     67  S   UNL A   1      50.615  25.355  27.093  1.00  0.00     0.124 S 
ATOM     68  O   UNL A   1      51.080  26.550  27.792  1.00  0.00    -0.237 OA
ATOM     69  O   UNL A   1      49.973  24.339  27.920  1.00  0.00    -0.237 OA
ATOM     70  O   UNL A   1      51.529  24.844  26.072  1.00  0.00    -0.744 OA
ENDBRANCH  63  67
ENDBRANCH  46  60
BRANCH  47  71
ATOM     71  C   UNL A   1      38.829  30.177  30.972  1.00  0.00     0.023 A 
ATOM     72  C   UNL A   1      37.910  31.081  30.414  1.00  0.00     0.031 A 
ATOM     73  C   UNL A   1      38.628  29.779  32.306  1.00  0.00     0.131 A 
ATOM     74  C   UNL A   1      36.876  31.608  31.204  1.00  0.00     0.055 A 
ATOM     75  C   UNL A   1      37.556  30.252  33.066  1.00  0.00     0.041 A 
ATOM     76  F   UNL A   1      39.476  28.922  32.896  1.00  0.00    -0.206 F 
ATOM     77  C   UNL A   1      36.682  31.186  32.522  1.00  0.00     0.022 A 
BRANCH  74  78
ATOM     78  S   UNL A   1      35.863  32.953  30.526  1.00  0.00     0.124 S 
ATOM     79  O   UNL A   1      35.773  33.858  31.666  1.00  0.00    -0.237 OA
ATOM     80  O   UNL A   1      36.678  33.411  29.406  1.00  0.00    -0.237 OA
ATOM     81  O   UNL A   1      34.616  32.288  30.156  1.00  0.00    -0.744 OA
ENDBRANCH  74  78
ENDBRANCH  47  71
BRANCH  59  82
ATOM     82  C   UNL A   1      44.935  33.194  29.459  1.00  0.00     0.023 A 
ATOM     83  C   UNL A   1      44.626  34.293  28.640  1.00  0.00     0.031 A 
ATOM     84  C   UNL A   1      45.783  33.410  30.562  1.00  0.00     0.131 A 
ATOM     85  C   UNL A   1      45.208  35.544  28.898  1.00  0.00     0.055 A 
ATOM     86  C   UNL A   1      46.301  34.672  30.855  1.00  0.00     0.041 A 
ATOM     87  F   UNL A   1      46.117  32.398  31.377  1.00  0.00    -0.206 F 
ATOM     88  C   UNL A   1      46.025  35.745  30.013  1.00  0.00     0.022 A 
BRANCH  85  89
ATOM     89  S   UNL A   1      44.963  36.881  27.699  1.00  0.00     0.124 S 
ATOM     90  O   UNL A   1      46.337  37.238  27.359  1.00  0.00    -0.237 OA
ATOM     91  O   UNL A   1      44.197  36.222  26.645  1.00  0.00    -0.237 OA
ATOM     92  O   UNL A   1      44.230  37.893  28.456  1.00  0.00    -0.744 OA
ENDBRANCH  85  89
ENDBRANCH  59  82
ENDBRANCH  33  34
ENDBRANCH  25  28
ENDBRANCH  23  24
ENDBRANCH  22  23
ENDBRANCH   1  22
TORSDOF 18
ENDMDL
MODEL 3
REMARK VINA RESULT:     -11.3      1.846      2.319
REMARK SMILES C[C@@H]1CN([C@@H](CCS(C)(=O)=O)C(=O)NCCCCNC(=O)c2ccc(-c3c4nc(c(-c5cc(S(=O)(=O)[O-])ccc5F)c5ccc([nH]5)c(-c5cc(S(=O)(=O)[O-])ccc5F)c5nc(c(-c6cc(S(=O)(=O)[O-])ccc6F)c6ccc3[nH]6)C=C5)C=C4)cc2)S(=O)(=O)C1
REMARK SMILES IDX 16 1 15 2 14 3 12 4 13 5 5 7 4 8 1 9 2 10 3 11 88 12 85 13
REMARK SMILES IDX 86 14 87 15 6 16 7 17 8 18 9 19 10 20 11 21 17 22 18 23
REMARK SMILES IDX 19 24 20 25 21 27 22 28 23 29 84 30 24 31 83 32 25 33 26 34
REMARK SMILES IDX 27 35 77 36 28 37 82 38 76 39 78 40 29 41 81 42 75 43 74 44
REMARK SMILES IDX 30 46 62 47 42 48 61 49 43 50 46 51 60 52 79 53 44 54 45 55
REMARK SMILES IDX 59 57 80 58 47 59 31 60 32 61 40 62 33 63 39 64 41 65 38 66
REMARK SMILES IDX 34 67 35 68 36 69 37 70 63 71 64 72 72 73 65 74 71 75 73 76
REMARK SMILES IDX 70 77 66 78 67 79 68 80 69 81 48 82 49 83 57 84 50 85 56 86
REMARK SMILES IDX 58 87 55 88 51 89 52 90 53 91 54 92
REMARK H PARENT 14 6 19 26 78 45 46 56
REMARK Flexibility Score: inf
ROOT
ATOM      1  C   UNL A   1      34.932  22.871  25.980  1.00  0.00     0.023 C 
ENDROOT
BRANCH   1   2
ATOM      2  C   UNL A   1      35.367  24.067  25.141  1.00  0.00     0.116 C 
BRANCH   2   3
ATOM      3  N   UNL A   1      34.600  24.217  23.932  1.00  0.00    -0.355 N 
ATOM      4  C   UNL A   1      33.468  24.911  23.681  1.00  0.00     0.238 C 
ATOM      5  O   UNL A   1      33.198  25.111  22.487  1.00  0.00    -0.273 OA
ATOM      6  H   UNL A   1      34.963  23.733  23.155  1.00  0.00     0.163 HD
BRANCH   4   7
ATOM      7  C   UNL A   1      32.556  25.518  24.744  1.00  0.00     0.163 C 
BRANCH   7   8
ATOM      8  N   UNL A   1      32.634  26.904  25.298  1.00  0.00    -0.189 NA
ATOM      9  C   UNL A   1      34.779  29.260  27.335  1.00  0.00     0.010 C 
ATOM     10  C   UNL A   1      33.614  28.636  26.594  1.00  0.00     0.017 C 
ATOM     11  C   UNL A   1      33.855  27.203  26.101  1.00  0.00     0.107 C 
ATOM     12  C   UNL A   1      33.257  29.421  25.340  1.00  0.00     0.159 C 
ATOM     13  S   UNL A   1      32.283  28.290  24.372  1.00  0.00     0.215 S 
ATOM     14  O   UNL A   1      32.916  28.173  23.079  1.00  0.00    -0.212 OA
ATOM     15  O   UNL A   1      30.894  28.618  24.576  1.00  0.00    -0.212 OA
ENDBRANCH   7   8
BRANCH   7  16
ATOM     16  C   UNL A   1      31.072  25.073  24.614  1.00  0.00     0.046 C 
BRANCH  16  17
ATOM     17  C   UNL A   1      30.244  24.913  25.886  1.00  0.00     0.139 C 
BRANCH  17  18
ATOM     18  S   UNL A   1      30.624  23.452  26.858  1.00  0.00     0.147 S 
ATOM     19  C   UNL A   1      31.021  22.190  25.680  1.00  0.00     0.158 C 
ATOM     20  O   UNL A   1      31.831  23.736  27.608  1.00  0.00    -0.229 OA
ATOM     21  O   UNL A   1      29.426  22.996  27.529  1.00  0.00    -0.229 OA
ENDBRANCH  17  18
ENDBRANCH  16  17
ENDBRANCH   7  16
ENDBRANCH   4   7
ENDBRANCH   2   3
ENDBRANCH   1   2
BRANCH   1  22
ATOM     22  C   UNL A   1      35.629  21.588  25.555  1.00  0.00     0.023 C 
BRANCH  22  23
ATOM     23  C   UNL A   1      37.012  21.790  24.947  1.00  0.00     0.116 C 
BRANCH  23  24
ATOM     24  N   UNL A   1      37.925  20.673  25.147  1.00  0.00    -0.352 N 
ATOM     25  C   UNL A   1      39.095  20.672  25.878  1.00  0.00     0.251 C 
ATOM     26  H   UNL A   1      37.681  19.824  24.712  1.00  0.00     0.163 HD
ATOM     27  O   UNL A   1      39.822  19.688  25.928  1.00  0.00    -0.269 OA
BRANCH  25  28
ATOM     28  C   UNL A   1      39.474  21.933  26.546  1.00  0.00     0.039 A 
ATOM     29  C   UNL A   1      40.509  21.907  27.480  1.00  0.00     0.014 A 
ATOM     30  C   UNL A   1      38.949  23.146  26.088  1.00  0.00     0.014 A 
ATOM     31  C   UNL A   1      41.091  23.110  27.882  1.00  0.00     0.010 A 
ATOM     32  C   UNL A   1      39.603  24.330  26.410  1.00  0.00     0.010 A 
ATOM     33  C   UNL A   1      40.687  24.325  27.302  1.00  0.00    -0.014 A 
BRANCH  33  34
ATOM     34  C   UNL A   1      41.398  25.595  27.612  1.00  0.00     0.031 A 
ATOM     35  C   UNL A   1      40.678  26.697  28.340  1.00  0.00     0.074 A 
ATOM     36  C   UNL A   1      42.674  25.772  27.205  1.00  0.00     0.049 A 
ATOM     37  N   UNL A   1      41.102  27.890  28.663  1.00  0.00    -0.248 NA
ATOM     38  C   UNL A   1      39.284  26.430  28.731  1.00  0.00     0.031 C 
ATOM     39  C   UNL A   1      43.466  24.797  26.451  1.00  0.00     0.029 A 
ATOM     40  N   UNL A   1      43.531  26.835  27.363  1.00  0.00    -0.354 N 
ATOM     41  C   UNL A   1      40.031  28.515  29.293  1.00  0.00     0.074 A 
ATOM     42  C   UNL A   1      38.915  27.598  29.236  1.00  0.00     0.031 C 
ATOM     43  C   UNL A   1      44.700  25.288  26.252  1.00  0.00     0.029 A 
ATOM     44  C   UNL A   1      44.776  26.635  26.808  1.00  0.00     0.049 A 
ATOM     45  H   UNL A   1      43.279  27.663  27.833  1.00  0.00     0.167 HD
ATOM     46  C   UNL A   1      39.991  29.731  29.890  1.00  0.00     0.034 A 
ATOM     47  C   UNL A   1      45.850  27.449  26.741  1.00  0.00     0.034 A 
ATOM     48  C   UNL A   1      41.112  30.633  29.945  1.00  0.00     0.049 A 
ATOM     49  C   UNL A   1      45.759  28.820  27.370  1.00  0.00     0.074 A 
ATOM     50  C   UNL A   1      41.192  31.870  30.562  1.00  0.00     0.029 A 
ATOM     51  N   UNL A   1      42.349  30.404  29.354  1.00  0.00    -0.354 N 
ATOM     52  N   UNL A   1      44.754  29.371  28.011  1.00  0.00    -0.248 NA
ATOM     53  C   UNL A   1      46.951  29.674  27.275  1.00  0.00     0.031 C 
ATOM     54  C   UNL A   1      42.443  32.421  30.276  1.00  0.00     0.029 A 
ATOM     55  C   UNL A   1      43.182  31.493  29.561  1.00  0.00     0.049 A 
ATOM     56  H   UNL A   1      42.597  29.590  28.861  1.00  0.00     0.167 HD
ATOM     57  C   UNL A   1      45.207  30.622  28.423  1.00  0.00     0.074 A 
ATOM     58  C   UNL A   1      46.580  30.732  27.979  1.00  0.00     0.031 C 
ATOM     59  C   UNL A   1      44.549  31.593  29.107  1.00  0.00     0.034 A 
BRANCH  46  60
ATOM     60  C   UNL A   1      38.684  30.157  30.515  1.00  0.00     0.023 A 
ATOM     61  C   UNL A   1      37.798  31.026  29.852  1.00  0.00     0.031 A 
ATOM     62  C   UNL A   1      38.319  29.691  31.790  1.00  0.00     0.131 A 
ATOM     63  C   UNL A   1      36.623  31.448  30.491  1.00  0.00     0.055 A 
ATOM     64  C   UNL A   1      37.110  30.051  32.385  1.00  0.00     0.041 A 
ATOM     65  F   UNL A   1      39.136  28.880  32.480  1.00  0.00    -0.206 F 
ATOM     66  C   UNL A   1      36.259  30.944  31.741  1.00  0.00     0.022 A 
BRANCH  63  67
ATOM     67  S   UNL A   1      35.642  32.765  29.720  1.00  0.00     0.124 S 
ATOM     68  O   UNL A   1      34.351  32.597  30.382  1.00  0.00    -0.237 OA
ATOM     69  O   UNL A   1      36.391  33.966  30.073  1.00  0.00    -0.237 OA
ATOM     70  O   UNL A   1      35.656  32.415  28.300  1.00  0.00    -0.744 OA
ENDBRANCH  63  67
ENDBRANCH  46  60
BRANCH  47  71
ATOM     71  C   UNL A   1      47.097  27.021  26.038  1.00  0.00     0.023 A 
ATOM     72  C   UNL A   1      48.110  26.321  26.716  1.00  0.00     0.031 A 
ATOM     73  C   UNL A   1      47.334  27.376  24.697  1.00  0.00     0.131 A 
ATOM     74  C   UNL A   1      49.333  26.060  26.077  1.00  0.00     0.055 A 
ATOM     75  C   UNL A   1      48.524  27.051  24.043  1.00  0.00     0.041 A 
ATOM     76  F   UNL A   1      46.406  28.050  23.999  1.00  0.00    -0.206 F 
ATOM     77  C   UNL A   1      49.540  26.405  24.739  1.00  0.00     0.022 A 
BRANCH  74  78
ATOM     78  S   UNL A   1      50.699  25.379  27.058  1.00  0.00     0.124 S 
ATOM     79  O   UNL A   1      51.097  26.535  27.852  1.00  0.00    -0.237 OA
ATOM     80  O   UNL A   1      50.042  24.297  27.783  1.00  0.00    -0.237 OA
ATOM     81  O   UNL A   1      51.664  24.953  26.048  1.00  0.00    -0.744 OA
ENDBRANCH  74  78
ENDBRANCH  47  71
BRANCH  59  82
ATOM     82  C   UNL A   1      45.327  32.839  29.457  1.00  0.00     0.023 A 
ATOM     83  C   UNL A   1      45.368  33.953  28.601  1.00  0.00     0.031 A 
ATOM     84  C   UNL A   1      46.044  32.907  30.666  1.00  0.00     0.131 A 
ATOM     85  C   UNL A   1      46.159  35.063  28.937  1.00  0.00     0.055 A 
ATOM     86  C   UNL A   1      46.769  34.042  31.028  1.00  0.00     0.041 A 
ATOM     87  F   UNL A   1      46.044  31.872  31.521  1.00  0.00    -0.206 F 
ATOM     88  C   UNL A   1      46.841  35.124  30.155  1.00  0.00     0.022 A 
BRANCH  85  89
ATOM     89  S   UNL A   1      46.365  36.386  27.715  1.00  0.00     0.124 S 
ATOM     90  O   UNL A   1      46.004  35.710  26.473  1.00  0.00    -0.237 OA
ATOM     91  O   UNL A   1      45.425  37.398  28.187  1.00  0.00    -0.237 OA
ATOM     92  O   UNL A   1      47.776  36.748  27.836  1.00  0.00    -0.744 OA
ENDBRANCH  85  89
ENDBRANCH  59  82
ENDBRANCH  33  34
ENDBRANCH  25  28
ENDBRANCH  23  24
ENDBRANCH  22  23
ENDBRANCH   1  22
TORSDOF 18
ENDMDL
