MODEL 1
REMARK VINA RESULT:     -13.4      0.000      0.000
REMARK SMILES Cc1c(-c2nn(-c3ccccc3)cc2/C=N/O)nnn1-c1ccc(C(=O)NCCCCNC(=O)c2ccc(-c3c4nc(c(-c5cc(S(=O)(=O)[O-])ccc5F)c5ccc([nH]5)c(-c5cc(S(=O)(=O)[O-])ccc5F)c5nc(c(-c6cc(S(=O)(=O)[O-])ccc6F)c6ccc3[nH]6)C=C5)C=C4)cc2)cc1
REMARK SMILES IDX 29 1 28 2 27 3 25 4 26 5 24 7 21 8 22 9 99 10 23 11 98 12
REMARK SMILES IDX 20 13 1 14 2 15 3 16 18 17 19 18 4 19 5 20 14 21 6 22 13 23
REMARK SMILES IDX 15 24 16 25 17 26 7 28 8 29 12 30 9 31 11 32 10 33 30 34
REMARK SMILES IDX 31 35 32 36 33 37 34 39 35 40 36 41 97 42 37 43 96 44 38 45
REMARK SMILES IDX 39 46 40 47 90 48 41 49 95 50 89 51 91 52 42 53 94 54 88 55
REMARK SMILES IDX 87 56 43 58 75 59 55 60 74 61 56 62 59 63 73 64 92 65 57 66
REMARK SMILES IDX 58 67 72 69 93 70 60 71 44 72 45 73 53 74 46 75 52 76 54 77
REMARK SMILES IDX 51 78 47 79 48 80 49 81 50 82 76 83 77 84 85 85 78 86 84 87
REMARK SMILES IDX 86 88 83 89 79 90 80 91 81 92 82 93 61 94 62 95 70 96 63 97
REMARK SMILES IDX 69 98 71 99 68 100 64 101 65 102 66 103 67 104
REMARK H PARENT 27 6 17 27 32 38 91 57 59 68
REMARK Flexibility Score: inf
ROOT
ATOM      1  C   UNL A   1      36.666  18.935  25.153  1.00  0.00     0.023 C 
ENDROOT
BRANCH   1   2
ATOM      2  C   UNL A   1      35.629  18.391  24.159  1.00  0.00     0.116 C 
BRANCH   2   3
ATOM      3  N   UNL A   1      34.397  18.028  24.837  1.00  0.00    -0.352 N 
ATOM      4  C   UNL A   1      33.348  18.748  25.353  1.00  0.00     0.251 C 
ATOM      5  O   UNL A   1      32.460  18.105  25.919  1.00  0.00    -0.269 OA
ATOM      6  H   UNL A   1      34.292  17.056  24.953  1.00  0.00     0.163 HD
BRANCH   4   7
ATOM      7  C   UNL A   1      33.192  20.230  25.234  1.00  0.00     0.039 A 
ATOM      8  C   UNL A   1      32.953  22.990  24.740  1.00  0.00     0.067 A 
ATOM      9  C   UNL A   1      32.398  22.083  23.838  1.00  0.00     0.029 A 
ATOM     10  C   UNL A   1      33.545  22.536  25.921  1.00  0.00     0.029 A 
ATOM     11  C   UNL A   1      32.554  20.711  24.073  1.00  0.00     0.016 A 
ATOM     12  C   UNL A   1      33.617  21.163  26.183  1.00  0.00     0.016 A 
BRANCH   8  13
ATOM     13  N   UNL A   1      32.892  24.372  24.475  1.00  0.00    -0.217 N 
ATOM     14  C   UNL A   1      31.486  25.201  26.430  1.00  0.00     0.069 C 
ATOM     15  C   UNL A   1      32.126  25.337  25.099  1.00  0.00     0.071 A 
ATOM     16  C   UNL A   1      32.239  26.421  24.251  1.00  0.00     0.137 A 
ATOM     17  N   UNL A   1      33.126  26.149  23.252  1.00  0.00    -0.128 NA
ATOM     18  N   UNL A   1      33.584  24.916  23.444  1.00  0.00    -0.061 NA
BRANCH  16  19
ATOM     19  C   UNL A   1      31.594  27.722  24.376  1.00  0.00     0.124 A 
ATOM     20  N   UNL A   1      30.595  28.106  23.572  1.00  0.00    -0.165 NA
ATOM     21  C   UNL A   1      31.977  28.740  25.283  1.00  0.00     0.044 A 
ATOM     22  N   UNL A   1      30.426  29.415  23.848  1.00  0.00    -0.240 N 
ATOM     23  C   UNL A   1      31.243  29.837  24.872  1.00  0.00     0.125 A 
BRANCH  21  24
ATOM     24  C   UNL A   1      32.898  28.737  26.390  1.00  0.00     0.166 C 
ATOM     25  N   UNL A   1      32.993  29.770  27.160  1.00  0.00    -0.097 NA
BRANCH  25  26
ATOM     26  O   UNL A   1      33.986  29.546  28.122  1.00  0.00    -0.411 OA
ATOM     27  H   UNL A   1      34.890  29.573  27.877  1.00  0.00     0.330 HD
ENDBRANCH  25  26
ENDBRANCH  21  24
BRANCH  22  28
ATOM     28  C   UNL A   1      29.502  30.200  23.125  1.00  0.00     0.065 A 
ATOM     29  C   UNL A   1      28.931  31.322  23.737  1.00  0.00     0.028 A 
ATOM     30  C   UNL A   1      29.151  29.848  21.815  1.00  0.00     0.028 A 
ATOM     31  C   UNL A   1      28.034  32.115  23.022  1.00  0.00     0.002 A 
ATOM     32  C   UNL A   1      28.206  30.615  21.131  1.00  0.00     0.002 A 
ATOM     33  C   UNL A   1      27.662  31.754  21.727  1.00  0.00     0.000 A 
ENDBRANCH  22  28
ENDBRANCH  16  19
ENDBRANCH   8  13
ENDBRANCH   4   7
ENDBRANCH   2   3
ENDBRANCH   1   2
BRANCH   1  34
ATOM     34  C   UNL A   1      37.029  20.419  24.972  1.00  0.00     0.023 C 
BRANCH  34  35
ATOM     35  C   UNL A   1      38.451  20.784  25.383  1.00  0.00     0.116 C 
BRANCH  35  36
ATOM     36  N   UNL A   1      39.295  19.616  25.661  1.00  0.00    -0.352 N 
ATOM     37  C   UNL A   1      40.663  19.593  25.919  1.00  0.00     0.251 C 
ATOM     38  H   UNL A   1      38.839  18.744  25.666  1.00  0.00     0.163 HD
ATOM     39  O   UNL A   1      41.326  18.593  25.727  1.00  0.00    -0.269 OA
BRANCH  37  40
ATOM     40  C   UNL A   1      41.266  20.821  26.469  1.00  0.00     0.039 A 
ATOM     41  C   UNL A   1      41.903  21.788  25.686  1.00  0.00     0.014 A 
ATOM     42  C   UNL A   1      41.086  21.010  27.832  1.00  0.00     0.014 A 
ATOM     43  C   UNL A   1      42.286  22.987  26.292  1.00  0.00     0.010 A 
ATOM     44  C   UNL A   1      41.237  22.259  28.354  1.00  0.00     0.010 A 
ATOM     45  C   UNL A   1      41.934  23.216  27.632  1.00  0.00    -0.014 A 
BRANCH  45  46
ATOM     46  C   UNL A   1      42.175  24.479  28.321  1.00  0.00     0.031 A 
ATOM     47  C   UNL A   1      41.120  25.503  28.107  1.00  0.00     0.074 A 
ATOM     48  C   UNL A   1      43.112  24.585  29.295  1.00  0.00     0.049 A 
ATOM     49  N   UNL A   1      41.214  26.605  27.441  1.00  0.00    -0.248 NA
ATOM     50  C   UNL A   1      39.745  25.192  28.535  1.00  0.00     0.031 C 
ATOM     51  C   UNL A   1      44.010  23.545  29.820  1.00  0.00     0.029 A 
ATOM     52  N   UNL A   1      43.380  25.630  30.121  1.00  0.00    -0.354 N 
ATOM     53  C   UNL A   1      39.996  27.254  27.608  1.00  0.00     0.074 A 
ATOM     54  C   UNL A   1      39.077  26.245  28.058  1.00  0.00     0.031 C 
ATOM     55  C   UNL A   1      44.528  23.933  31.007  1.00  0.00     0.029 A 
ATOM     56  C   UNL A   1      44.160  25.317  31.236  1.00  0.00     0.049 A 
ATOM     57  H   UNL A   1      43.049  26.540  29.946  1.00  0.00     0.167 HD
ATOM     58  C   UNL A   1      39.929  28.617  27.637  1.00  0.00     0.034 A 
ATOM     59  C   UNL A   1      44.488  26.138  32.273  1.00  0.00     0.034 A 
ATOM     60  C   UNL A   1      41.151  29.197  27.116  1.00  0.00     0.049 A 
ATOM     61  C   UNL A   1      44.323  27.522  31.763  1.00  0.00     0.074 A 
ATOM     62  C   UNL A   1      41.834  29.103  25.918  1.00  0.00     0.029 A 
ATOM     63  N   UNL A   1      42.077  29.670  28.022  1.00  0.00    -0.354 N 
ATOM     64  N   UNL A   1      45.043  28.006  30.786  1.00  0.00    -0.248 NA
ATOM     65  C   UNL A   1      43.034  28.167  31.959  1.00  0.00     0.031 C 
ATOM     66  C   UNL A   1      43.209  29.001  26.291  1.00  0.00     0.029 A 
ATOM     67  C   UNL A   1      43.301  29.147  27.677  1.00  0.00     0.049 A 
ATOM     68  H   UNL A   1      41.895  30.275  28.779  1.00  0.00     0.167 HD
ATOM     69  C   UNL A   1      44.143  28.688  29.980  1.00  0.00     0.074 A 
ATOM     70  C   UNL A   1      42.940  28.831  30.802  1.00  0.00     0.031 C 
ATOM     71  C   UNL A   1      44.344  28.810  28.633  1.00  0.00     0.034 A 
BRANCH  58  72
ATOM     72  C   UNL A   1      38.961  29.422  28.485  1.00  0.00     0.023 A 
ATOM     73  C   UNL A   1      39.178  29.419  29.877  1.00  0.00     0.031 A 
ATOM     74  C   UNL A   1      37.711  29.934  28.068  1.00  0.00     0.131 A 
ATOM     75  C   UNL A   1      38.158  29.783  30.773  1.00  0.00     0.055 A 
ATOM     76  C   UNL A   1      36.722  30.357  28.962  1.00  0.00     0.041 A 
ATOM     77  F   UNL A   1      37.330  29.978  26.787  1.00  0.00    -0.206 F 
ATOM     78  C   UNL A   1      36.927  30.248  30.324  1.00  0.00     0.022 A 
BRANCH  75  79
ATOM     79  S   UNL A   1      38.407  29.452  32.536  1.00  0.00     0.124 S 
ATOM     80  O   UNL A   1      38.084  30.747  33.126  1.00  0.00    -0.237 OA
ATOM     81  O   UNL A   1      37.449  28.378  32.774  1.00  0.00    -0.237 OA
ATOM     82  O   UNL A   1      39.813  29.065  32.612  1.00  0.00    -0.744 OA
ENDBRANCH  75  79
ENDBRANCH  58  72
BRANCH  59  83
ATOM     83  C   UNL A   1      44.526  25.789  33.726  1.00  0.00     0.023 A 
ATOM     84  C   UNL A   1      43.491  26.109  34.636  1.00  0.00     0.031 A 
ATOM     85  C   UNL A   1      45.510  24.885  34.187  1.00  0.00     0.131 A 
ATOM     86  C   UNL A   1      43.471  25.532  35.932  1.00  0.00     0.055 A 
ATOM     87  C   UNL A   1      45.479  24.313  35.463  1.00  0.00     0.041 A 
ATOM     88  F   UNL A   1      46.493  24.460  33.378  1.00  0.00    -0.206 F 
ATOM     89  C   UNL A   1      44.453  24.627  36.338  1.00  0.00     0.022 A 
BRANCH  86  90
ATOM     90  S   UNL A   1      42.116  25.896  37.102  1.00  0.00     0.124 S 
ATOM     91  O   UNL A   1      42.841  26.236  38.322  1.00  0.00    -0.237 OA
ATOM     92  O   UNL A   1      41.413  26.988  36.441  1.00  0.00    -0.237 OA
ATOM     93  O   UNL A   1      41.370  24.639  37.165  1.00  0.00    -0.744 OA
ENDBRANCH  86  90
ENDBRANCH  59  83
BRANCH  71  94
ATOM     94  C   UNL A   1      45.693  28.395  28.064  1.00  0.00     0.023 A 
ATOM     95  C   UNL A   1      45.986  27.135  27.483  1.00  0.00     0.031 A 
ATOM     96  C   UNL A   1      46.694  29.379  28.007  1.00  0.00     0.131 A 
ATOM     97  C   UNL A   1      47.246  26.905  26.889  1.00  0.00     0.055 A 
ATOM     98  C   UNL A   1      47.929  29.154  27.402  1.00  0.00     0.041 A 
ATOM     99  F   UNL A   1      46.471  30.603  28.516  1.00  0.00    -0.206 F 
ATOM    100  C   UNL A   1      48.213  27.914  26.845  1.00  0.00     0.022 A 
BRANCH  97 101
ATOM    101  S   UNL A   1      47.668  25.276  26.177  1.00  0.00     0.124 S 
ATOM    102  O   UNL A   1      46.444  24.872  25.498  1.00  0.00    -0.237 OA
ATOM    103  O   UNL A   1      48.804  25.590  25.312  1.00  0.00    -0.237 OA
ATOM    104  O   UNL A   1      48.008  24.468  27.350  1.00  0.00    -0.744 OA
ENDBRANCH  97 101
ENDBRANCH  71  94
ENDBRANCH  45  46
ENDBRANCH  37  40
ENDBRANCH  35  36
ENDBRANCH  34  35
ENDBRANCH   1  34
TORSDOF 19
ENDMDL
MODEL 2
REMARK VINA RESULT:     -12.5      1.650      2.780
REMARK SMILES Cc1c(-c2nn(-c3ccccc3)cc2/C=N/O)nnn1-c1ccc(C(=O)NCCCCNC(=O)c2ccc(-c3c4nc(c(-c5cc(S(=O)(=O)[O-])ccc5F)c5ccc([nH]5)c(-c5cc(S(=O)(=O)[O-])ccc5F)c5nc(c(-c6cc(S(=O)(=O)[O-])ccc6F)c6ccc3[nH]6)C=C5)C=C4)cc2)cc1
REMARK SMILES IDX 29 1 28 2 27 3 25 4 26 5 24 7 21 8 22 9 99 10 23 11 98 12
REMARK SMILES IDX 20 13 1 14 2 15 3 16 18 17 19 18 4 19 5 20 14 21 6 22 13 23
REMARK SMILES IDX 15 24 16 25 17 26 7 28 8 29 12 30 9 31 11 32 10 33 30 34
REMARK SMILES IDX 31 35 32 36 33 37 34 39 35 40 36 41 97 42 37 43 96 44 38 45
REMARK SMILES IDX 39 46 40 47 90 48 41 49 95 50 89 51 91 52 42 53 94 54 88 55
REMARK SMILES IDX 87 56 43 58 75 59 55 60 74 61 56 62 59 63 73 64 92 65 57 66
REMARK SMILES IDX 58 67 72 69 93 70 60 71 44 72 45 73 53 74 46 75 52 76 54 77
REMARK SMILES IDX 51 78 47 79 48 80 49 81 50 82 76 83 77 84 85 85 78 86 84 87
REMARK SMILES IDX 86 88 83 89 79 90 80 91 81 92 82 93 61 94 62 95 70 96 63 97
REMARK SMILES IDX 69 98 71 99 68 100 64 101 65 102 66 103 67 104
REMARK H PARENT 27 6 17 27 32 38 91 57 59 68
REMARK Flexibility Score: inf
ROOT
ATOM      1  C   UNL A   1      38.603  20.910  25.638  1.00  0.00     0.023 C 
ENDROOT
BRANCH   1   2
ATOM      2  C   UNL A   1      37.446  21.454  24.786  1.00  0.00     0.116 C 
BRANCH   2   3
ATOM      3  N   UNL A   1      36.350  20.505  24.727  1.00  0.00    -0.352 N 
ATOM      4  C   UNL A   1      35.004  20.590  24.981  1.00  0.00     0.251 C 
ATOM      5  O   UNL A   1      34.351  19.549  24.872  1.00  0.00    -0.269 OA
ATOM      6  H   UNL A   1      36.632  19.605  24.444  1.00  0.00     0.163 HD
BRANCH   4   7
ATOM      7  C   UNL A   1      34.282  21.851  25.333  1.00  0.00     0.039 A 
ATOM      8  C   UNL A   1      32.969  24.308  25.731  1.00  0.00     0.067 A 
ATOM      9  C   UNL A   1      32.759  23.605  24.546  1.00  0.00     0.029 A 
ATOM     10  C   UNL A   1      33.754  23.758  26.747  1.00  0.00     0.029 A 
ATOM     11  C   UNL A   1      33.445  22.402  24.340  1.00  0.00     0.016 A 
ATOM     12  C   UNL A   1      34.364  22.512  26.561  1.00  0.00     0.016 A 
BRANCH   8  13
ATOM     13  N   UNL A   1      32.365  25.568  25.919  1.00  0.00    -0.217 N 
ATOM     14  C   UNL A   1      33.717  27.019  24.320  1.00  0.00     0.069 C 
ATOM     15  C   UNL A   1      32.774  26.798  25.443  1.00  0.00     0.071 A 
ATOM     16  C   UNL A   1      32.004  27.684  26.171  1.00  0.00     0.137 A 
ATOM     17  N   UNL A   1      31.101  27.007  26.937  1.00  0.00    -0.128 NA
ATOM     18  N   UNL A   1      31.277  25.708  26.714  1.00  0.00    -0.061 NA
BRANCH  16  19
ATOM     19  C   UNL A   1      32.039  29.141  26.130  1.00  0.00     0.124 A 
ATOM     20  N   UNL A   1      32.780  29.863  26.979  1.00  0.00    -0.165 NA
ATOM     21  C   UNL A   1      31.266  29.952  25.264  1.00  0.00     0.044 A 
ATOM     22  N   UNL A   1      32.381  31.135  26.773  1.00  0.00    -0.240 N 
ATOM     23  C   UNL A   1      31.467  31.231  25.750  1.00  0.00     0.125 A 
BRANCH  21  24
ATOM     24  C   UNL A   1      30.436  29.625  24.133  1.00  0.00     0.166 C 
ATOM     25  N   UNL A   1      30.968  29.185  23.042  1.00  0.00    -0.097 NA
BRANCH  25  26
ATOM     26  O   UNL A   1      29.968  28.991  22.081  1.00  0.00    -0.411 OA
ATOM     27  H   UNL A   1      29.478  28.193  22.070  1.00  0.00     0.330 HD
ENDBRANCH  25  26
ENDBRANCH  21  24
BRANCH  22  28
ATOM     28  C   UNL A   1      32.885  32.193  27.560  1.00  0.00     0.065 A 
ATOM     29  C   UNL A   1      33.949  31.948  28.437  1.00  0.00     0.028 A 
ATOM     30  C   UNL A   1      32.315  33.470  27.473  1.00  0.00     0.028 A 
ATOM     31  C   UNL A   1      34.467  32.992  29.200  1.00  0.00     0.002 A 
ATOM     32  C   UNL A   1      32.803  34.494  28.287  1.00  0.00     0.002 A 
ATOM     33  C   UNL A   1      33.885  34.259  29.136  1.00  0.00     0.000 A 
ENDBRANCH  22  28
ENDBRANCH  16  19
ENDBRANCH   8  13
ENDBRANCH   4   7
ENDBRANCH   2   3
ENDBRANCH   1   2
BRANCH   1  34
ATOM     34  C   UNL A   1      39.266  19.632  25.098  1.00  0.00     0.023 C 
BRANCH  34  35
ATOM     35  C   UNL A   1      40.052  18.833  26.133  1.00  0.00     0.116 C 
BRANCH  35  36
ATOM     36  N   UNL A   1      41.470  18.672  25.790  1.00  0.00    -0.352 N 
ATOM     37  C   UNL A   1      42.436  19.666  25.667  1.00  0.00     0.251 C 
ATOM     38  H   UNL A   1      41.774  17.750  25.628  1.00  0.00     0.163 HD
ATOM     39  O   UNL A   1      43.436  19.497  24.997  1.00  0.00    -0.269 OA
BRANCH  37  40
ATOM     40  C   UNL A   1      42.214  20.919  26.413  1.00  0.00     0.039 A 
ATOM     41  C   UNL A   1      41.733  20.963  27.725  1.00  0.00     0.014 A 
ATOM     42  C   UNL A   1      42.602  22.078  25.755  1.00  0.00     0.014 A 
ATOM     43  C   UNL A   1      41.723  22.193  28.388  1.00  0.00     0.010 A 
ATOM     44  C   UNL A   1      42.818  23.211  26.478  1.00  0.00     0.010 A 
ATOM     45  C   UNL A   1      42.283  23.313  27.754  1.00  0.00    -0.014 A 
BRANCH  45  46
ATOM     46  C   UNL A   1      42.437  24.610  28.403  1.00  0.00     0.031 A 
ATOM     47  C   UNL A   1      41.309  25.549  28.170  1.00  0.00     0.074 A 
ATOM     48  C   UNL A   1      43.372  24.814  29.362  1.00  0.00     0.049 A 
ATOM     49  N   UNL A   1      41.316  26.633  27.471  1.00  0.00    -0.248 NA
ATOM     50  C   UNL A   1      39.964  25.151  28.622  1.00  0.00     0.031 C 
ATOM     51  C   UNL A   1      44.349  23.858  29.908  1.00  0.00     0.029 A 
ATOM     52  N   UNL A   1      43.571  25.900  30.155  1.00  0.00    -0.354 N 
ATOM     53  C   UNL A   1      40.055  27.197  27.632  1.00  0.00     0.074 A 
ATOM     54  C   UNL A   1      39.217  26.138  28.122  1.00  0.00     0.031 C 
ATOM     55  C   UNL A   1      44.847  24.318  31.078  1.00  0.00     0.029 A 
ATOM     56  C   UNL A   1      44.381  25.679  31.270  1.00  0.00     0.049 A 
ATOM     57  H   UNL A   1      43.173  26.778  29.956  1.00  0.00     0.167 HD
ATOM     58  C   UNL A   1      39.889  28.552  27.622  1.00  0.00     0.034 A 
ATOM     59  C   UNL A   1      44.657  26.552  32.278  1.00  0.00     0.034 A 
ATOM     60  C   UNL A   1      41.061  29.203  27.071  1.00  0.00     0.049 A 
ATOM     61  C   UNL A   1      44.388  27.904  31.730  1.00  0.00     0.074 A 
ATOM     62  C   UNL A   1      41.738  29.122  25.868  1.00  0.00     0.029 A 
ATOM     63  N   UNL A   1      41.958  29.770  27.952  1.00  0.00    -0.354 N 
ATOM     64  N   UNL A   1      45.062  28.410  30.731  1.00  0.00    -0.248 NA
ATOM     65  C   UNL A   1      43.057  28.460  31.921  1.00  0.00     0.031 C 
ATOM     66  C   UNL A   1      43.121  29.133  26.229  1.00  0.00     0.029 A 
ATOM     67  C   UNL A   1      43.214  29.327  27.609  1.00  0.00     0.049 A 
ATOM     68  H   UNL A   1      41.739  30.382  28.692  1.00  0.00     0.167 HD
ATOM     69  C   UNL A   1      44.107  28.999  29.915  1.00  0.00     0.074 A 
ATOM     70  C   UNL A   1      42.904  29.079  30.746  1.00  0.00     0.031 C 
ATOM     71  C   UNL A   1      44.287  29.095  28.562  1.00  0.00     0.034 A 
BRANCH  58  72
ATOM     72  C   UNL A   1      38.872  29.309  28.456  1.00  0.00     0.023 A 
ATOM     73  C   UNL A   1      39.096  29.356  29.846  1.00  0.00     0.031 A 
ATOM     74  C   UNL A   1      37.588  29.724  28.035  1.00  0.00     0.131 A 
ATOM     75  C   UNL A   1      38.059  29.673  30.740  1.00  0.00     0.055 A 
ATOM     76  C   UNL A   1      36.577  30.100  28.925  1.00  0.00     0.041 A 
ATOM     77  F   UNL A   1      37.198  29.709  26.756  1.00  0.00    -0.206 F 
ATOM     78  C   UNL A   1      36.796  30.040  30.288  1.00  0.00     0.022 A 
BRANCH  75  79
ATOM     79  S   UNL A   1      38.339  29.404  32.509  1.00  0.00     0.124 S 
ATOM     80  O   UNL A   1      39.688  28.850  32.511  1.00  0.00    -0.237 OA
ATOM     81  O   UNL A   1      38.195  30.754  33.041  1.00  0.00    -0.237 OA
ATOM     82  O   UNL A   1      37.279  28.470  32.880  1.00  0.00    -0.744 OA
ENDBRANCH  75  79
ENDBRANCH  58  72
BRANCH  59  83
ATOM     83  C   UNL A   1      44.734  26.250  33.740  1.00  0.00     0.023 A 
ATOM     84  C   UNL A   1      43.644  26.404  34.629  1.00  0.00     0.031 A 
ATOM     85  C   UNL A   1      45.854  25.547  34.237  1.00  0.00     0.131 A 
ATOM     86  C   UNL A   1      43.706  25.865  35.941  1.00  0.00     0.055 A 
ATOM     87  C   UNL A   1      45.906  25.010  35.527  1.00  0.00     0.041 A 
ATOM     88  F   UNL A   1      46.910  25.283  33.451  1.00  0.00    -0.206 F 
ATOM     89  C   UNL A   1      44.826  25.159  36.381  1.00  0.00     0.022 A 
BRANCH  86  90
ATOM     90  S   UNL A   1      42.289  26.011  37.085  1.00  0.00     0.124 S 
ATOM     91  O   UNL A   1      42.938  26.387  38.337  1.00  0.00    -0.237 OA
ATOM     92  O   UNL A   1      41.472  27.035  36.446  1.00  0.00    -0.237 OA
ATOM     93  O   UNL A   1      41.703  24.670  37.080  1.00  0.00    -0.744 OA
ENDBRANCH  86  90
ENDBRANCH  59  83
BRANCH  71  94
ATOM     94  C   UNL A   1      45.658  28.762  27.991  1.00  0.00     0.023 A 
ATOM     95  C   UNL A   1      46.120  27.460  27.675  1.00  0.00     0.031 A 
ATOM     96  C   UNL A   1      46.486  29.843  27.645  1.00  0.00     0.131 A 
ATOM     97  C   UNL A   1      47.373  27.286  27.047  1.00  0.00     0.055 A 
ATOM     98  C   UNL A   1      47.713  29.668  27.006  1.00  0.00     0.041 A 
ATOM     99  F   UNL A   1      46.095  31.104  27.893  1.00  0.00    -0.206 F 
ATOM    100  C   UNL A   1      48.164  28.388  26.709  1.00  0.00     0.022 A 
BRANCH  97 101
ATOM    101  S   UNL A   1      48.015  25.618  26.671  1.00  0.00     0.124 S 
ATOM    102  O   UNL A   1      49.399  25.674  27.124  1.00  0.00    -0.237 OA
ATOM    103  O   UNL A   1      47.126  24.752  27.440  1.00  0.00    -0.237 OA
ATOM    104  O   UNL A   1      47.856  25.511  25.219  1.00  0.00    -0.744 OA
ENDBRANCH  97 101
ENDBRANCH  71  94
ENDBRANCH  45  46
ENDBRANCH  37  40
ENDBRANCH  35  36
ENDBRANCH  34  35
ENDBRANCH   1  34
TORSDOF 19
ENDMDL
MODEL 3
REMARK VINA RESULT:     -12.4     10.821     16.241
REMARK SMILES Cc1c(-c2nn(-c3ccccc3)cc2/C=N/O)nnn1-c1ccc(C(=O)NCCCCNC(=O)c2ccc(-c3c4nc(c(-c5cc(S(=O)(=O)[O-])ccc5F)c5ccc([nH]5)c(-c5cc(S(=O)(=O)[O-])ccc5F)c5nc(c(-c6cc(S(=O)(=O)[O-])ccc6F)c6ccc3[nH]6)C=C5)C=C4)cc2)cc1
REMARK SMILES IDX 29 1 28 2 27 3 25 4 26 5 24 7 21 8 22 9 99 10 23 11 98 12
REMARK SMILES IDX 20 13 1 14 2 15 3 16 18 17 19 18 4 19 5 20 14 21 6 22 13 23
REMARK SMILES IDX 15 24 16 25 17 26 7 28 8 29 12 30 9 31 11 32 10 33 30 34
REMARK SMILES IDX 31 35 32 36 33 37 34 39 35 40 36 41 97 42 37 43 96 44 38 45
REMARK SMILES IDX 39 46 40 47 90 48 41 49 95 50 89 51 91 52 42 53 94 54 88 55
REMARK SMILES IDX 87 56 43 58 75 59 55 60 74 61 56 62 59 63 73 64 92 65 57 66
REMARK SMILES IDX 58 67 72 69 93 70 60 71 44 72 45 73 53 74 46 75 52 76 54 77
REMARK SMILES IDX 51 78 47 79 48 80 49 81 50 82 76 83 77 84 85 85 78 86 84 87
REMARK SMILES IDX 86 88 83 89 79 90 80 91 81 92 82 93 61 94 62 95 70 96 63 97
REMARK SMILES IDX 69 98 71 99 68 100 64 101 65 102 66 103 67 104
REMARK H PARENT 27 6 17 27 32 38 91 57 59 68
REMARK Flexibility Score: inf
ROOT
ATOM      1  C   UNL A   1      43.681  39.725  28.315  1.00  0.00     0.023 C 
ENDROOT
BRANCH   1   2
ATOM      2  C   UNL A   1      45.205  39.888  28.211  1.00  0.00     0.116 C 
BRANCH   2   3
ATOM      3  N   UNL A   1      45.610  41.239  28.558  1.00  0.00    -0.352 N 
ATOM      4  C   UNL A   1      45.770  42.397  27.840  1.00  0.00     0.251 C 
ATOM      5  O   UNL A   1      46.183  43.382  28.459  1.00  0.00    -0.269 OA
ATOM      6  H   UNL A   1      45.815  41.347  29.515  1.00  0.00     0.163 HD
BRANCH   4   7
ATOM      7  C   UNL A   1      45.439  42.554  26.390  1.00  0.00     0.039 A 
ATOM      8  C   UNL A   1      45.050  42.997  23.638  1.00  0.00     0.067 A 
ATOM      9  C   UNL A   1      46.326  42.687  24.107  1.00  0.00     0.029 A 
ATOM     10  C   UNL A   1      43.960  43.002  24.512  1.00  0.00     0.029 A 
ATOM     11  C   UNL A   1      46.517  42.504  25.482  1.00  0.00     0.016 A 
ATOM     12  C   UNL A   1      44.153  42.731  25.871  1.00  0.00     0.016 A 
BRANCH   8  13
ATOM     13  N   UNL A   1      44.852  43.280  22.272  1.00  0.00    -0.217 N 
ATOM     14  C   UNL A   1      45.307  45.785  22.204  1.00  0.00     0.069 C 
ATOM     15  C   UNL A   1      44.795  44.509  21.647  1.00  0.00     0.071 A 
ATOM     16  C   UNL A   1      44.290  44.201  20.399  1.00  0.00     0.137 A 
ATOM     17  N   UNL A   1      44.178  42.849  20.255  1.00  0.00    -0.128 NA
ATOM     18  N   UNL A   1      44.603  42.288  21.383  1.00  0.00    -0.061 NA
BRANCH  16  19
ATOM     19  C   UNL A   1      43.965  45.120  19.315  1.00  0.00     0.124 A 
ATOM     20  N   UNL A   1      44.802  46.089  18.923  1.00  0.00    -0.165 NA
ATOM     21  C   UNL A   1      42.737  45.150  18.610  1.00  0.00     0.044 A 
ATOM     22  N   UNL A   1      44.070  46.841  18.076  1.00  0.00    -0.240 N 
ATOM     23  C   UNL A   1      42.819  46.310  17.863  1.00  0.00     0.125 A 
BRANCH  21  24
ATOM     24  C   UNL A   1      41.614  44.248  18.606  1.00  0.00     0.166 C 
ATOM     25  N   UNL A   1      40.445  44.665  18.964  1.00  0.00    -0.097 NA
BRANCH  25  26
ATOM     26  O   UNL A   1      39.538  43.598  18.927  1.00  0.00    -0.411 OA
ATOM     27  H   UNL A   1      39.177  43.263  19.723  1.00  0.00     0.330 HD
ENDBRANCH  25  26
ENDBRANCH  21  24
BRANCH  22  28
ATOM     28  C   UNL A   1      44.594  48.025  17.514  1.00  0.00     0.065 A 
ATOM     29  C   UNL A   1      43.745  49.120  17.312  1.00  0.00     0.028 A 
ATOM     30  C   UNL A   1      45.945  48.096  17.151  1.00  0.00     0.028 A 
ATOM     31  C   UNL A   1      44.259  50.301  16.779  1.00  0.00     0.002 A 
ATOM     32  C   UNL A   1      46.434  49.263  16.561  1.00  0.00     0.002 A 
ATOM     33  C   UNL A   1      45.598  50.367  16.391  1.00  0.00     0.000 A 
ENDBRANCH  22  28
ENDBRANCH  16  19
ENDBRANCH   8  13
ENDBRANCH   4   7
ENDBRANCH   2   3
ENDBRANCH   1   2
BRANCH   1  34
ATOM     34  C   UNL A   1      42.975  39.334  27.006  1.00  0.00     0.023 C 
BRANCH  34  35
ATOM     35  C   UNL A   1      42.745  37.837  26.826  1.00  0.00     0.116 C 
BRANCH  35  36
ATOM     36  N   UNL A   1      43.981  37.082  26.588  1.00  0.00    -0.352 N 
ATOM     37  C   UNL A   1      44.676  36.279  27.487  1.00  0.00     0.251 C 
ATOM     38  H   UNL A   1      44.363  37.152  25.684  1.00  0.00     0.163 HD
ATOM     39  O   UNL A   1      45.860  36.044  27.340  1.00  0.00    -0.269 OA
BRANCH  37  40
ATOM     40  C   UNL A   1      43.910  35.694  28.603  1.00  0.00     0.039 A 
ATOM     41  C   UNL A   1      43.513  36.418  29.732  1.00  0.00     0.014 A 
ATOM     42  C   UNL A   1      43.519  34.374  28.426  1.00  0.00     0.014 A 
ATOM     43  C   UNL A   1      42.649  35.806  30.642  1.00  0.00     0.010 A 
ATOM     44  C   UNL A   1      42.497  33.879  29.177  1.00  0.00     0.010 A 
ATOM     45  C   UNL A   1      42.136  34.533  30.345  1.00  0.00    -0.014 A 
BRANCH  45  46
ATOM     46  C   UNL A   1      41.133  33.860  31.164  1.00  0.00     0.031 A 
ATOM     47  C   UNL A   1      41.470  33.788  32.609  1.00  0.00     0.074 A 
ATOM     48  C   UNL A   1      39.889  33.604  30.688  1.00  0.00     0.049 A 
ATOM     49  N   UNL A   1      41.781  32.739  33.295  1.00  0.00    -0.248 NA
ATOM     50  C   UNL A   1      41.656  35.048  33.348  1.00  0.00     0.031 C 
ATOM     51  C   UNL A   1      39.331  33.918  29.364  1.00  0.00     0.029 A 
ATOM     52  N   UNL A   1      38.803  33.111  31.340  1.00  0.00    -0.354 N 
ATOM     53  C   UNL A   1      41.922  33.174  34.609  1.00  0.00     0.074 A 
ATOM     54  C   UNL A   1      42.083  34.600  34.530  1.00  0.00     0.031 C 
ATOM     55  C   UNL A   1      37.982  33.839  29.397  1.00  0.00     0.029 A 
ATOM     56  C   UNL A   1      37.587  33.284  30.677  1.00  0.00     0.049 A 
ATOM     57  H   UNL A   1      38.870  32.665  32.215  1.00  0.00     0.167 HD
ATOM     58  C   UNL A   1      41.603  32.355  35.652  1.00  0.00     0.034 A 
ATOM     59  C   UNL A   1      36.342  32.986  31.142  1.00  0.00     0.034 A 
ATOM     60  C   UNL A   1      41.494  30.980  35.205  1.00  0.00     0.049 A 
ATOM     61  C   UNL A   1      36.540  31.988  32.223  1.00  0.00     0.074 A 
ATOM     62  C   UNL A   1      42.350  30.097  34.573  1.00  0.00     0.029 A 
ATOM     63  N   UNL A   1      40.231  30.466  35.000  1.00  0.00    -0.354 N 
ATOM     64  N   UNL A   1      37.047  30.804  32.007  1.00  0.00    -0.248 NA
ATOM     65  C   UNL A   1      36.680  32.482  33.584  1.00  0.00     0.031 C 
ATOM     66  C   UNL A   1      41.538  29.439  33.599  1.00  0.00     0.029 A 
ATOM     67  C   UNL A   1      40.220  29.873  33.760  1.00  0.00     0.049 A 
ATOM     68  H   UNL A   1      39.474  30.515  35.629  1.00  0.00     0.167 HD
ATOM     69  C   UNL A   1      37.943  30.602  33.048  1.00  0.00     0.074 A 
ATOM     70  C   UNL A   1      37.605  31.628  34.036  1.00  0.00     0.031 C 
ATOM     71  C   UNL A   1      39.058  29.825  32.888  1.00  0.00     0.034 A 
BRANCH  58  72
ATOM     72  C   UNL A   1      41.002  32.817  36.968  1.00  0.00     0.023 A 
ATOM     73  C   UNL A   1      39.738  32.296  37.308  1.00  0.00     0.031 A 
ATOM     74  C   UNL A   1      41.433  33.918  37.743  1.00  0.00     0.131 A 
ATOM     75  C   UNL A   1      38.926  32.926  38.268  1.00  0.00     0.055 A 
ATOM     76  C   UNL A   1      40.648  34.502  38.742  1.00  0.00     0.041 A 
ATOM     77  F   UNL A   1      42.590  34.553  37.530  1.00  0.00    -0.206 F 
ATOM     78  C   UNL A   1      39.371  34.032  38.984  1.00  0.00     0.022 A 
BRANCH  75  79
ATOM     79  S   UNL A   1      37.204  32.388  38.420  1.00  0.00     0.124 S 
ATOM     80  O   UNL A   1      36.527  33.312  37.516  1.00  0.00    -0.237 OA
ATOM     81  O   UNL A   1      37.286  31.000  37.981  1.00  0.00    -0.237 OA
ATOM     82  O   UNL A   1      36.915  32.579  39.839  1.00  0.00    -0.744 OA
ENDBRANCH  75  79
ENDBRANCH  58  72
BRANCH  59  83
ATOM     83  C   UNL A   1      35.098  33.799  30.983  1.00  0.00     0.023 A 
ATOM     84  C   UNL A   1      34.687  34.790  31.905  1.00  0.00     0.031 A 
ATOM     85  C   UNL A   1      34.416  33.773  29.745  1.00  0.00     0.131 A 
ATOM     86  C   UNL A   1      33.645  35.694  31.571  1.00  0.00     0.055 A 
ATOM     87  C   UNL A   1      33.396  34.672  29.419  1.00  0.00     0.041 A 
ATOM     88  F   UNL A   1      34.778  32.920  28.774  1.00  0.00    -0.206 F 
ATOM     89  C   UNL A   1      33.013  35.644  30.328  1.00  0.00     0.022 A 
BRANCH  86  90
ATOM     90  S   UNL A   1      33.135  37.011  32.730  1.00  0.00     0.124 S 
ATOM     91  O   UNL A   1      34.052  36.814  33.847  1.00  0.00    -0.237 OA
ATOM     92  O   UNL A   1      33.329  38.220  31.939  1.00  0.00    -0.237 OA
ATOM     93  O   UNL A   1      31.738  36.689  33.022  1.00  0.00    -0.744 OA
ENDBRANCH  86  90
ENDBRANCH  59  83
BRANCH  71  94
ATOM     94  C   UNL A   1      39.178  28.987  31.623  1.00  0.00     0.023 A 
ATOM     95  C   UNL A   1      39.894  29.359  30.457  1.00  0.00     0.031 A 
ATOM     96  C   UNL A   1      38.630  27.694  31.658  1.00  0.00     0.131 A 
ATOM     97  C   UNL A   1      40.025  28.449  29.386  1.00  0.00     0.055 A 
ATOM     98  C   UNL A   1      38.780  26.791  30.606  1.00  0.00     0.041 A 
ATOM     99  F   UNL A   1      37.963  27.269  32.743  1.00  0.00    -0.206 F 
ATOM    100  C   UNL A   1      39.474  27.167  29.463  1.00  0.00     0.022 A 
BRANCH  97 101
ATOM    101  S   UNL A   1      40.901  28.919  27.853  1.00  0.00     0.124 S 
ATOM    102  O   UNL A   1      41.478  27.663  27.390  1.00  0.00    -0.237 OA
ATOM    103  O   UNL A   1      39.830  29.471  27.028  1.00  0.00    -0.237 OA
ATOM    104  O   UNL A   1      41.882  29.906  28.309  1.00  0.00    -0.744 OA
ENDBRANCH  97 101
ENDBRANCH  71  94
ENDBRANCH  45  46
ENDBRANCH  37  40
ENDBRANCH  35  36
ENDBRANCH  34  35
ENDBRANCH   1  34
TORSDOF 19
ENDMDL
