MODEL 1
REMARK VINA RESULT:     -12.1      0.000      0.000
REMARK SMILES C[C@@H]1C[N@@H+](Cc2cccc(C(=O)NCCCCNC(=O)c3ccc(-c4c5nc(c(-c6cc(S(=O)(=O)[O-])ccc6F)c6ccc([nH]6)c(-c6cc(S(=O)(=O)[O-])ccc6F)c6nc(c(-c7cc(S(=O)(=O)[O-])ccc7F)c7ccc4[nH]7)C=C6)C=C5)cc3)c2)CCN1C(=O)OC(C)(C)C
REMARK SMILES IDX 14 1 13 2 11 3 12 4 10 6 6 7 7 8 84 9 8 10 9 11 5 12 4 13
REMARK SMILES IDX 1 14 2 15 3 16 87 17 86 18 85 19 88 21 89 22 90 23 91 24
REMARK SMILES IDX 92 25 93 26 94 27 15 28 16 29 17 30 18 31 19 32 20 34 21 35
REMARK SMILES IDX 22 36 83 37 23 38 82 39 24 40 25 41 26 42 76 43 27 44 81 45
REMARK SMILES IDX 75 46 77 47 28 48 80 49 74 50 73 51 29 53 61 54 41 55 60 56
REMARK SMILES IDX 42 57 45 58 59 59 78 60 43 61 44 62 58 64 79 65 46 66 30 67
REMARK SMILES IDX 31 68 39 69 32 70 38 71 40 72 37 73 33 74 34 75 35 76 36 77
REMARK SMILES IDX 62 78 63 79 71 80 64 81 70 82 72 83 69 84 65 85 66 86 67 87
REMARK SMILES IDX 68 88 47 89 48 90 56 91 49 92 55 93 57 94 54 95 50 96 51 97
REMARK SMILES IDX 52 98 53 99
REMARK H PARENT 13 5 4 20 18 33 77 52 45 63
REMARK Flexibility Score: inf
ROOT
ATOM      1  C   UNL A   1      32.363  30.282  26.469  1.00  0.00     0.116 C 
ENDROOT
BRANCH   1   2
ATOM      2  N   UNL A   1      31.788  29.108  27.087  1.00  0.00    -0.352 N 
ATOM      3  C   UNL A   1      31.495  27.857  26.600  1.00  0.00     0.251 C 
ATOM      4  O   UNL A   1      31.089  27.020  27.409  1.00  0.00    -0.269 OA
ATOM      5  H   UNL A   1      31.562  29.228  28.038  1.00  0.00     0.163 HD
BRANCH   3   6
ATOM      6  C   UNL A   1      31.708  27.437  25.179  1.00  0.00     0.040 A 
ATOM      7  C   UNL A   1      32.652  26.000  23.431  1.00  0.00     0.007 A 
ATOM      8  C   UNL A   1      31.794  26.589  22.494  1.00  0.00     0.009 A 
ATOM      9  C   UNL A   1      32.669  26.520  24.744  1.00  0.00     0.023 A 
ATOM     10  C   UNL A   1      30.924  27.609  22.880  1.00  0.00     0.001 A 
ATOM     11  C   UNL A   1      30.856  28.002  24.218  1.00  0.00     0.014 A 
BRANCH   7  12
ATOM     12  C   UNL A   1      33.501  24.789  23.051  1.00  0.00     0.299 C 
BRANCH  12  13
ATOM     13  N   UNL A   1      33.453  23.610  23.959  1.00  0.00    -0.328 N 
ATOM     14  C   UNL A   1      34.874  21.484  25.986  1.00  0.00     0.037 C 
ATOM     15  C   UNL A   1      34.422  21.299  24.534  1.00  0.00     0.140 C 
ATOM     16  C   UNL A   1      34.519  22.618  23.690  1.00  0.00     0.287 C 
ATOM     17  N   UNL A   1      33.050  20.759  24.487  1.00  0.00    -0.294 N 
ATOM     18  C   UNL A   1      32.003  21.720  24.823  1.00  0.00     0.185 C 
ATOM     19  C   UNL A   1      32.139  22.944  23.918  1.00  0.00     0.284 C 
ATOM     20  H   UNL A   1      33.612  23.988  24.892  1.00  0.00     0.348 HD
BRANCH  17  21
ATOM     21  C   UNL A   1      32.687  19.518  23.998  1.00  0.00     0.410 C 
ATOM     22  O   UNL A   1      32.230  19.354  22.876  1.00  0.00    -0.224 OA
BRANCH  21  23
ATOM     23  O   UNL A   1      32.894  18.512  24.890  1.00  0.00    -0.444 OA
BRANCH  23  24
ATOM     24  C   UNL A   1      33.820  17.436  24.570  1.00  0.00     0.106 C 
ATOM     25  C   UNL A   1      35.271  17.934  24.575  1.00  0.00     0.056 C 
ATOM     26  C   UNL A   1      33.631  16.219  25.486  1.00  0.00     0.056 C 
ATOM     27  C   UNL A   1      33.458  17.015  23.137  1.00  0.00     0.056 C 
ENDBRANCH  23  24
ENDBRANCH  21  23
ENDBRANCH  17  21
ENDBRANCH  12  13
ENDBRANCH   7  12
ENDBRANCH   3   6
ENDBRANCH   1   2
BRANCH   1  28
ATOM     28  C   UNL A   1      31.286  31.182  25.863  1.00  0.00     0.023 C 
BRANCH  28  29
ATOM     29  C   UNL A   1      31.251  32.577  26.486  1.00  0.00     0.023 C 
BRANCH  29  30
ATOM     30  C   UNL A   1      32.534  32.978  27.205  1.00  0.00     0.116 C 
BRANCH  30  31
ATOM     31  N   UNL A   1      32.496  34.329  27.745  1.00  0.00    -0.352 N 
ATOM     32  C   UNL A   1      33.322  34.884  28.696  1.00  0.00     0.251 C 
ATOM     33  H   UNL A   1      31.794  34.919  27.386  1.00  0.00     0.163 HD
ATOM     34  O   UNL A   1      33.092  36.004  29.139  1.00  0.00    -0.269 OA
BRANCH  32  35
ATOM     35  C   UNL A   1      34.453  34.081  29.208  1.00  0.00     0.039 A 
ATOM     36  C   UNL A   1      35.753  34.433  28.842  1.00  0.00     0.014 A 
ATOM     37  C   UNL A   1      34.228  33.042  30.115  1.00  0.00     0.014 A 
ATOM     38  C   UNL A   1      36.833  33.788  29.449  1.00  0.00     0.010 A 
ATOM     39  C   UNL A   1      35.304  32.464  30.779  1.00  0.00     0.010 A 
ATOM     40  C   UNL A   1      36.620  32.832  30.456  1.00  0.00    -0.014 A 
BRANCH  40  41
ATOM     41  C   UNL A   1      37.761  32.209  31.180  1.00  0.00     0.031 A 
ATOM     42  C   UNL A   1      38.520  31.072  30.548  1.00  0.00     0.074 A 
ATOM     43  C   UNL A   1      38.071  32.625  32.426  1.00  0.00     0.049 A 
ATOM     44  N   UNL A   1      39.500  30.360  31.040  1.00  0.00    -0.248 NA
ATOM     45  C   UNL A   1      38.104  30.663  29.196  1.00  0.00     0.031 C 
ATOM     46  C   UNL A   1      37.376  33.685  33.161  1.00  0.00     0.029 A 
ATOM     47  N   UNL A   1      39.043  32.204  33.302  1.00  0.00    -0.354 N 
ATOM     48  C   UNL A   1      39.803  29.408  30.072  1.00  0.00     0.074 A 
ATOM     49  C   UNL A   1      38.869  29.603  28.985  1.00  0.00     0.031 C 
ATOM     50  C   UNL A   1      37.957  33.845  34.362  1.00  0.00     0.029 A 
ATOM     51  C   UNL A   1      39.029  32.868  34.509  1.00  0.00     0.049 A 
ATOM     52  H   UNL A   1      39.689  31.493  33.086  1.00  0.00     0.167 HD
ATOM     53  C   UNL A   1      40.779  28.469  30.084  1.00  0.00     0.034 A 
ATOM     54  C   UNL A   1      39.781  32.694  35.616  1.00  0.00     0.034 A 
ATOM     55  C   UNL A   1      41.718  28.307  31.166  1.00  0.00     0.049 A 
ATOM     56  C   UNL A   1      40.856  31.633  35.603  1.00  0.00     0.074 A 
ATOM     57  C   UNL A   1      42.801  27.448  31.240  1.00  0.00     0.029 A 
ATOM     58  N   UNL A   1      41.681  29.002  32.368  1.00  0.00    -0.354 N 
ATOM     59  N   UNL A   1      41.181  30.798  34.642  1.00  0.00    -0.248 NA
ATOM     60  C   UNL A   1      41.674  31.497  36.816  1.00  0.00     0.031 C 
ATOM     61  C   UNL A   1      43.360  27.556  32.515  1.00  0.00     0.029 A 
ATOM     62  C   UNL A   1      42.692  28.556  33.205  1.00  0.00     0.049 A 
ATOM     63  H   UNL A   1      41.032  29.708  32.592  1.00  0.00     0.167 HD
ATOM     64  C   UNL A   1      42.265  30.067  35.125  1.00  0.00     0.074 A 
ATOM     65  C   UNL A   1      42.549  30.573  36.451  1.00  0.00     0.031 C 
ATOM     66  C   UNL A   1      42.964  29.069  34.526  1.00  0.00     0.034 A 
BRANCH  53  67
ATOM     67  C   UNL A   1      40.868  27.522  28.913  1.00  0.00     0.023 A 
ATOM     68  C   UNL A   1      41.815  27.684  27.888  1.00  0.00     0.031 A 
ATOM     69  C   UNL A   1      39.999  26.418  28.837  1.00  0.00     0.131 A 
ATOM     70  C   UNL A   1      41.841  26.786  26.809  1.00  0.00     0.055 A 
ATOM     71  C   UNL A   1      40.078  25.487  27.801  1.00  0.00     0.041 A 
ATOM     72  F   UNL A   1      39.056  26.225  29.774  1.00  0.00    -0.206 F 
ATOM     73  C   UNL A   1      40.998  25.673  26.773  1.00  0.00     0.022 A 
BRANCH  70  74
ATOM     74  S   UNL A   1      42.915  27.154  25.395  1.00  0.00     0.124 S 
ATOM     75  O   UNL A   1      44.172  27.492  26.059  1.00  0.00    -0.237 OA
ATOM     76  O   UNL A   1      42.903  25.898  24.654  1.00  0.00    -0.237 OA
ATOM     77  O   UNL A   1      42.245  28.274  24.738  1.00  0.00    -0.744 OA
ENDBRANCH  70  74
ENDBRANCH  53  67
BRANCH  54  78
ATOM     78  C   UNL A   1      39.536  33.506  36.847  1.00  0.00     0.023 A 
ATOM     79  C   UNL A   1      40.282  34.665  37.116  1.00  0.00     0.031 A 
ATOM     80  C   UNL A   1      38.609  33.086  37.818  1.00  0.00     0.131 A 
ATOM     81  C   UNL A   1      40.145  35.319  38.352  1.00  0.00     0.055 A 
ATOM     82  C   UNL A   1      38.422  33.781  39.015  1.00  0.00     0.041 A 
ATOM     83  F   UNL A   1      37.866  31.985  37.619  1.00  0.00    -0.206 F 
ATOM     84  C   UNL A   1      39.209  34.893  39.296  1.00  0.00     0.022 A 
BRANCH  81  85
ATOM     85  S   UNL A   1      41.308  36.649  38.766  1.00  0.00     0.124 S 
ATOM     86  O   UNL A   1      42.118  36.019  39.802  1.00  0.00    -0.237 OA
ATOM     87  O   UNL A   1      41.969  36.880  37.487  1.00  0.00    -0.237 OA
ATOM     88  O   UNL A   1      40.439  37.730  39.224  1.00  0.00    -0.744 OA
ENDBRANCH  81  85
ENDBRANCH  54  78
BRANCH  66  89
ATOM     89  C   UNL A   1      44.142  28.500  35.282  1.00  0.00     0.023 A 
ATOM     90  C   UNL A   1      44.000  27.445  36.199  1.00  0.00     0.031 A 
ATOM     91  C   UNL A   1      45.429  29.030  35.080  1.00  0.00     0.131 A 
ATOM     92  C   UNL A   1      45.113  26.995  36.925  1.00  0.00     0.055 A 
ATOM     93  C   UNL A   1      46.546  28.530  35.751  1.00  0.00     0.041 A 
ATOM     94  F   UNL A   1      45.626  30.042  34.219  1.00  0.00    -0.206 F 
ATOM     95  C   UNL A   1      46.388  27.516  36.691  1.00  0.00     0.022 A 
BRANCH  92  96
ATOM     96  S   UNL A   1      44.856  25.789  38.255  1.00  0.00     0.124 S 
ATOM     97  O   UNL A   1      46.221  25.548  38.711  1.00  0.00    -0.237 OA
ATOM     98  O   UNL A   1      43.995  26.520  39.178  1.00  0.00    -0.237 OA
ATOM     99  O   UNL A   1      44.220  24.661  37.577  1.00  0.00    -0.744 OA
ENDBRANCH  92  96
ENDBRANCH  66  89
ENDBRANCH  40  41
ENDBRANCH  32  35
ENDBRANCH  30  31
ENDBRANCH  29  30
ENDBRANCH  28  29
ENDBRANCH   1  28
TORSDOF 19
ENDMDL
MODEL 2
REMARK VINA RESULT:     -11.9      5.644     11.262
REMARK SMILES C[C@@H]1C[N@@H+](Cc2cccc(C(=O)NCCCCNC(=O)c3ccc(-c4c5nc(c(-c6cc(S(=O)(=O)[O-])ccc6F)c6ccc([nH]6)c(-c6cc(S(=O)(=O)[O-])ccc6F)c6nc(c(-c7cc(S(=O)(=O)[O-])ccc7F)c7ccc4[nH]7)C=C6)C=C5)cc3)c2)CCN1C(=O)OC(C)(C)C
REMARK SMILES IDX 14 1 13 2 11 3 12 4 10 6 6 7 7 8 84 9 8 10 9 11 5 12 4 13
REMARK SMILES IDX 1 14 2 15 3 16 87 17 86 18 85 19 88 21 89 22 90 23 91 24
REMARK SMILES IDX 92 25 93 26 94 27 15 28 16 29 17 30 18 31 19 32 20 34 21 35
REMARK SMILES IDX 22 36 83 37 23 38 82 39 24 40 25 41 26 42 76 43 27 44 81 45
REMARK SMILES IDX 75 46 77 47 28 48 80 49 74 50 73 51 29 53 61 54 41 55 60 56
REMARK SMILES IDX 42 57 45 58 59 59 78 60 43 61 44 62 58 64 79 65 46 66 30 67
REMARK SMILES IDX 31 68 39 69 32 70 38 71 40 72 37 73 33 74 34 75 35 76 36 77
REMARK SMILES IDX 62 78 63 79 71 80 64 81 70 82 72 83 69 84 65 85 66 86 67 87
REMARK SMILES IDX 68 88 47 89 48 90 56 91 49 92 55 93 57 94 54 95 50 96 51 97
REMARK SMILES IDX 52 98 53 99
REMARK H PARENT 13 5 4 20 18 33 77 52 45 63
REMARK Flexibility Score: inf
ROOT
ATOM      1  C   UNL A   1      37.514  23.582  25.935  1.00  0.00     0.116 C 
ENDROOT
BRANCH   1   2
ATOM      2  N   UNL A   1      37.425  23.423  24.500  1.00  0.00    -0.352 N 
ATOM      3  C   UNL A   1      36.426  22.954  23.682  1.00  0.00     0.251 C 
ATOM      4  O   UNL A   1      36.613  23.030  22.466  1.00  0.00    -0.269 OA
ATOM      5  H   UNL A   1      38.236  23.704  24.017  1.00  0.00     0.163 HD
BRANCH   3   6
ATOM      6  C   UNL A   1      35.112  22.433  24.175  1.00  0.00     0.040 A 
ATOM      7  C   UNL A   1      32.667  22.252  24.138  1.00  0.00     0.007 A 
ATOM      8  C   UNL A   1      32.742  21.161  25.014  1.00  0.00     0.009 A 
ATOM      9  C   UNL A   1      33.859  22.941  23.822  1.00  0.00     0.023 A 
ATOM     10  C   UNL A   1      33.978  20.727  25.492  1.00  0.00     0.001 A 
ATOM     11  C   UNL A   1      35.154  21.334  25.046  1.00  0.00     0.014 A 
BRANCH   7  12
ATOM     12  C   UNL A   1      31.337  22.642  23.498  1.00  0.00     0.299 C 
BRANCH  12  13
ATOM     13  N   UNL A   1      30.648  23.847  24.035  1.00  0.00    -0.328 N 
ATOM     14  C   UNL A   1      29.082  26.683  23.632  1.00  0.00     0.037 C 
ATOM     15  C   UNL A   1      30.524  26.415  24.076  1.00  0.00     0.140 C 
ATOM     16  C   UNL A   1      31.129  25.115  23.441  1.00  0.00     0.287 C 
ATOM     17  N   UNL A   1      30.606  26.354  25.547  1.00  0.00    -0.294 N 
ATOM     18  C   UNL A   1      30.065  25.133  26.139  1.00  0.00     0.185 C 
ATOM     19  C   UNL A   1      30.748  23.923  25.504  1.00  0.00     0.284 C 
ATOM     20  H   UNL A   1      29.670  23.734  23.769  1.00  0.00     0.348 HD
BRANCH  17  21
ATOM     21  C   UNL A   1      31.288  27.244  26.356  1.00  0.00     0.410 C 
ATOM     22  O   UNL A   1      31.224  27.217  27.577  1.00  0.00    -0.224 OA
BRANCH  21  23
ATOM     23  O   UNL A   1      32.033  28.140  25.653  1.00  0.00    -0.444 OA
BRANCH  23  24
ATOM     24  C   UNL A   1      33.452  27.898  25.441  1.00  0.00     0.106 C 
ATOM     25  C   UNL A   1      33.811  26.431  25.713  1.00  0.00     0.056 C 
ATOM     26  C   UNL A   1      33.914  28.349  24.050  1.00  0.00     0.056 C 
ATOM     27  C   UNL A   1      34.164  28.770  26.488  1.00  0.00     0.056 C 
ENDBRANCH  23  24
ENDBRANCH  21  23
ENDBRANCH  17  21
ENDBRANCH  12  13
ENDBRANCH   7  12
ENDBRANCH   3   6
ENDBRANCH   1   2
BRANCH   1  28
ATOM     28  C   UNL A   1      38.948  23.394  26.432  1.00  0.00     0.023 C 
BRANCH  28  29
ATOM     29  C   UNL A   1      39.283  21.939  26.759  1.00  0.00     0.023 C 
BRANCH  29  30
ATOM     30  C   UNL A   1      39.391  21.029  25.540  1.00  0.00     0.116 C 
BRANCH  30  31
ATOM     31  N   UNL A   1      40.199  19.841  25.776  1.00  0.00    -0.352 N 
ATOM     32  C   UNL A   1      41.525  19.779  26.141  1.00  0.00     0.251 C 
ATOM     33  H   UNL A   1      39.742  18.977  25.661  1.00  0.00     0.163 HD
ATOM     34  O   UNL A   1      42.104  18.700  26.187  1.00  0.00    -0.269 OA
BRANCH  32  35
ATOM     35  C   UNL A   1      42.243  21.041  26.419  1.00  0.00     0.039 A 
ATOM     36  C   UNL A   1      42.539  21.900  25.358  1.00  0.00     0.014 A 
ATOM     37  C   UNL A   1      42.540  21.410  27.733  1.00  0.00     0.014 A 
ATOM     38  C   UNL A   1      43.065  23.164  25.627  1.00  0.00     0.010 A 
ATOM     39  C   UNL A   1      42.983  22.701  28.002  1.00  0.00     0.010 A 
ATOM     40  C   UNL A   1      43.248  23.594  26.952  1.00  0.00    -0.014 A 
BRANCH  40  41
ATOM     41  C   UNL A   1      43.715  24.974  27.256  1.00  0.00     0.031 A 
ATOM     42  C   UNL A   1      42.748  25.989  27.806  1.00  0.00     0.074 A 
ATOM     43  C   UNL A   1      44.988  25.327  26.979  1.00  0.00     0.049 A 
ATOM     44  N   UNL A   1      42.944  27.254  28.078  1.00  0.00    -0.248 NA
ATOM     45  C   UNL A   1      41.373  25.530  28.060  1.00  0.00     0.031 C 
ATOM     46  C   UNL A   1      46.003  24.444  26.398  1.00  0.00     0.029 A 
ATOM     47  N   UNL A   1      45.648  26.523  27.137  1.00  0.00    -0.354 N 
ATOM     48  C   UNL A   1      41.718  27.745  28.511  1.00  0.00     0.074 A 
ATOM     49  C   UNL A   1      40.772  26.655  28.419  1.00  0.00     0.031 C 
ATOM     50  C   UNL A   1      47.157  25.119  26.271  1.00  0.00     0.029 A 
ATOM     51  C   UNL A   1      46.957  26.497  26.708  1.00  0.00     0.049 A 
ATOM     52  H   UNL A   1      45.223  27.323  27.520  1.00  0.00     0.167 HD
ATOM     53  C   UNL A   1      41.414  28.988  28.957  1.00  0.00     0.034 A 
ATOM     54  C   UNL A   1      47.884  27.476  26.654  1.00  0.00     0.034 A 
ATOM     55  C   UNL A   1      42.377  30.055  29.066  1.00  0.00     0.049 A 
ATOM     56  C   UNL A   1      47.512  28.854  27.150  1.00  0.00     0.074 A 
ATOM     57  C   UNL A   1      42.194  31.324  29.589  1.00  0.00     0.029 A 
ATOM     58  N   UNL A   1      43.694  29.990  28.632  1.00  0.00    -0.354 N 
ATOM     59  N   UNL A   1      46.366  29.276  27.635  1.00  0.00    -0.248 NA
ATOM     60  C   UNL A   1      48.559  29.883  27.103  1.00  0.00     0.031 C 
ATOM     61  C   UNL A   1      43.368  32.053  29.388  1.00  0.00     0.029 A 
ATOM     62  C   UNL A   1      44.319  31.212  28.833  1.00  0.00     0.049 A 
ATOM     63  H   UNL A   1      44.121  29.195  28.240  1.00  0.00     0.167 HD
ATOM     64  C   UNL A   1      46.571  30.609  27.986  1.00  0.00     0.074 A 
ATOM     65  C   UNL A   1      47.952  30.912  27.675  1.00  0.00     0.031 C 
ATOM     66  C   UNL A   1      45.698  31.502  28.518  1.00  0.00     0.034 A 
BRANCH  53  67
ATOM     67  C   UNL A   1      39.980  29.277  29.331  1.00  0.00     0.023 A 
ATOM     68  C   UNL A   1      39.564  29.392  30.668  1.00  0.00     0.031 A 
ATOM     69  C   UNL A   1      39.017  29.465  28.323  1.00  0.00     0.131 A 
ATOM     70  C   UNL A   1      38.214  29.640  30.961  1.00  0.00     0.055 A 
ATOM     71  C   UNL A   1      37.692  29.786  28.620  1.00  0.00     0.041 A 
ATOM     72  F   UNL A   1      39.351  29.343  27.028  1.00  0.00    -0.206 F 
ATOM     73  C   UNL A   1      37.281  29.866  29.947  1.00  0.00     0.022 A 
BRANCH  70  74
ATOM     74  S   UNL A   1      37.668  29.553  32.689  1.00  0.00     0.124 S 
ATOM     75  O   UNL A   1      37.552  28.111  32.891  1.00  0.00    -0.237 OA
ATOM     76  O   UNL A   1      38.760  30.211  33.399  1.00  0.00    -0.237 OA
ATOM     77  O   UNL A   1      36.400  30.279  32.685  1.00  0.00    -0.744 OA
ENDBRANCH  70  74
ENDBRANCH  53  67
BRANCH  54  78
ATOM     78  C   UNL A   1      49.240  27.219  26.080  1.00  0.00     0.023 A 
ATOM     79  C   UNL A   1      50.353  27.006  26.910  1.00  0.00     0.031 A 
ATOM     80  C   UNL A   1      49.460  27.269  24.692  1.00  0.00     0.131 A 
ATOM     81  C   UNL A   1      51.640  26.928  26.353  1.00  0.00     0.055 A 
ATOM     82  C   UNL A   1      50.733  27.117  24.137  1.00  0.00     0.041 A 
ATOM     83  F   UNL A   1      48.437  27.471  23.848  1.00  0.00    -0.206 F 
ATOM     84  C   UNL A   1      51.836  26.966  24.972  1.00  0.00     0.022 A 
BRANCH  81  85
ATOM     85  S   UNL A   1      53.072  26.917  27.470  1.00  0.00     0.124 S 
ATOM     86  O   UNL A   1      52.579  26.098  28.571  1.00  0.00    -0.237 OA
ATOM     87  O   UNL A   1      54.102  26.313  26.632  1.00  0.00    -0.237 OA
ATOM     88  O   UNL A   1      53.270  28.331  27.781  1.00  0.00    -0.744 OA
ENDBRANCH  81  85
ENDBRANCH  54  78
BRANCH  66  89
ATOM     89  C   UNL A   1      46.231  32.875  28.852  1.00  0.00     0.023 A 
ATOM     90  C   UNL A   1      46.116  33.956  27.961  1.00  0.00     0.031 A 
ATOM     91  C   UNL A   1      46.869  33.101  30.085  1.00  0.00     0.131 A 
ATOM     92  C   UNL A   1      46.684  35.195  28.289  1.00  0.00     0.055 A 
ATOM     93  C   UNL A   1      47.368  34.356  30.436  1.00  0.00     0.041 A 
ATOM     94  F   UNL A   1      47.011  32.106  30.975  1.00  0.00    -0.206 F 
ATOM     95  C   UNL A   1      47.290  35.408  29.529  1.00  0.00     0.022 A 
BRANCH  92  96
ATOM     96  S   UNL A   1      46.714  36.501  27.030  1.00  0.00     0.124 S 
ATOM     97  O   UNL A   1      47.292  37.619  27.768  1.00  0.00    -0.237 OA
ATOM     98  O   UNL A   1      47.558  35.917  25.993  1.00  0.00    -0.237 OA
ATOM     99  O   UNL A   1      45.306  36.659  26.667  1.00  0.00    -0.744 OA
ENDBRANCH  92  96
ENDBRANCH  66  89
ENDBRANCH  40  41
ENDBRANCH  32  35
ENDBRANCH  30  31
ENDBRANCH  29  30
ENDBRANCH  28  29
ENDBRANCH   1  28
TORSDOF 19
ENDMDL
MODEL 3
REMARK VINA RESULT:     -11.9      1.961      7.707
REMARK SMILES C[C@@H]1C[N@@H+](Cc2cccc(C(=O)NCCCCNC(=O)c3ccc(-c4c5nc(c(-c6cc(S(=O)(=O)[O-])ccc6F)c6ccc([nH]6)c(-c6cc(S(=O)(=O)[O-])ccc6F)c6nc(c(-c7cc(S(=O)(=O)[O-])ccc7F)c7ccc4[nH]7)C=C6)C=C5)cc3)c2)CCN1C(=O)OC(C)(C)C
REMARK SMILES IDX 14 1 13 2 11 3 12 4 10 6 6 7 7 8 84 9 8 10 9 11 5 12 4 13
REMARK SMILES IDX 1 14 2 15 3 16 87 17 86 18 85 19 88 21 89 22 90 23 91 24
REMARK SMILES IDX 92 25 93 26 94 27 15 28 16 29 17 30 18 31 19 32 20 34 21 35
REMARK SMILES IDX 22 36 83 37 23 38 82 39 24 40 25 41 26 42 76 43 27 44 81 45
REMARK SMILES IDX 75 46 77 47 28 48 80 49 74 50 73 51 29 53 61 54 41 55 60 56
REMARK SMILES IDX 42 57 45 58 59 59 78 60 43 61 44 62 58 64 79 65 46 66 30 67
REMARK SMILES IDX 31 68 39 69 32 70 38 71 40 72 37 73 33 74 34 75 35 76 36 77
REMARK SMILES IDX 62 78 63 79 71 80 64 81 70 82 72 83 69 84 65 85 66 86 67 87
REMARK SMILES IDX 68 88 47 89 48 90 56 91 49 92 55 93 57 94 54 95 50 96 51 97
REMARK SMILES IDX 52 98 53 99
REMARK H PARENT 13 5 4 20 18 33 77 52 45 63
REMARK Flexibility Score: inf
ROOT
ATOM      1  C   UNL A   1      32.106  28.808  27.333  1.00  0.00     0.116 C 
ENDROOT
BRANCH   1   2
ATOM      2  N   UNL A   1      31.090  27.794  27.160  1.00  0.00    -0.352 N 
ATOM      3  C   UNL A   1      31.024  26.679  26.362  1.00  0.00     0.251 C 
ATOM      4  O   UNL A   1      30.048  25.939  26.507  1.00  0.00    -0.269 OA
ATOM      5  H   UNL A   1      30.293  27.929  27.723  1.00  0.00     0.163 HD
BRANCH   3   6
ATOM      6  C   UNL A   1      32.090  26.276  25.391  1.00  0.00     0.040 A 
ATOM      7  C   UNL A   1      34.263  25.311  24.789  1.00  0.00     0.007 A 
ATOM      8  C   UNL A   1      33.881  25.314  23.441  1.00  0.00     0.009 A 
ATOM      9  C   UNL A   1      33.393  25.901  25.732  1.00  0.00     0.023 A 
ATOM     10  C   UNL A   1      32.637  25.817  23.063  1.00  0.00     0.001 A 
ATOM     11  C   UNL A   1      31.735  26.258  24.034  1.00  0.00     0.014 A 
BRANCH   7  12
ATOM     12  C   UNL A   1      35.558  24.633  25.228  1.00  0.00     0.299 C 
BRANCH  12  13
ATOM     13  N   UNL A   1      35.494  23.180  25.546  1.00  0.00    -0.328 N 
ATOM     14  C   UNL A   1      36.446  20.092  25.086  1.00  0.00     0.037 C 
ATOM     15  C   UNL A   1      35.156  20.795  24.647  1.00  0.00     0.140 C 
ATOM     16  C   UNL A   1      35.363  22.321  24.347  1.00  0.00     0.287 C 
ATOM     17  N   UNL A   1      34.100  20.608  25.659  1.00  0.00    -0.294 N 
ATOM     18  C   UNL A   1      34.268  21.403  26.873  1.00  0.00     0.185 C 
ATOM     19  C   UNL A   1      34.405  22.876  26.491  1.00  0.00     0.284 C 
ATOM     20  H   UNL A   1      36.390  22.965  25.983  1.00  0.00     0.348 HD
BRANCH  17  21
ATOM     21  C   UNL A   1      32.922  19.906  25.477  1.00  0.00     0.410 C 
ATOM     22  O   UNL A   1      31.891  20.430  25.081  1.00  0.00    -0.224 OA
BRANCH  21  23
ATOM     23  O   UNL A   1      33.037  18.585  25.781  1.00  0.00    -0.444 OA
BRANCH  23  24
ATOM     24  C   UNL A   1      33.180  17.605  24.716  1.00  0.00     0.106 C 
ATOM     25  C   UNL A   1      32.665  18.158  23.380  1.00  0.00     0.056 C 
ATOM     26  C   UNL A   1      34.618  17.082  24.599  1.00  0.00     0.056 C 
ATOM     27  C   UNL A   1      32.278  16.432  25.132  1.00  0.00     0.056 C 
ENDBRANCH  23  24
ENDBRANCH  21  23
ENDBRANCH  17  21
ENDBRANCH  12  13
ENDBRANCH   7  12
ENDBRANCH   3   6
ENDBRANCH   1   2
BRANCH   1  28
ATOM     28  C   UNL A   1      32.083  29.826  26.192  1.00  0.00     0.023 C 
BRANCH  28  29
ATOM     29  C   UNL A   1      31.771  31.246  26.662  1.00  0.00     0.023 C 
BRANCH  29  30
ATOM     30  C   UNL A   1      32.961  31.986  27.263  1.00  0.00     0.116 C 
BRANCH  30  31
ATOM     31  N   UNL A   1      32.684  33.385  27.555  1.00  0.00    -0.352 N 
ATOM     32  C   UNL A   1      33.334  34.208  28.447  1.00  0.00     0.251 C 
ATOM     33  H   UNL A   1      31.942  33.793  27.053  1.00  0.00     0.163 HD
ATOM     34  O   UNL A   1      32.909  35.336  28.672  1.00  0.00    -0.269 OA
BRANCH  32  35
ATOM     35  C   UNL A   1      34.515  33.682  29.165  1.00  0.00     0.039 A 
ATOM     36  C   UNL A   1      34.321  32.872  30.284  1.00  0.00     0.014 A 
ATOM     37  C   UNL A   1      35.802  33.920  28.675  1.00  0.00     0.014 A 
ATOM     38  C   UNL A   1      35.419  32.237  30.868  1.00  0.00     0.010 A 
ATOM     39  C   UNL A   1      36.879  33.218  29.205  1.00  0.00     0.010 A 
ATOM     40  C   UNL A   1      36.700  32.367  30.307  1.00  0.00    -0.014 A 
BRANCH  40  41
ATOM     41  C   UNL A   1      37.862  31.618  30.859  1.00  0.00     0.031 A 
ATOM     42  C   UNL A   1      38.412  31.980  32.213  1.00  0.00     0.074 A 
ATOM     43  C   UNL A   1      38.456  30.660  30.116  1.00  0.00     0.049 A 
ATOM     44  N   UNL A   1      39.451  31.490  32.840  1.00  0.00    -0.248 NA
ATOM     45  C   UNL A   1      37.720  33.051  32.949  1.00  0.00     0.031 C 
ATOM     46  C   UNL A   1      38.043  30.257  28.769  1.00  0.00     0.029 A 
ATOM     47  N   UNL A   1      39.540  29.857  30.380  1.00  0.00    -0.354 N 
ATOM     48  C   UNL A   1      39.550  32.205  34.029  1.00  0.00     0.074 A 
ATOM     49  C   UNL A   1      38.497  33.195  34.013  1.00  0.00     0.031 C 
ATOM     50  C   UNL A   1      38.846  29.271  28.338  1.00  0.00     0.029 A 
ATOM     51  C   UNL A   1      39.865  29.004  29.347  1.00  0.00     0.049 A 
ATOM     52  H   UNL A   1      40.038  29.888  31.228  1.00  0.00     0.167 HD
ATOM     53  C   UNL A   1      40.432  32.039  35.044  1.00  0.00     0.034 A 
ATOM     54  C   UNL A   1      40.879  28.124  29.220  1.00  0.00     0.034 A 
ATOM     55  C   UNL A   1      41.460  31.028  35.054  1.00  0.00     0.049 A 
ATOM     56  C   UNL A   1      41.851  27.969  30.366  1.00  0.00     0.074 A 
ATOM     57  C   UNL A   1      42.346  30.717  36.070  1.00  0.00     0.029 A 
ATOM     58  N   UNL A   1      41.753  30.178  33.996  1.00  0.00    -0.354 N 
ATOM     59  N   UNL A   1      41.876  28.598  31.520  1.00  0.00    -0.248 NA
ATOM     60  C   UNL A   1      42.923  26.977  30.201  1.00  0.00     0.031 C 
ATOM     61  C   UNL A   1      43.231  29.746  35.596  1.00  0.00     0.029 A 
ATOM     62  C   UNL A   1      42.837  29.375  34.321  1.00  0.00     0.049 A 
ATOM     63  H   UNL A   1      41.264  30.148  33.143  1.00  0.00     0.167 HD
ATOM     64  C   UNL A   1      42.943  28.049  32.228  1.00  0.00     0.074 A 
ATOM     65  C   UNL A   1      43.521  27.026  31.382  1.00  0.00     0.031 C 
ATOM     66  C   UNL A   1      43.403  28.359  33.467  1.00  0.00     0.034 A 
BRANCH  53  67
ATOM     67  C   UNL A   1      40.350  32.987  36.217  1.00  0.00     0.023 A 
ATOM     68  C   UNL A   1      39.649  32.665  37.391  1.00  0.00     0.031 A 
ATOM     69  C   UNL A   1      41.010  34.227  36.162  1.00  0.00     0.131 A 
ATOM     70  C   UNL A   1      39.586  33.592  38.444  1.00  0.00     0.055 A 
ATOM     71  C   UNL A   1      41.006  35.113  37.241  1.00  0.00     0.041 A 
ATOM     72  F   UNL A   1      41.674  34.600  35.056  1.00  0.00    -0.206 F 
ATOM     73  C   UNL A   1      40.283  34.801  38.388  1.00  0.00     0.022 A 
BRANCH  70  74
ATOM     74  S   UNL A   1      38.488  33.245  39.845  1.00  0.00     0.124 S 
ATOM     75  O   UNL A   1      39.210  32.174  40.528  1.00  0.00    -0.237 OA
ATOM     76  O   UNL A   1      38.444  34.527  40.539  1.00  0.00    -0.237 OA
ATOM     77  O   UNL A   1      37.238  32.836  39.208  1.00  0.00    -0.744 OA
ENDBRANCH  70  74
ENDBRANCH  53  67
BRANCH  54  78
ATOM     78  C   UNL A   1      41.066  27.343  27.959  1.00  0.00     0.023 A 
ATOM     79  C   UNL A   1      40.751  25.976  27.896  1.00  0.00     0.031 A 
ATOM     80  C   UNL A   1      41.644  27.934  26.821  1.00  0.00     0.131 A 
ATOM     81  C   UNL A   1      41.085  25.230  26.754  1.00  0.00     0.055 A 
ATOM     82  C   UNL A   1      41.907  27.204  25.660  1.00  0.00     0.041 A 
ATOM     83  F   UNL A   1      41.968  29.237  26.821  1.00  0.00    -0.206 F 
ATOM     84  C   UNL A   1      41.646  25.838  25.630  1.00  0.00     0.022 A 
BRANCH  81  85
ATOM     85  S   UNL A   1      40.906  23.425  26.811  1.00  0.00     0.124 S 
ATOM     86  O   UNL A   1      41.322  23.131  28.177  1.00  0.00    -0.237 OA
ATOM     87  O   UNL A   1      39.486  23.254  26.522  1.00  0.00    -0.237 OA
ATOM     88  O   UNL A   1      41.815  22.960  25.766  1.00  0.00    -0.744 OA
ENDBRANCH  81  85
ENDBRANCH  54  78
BRANCH  66  89
ATOM     89  C   UNL A   1      44.555  27.541  34.002  1.00  0.00     0.023 A 
ATOM     90  C   UNL A   1      44.353  26.349  34.719  1.00  0.00     0.031 A 
ATOM     91  C   UNL A   1      45.878  27.968  33.792  1.00  0.00     0.131 A 
ATOM     92  C   UNL A   1      45.451  25.659  35.251  1.00  0.00     0.055 A 
ATOM     93  C   UNL A   1      46.971  27.238  34.261  1.00  0.00     0.041 A 
ATOM     94  F   UNL A   1      46.133  29.101  33.118  1.00  0.00    -0.206 F 
ATOM     95  C   UNL A   1      46.760  26.084  35.009  1.00  0.00     0.022 A 
BRANCH  92  96
ATOM     96  S   UNL A   1      45.145  24.252  36.355  1.00  0.00     0.124 S 
ATOM     97  O   UNL A   1      46.483  23.689  36.503  1.00  0.00    -0.237 OA
ATOM     98  O   UNL A   1      44.591  24.898  37.539  1.00  0.00    -0.237 OA
ATOM     99  O   UNL A   1      44.204  23.425  35.603  1.00  0.00    -0.744 OA
ENDBRANCH  92  96
ENDBRANCH  66  89
ENDBRANCH  40  41
ENDBRANCH  32  35
ENDBRANCH  30  31
ENDBRANCH  29  30
ENDBRANCH  28  29
ENDBRANCH   1  28
TORSDOF 19
ENDMDL
