MODEL 1
REMARK VINA RESULT:     -13.8      0.000      0.000
REMARK SMILES Cc1c(Cl)cccc1NC(=O)NCc1cn([C@@H]2C[NH2+][C@H](C(=O)NCCCCNC(=O)c3ccc(-c4c5nc(c(-c6cc(S(=O)(=O)[O-])ccc6F)c6ccc([nH]6)c(-c6cc(S(=O)(=O)[O-])ccc6F)c6nc(c(-c7cc(S(=O)(=O)[O-])ccc7F)c7ccc4[nH]7)C=C6)C=C5)cc3)C2)nn1
REMARK SMILES IDX 25 1 24 2 23 3 21 4 22 5 20 7 17 8 18 9 94 10 19 11 16 14
REMARK SMILES IDX 14 15 15 16 96 17 95 18 13 19 12 20 9 21 10 22 11 24 8 26
REMARK SMILES IDX 1 27 2 28 3 29 4 30 5 31 7 32 6 33 26 34 27 35 28 36 29 37
REMARK SMILES IDX 30 39 31 40 32 41 93 42 33 43 92 44 34 45 35 46 36 47 86 48
REMARK SMILES IDX 37 49 91 50 85 51 87 52 38 53 90 54 84 55 83 56 39 58 71 59
REMARK SMILES IDX 51 60 70 61 52 62 55 63 69 64 88 65 53 66 54 67 68 69 89 70
REMARK SMILES IDX 56 71 40 72 41 73 49 74 42 75 48 76 50 77 47 78 43 79 44 80
REMARK SMILES IDX 45 81 46 82 72 83 73 84 81 85 74 86 80 87 82 88 79 89 75 90
REMARK SMILES IDX 76 91 77 92 78 93 57 94 58 95 66 96 59 97 65 98 67 99 64 100
REMARK SMILES IDX 60 101 61 102 62 103 63 104
REMARK H PARENT 23 6 19 12 19 13 9 23 12 25 28 38 87 57 55 68
REMARK Flexibility Score: inf
ROOT
ATOM      1  C   UNL A   1      32.908  30.253  27.129  1.00  0.00     0.023 C 
ENDROOT
BRANCH   1   2
ATOM      2  C   UNL A   1      31.952  30.259  25.933  1.00  0.00     0.116 C 
BRANCH   2   3
ATOM      3  N   UNL A   1      32.546  29.688  24.740  1.00  0.00    -0.351 N 
ATOM      4  C   UNL A   1      32.258  28.594  23.988  1.00  0.00     0.278 C 
ATOM      5  O   UNL A   1      33.042  28.364  23.056  1.00  0.00    -0.268 OA
ATOM      6  H   UNL A   1      33.318  30.198  24.405  1.00  0.00     0.163 HD
BRANCH   4   7
ATOM      7  C   UNL A   1      31.022  27.681  24.137  1.00  0.00     0.274 C 
ATOM      8  C   UNL A   1      30.552  25.595  25.288  1.00  0.00     0.170 C 
ATOM      9  C   UNL A   1      31.053  25.331  23.875  1.00  0.00     0.288 C 
ATOM     10  C   UNL A   1      30.989  27.039  25.525  1.00  0.00     0.109 C 
ATOM     11  N   UNL A   1      30.871  26.598  23.139  1.00  0.00    -0.334 N 
ATOM     12  H   UNL A   1      29.942  26.632  22.718  1.00  0.00     0.347 HD
ATOM     13  H   UNL A   1      31.550  26.691  22.384  1.00  0.00     0.347 HD
BRANCH   8  14
ATOM     14  N   UNL A   1      31.064  24.645  26.247  1.00  0.00    -0.243 N 
ATOM     15  C   UNL A   1      32.324  23.238  27.298  1.00  0.00     0.102 A 
ATOM     16  C   UNL A   1      32.363  24.355  26.490  1.00  0.00     0.137 A 
ATOM     17  N   UNL A   1      31.019  22.927  27.563  1.00  0.00    -0.134 NA
ATOM     18  N   UNL A   1      30.250  23.809  26.918  1.00  0.00    -0.067 NA
BRANCH  15  19
ATOM     19  C   UNL A   1      33.521  22.417  27.560  1.00  0.00     0.178 C 
BRANCH  19  20
ATOM     20  N   UNL A   1      34.806  22.949  27.253  1.00  0.00    -0.332 N 
ATOM     21  N   UNL A   1      35.378  22.121  25.055  1.00  0.00    -0.308 N 
ATOM     22  C   UNL A   1      35.521  22.944  26.117  1.00  0.00     0.319 C 
ATOM     23  H   UNL A   1      36.041  22.339  24.361  1.00  0.00     0.171 HD
ATOM     24  O   UNL A   1      36.490  23.716  26.090  1.00  0.00    -0.248 OA
ATOM     25  H   UNL A   1      35.248  23.400  28.007  1.00  0.00     0.165 HD
BRANCH  21  26
ATOM     26  C   UNL A   1      34.564  21.041  24.640  1.00  0.00     0.047 A 
ATOM     27  C   UNL A   1      36.522  19.403  24.898  1.00  0.00     0.048 C 
ATOM     28  C   UNL A   1      35.061  19.717  24.697  1.00  0.00    -0.009 A 
ATOM     29  C   UNL A   1      34.161  18.643  24.485  1.00  0.00     0.046 A 
ATOM     30  Cl  UNL A   1      34.663  16.986  24.584  1.00  0.00    -0.084 Cl
ATOM     31  C   UNL A   1      32.815  18.868  24.201  1.00  0.00     0.021 A 
ATOM     32  C   UNL A   1      33.282  21.222  24.126  1.00  0.00     0.026 A 
ATOM     33  C   UNL A   1      32.381  20.165  23.997  1.00  0.00     0.004 A 
ENDBRANCH  21  26
ENDBRANCH  19  20
ENDBRANCH  15  19
ENDBRANCH   8  14
ENDBRANCH   4   7
ENDBRANCH   2   3
ENDBRANCH   1   2
BRANCH   1  34
ATOM     34  C   UNL A   1      33.844  29.039  27.248  1.00  0.00     0.023 C 
BRANCH  34  35
ATOM     35  C   UNL A   1      35.296  29.364  27.583  1.00  0.00     0.116 C 
BRANCH  35  36
ATOM     36  N   UNL A   1      35.480  29.904  28.933  1.00  0.00    -0.352 N 
ATOM     37  C   UNL A   1      36.441  29.550  29.872  1.00  0.00     0.251 C 
ATOM     38  H   UNL A   1      34.844  30.604  29.209  1.00  0.00     0.163 HD
ATOM     39  O   UNL A   1      36.259  29.745  31.060  1.00  0.00    -0.269 OA
BRANCH  37  40
ATOM     40  C   UNL A   1      37.702  28.957  29.383  1.00  0.00     0.039 A 
ATOM     41  C   UNL A   1      38.356  29.403  28.230  1.00  0.00     0.014 A 
ATOM     42  C   UNL A   1      38.247  27.941  30.159  1.00  0.00     0.014 A 
ATOM     43  C   UNL A   1      39.609  28.868  27.922  1.00  0.00     0.010 A 
ATOM     44  C   UNL A   1      39.545  27.562  29.967  1.00  0.00     0.010 A 
ATOM     45  C   UNL A   1      40.201  27.958  28.809  1.00  0.00    -0.014 A 
BRANCH  45  46
ATOM     46  C   UNL A   1      41.566  27.473  28.647  1.00  0.00     0.031 A 
ATOM     47  C   UNL A   1      41.692  26.264  27.799  1.00  0.00     0.074 A 
ATOM     48  C   UNL A   1      42.635  28.229  28.979  1.00  0.00     0.049 A 
ATOM     49  N   UNL A   1      41.991  25.074  28.193  1.00  0.00    -0.248 NA
ATOM     50  C   UNL A   1      41.268  26.329  26.390  1.00  0.00     0.031 C 
ATOM     51  C   UNL A   1      42.644  29.571  29.558  1.00  0.00     0.029 A 
ATOM     52  N   UNL A   1      43.954  28.015  28.743  1.00  0.00    -0.354 N 
ATOM     53  C   UNL A   1      42.078  24.305  27.040  1.00  0.00     0.074 A 
ATOM     54  C   UNL A   1      41.376  25.048  26.029  1.00  0.00     0.031 C 
ATOM     55  C   UNL A   1      43.852  30.146  29.370  1.00  0.00     0.029 A 
ATOM     56  C   UNL A   1      44.751  29.155  28.809  1.00  0.00     0.049 A 
ATOM     57  H   UNL A   1      44.319  27.123  28.540  1.00  0.00     0.167 HD
ATOM     58  C   UNL A   1      42.961  23.269  26.958  1.00  0.00     0.034 A 
ATOM     59  C   UNL A   1      46.045  29.284  28.405  1.00  0.00     0.034 A 
ATOM     60  C   UNL A   1      43.512  22.966  28.266  1.00  0.00     0.049 A 
ATOM     61  C   UNL A   1      46.609  27.905  28.417  1.00  0.00     0.074 A 
ATOM     62  C   UNL A   1      42.959  22.658  29.496  1.00  0.00     0.029 A 
ATOM     63  N   UNL A   1      44.801  23.380  28.539  1.00  0.00    -0.354 N 
ATOM     64  N   UNL A   1      46.732  27.202  29.514  1.00  0.00    -0.248 NA
ATOM     65  C   UNL A   1      46.510  27.119  27.193  1.00  0.00     0.031 C 
ATOM     66  C   UNL A   1      43.724  23.415  30.433  1.00  0.00     0.029 A 
ATOM     67  C   UNL A   1      44.772  24.034  29.748  1.00  0.00     0.049 A 
ATOM     68  H   UNL A   1      45.593  23.236  27.972  1.00  0.00     0.167 HD
ATOM     69  C   UNL A   1      46.273  25.934  29.183  1.00  0.00     0.074 A 
ATOM     70  C   UNL A   1      46.237  25.919  27.718  1.00  0.00     0.031 C 
ATOM     71  C   UNL A   1      45.665  25.125  30.106  1.00  0.00     0.034 A 
BRANCH  58  72
ATOM     72  C   UNL A   1      43.630  22.776  25.693  1.00  0.00     0.023 A 
ATOM     73  C   UNL A   1      43.688  21.381  25.515  1.00  0.00     0.031 A 
ATOM     74  C   UNL A   1      44.442  23.537  24.823  1.00  0.00     0.131 A 
ATOM     75  C   UNL A   1      44.604  20.801  24.622  1.00  0.00     0.055 A 
ATOM     76  C   UNL A   1      45.297  22.957  23.881  1.00  0.00     0.041 A 
ATOM     77  F   UNL A   1      44.531  24.869  24.887  1.00  0.00    -0.206 F 
ATOM     78  C   UNL A   1      45.412  21.580  23.803  1.00  0.00     0.022 A 
BRANCH  75  79
ATOM     79  S   UNL A   1      44.854  19.010  24.708  1.00  0.00     0.124 S 
ATOM     80  O   UNL A   1      45.879  18.911  25.742  1.00  0.00    -0.237 OA
ATOM     81  O   UNL A   1      43.523  18.539  25.071  1.00  0.00    -0.237 OA
ATOM     82  O   UNL A   1      45.293  18.666  23.357  1.00  0.00    -0.744 OA
ENDBRANCH  75  79
ENDBRANCH  58  72
BRANCH  59  83
ATOM     83  C   UNL A   1      46.655  30.456  27.695  1.00  0.00     0.023 A 
ATOM     84  C   UNL A   1      45.898  31.401  26.963  1.00  0.00     0.031 A 
ATOM     85  C   UNL A   1      48.013  30.794  27.922  1.00  0.00     0.131 A 
ATOM     86  C   UNL A   1      46.496  32.606  26.506  1.00  0.00     0.055 A 
ATOM     87  C   UNL A   1      48.595  31.982  27.470  1.00  0.00     0.041 A 
ATOM     88  F   UNL A   1      48.814  30.015  28.666  1.00  0.00    -0.206 F 
ATOM     89  C   UNL A   1      47.835  32.900  26.767  1.00  0.00     0.022 A 
BRANCH  86  90
ATOM     90  S   UNL A   1      45.514  33.874  25.632  1.00  0.00     0.124 S 
ATOM     91  O   UNL A   1      44.706  33.068  24.725  1.00  0.00    -0.237 OA
ATOM     92  O   UNL A   1      44.806  34.532  26.724  1.00  0.00    -0.237 OA
ATOM     93  O   UNL A   1      46.530  34.702  24.979  1.00  0.00    -0.744 OA
ENDBRANCH  86  90
ENDBRANCH  59  83
BRANCH  71  94
ATOM     94  C   UNL A   1      45.731  25.486  31.581  1.00  0.00     0.023 A 
ATOM     95  C   UNL A   1      46.833  25.246  32.434  1.00  0.00     0.031 A 
ATOM     96  C   UNL A   1      44.668  26.248  32.099  1.00  0.00     0.131 A 
ATOM     97  C   UNL A   1      46.834  25.758  33.749  1.00  0.00     0.055 A 
ATOM     98  C   UNL A   1      44.684  26.776  33.390  1.00  0.00     0.041 A 
ATOM     99  F   UNL A   1      43.599  26.536  31.336  1.00  0.00    -0.206 F 
ATOM    100  C   UNL A   1      45.767  26.527  34.223  1.00  0.00     0.022 A 
BRANCH  97 101
ATOM    101  S   UNL A   1      48.215  25.412  34.888  1.00  0.00     0.124 S 
ATOM    102  O   UNL A   1      48.961  26.665  34.912  1.00  0.00    -0.237 OA
ATOM    103  O   UNL A   1      47.525  25.058  36.126  1.00  0.00    -0.237 OA
ATOM    104  O   UNL A   1      48.915  24.299  34.243  1.00  0.00    -0.744 OA
ENDBRANCH  97 101
ENDBRANCH  71  94
ENDBRANCH  45  46
ENDBRANCH  37  40
ENDBRANCH  35  36
ENDBRANCH  34  35
ENDBRANCH   1  34
TORSDOF 18
ENDMDL
MODEL 2
REMARK VINA RESULT:     -13.1      2.575      7.050
REMARK SMILES Cc1c(Cl)cccc1NC(=O)NCc1cn([C@@H]2C[NH2+][C@H](C(=O)NCCCCNC(=O)c3ccc(-c4c5nc(c(-c6cc(S(=O)(=O)[O-])ccc6F)c6ccc([nH]6)c(-c6cc(S(=O)(=O)[O-])ccc6F)c6nc(c(-c7cc(S(=O)(=O)[O-])ccc7F)c7ccc4[nH]7)C=C6)C=C5)cc3)C2)nn1
REMARK SMILES IDX 25 1 24 2 23 3 21 4 22 5 20 7 17 8 18 9 94 10 19 11 16 14
REMARK SMILES IDX 14 15 15 16 96 17 95 18 13 19 12 20 9 21 10 22 11 24 8 26
REMARK SMILES IDX 1 27 2 28 3 29 4 30 5 31 7 32 6 33 26 34 27 35 28 36 29 37
REMARK SMILES IDX 30 39 31 40 32 41 93 42 33 43 92 44 34 45 35 46 36 47 86 48
REMARK SMILES IDX 37 49 91 50 85 51 87 52 38 53 90 54 84 55 83 56 39 58 71 59
REMARK SMILES IDX 51 60 70 61 52 62 55 63 69 64 88 65 53 66 54 67 68 69 89 70
REMARK SMILES IDX 56 71 40 72 41 73 49 74 42 75 48 76 50 77 47 78 43 79 44 80
REMARK SMILES IDX 45 81 46 82 72 83 73 84 81 85 74 86 80 87 82 88 79 89 75 90
REMARK SMILES IDX 76 91 77 92 78 93 57 94 58 95 66 96 59 97 65 98 67 99 64 100
REMARK SMILES IDX 60 101 61 102 62 103 63 104
REMARK H PARENT 23 6 19 12 19 13 9 23 12 25 28 38 87 57 55 68
REMARK Flexibility Score: inf
ROOT
ATOM      1  C   UNL A   1      32.178  30.277  26.255  1.00  0.00     0.023 C 
ENDROOT
BRANCH   1   2
ATOM      2  C   UNL A   1      31.831  29.555  24.950  1.00  0.00     0.116 C 
BRANCH   2   3
ATOM      3  N   UNL A   1      30.716  30.164  24.252  1.00  0.00    -0.351 N 
ATOM      4  C   UNL A   1      29.860  29.719  23.297  1.00  0.00     0.278 C 
ATOM      5  O   UNL A   1      29.055  30.558  22.867  1.00  0.00    -0.268 OA
ATOM      6  H   UNL A   1      30.545  31.094  24.526  1.00  0.00     0.163 HD
BRANCH   4   7
ATOM      7  C   UNL A   1      29.747  28.272  22.773  1.00  0.00     0.274 C 
ATOM      8  C   UNL A   1      30.252  26.072  23.669  1.00  0.00     0.170 C 
ATOM      9  C   UNL A   1      31.458  26.649  22.942  1.00  0.00     0.288 C 
ATOM     10  C   UNL A   1      29.392  27.311  23.909  1.00  0.00     0.109 C 
ATOM     11  N   UNL A   1      30.932  27.723  22.076  1.00  0.00    -0.334 N 
ATOM     12  H   UNL A   1      30.665  27.344  21.167  1.00  0.00     0.347 HD
ATOM     13  H   UNL A   1      31.634  28.445  21.910  1.00  0.00     0.347 HD
BRANCH   8  14
ATOM     14  N   UNL A   1      30.615  25.350  24.865  1.00  0.00    -0.243 N 
ATOM     15  C   UNL A   1      31.398  23.873  26.235  1.00  0.00     0.102 A 
ATOM     16  C   UNL A   1      31.609  24.440  24.996  1.00  0.00     0.137 A 
ATOM     17  N   UNL A   1      30.332  24.489  26.831  1.00  0.00    -0.134 NA
ATOM     18  N   UNL A   1      29.864  25.407  25.981  1.00  0.00    -0.067 NA
BRANCH  15  19
ATOM     19  C   UNL A   1      32.077  22.632  26.654  1.00  0.00     0.178 C 
BRANCH  19  20
ATOM     20  N   UNL A   1      31.709  21.400  26.042  1.00  0.00    -0.332 N 
ATOM     21  N   UNL A   1      33.545  20.784  24.594  1.00  0.00    -0.308 N 
ATOM     22  C   UNL A   1      32.409  20.541  25.285  1.00  0.00     0.319 C 
ATOM     23  H   UNL A   1      33.840  19.973  24.122  1.00  0.00     0.171 HD
ATOM     24  O   UNL A   1      31.890  19.428  25.118  1.00  0.00    -0.248 OA
ATOM     25  H   UNL A   1      30.776  21.131  26.202  1.00  0.00     0.165 HD
BRANCH  21  26
ATOM     26  C   UNL A   1      34.437  21.853  24.346  1.00  0.00     0.047 A 
ATOM     27  C   UNL A   1      35.445  21.621  26.694  1.00  0.00     0.048 C 
ATOM     28  C   UNL A   1      35.444  22.169  25.290  1.00  0.00    -0.009 A 
ATOM     29  C   UNL A   1      36.454  23.094  24.924  1.00  0.00     0.046 A 
ATOM     30  Cl  UNL A   1      37.757  23.507  25.990  1.00  0.00    -0.084 Cl
ATOM     31  C   UNL A   1      36.457  23.709  23.673  1.00  0.00     0.021 A 
ATOM     32  C   UNL A   1      34.347  22.659  23.213  1.00  0.00     0.026 A 
ATOM     33  C   UNL A   1      35.385  23.507  22.824  1.00  0.00     0.004 A 
ENDBRANCH  21  26
ENDBRANCH  19  20
ENDBRANCH  15  19
ENDBRANCH   8  14
ENDBRANCH   4   7
ENDBRANCH   2   3
ENDBRANCH   1   2
BRANCH   1  34
ATOM     34  C   UNL A   1      33.218  29.593  27.156  1.00  0.00     0.023 C 
BRANCH  34  35
ATOM     35  C   UNL A   1      34.520  30.363  27.353  1.00  0.00     0.116 C 
BRANCH  35  36
ATOM     36  N   UNL A   1      34.443  31.389  28.397  1.00  0.00    -0.352 N 
ATOM     37  C   UNL A   1      35.261  31.537  29.511  1.00  0.00     0.251 C 
ATOM     38  H   UNL A   1      33.724  32.054  28.297  1.00  0.00     0.163 HD
ATOM     39  O   UNL A   1      34.874  32.138  30.496  1.00  0.00    -0.269 OA
BRANCH  37  40
ATOM     40  C   UNL A   1      36.623  30.969  29.453  1.00  0.00     0.039 A 
ATOM     41  C   UNL A   1      37.777  31.757  29.489  1.00  0.00     0.014 A 
ATOM     42  C   UNL A   1      36.712  29.584  29.401  1.00  0.00     0.014 A 
ATOM     43  C   UNL A   1      39.019  31.122  29.562  1.00  0.00     0.010 A 
ATOM     44  C   UNL A   1      37.902  28.970  29.664  1.00  0.00     0.010 A 
ATOM     45  C   UNL A   1      39.068  29.724  29.665  1.00  0.00    -0.014 A 
BRANCH  45  46
ATOM     46  C   UNL A   1      40.306  28.994  29.902  1.00  0.00     0.031 A 
ATOM     47  C   UNL A   1      40.577  28.689  31.327  1.00  0.00     0.074 A 
ATOM     48  C   UNL A   1      40.979  28.386  28.900  1.00  0.00     0.049 A 
ATOM     49  N   UNL A   1      41.490  29.216  32.067  1.00  0.00    -0.248 NA
ATOM     50  C   UNL A   1      39.628  27.844  32.072  1.00  0.00     0.031 C 
ATOM     51  C   UNL A   1      40.648  28.367  27.476  1.00  0.00     0.029 A 
ATOM     52  N   UNL A   1      42.034  27.535  28.956  1.00  0.00    -0.354 N 
ATOM     53  C   UNL A   1      41.415  28.556  33.287  1.00  0.00     0.074 A 
ATOM     54  C   UNL A   1      40.116  27.941  33.312  1.00  0.00     0.031 C 
ATOM     55  C   UNL A   1      41.296  27.350  26.867  1.00  0.00     0.029 A 
ATOM     56  C   UNL A   1      42.213  26.751  27.818  1.00  0.00     0.049 A 
ATOM     57  H   UNL A   1      42.626  27.475  29.741  1.00  0.00     0.167 HD
ATOM     58  C   UNL A   1      42.536  28.344  34.034  1.00  0.00     0.034 A 
ATOM     59  C   UNL A   1      43.032  25.672  27.678  1.00  0.00     0.034 A 
ATOM     60  C   UNL A   1      43.647  29.120  33.517  1.00  0.00     0.049 A 
ATOM     61  C   UNL A   1      44.082  25.826  28.724  1.00  0.00     0.074 A 
ATOM     62  C   UNL A   1      43.841  30.463  33.247  1.00  0.00     0.029 A 
ATOM     63  N   UNL A   1      44.618  28.459  32.791  1.00  0.00    -0.354 N 
ATOM     64  N   UNL A   1      44.933  26.819  28.729  1.00  0.00    -0.248 NA
ATOM     65  C   UNL A   1      43.835  25.223  30.029  1.00  0.00     0.031 C 
ATOM     66  C   UNL A   1      44.517  30.483  31.991  1.00  0.00     0.029 A 
ATOM     67  C   UNL A   1      44.813  29.167  31.629  1.00  0.00     0.049 A 
ATOM     68  H   UNL A   1      45.084  27.633  33.056  1.00  0.00     0.167 HD
ATOM     69  C   UNL A   1      44.972  27.255  30.047  1.00  0.00     0.074 A 
ATOM     70  C   UNL A   1      44.346  26.176  30.816  1.00  0.00     0.031 C 
ATOM     71  C   UNL A   1      45.210  28.566  30.365  1.00  0.00     0.034 A 
BRANCH  58  72
ATOM     72  C   UNL A   1      42.764  27.178  34.972  1.00  0.00     0.023 A 
ATOM     73  C   UNL A   1      43.587  26.139  34.495  1.00  0.00     0.031 A 
ATOM     74  C   UNL A   1      42.027  26.884  36.141  1.00  0.00     0.131 A 
ATOM     75  C   UNL A   1      43.553  24.862  35.076  1.00  0.00     0.055 A 
ATOM     76  C   UNL A   1      42.055  25.632  36.762  1.00  0.00     0.041 A 
ATOM     77  F   UNL A   1      41.171  27.746  36.699  1.00  0.00    -0.206 F 
ATOM     78  C   UNL A   1      42.791  24.598  36.208  1.00  0.00     0.022 A 
BRANCH  75  79
ATOM     79  S   UNL A   1      44.371  23.507  34.196  1.00  0.00     0.124 S 
ATOM     80  O   UNL A   1      44.337  22.449  35.200  1.00  0.00    -0.237 OA
ATOM     81  O   UNL A   1      43.497  23.330  33.042  1.00  0.00    -0.237 OA
ATOM     82  O   UNL A   1      45.695  24.048  33.901  1.00  0.00    -0.744 OA
ENDBRANCH  75  79
ENDBRANCH  58  72
BRANCH  59  83
ATOM     83  C   UNL A   1      42.727  24.400  26.946  1.00  0.00     0.023 A 
ATOM     84  C   UNL A   1      43.667  23.731  26.126  1.00  0.00     0.031 A 
ATOM     85  C   UNL A   1      41.537  23.685  27.231  1.00  0.00     0.131 A 
ATOM     86  C   UNL A   1      43.400  22.422  25.643  1.00  0.00     0.055 A 
ATOM     87  C   UNL A   1      41.280  22.397  26.753  1.00  0.00     0.041 A 
ATOM     88  F   UNL A   1      40.602  24.181  28.057  1.00  0.00    -0.206 F 
ATOM     89  C   UNL A   1      42.217  21.754  25.964  1.00  0.00     0.022 A 
BRANCH  86  90
ATOM     90  S   UNL A   1      44.635  21.511  24.652  1.00  0.00     0.124 S 
ATOM     91  O   UNL A   1      44.603  22.229  23.384  1.00  0.00    -0.237 OA
ATOM     92  O   UNL A   1      45.848  21.655  25.452  1.00  0.00    -0.237 OA
ATOM     93  O   UNL A   1      44.097  20.151  24.603  1.00  0.00    -0.744 OA
ENDBRANCH  86  90
ENDBRANCH  59  83
BRANCH  71  94
ATOM     94  C   UNL A   1      45.715  29.520  29.295  1.00  0.00     0.023 A 
ATOM     95  C   UNL A   1      44.900  30.288  28.432  1.00  0.00     0.031 A 
ATOM     96  C   UNL A   1      47.101  29.764  29.261  1.00  0.00     0.131 A 
ATOM     97  C   UNL A   1      45.483  31.249  27.578  1.00  0.00     0.055 A 
ATOM     98  C   UNL A   1      47.671  30.733  28.437  1.00  0.00     0.041 A 
ATOM     99  F   UNL A   1      47.932  29.087  30.072  1.00  0.00    -0.206 F 
ATOM    100  C   UNL A   1      46.863  31.476  27.586  1.00  0.00     0.022 A 
BRANCH  97 101
ATOM    101  S   UNL A   1      44.461  32.210  26.414  1.00  0.00     0.124 S 
ATOM    102  O   UNL A   1      45.401  32.588  25.364  1.00  0.00    -0.237 OA
ATOM    103  O   UNL A   1      43.430  31.250  26.029  1.00  0.00    -0.237 OA
ATOM    104  O   UNL A   1      43.979  33.327  27.229  1.00  0.00    -0.744 OA
ENDBRANCH  97 101
ENDBRANCH  71  94
ENDBRANCH  45  46
ENDBRANCH  37  40
ENDBRANCH  35  36
ENDBRANCH  34  35
ENDBRANCH   1  34
TORSDOF 18
ENDMDL
MODEL 3
REMARK VINA RESULT:     -12.9      4.679      7.297
REMARK SMILES Cc1c(Cl)cccc1NC(=O)NCc1cn([C@@H]2C[NH2+][C@H](C(=O)NCCCCNC(=O)c3ccc(-c4c5nc(c(-c6cc(S(=O)(=O)[O-])ccc6F)c6ccc([nH]6)c(-c6cc(S(=O)(=O)[O-])ccc6F)c6nc(c(-c7cc(S(=O)(=O)[O-])ccc7F)c7ccc4[nH]7)C=C6)C=C5)cc3)C2)nn1
REMARK SMILES IDX 25 1 24 2 23 3 21 4 22 5 20 7 17 8 18 9 94 10 19 11 16 14
REMARK SMILES IDX 14 15 15 16 96 17 95 18 13 19 12 20 9 21 10 22 11 24 8 26
REMARK SMILES IDX 1 27 2 28 3 29 4 30 5 31 7 32 6 33 26 34 27 35 28 36 29 37
REMARK SMILES IDX 30 39 31 40 32 41 93 42 33 43 92 44 34 45 35 46 36 47 86 48
REMARK SMILES IDX 37 49 91 50 85 51 87 52 38 53 90 54 84 55 83 56 39 58 71 59
REMARK SMILES IDX 51 60 70 61 52 62 55 63 69 64 88 65 53 66 54 67 68 69 89 70
REMARK SMILES IDX 56 71 40 72 41 73 49 74 42 75 48 76 50 77 47 78 43 79 44 80
REMARK SMILES IDX 45 81 46 82 72 83 73 84 81 85 74 86 80 87 82 88 79 89 75 90
REMARK SMILES IDX 76 91 77 92 78 93 57 94 58 95 66 96 59 97 65 98 67 99 64 100
REMARK SMILES IDX 60 101 61 102 62 103 63 104
REMARK H PARENT 23 6 19 12 19 13 9 23 12 25 28 38 87 57 55 68
REMARK Flexibility Score: inf
ROOT
ATOM      1  C   UNL A   1      35.944  33.995  29.130  1.00  0.00     0.023 C 
ENDROOT
BRANCH   1   2
ATOM      2  C   UNL A   1      34.666  34.005  29.973  1.00  0.00     0.116 C 
BRANCH   2   3
ATOM      3  N   UNL A   1      34.026  35.306  30.004  1.00  0.00    -0.351 N 
ATOM      4  C   UNL A   1      33.414  36.020  30.984  1.00  0.00     0.278 C 
ATOM      5  O   UNL A   1      32.903  37.091  30.625  1.00  0.00    -0.268 OA
ATOM      6  H   UNL A   1      34.036  35.767  29.134  1.00  0.00     0.163 HD
BRANCH   4   7
ATOM      7  C   UNL A   1      33.373  35.664  32.485  1.00  0.00     0.274 C 
ATOM      8  C   UNL A   1      34.868  34.528  34.026  1.00  0.00     0.170 C 
ATOM      9  C   UNL A   1      33.912  33.540  33.373  1.00  0.00     0.288 C 
ATOM     10  C   UNL A   1      34.774  35.736  33.096  1.00  0.00     0.109 C 
ATOM     11  N   UNL A   1      32.796  34.348  32.841  1.00  0.00    -0.334 N 
ATOM     12  H   UNL A   1      32.071  34.459  33.551  1.00  0.00     0.347 HD
ATOM     13  H   UNL A   1      32.365  33.900  32.033  1.00  0.00     0.347 HD
BRANCH   8  14
ATOM     14  N   UNL A   1      36.198  33.993  34.186  1.00  0.00    -0.243 N 
ATOM     15  C   UNL A   1      38.337  33.697  34.089  1.00  0.00     0.102 A 
ATOM     16  C   UNL A   1      37.365  34.674  34.105  1.00  0.00     0.137 A 
ATOM     17  N   UNL A   1      37.740  32.473  34.217  1.00  0.00    -0.134 NA
ATOM     18  N   UNL A   1      36.421  32.669  34.288  1.00  0.00    -0.067 NA
BRANCH  15  19
ATOM     19  C   UNL A   1      39.734  33.988  33.715  1.00  0.00     0.178 C 
BRANCH  19  20
ATOM     20  N   UNL A   1      40.009  34.526  32.426  1.00  0.00    -0.332 N 
ATOM     21  N   UNL A   1      41.219  32.817  31.217  1.00  0.00    -0.308 N 
ATOM     22  C   UNL A   1      40.505  33.961  31.315  1.00  0.00     0.319 C 
ATOM     23  H   UNL A   1      41.458  32.641  30.279  1.00  0.00     0.171 HD
ATOM     24  O   UNL A   1      40.382  34.624  30.275  1.00  0.00    -0.248 OA
ATOM     25  H   UNL A   1      39.797  35.483  32.333  1.00  0.00     0.165 HD
BRANCH  21  26
ATOM     26  C   UNL A   1      41.725  31.798  32.058  1.00  0.00     0.047 A 
ATOM     27  C   UNL A   1      39.492  30.538  31.956  1.00  0.00     0.048 C 
ATOM     28  C   UNL A   1      40.956  30.635  32.302  1.00  0.00    -0.009 A 
ATOM     29  C   UNL A   1      41.569  29.541  32.964  1.00  0.00     0.046 A 
ATOM     30  Cl  UNL A   1      40.726  28.056  33.264  1.00  0.00    -0.084 Cl
ATOM     31  C   UNL A   1      42.893  29.602  33.395  1.00  0.00     0.021 A 
ATOM     32  C   UNL A   1      42.953  31.902  32.707  1.00  0.00     0.026 A 
ATOM     33  C   UNL A   1      43.579  30.797  33.286  1.00  0.00     0.004 A 
ENDBRANCH  21  26
ENDBRANCH  19  20
ENDBRANCH  15  19
ENDBRANCH   8  14
ENDBRANCH   4   7
ENDBRANCH   2   3
ENDBRANCH   1   2
BRANCH   1  34
ATOM     34  C   UNL A   1      37.209  33.455  29.818  1.00  0.00     0.023 C 
BRANCH  34  35
ATOM     35  C   UNL A   1      37.656  32.068  29.368  1.00  0.00     0.116 C 
BRANCH  35  36
ATOM     36  N   UNL A   1      36.569  31.086  29.323  1.00  0.00    -0.352 N 
ATOM     37  C   UNL A   1      36.555  29.856  28.676  1.00  0.00     0.251 C 
ATOM     38  H   UNL A   1      35.748  31.328  29.810  1.00  0.00     0.163 HD
ATOM     39  O   UNL A   1      35.505  29.327  28.360  1.00  0.00    -0.269 OA
BRANCH  37  40
ATOM     40  C   UNL A   1      37.849  29.197  28.411  1.00  0.00     0.039 A 
ATOM     41  C   UNL A   1      38.673  29.546  27.336  1.00  0.00     0.014 A 
ATOM     42  C   UNL A   1      38.242  28.221  29.318  1.00  0.00     0.014 A 
ATOM     43  C   UNL A   1      39.937  28.957  27.244  1.00  0.00     0.010 A 
ATOM     44  C   UNL A   1      39.539  27.794  29.337  1.00  0.00     0.010 A 
ATOM     45  C   UNL A   1      40.365  28.093  28.262  1.00  0.00    -0.014 A 
BRANCH  45  46
ATOM     46  C   UNL A   1      41.720  27.561  28.326  1.00  0.00     0.031 A 
ATOM     47  C   UNL A   1      41.949  26.360  27.488  1.00  0.00     0.074 A 
ATOM     48  C   UNL A   1      42.742  28.273  28.851  1.00  0.00     0.049 A 
ATOM     49  N   UNL A   1      42.137  25.155  27.904  1.00  0.00    -0.248 NA
ATOM     50  C   UNL A   1      41.777  26.460  26.029  1.00  0.00     0.031 C 
ATOM     51  C   UNL A   1      42.696  29.606  29.450  1.00  0.00     0.029 A 
ATOM     52  N   UNL A   1      44.073  28.014  28.840  1.00  0.00    -0.354 N 
ATOM     53  C   UNL A   1      42.394  24.399  26.768  1.00  0.00     0.074 A 
ATOM     54  C   UNL A   1      41.902  25.181  25.666  1.00  0.00     0.031 C 
ATOM     55  C   UNL A   1      43.937  30.139  29.482  1.00  0.00     0.029 A 
ATOM     56  C   UNL A   1      44.885  29.124  29.064  1.00  0.00     0.049 A 
ATOM     57  H   UNL A   1      44.438  27.112  28.685  1.00  0.00     0.167 HD
ATOM     58  C   UNL A   1      43.242  23.332  26.818  1.00  0.00     0.034 A 
ATOM     59  C   UNL A   1      46.233  29.210  28.890  1.00  0.00     0.034 A 
ATOM     60  C   UNL A   1      43.550  22.991  28.194  1.00  0.00     0.049 A 
ATOM     61  C   UNL A   1      46.740  27.812  28.971  1.00  0.00     0.074 A 
ATOM     62  C   UNL A   1      42.784  22.687  29.306  1.00  0.00     0.029 A 
ATOM     63  N   UNL A   1      44.786  23.355  28.693  1.00  0.00    -0.354 N 
ATOM     64  N   UNL A   1      46.649  27.090  30.059  1.00  0.00    -0.248 NA
ATOM     65  C   UNL A   1      46.826  27.047  27.733  1.00  0.00     0.031 C 
ATOM     66  C   UNL A   1      43.402  23.403  30.374  1.00  0.00     0.029 A 
ATOM     67  C   UNL A   1      44.573  23.992  29.891  1.00  0.00     0.049 A 
ATOM     68  H   UNL A   1      45.659  23.189  28.267  1.00  0.00     0.167 HD
ATOM     69  C   UNL A   1      46.211  25.844  29.629  1.00  0.00     0.074 A 
ATOM     70  C   UNL A   1      46.427  25.851  28.180  1.00  0.00     0.031 C 
ATOM     71  C   UNL A   1      45.427  25.045  30.418  1.00  0.00     0.034 A 
BRANCH  58  72
ATOM     72  C   UNL A   1      44.102  22.833  25.676  1.00  0.00     0.023 A 
ATOM     73  C   UNL A   1      44.059  21.450  25.415  1.00  0.00     0.031 A 
ATOM     74  C   UNL A   1      45.143  23.543  25.038  1.00  0.00     0.131 A 
ATOM     75  C   UNL A   1      45.075  20.819  24.680  1.00  0.00     0.055 A 
ATOM     76  C   UNL A   1      46.110  22.920  24.243  1.00  0.00     0.041 A 
ATOM     77  F   UNL A   1      45.346  24.852  25.211  1.00  0.00    -0.206 F 
ATOM     78  C   UNL A   1      46.104  21.544  24.092  1.00  0.00     0.022 A 
BRANCH  75  79
ATOM     79  S   UNL A   1      45.128  19.009  24.687  1.00  0.00     0.124 S 
ATOM     80  O   UNL A   1      46.473  18.761  25.195  1.00  0.00    -0.237 OA
ATOM     81  O   UNL A   1      44.027  18.681  25.585  1.00  0.00    -0.237 OA
ATOM     82  O   UNL A   1      44.915  18.661  23.284  1.00  0.00    -0.744 OA
ENDBRANCH  75  79
ENDBRANCH  58  72
BRANCH  59  83
ATOM     83  C   UNL A   1      46.995  30.369  28.319  1.00  0.00     0.023 A 
ATOM     84  C   UNL A   1      46.410  31.344  27.475  1.00  0.00     0.031 A 
ATOM     85  C   UNL A   1      48.298  30.663  28.791  1.00  0.00     0.131 A 
ATOM     86  C   UNL A   1      47.115  32.533  27.150  1.00  0.00     0.055 A 
ATOM     87  C   UNL A   1      48.987  31.835  28.468  1.00  0.00     0.041 A 
ATOM     88  F   UNL A   1      48.930  29.853  29.656  1.00  0.00    -0.206 F 
ATOM     89  C   UNL A   1      48.393  32.783  27.653  1.00  0.00     0.022 A 
BRANCH  86  90
ATOM     90  S   UNL A   1      46.345  33.839  26.132  1.00  0.00     0.124 S 
ATOM     91  O   UNL A   1      47.478  34.341  25.366  1.00  0.00    -0.237 OA
ATOM     92  O   UNL A   1      45.332  33.099  25.386  1.00  0.00    -0.237 OA
ATOM     93  O   UNL A   1      45.810  34.773  27.123  1.00  0.00    -0.744 OA
ENDBRANCH  86  90
ENDBRANCH  59  83
BRANCH  71  94
ATOM     94  C   UNL A   1      45.250  25.383  31.890  1.00  0.00     0.023 A 
ATOM     95  C   UNL A   1      46.150  25.033  32.923  1.00  0.00     0.031 A 
ATOM     96  C   UNL A   1      44.182  26.235  32.225  1.00  0.00     0.131 A 
ATOM     97  C   UNL A   1      45.953  25.530  34.230  1.00  0.00     0.055 A 
ATOM     98  C   UNL A   1      44.006  26.746  33.510  1.00  0.00     0.041 A 
ATOM     99  F   UNL A   1      43.303  26.627  31.287  1.00  0.00    -0.206 F 
ATOM    100  C   UNL A   1      44.889  26.389  34.521  1.00  0.00     0.022 A 
BRANCH  97 101
ATOM    101  S   UNL A   1      47.063  25.046  35.593  1.00  0.00     0.124 S 
ATOM    102  O   UNL A   1      47.283  23.622  35.367  1.00  0.00    -0.237 OA
ATOM    103  O   UNL A   1      48.221  25.910  35.381  1.00  0.00    -0.237 OA
ATOM    104  O   UNL A   1      46.283  25.359  36.792  1.00  0.00    -0.744 OA
ENDBRANCH  97 101
ENDBRANCH  71  94
ENDBRANCH  45  46
ENDBRANCH  37  40
ENDBRANCH  35  36
ENDBRANCH  34  35
ENDBRANCH   1  34
TORSDOF 18
ENDMDL
