MODEL 1
REMARK VINA RESULT:     -13.7      0.000      0.000
REMARK SMILES Cc1cccc2c1[C@H]1c3c(C)cccc3[C@H](CC(=O)NCCCCNC(=O)c3ccc(-c4c5nc(c(-c6cc(S(=O)(=O)[O-])ccc6F)c6ccc([nH]6)c(-c6cc(S(=O)(=O)[O-])ccc6F)c6nc(c(-c7cc(S(=O)(=O)[O-])ccc7F)c7ccc4[nH]7)C=C6)C=C5)cc3)C[C@H]1CC2
REMARK SMILES IDX 23 1 22 2 21 3 20 4 18 5 19 6 17 8 16 9 1 10 2 11 3 12 7 13
REMARK SMILES IDX 4 14 6 15 8 16 5 17 94 18 9 19 92 20 93 21 10 22 15 23 91 24
REMARK SMILES IDX 12 25 11 26 14 27 13 28 24 29 25 30 26 31 27 33 28 34 29 35
REMARK SMILES IDX 90 36 30 37 89 38 31 39 32 40 33 41 83 42 34 43 88 44 82 45
REMARK SMILES IDX 84 46 35 47 87 48 81 49 80 50 36 52 68 53 48 54 67 55 49 56
REMARK SMILES IDX 52 57 66 58 85 59 50 60 51 61 65 63 86 64 53 65 37 66 38 67
REMARK SMILES IDX 46 68 39 69 45 70 47 71 44 72 40 73 41 74 42 75 43 76 69 77
REMARK SMILES IDX 70 78 78 79 71 80 77 81 79 82 76 83 72 84 73 85 74 86 75 87
REMARK SMILES IDX 54 88 55 89 63 90 56 91 62 92 64 93 61 94 57 95 58 96 59 97
REMARK SMILES IDX 60 98
REMARK H PARENT 20 7 25 32 84 51 52 62
REMARK Flexibility Score: inf
ROOT
ATOM      1  C   UNL A   1      31.563  32.384  26.784  1.00  0.00     0.023 C 
ENDROOT
BRANCH   1   2
ATOM      2  C   UNL A   1      31.623  30.869  26.553  1.00  0.00     0.023 C 
BRANCH   2   3
ATOM      3  C   UNL A   1      32.978  30.246  26.896  1.00  0.00     0.116 C 
BRANCH   3   4
ATOM      4  N   UNL A   1      33.645  29.797  25.692  1.00  0.00    -0.356 N 
ATOM      5  C   UNL A   1      33.208  28.964  24.711  1.00  0.00     0.220 C 
ATOM      6  O   UNL A   1      34.011  28.583  23.860  1.00  0.00    -0.275 OA
ATOM      7  H   UNL A   1      34.555  30.149  25.564  1.00  0.00     0.163 HD
BRANCH   5   8
ATOM      8  C   UNL A   1      31.747  28.592  24.619  1.00  0.00     0.108 C 
BRANCH   8   9
ATOM      9  C   UNL A   1      31.377  27.110  24.833  1.00  0.00     0.029 C 
ATOM     10  C   UNL A   1      35.870  23.462  25.678  1.00  0.00     0.044 C 
ATOM     11  C   UNL A   1      34.619  22.622  25.600  1.00  0.00    -0.047 A 
ATOM     12  C   UNL A   1      34.778  21.228  25.694  1.00  0.00     0.004 A 
ATOM     13  C   UNL A   1      33.313  23.172  25.517  1.00  0.00    -0.034 A 
ATOM     14  C   UNL A   1      33.676  20.381  25.732  1.00  0.00     0.001 A 
ATOM     15  C   UNL A   1      32.205  22.311  25.700  1.00  0.00    -0.044 A 
ATOM     16  C   UNL A   1      33.066  24.660  25.261  1.00  0.00     0.053 C 
ATOM     17  C   UNL A   1      32.398  20.922  25.766  1.00  0.00     0.004 A 
ATOM     18  C   UNL A   1      30.814  22.831  25.988  1.00  0.00     0.036 C 
ATOM     19  C   UNL A   1      32.715  25.111  23.816  1.00  0.00    -0.034 A 
ATOM     20  C   UNL A   1      31.963  25.090  26.257  1.00  0.00     0.002 C 
ATOM     21  C   UNL A   1      30.646  24.349  25.967  1.00  0.00     0.009 C 
ATOM     22  C   UNL A   1      33.197  24.490  22.627  1.00  0.00    -0.047 A 
ATOM     23  C   UNL A   1      31.888  26.266  23.657  1.00  0.00    -0.040 A 
ATOM     24  C   UNL A   1      31.842  26.610  26.203  1.00  0.00     0.013 C 
ATOM     25  C   UNL A   1      32.774  24.954  21.362  1.00  0.00     0.004 A 
ATOM     26  C   UNL A   1      34.157  23.334  22.581  1.00  0.00     0.044 C 
ATOM     27  C   UNL A   1      31.456  26.660  22.372  1.00  0.00     0.004 A 
ATOM     28  C   UNL A   1      31.897  26.015  21.232  1.00  0.00     0.001 A 
ENDBRANCH   8   9
ENDBRANCH   5   8
ENDBRANCH   3   4
ENDBRANCH   2   3
ENDBRANCH   1   2
BRANCH   1  29
ATOM     29  C   UNL A   1      32.766  32.954  27.527  1.00  0.00     0.116 C 
BRANCH  29  30
ATOM     30  N   UNL A   1      32.554  34.340  27.911  1.00  0.00    -0.352 N 
ATOM     31  C   UNL A   1      33.163  35.035  28.925  1.00  0.00     0.251 C 
ATOM     32  H   UNL A   1      31.894  34.841  27.379  1.00  0.00     0.163 HD
ATOM     33  O   UNL A   1      32.754  36.143  29.258  1.00  0.00    -0.269 OA
BRANCH  31  34
ATOM     34  C   UNL A   1      34.313  34.420  29.612  1.00  0.00     0.039 A 
ATOM     35  C   UNL A   1      34.093  33.659  30.763  1.00  0.00     0.014 A 
ATOM     36  C   UNL A   1      35.602  34.589  29.098  1.00  0.00     0.014 A 
ATOM     37  C   UNL A   1      35.173  33.038  31.388  1.00  0.00     0.010 A 
ATOM     38  C   UNL A   1      36.671  33.933  29.698  1.00  0.00     0.010 A 
ATOM     39  C   UNL A   1      36.465  33.168  30.856  1.00  0.00    -0.014 A 
BRANCH  39  40
ATOM     40  C   UNL A   1      37.638  32.569  31.533  1.00  0.00     0.031 A 
ATOM     41  C   UNL A   1      38.340  31.411  30.886  1.00  0.00     0.074 A 
ATOM     42  C   UNL A   1      38.024  33.019  32.740  1.00  0.00     0.049 A 
ATOM     43  N   UNL A   1      39.331  30.692  31.339  1.00  0.00    -0.248 NA
ATOM     44  C   UNL A   1      37.848  30.992  29.562  1.00  0.00     0.031 C 
ATOM     45  C   UNL A   1      37.396  34.121  33.468  1.00  0.00     0.029 A 
ATOM     46  N   UNL A   1      39.026  32.592  33.576  1.00  0.00    -0.354 N 
ATOM     47  C   UNL A   1      39.577  29.734  30.364  1.00  0.00     0.074 A 
ATOM     48  C   UNL A   1      38.602  29.931  29.316  1.00  0.00     0.031 C 
ATOM     49  C   UNL A   1      38.028  34.285  34.642  1.00  0.00     0.029 A 
ATOM     50  C   UNL A   1      39.084  33.281  34.765  1.00  0.00     0.049 A 
ATOM     51  H   UNL A   1      39.644  31.861  33.346  1.00  0.00     0.167 HD
ATOM     52  C   UNL A   1      40.546  28.791  30.337  1.00  0.00     0.034 A 
ATOM     53  C   UNL A   1      39.890  33.115  35.833  1.00  0.00     0.034 A 
ATOM     54  C   UNL A   1      41.525  28.622  31.375  1.00  0.00     0.049 A 
ATOM     55  C   UNL A   1      40.951  32.043  35.789  1.00  0.00     0.074 A 
ATOM     56  C   UNL A   1      42.587  27.737  31.410  1.00  0.00     0.029 A 
ATOM     57  N   UNL A   1      41.565  29.349  32.555  1.00  0.00    -0.354 N 
ATOM     58  N   UNL A   1      41.229  31.201  34.821  1.00  0.00    -0.248 NA
ATOM     59  C   UNL A   1      41.807  31.894  36.974  1.00  0.00     0.031 C 
ATOM     60  C   UNL A   1      43.244  27.899  32.630  1.00  0.00     0.029 A 
ATOM     61  C   UNL A   1      42.621  28.917  33.337  1.00  0.00     0.049 A 
ATOM     62  H   UNL A   1      40.936  30.066  32.800  1.00  0.00     0.167 HD
ATOM     63  C   UNL A   1      42.306  30.443  35.269  1.00  0.00     0.074 A 
ATOM     64  C   UNL A   1      42.639  30.932  36.591  1.00  0.00     0.031 C 
ATOM     65  C   UNL A   1      42.956  29.430  34.643  1.00  0.00     0.034 A 
BRANCH  52  66
ATOM     66  C   UNL A   1      40.626  27.886  29.140  1.00  0.00     0.023 A 
ATOM     67  C   UNL A   1      41.530  28.168  28.100  1.00  0.00     0.031 A 
ATOM     68  C   UNL A   1      39.737  26.808  28.982  1.00  0.00     0.131 A 
ATOM     69  C   UNL A   1      41.507  27.393  26.934  1.00  0.00     0.055 A 
ATOM     70  C   UNL A   1      39.740  26.020  27.832  1.00  0.00     0.041 A 
ATOM     71  F   UNL A   1      38.862  26.501  29.953  1.00  0.00    -0.206 F 
ATOM     72  C   UNL A   1      40.622  26.317  26.798  1.00  0.00     0.022 A 
BRANCH  69  73
ATOM     73  S   UNL A   1      42.605  27.765  25.541  1.00  0.00     0.124 S 
ATOM     74  O   UNL A   1      42.482  26.557  24.727  1.00  0.00    -0.237 OA
ATOM     75  O   UNL A   1      41.988  28.962  24.979  1.00  0.00    -0.237 OA
ATOM     76  O   UNL A   1      43.909  27.959  26.166  1.00  0.00    -0.744 OA
ENDBRANCH  69  73
ENDBRANCH  52  66
BRANCH  53  77
ATOM     77  C   UNL A   1      39.747  34.027  37.002  1.00  0.00     0.023 A 
ATOM     78  C   UNL A   1      39.166  33.585  38.204  1.00  0.00     0.031 A 
ATOM     79  C   UNL A   1      40.108  35.381  36.897  1.00  0.00     0.131 A 
ATOM     80  C   UNL A   1      38.917  34.502  39.234  1.00  0.00     0.055 A 
ATOM     81  C   UNL A   1      39.909  36.278  37.947  1.00  0.00     0.041 A 
ATOM     82  F   UNL A   1      40.656  35.848  35.765  1.00  0.00    -0.206 F 
ATOM     83  C   UNL A   1      39.299  35.842  39.119  1.00  0.00     0.022 A 
BRANCH  80  84
ATOM     84  S   UNL A   1      38.007  34.005  40.722  1.00  0.00     0.124 S 
ATOM     85  O   UNL A   1      37.664  35.293  41.318  1.00  0.00    -0.237 OA
ATOM     86  O   UNL A   1      36.890  33.258  40.149  1.00  0.00    -0.237 OA
ATOM     87  O   UNL A   1      38.974  33.205  41.467  1.00  0.00    -0.744 OA
ENDBRANCH  80  84
ENDBRANCH  53  77
BRANCH  65  88
ATOM     88  C   UNL A   1      44.108  28.761  35.348  1.00  0.00     0.023 A 
ATOM     89  C   UNL A   1      43.862  27.683  36.220  1.00  0.00     0.031 A 
ATOM     90  C   UNL A   1      45.400  29.307  35.302  1.00  0.00     0.131 A 
ATOM     91  C   UNL A   1      44.887  27.222  37.055  1.00  0.00     0.055 A 
ATOM     92  C   UNL A   1      46.429  28.815  36.106  1.00  0.00     0.041 A 
ATOM     93  F   UNL A   1      45.674  30.341  34.491  1.00  0.00    -0.206 F 
ATOM     94  C   UNL A   1      46.170  27.776  36.998  1.00  0.00     0.022 A 
BRANCH  91  95
ATOM     95  S   UNL A   1      44.571  25.937  38.296  1.00  0.00     0.124 S 
ATOM     96  O   UNL A   1      45.924  25.550  38.687  1.00  0.00    -0.237 OA
ATOM     97  O   UNL A   1      43.815  26.668  39.307  1.00  0.00    -0.237 OA
ATOM     98  O   UNL A   1      43.824  24.918  37.565  1.00  0.00    -0.744 OA
ENDBRANCH  91  95
ENDBRANCH  65  88
ENDBRANCH  39  40
ENDBRANCH  31  34
ENDBRANCH  29  30
ENDBRANCH   1  29
TORSDOF 15
ENDMDL
MODEL 2
REMARK VINA RESULT:     -13.7      5.856     11.706
REMARK SMILES Cc1cccc2c1[C@H]1c3c(C)cccc3[C@H](CC(=O)NCCCCNC(=O)c3ccc(-c4c5nc(c(-c6cc(S(=O)(=O)[O-])ccc6F)c6ccc([nH]6)c(-c6cc(S(=O)(=O)[O-])ccc6F)c6nc(c(-c7cc(S(=O)(=O)[O-])ccc7F)c7ccc4[nH]7)C=C6)C=C5)cc3)C[C@H]1CC2
REMARK SMILES IDX 23 1 22 2 21 3 20 4 18 5 19 6 17 8 16 9 1 10 2 11 3 12 7 13
REMARK SMILES IDX 4 14 6 15 8 16 5 17 94 18 9 19 92 20 93 21 10 22 15 23 91 24
REMARK SMILES IDX 12 25 11 26 14 27 13 28 24 29 25 30 26 31 27 33 28 34 29 35
REMARK SMILES IDX 90 36 30 37 89 38 31 39 32 40 33 41 83 42 34 43 88 44 82 45
REMARK SMILES IDX 84 46 35 47 87 48 81 49 80 50 36 52 68 53 48 54 67 55 49 56
REMARK SMILES IDX 52 57 66 58 85 59 50 60 51 61 65 63 86 64 53 65 37 66 38 67
REMARK SMILES IDX 46 68 39 69 45 70 47 71 44 72 40 73 41 74 42 75 43 76 69 77
REMARK SMILES IDX 70 78 78 79 71 80 77 81 79 82 76 83 72 84 73 85 74 86 75 87
REMARK SMILES IDX 54 88 55 89 63 90 56 91 62 92 64 93 61 94 57 95 58 96 59 97
REMARK SMILES IDX 60 98
REMARK H PARENT 20 7 25 32 84 51 52 62
REMARK Flexibility Score: inf
ROOT
ATOM      1  C   UNL A   1      38.357  19.607  25.216  1.00  0.00     0.023 C 
ENDROOT
BRANCH   1   2
ATOM      2  C   UNL A   1      37.484  20.692  24.576  1.00  0.00     0.023 C 
BRANCH   2   3
ATOM      3  C   UNL A   1      37.498  22.022  25.332  1.00  0.00     0.116 C 
BRANCH   3   4
ATOM      4  N   UNL A   1      36.494  22.019  26.375  1.00  0.00    -0.356 N 
ATOM      5  C   UNL A   1      35.146  21.871  26.289  1.00  0.00     0.220 C 
ATOM      6  O   UNL A   1      34.465  22.074  27.293  1.00  0.00    -0.275 OA
ATOM      7  H   UNL A   1      36.841  22.143  27.288  1.00  0.00     0.163 HD
BRANCH   5   8
ATOM      8  C   UNL A   1      34.511  21.380  25.009  1.00  0.00     0.108 C 
BRANCH   8   9
ATOM      9  C   UNL A   1      33.772  22.417  24.140  1.00  0.00     0.029 C 
ATOM     10  C   UNL A   1      33.996  27.948  26.031  1.00  0.00     0.044 C 
ATOM     11  C   UNL A   1      33.075  27.919  24.838  1.00  0.00    -0.047 A 
ATOM     12  C   UNL A   1      32.463  29.132  24.474  1.00  0.00     0.004 A 
ATOM     13  C   UNL A   1      32.866  26.765  24.040  1.00  0.00    -0.034 A 
ATOM     14  C   UNL A   1      31.679  29.225  23.330  1.00  0.00     0.001 A 
ATOM     15  C   UNL A   1      32.184  26.909  22.808  1.00  0.00    -0.044 A 
ATOM     16  C   UNL A   1      33.371  25.381  24.453  1.00  0.00     0.053 C 
ATOM     17  C   UNL A   1      31.565  28.127  22.487  1.00  0.00     0.004 A 
ATOM     18  C   UNL A   1      32.221  25.847  21.732  1.00  0.00     0.036 C 
ATOM     19  C   UNL A   1      32.365  24.394  25.108  1.00  0.00    -0.034 A 
ATOM     20  C   UNL A   1      34.009  24.760  23.188  1.00  0.00     0.002 C 
ATOM     21  C   UNL A   1      32.952  24.554  22.089  1.00  0.00     0.009 C 
ATOM     22  C   UNL A   1      31.269  24.776  25.935  1.00  0.00    -0.047 A 
ATOM     23  C   UNL A   1      32.578  22.994  24.913  1.00  0.00    -0.040 A 
ATOM     24  C   UNL A   1      34.731  23.481  23.599  1.00  0.00     0.013 C 
ATOM     25  C   UNL A   1      30.387  23.796  26.441  1.00  0.00     0.004 A 
ATOM     26  C   UNL A   1      30.941  26.184  26.345  1.00  0.00     0.044 C 
ATOM     27  C   UNL A   1      31.638  22.058  25.400  1.00  0.00     0.004 A 
ATOM     28  C   UNL A   1      30.555  22.452  26.162  1.00  0.00     0.001 A 
ENDBRANCH   8   9
ENDBRANCH   5   8
ENDBRANCH   3   4
ENDBRANCH   2   3
ENDBRANCH   1   2
BRANCH   1  29
ATOM     29  C   UNL A   1      39.610  20.135  25.904  1.00  0.00     0.116 C 
BRANCH  29  30
ATOM     30  N   UNL A   1      40.665  19.135  25.944  1.00  0.00    -0.352 N 
ATOM     31  C   UNL A   1      42.017  19.341  26.045  1.00  0.00     0.251 C 
ATOM     32  H   UNL A   1      40.373  18.196  25.892  1.00  0.00     0.163 HD
ATOM     33  O   UNL A   1      42.805  18.416  25.877  1.00  0.00    -0.269 OA
BRANCH  31  34
ATOM     34  C   UNL A   1      42.504  20.698  26.349  1.00  0.00     0.039 A 
ATOM     35  C   UNL A   1      42.590  21.111  27.681  1.00  0.00     0.014 A 
ATOM     36  C   UNL A   1      42.891  21.548  25.308  1.00  0.00     0.014 A 
ATOM     37  C   UNL A   1      43.094  22.377  27.974  1.00  0.00     0.010 A 
ATOM     38  C   UNL A   1      43.433  22.793  25.604  1.00  0.00     0.010 A 
ATOM     39  C   UNL A   1      43.522  23.222  26.938  1.00  0.00    -0.014 A 
BRANCH  39  40
ATOM     40  C   UNL A   1      44.005  24.593  27.216  1.00  0.00     0.031 A 
ATOM     41  C   UNL A   1      43.028  25.629  27.687  1.00  0.00     0.074 A 
ATOM     42  C   UNL A   1      45.290  24.916  26.984  1.00  0.00     0.049 A 
ATOM     43  N   UNL A   1      43.220  26.900  27.913  1.00  0.00    -0.248 NA
ATOM     44  C   UNL A   1      41.644  25.180  27.917  1.00  0.00     0.031 C 
ATOM     45  C   UNL A   1      46.317  23.993  26.501  1.00  0.00     0.029 A 
ATOM     46  N   UNL A   1      45.948  26.114  27.106  1.00  0.00    -0.354 N 
ATOM     47  C   UNL A   1      41.986  27.405  28.302  1.00  0.00     0.074 A 
ATOM     48  C   UNL A   1      41.040  26.314  28.237  1.00  0.00     0.031 C 
ATOM     49  C   UNL A   1      47.475  24.659  26.369  1.00  0.00     0.029 A 
ATOM     50  C   UNL A   1      47.268  26.061  26.726  1.00  0.00     0.049 A 
ATOM     51  H   UNL A   1      45.515  26.936  27.434  1.00  0.00     0.167 HD
ATOM     52  C   UNL A   1      41.678  28.660  28.702  1.00  0.00     0.034 A 
ATOM     53  C   UNL A   1      48.201  27.034  26.665  1.00  0.00     0.034 A 
ATOM     54  C   UNL A   1      42.635  29.729  28.785  1.00  0.00     0.049 A 
ATOM     55  C   UNL A   1      47.829  28.431  27.095  1.00  0.00     0.074 A 
ATOM     56  C   UNL A   1      42.434  31.019  29.239  1.00  0.00     0.029 A 
ATOM     57  N   UNL A   1      43.967  29.634  28.411  1.00  0.00    -0.354 N 
ATOM     58  N   UNL A   1      46.679  28.874  27.547  1.00  0.00    -0.248 NA
ATOM     59  C   UNL A   1      48.874  29.461  27.013  1.00  0.00     0.031 C 
ATOM     60  C   UNL A   1      43.634  31.718  29.099  1.00  0.00     0.029 A 
ATOM     61  C   UNL A   1      44.596  30.851  28.601  1.00  0.00     0.049 A 
ATOM     62  H   UNL A   1      44.400  28.821  28.061  1.00  0.00     0.167 HD
ATOM     63  C   UNL A   1      46.868  30.224  27.825  1.00  0.00     0.074 A 
ATOM     64  C   UNL A   1      48.248  30.525  27.503  1.00  0.00     0.031 C 
ATOM     65  C   UNL A   1      45.979  31.131  28.299  1.00  0.00     0.034 A 
BRANCH  52  66
ATOM     66  C   UNL A   1      40.261  28.950  29.111  1.00  0.00     0.023 A 
ATOM     67  C   UNL A   1      39.885  28.864  30.464  1.00  0.00     0.031 A 
ATOM     68  C   UNL A   1      39.265  29.206  28.153  1.00  0.00     0.131 A 
ATOM     69  C   UNL A   1      38.539  29.010  30.818  1.00  0.00     0.055 A 
ATOM     70  C   UNL A   1      37.931  29.382  28.515  1.00  0.00     0.041 A 
ATOM     71  F   UNL A   1      39.582  29.301  26.852  1.00  0.00    -0.206 F 
ATOM     72  C   UNL A   1      37.562  29.276  29.852  1.00  0.00     0.022 A 
BRANCH  69  73
ATOM     73  S   UNL A   1      38.001  28.837  32.540  1.00  0.00     0.124 S 
ATOM     74  O   UNL A   1      38.969  29.674  33.246  1.00  0.00    -0.237 OA
ATOM     75  O   UNL A   1      36.641  29.364  32.487  1.00  0.00    -0.237 OA
ATOM     76  O   UNL A   1      38.116  27.406  32.801  1.00  0.00    -0.744 OA
ENDBRANCH  69  73
ENDBRANCH  52  66
BRANCH  53  77
ATOM     77  C   UNL A   1      49.583  26.691  26.227  1.00  0.00     0.023 A 
ATOM     78  C   UNL A   1      50.074  27.106  24.976  1.00  0.00     0.031 A 
ATOM     79  C   UNL A   1      50.397  25.865  27.020  1.00  0.00     0.131 A 
ATOM     80  C   UNL A   1      51.322  26.649  24.534  1.00  0.00     0.055 A 
ATOM     81  C   UNL A   1      51.664  25.459  26.598  1.00  0.00     0.041 A 
ATOM     82  F   UNL A   1      49.964  25.438  28.215  1.00  0.00    -0.206 F 
ATOM     83  C   UNL A   1      52.128  25.842  25.344  1.00  0.00     0.022 A 
BRANCH  80  84
ATOM     84  S   UNL A   1      51.906  27.015  22.856  1.00  0.00     0.124 S 
ATOM     85  O   UNL A   1      52.913  25.979  22.647  1.00  0.00    -0.237 OA
ATOM     86  O   UNL A   1      50.678  26.867  22.078  1.00  0.00    -0.237 OA
ATOM     87  O   UNL A   1      52.418  28.378  22.958  1.00  0.00    -0.744 OA
ENDBRANCH  80  84
ENDBRANCH  53  77
BRANCH  65  88
ATOM     88  C   UNL A   1      46.435  32.550  28.519  1.00  0.00     0.023 A 
ATOM     89  C   UNL A   1      46.587  33.414  27.419  1.00  0.00     0.031 A 
ATOM     90  C   UNL A   1      46.895  32.974  29.776  1.00  0.00     0.131 A 
ATOM     91  C   UNL A   1      47.237  34.643  27.589  1.00  0.00     0.055 A 
ATOM     92  C   UNL A   1      47.504  34.218  29.947  1.00  0.00     0.041 A 
ATOM     93  F   UNL A   1      46.778  32.177  30.850  1.00  0.00    -0.206 F 
ATOM     94  C   UNL A   1      47.690  35.052  28.847  1.00  0.00     0.022 A 
BRANCH  91  95
ATOM     95  S   UNL A   1      47.584  35.718  26.169  1.00  0.00     0.124 S 
ATOM     96  O   UNL A   1      47.763  34.751  25.089  1.00  0.00    -0.237 OA
ATOM     97  O   UNL A   1      46.368  36.522  26.091  1.00  0.00    -0.237 OA
ATOM     98  O   UNL A   1      48.791  36.439  26.561  1.00  0.00    -0.744 OA
ENDBRANCH  91  95
ENDBRANCH  65  88
ENDBRANCH  39  40
ENDBRANCH  31  34
ENDBRANCH  29  30
ENDBRANCH   1  29
TORSDOF 15
ENDMDL
MODEL 3
REMARK VINA RESULT:     -13.6      0.413      7.561
REMARK SMILES Cc1cccc2c1[C@H]1c3c(C)cccc3[C@H](CC(=O)NCCCCNC(=O)c3ccc(-c4c5nc(c(-c6cc(S(=O)(=O)[O-])ccc6F)c6ccc([nH]6)c(-c6cc(S(=O)(=O)[O-])ccc6F)c6nc(c(-c7cc(S(=O)(=O)[O-])ccc7F)c7ccc4[nH]7)C=C6)C=C5)cc3)C[C@H]1CC2
REMARK SMILES IDX 23 1 22 2 21 3 20 4 18 5 19 6 17 8 16 9 1 10 2 11 3 12 7 13
REMARK SMILES IDX 4 14 6 15 8 16 5 17 94 18 9 19 92 20 93 21 10 22 15 23 91 24
REMARK SMILES IDX 12 25 11 26 14 27 13 28 24 29 25 30 26 31 27 33 28 34 29 35
REMARK SMILES IDX 90 36 30 37 89 38 31 39 32 40 33 41 83 42 34 43 88 44 82 45
REMARK SMILES IDX 84 46 35 47 87 48 81 49 80 50 36 52 68 53 48 54 67 55 49 56
REMARK SMILES IDX 52 57 66 58 85 59 50 60 51 61 65 63 86 64 53 65 37 66 38 67
REMARK SMILES IDX 46 68 39 69 45 70 47 71 44 72 40 73 41 74 42 75 43 76 69 77
REMARK SMILES IDX 70 78 78 79 71 80 77 81 79 82 76 83 72 84 73 85 74 86 75 87
REMARK SMILES IDX 54 88 55 89 63 90 56 91 62 92 64 93 61 94 57 95 58 96 59 97
REMARK SMILES IDX 60 98
REMARK H PARENT 20 7 25 32 84 51 52 62
REMARK Flexibility Score: inf
ROOT
ATOM      1  C   UNL A   1      31.597  32.699  26.663  1.00  0.00     0.023 C 
ENDROOT
BRANCH   1   2
ATOM      2  C   UNL A   1      31.406  31.187  26.495  1.00  0.00     0.023 C 
BRANCH   2   3
ATOM      3  C   UNL A   1      32.628  30.362  26.903  1.00  0.00     0.116 C 
BRANCH   3   4
ATOM      4  N   UNL A   1      33.374  29.952  25.732  1.00  0.00    -0.356 N 
ATOM      5  C   UNL A   1      33.035  29.088  24.739  1.00  0.00     0.220 C 
ATOM      6  O   UNL A   1      33.897  28.756  23.927  1.00  0.00    -0.275 OA
ATOM      7  H   UNL A   1      34.263  30.363  25.640  1.00  0.00     0.163 HD
BRANCH   5   8
ATOM      8  C   UNL A   1      31.607  28.619  24.588  1.00  0.00     0.108 C 
BRANCH   8   9
ATOM      9  C   UNL A   1      31.319  27.126  24.842  1.00  0.00     0.029 C 
ATOM     10  C   UNL A   1      35.999  23.771  25.870  1.00  0.00     0.044 C 
ATOM     11  C   UNL A   1      34.801  22.859  25.798  1.00  0.00    -0.047 A 
ATOM     12  C   UNL A   1      35.038  21.479  25.936  1.00  0.00     0.004 A 
ATOM     13  C   UNL A   1      33.467  23.328  25.676  1.00  0.00    -0.034 A 
ATOM     14  C   UNL A   1      33.987  20.571  25.983  1.00  0.00     0.001 A 
ATOM     15  C   UNL A   1      32.408  22.410  25.868  1.00  0.00    -0.044 A 
ATOM     16  C   UNL A   1      33.139  24.791  25.372  1.00  0.00     0.053 C 
ATOM     17  C   UNL A   1      32.678  21.038  25.979  1.00  0.00     0.004 A 
ATOM     18  C   UNL A   1      30.984  22.857  26.118  1.00  0.00     0.036 C 
ATOM     19  C   UNL A   1      32.788  25.178  23.908  1.00  0.00    -0.034 A 
ATOM     20  C   UNL A   1      31.996  25.186  26.336  1.00  0.00     0.002 C 
ATOM     21  C   UNL A   1      30.729  24.361  26.048  1.00  0.00     0.009 C 
ATOM     22  C   UNL A   1      33.326  24.551  22.747  1.00  0.00    -0.047 A 
ATOM     23  C   UNL A   1      31.899  26.278  23.701  1.00  0.00    -0.040 A 
ATOM     24  C   UNL A   1      31.788  26.694  26.234  1.00  0.00     0.013 C 
ATOM     25  C   UNL A   1      32.900  24.952  21.461  1.00  0.00     0.004 A 
ATOM     26  C   UNL A   1      34.352  23.452  22.751  1.00  0.00     0.044 C 
ATOM     27  C   UNL A   1      31.468  26.608  22.397  1.00  0.00     0.004 A 
ATOM     28  C   UNL A   1      31.966  25.956  21.285  1.00  0.00     0.001 A 
ENDBRANCH   8   9
ENDBRANCH   5   8
ENDBRANCH   3   4
ENDBRANCH   2   3
ENDBRANCH   1   2
BRANCH   1  29
ATOM     29  C   UNL A   1      32.806  33.089  27.505  1.00  0.00     0.116 C 
BRANCH  29  30
ATOM     30  N   UNL A   1      32.732  34.474  27.943  1.00  0.00    -0.352 N 
ATOM     31  C   UNL A   1      33.415  35.068  28.975  1.00  0.00     0.251 C 
ATOM     32  H   UNL A   1      32.119  35.056  27.439  1.00  0.00     0.163 HD
ATOM     33  O   UNL A   1      33.117  36.196  29.354  1.00  0.00    -0.269 OA
BRANCH  31  34
ATOM     34  C   UNL A   1      34.506  34.319  29.624  1.00  0.00     0.039 A 
ATOM     35  C   UNL A   1      34.215  33.493  30.712  1.00  0.00     0.014 A 
ATOM     36  C   UNL A   1      35.812  34.428  29.134  1.00  0.00     0.014 A 
ATOM     37  C   UNL A   1      35.237  32.748  31.298  1.00  0.00     0.010 A 
ATOM     38  C   UNL A   1      36.821  33.653  29.693  1.00  0.00     0.010 A 
ATOM     39  C   UNL A   1      36.543  32.821  30.789  1.00  0.00    -0.014 A 
BRANCH  39  40
ATOM     40  C   UNL A   1      37.658  32.088  31.428  1.00  0.00     0.031 A 
ATOM     41  C   UNL A   1      38.151  32.537  32.772  1.00  0.00     0.074 A 
ATOM     42  C   UNL A   1      38.261  31.074  30.780  1.00  0.00     0.049 A 
ATOM     43  N   UNL A   1      39.159  32.090  33.471  1.00  0.00    -0.248 NA
ATOM     44  C   UNL A   1      37.425  33.651  33.406  1.00  0.00     0.031 C 
ATOM     45  C   UNL A   1      37.878  30.575  29.459  1.00  0.00     0.029 A 
ATOM     46  N   UNL A   1      39.333  30.296  31.135  1.00  0.00    -0.354 N 
ATOM     47  C   UNL A   1      39.194  32.869  34.620  1.00  0.00     0.074 A 
ATOM     48  C   UNL A   1      38.138  33.849  34.505  1.00  0.00     0.031 C 
ATOM     49  C   UNL A   1      38.703  29.572  29.116  1.00  0.00     0.029 A 
ATOM     50  C   UNL A   1      39.692  29.379  30.175  1.00  0.00     0.049 A 
ATOM     51  H   UNL A   1      39.803  30.386  31.996  1.00  0.00     0.167 HD
ATOM     52  C   UNL A   1      40.020  32.759  35.686  1.00  0.00     0.034 A 
ATOM     53  C   UNL A   1      40.708  28.492  30.150  1.00  0.00     0.034 A 
ATOM     54  C   UNL A   1      41.051  31.764  35.798  1.00  0.00     0.049 A 
ATOM     55  C   UNL A   1      41.629  28.401  31.341  1.00  0.00     0.074 A 
ATOM     56  C   UNL A   1      41.897  31.531  36.866  1.00  0.00     0.029 A 
ATOM     57  N   UNL A   1      41.374  30.840  34.816  1.00  0.00    -0.354 N 
ATOM     58  N   UNL A   1      41.596  29.085  32.460  1.00  0.00    -0.248 NA
ATOM     59  C   UNL A   1      42.723  27.422  31.273  1.00  0.00     0.031 C 
ATOM     60  C   UNL A   1      42.762  30.493  36.513  1.00  0.00     0.029 A 
ATOM     61  C   UNL A   1      42.424  30.049  35.243  1.00  0.00     0.049 A 
ATOM     62  H   UNL A   1      40.923  30.760  33.944  1.00  0.00     0.167 HD
ATOM     63  C   UNL A   1      42.645  28.604  33.237  1.00  0.00     0.074 A 
ATOM     64  C   UNL A   1      43.288  27.560  32.466  1.00  0.00     0.031 C 
ATOM     65  C   UNL A   1      43.040  28.995  34.474  1.00  0.00     0.034 A 
BRANCH  52  66
ATOM     66  C   UNL A   1      39.833  33.712  36.834  1.00  0.00     0.023 A 
ATOM     67  C   UNL A   1      39.187  33.285  38.007  1.00  0.00     0.031 A 
ATOM     68  C   UNL A   1      40.199  35.064  36.724  1.00  0.00     0.131 A 
ATOM     69  C   UNL A   1      38.904  34.211  39.017  1.00  0.00     0.055 A 
ATOM     70  C   UNL A   1      39.943  35.976  37.746  1.00  0.00     0.041 A 
ATOM     71  F   UNL A   1      40.823  35.513  35.622  1.00  0.00    -0.206 F 
ATOM     72  C   UNL A   1      39.285  35.553  38.897  1.00  0.00     0.022 A 
BRANCH  69  73
ATOM     73  S   UNL A   1      38.010  33.719  40.516  1.00  0.00     0.124 S 
ATOM     74  O   UNL A   1      38.965  32.816  41.155  1.00  0.00    -0.237 OA
ATOM     75  O   UNL A   1      37.816  35.000  41.188  1.00  0.00    -0.237 OA
ATOM     76  O   UNL A   1      36.801  33.079  40.008  1.00  0.00    -0.744 OA
ENDBRANCH  69  73
ENDBRANCH  52  66
BRANCH  53  77
ATOM     77  C   UNL A   1      40.858  27.590  28.973  1.00  0.00     0.023 A 
ATOM     78  C   UNL A   1      41.869  27.802  28.019  1.00  0.00     0.031 A 
ATOM     79  C   UNL A   1      39.932  26.559  28.742  1.00  0.00     0.131 A 
ATOM     80  C   UNL A   1      41.897  27.026  26.852  1.00  0.00     0.055 A 
ATOM     81  C   UNL A   1      39.998  25.752  27.606  1.00  0.00     0.041 A 
ATOM     82  F   UNL A   1      38.945  26.329  29.622  1.00  0.00    -0.206 F 
ATOM     83  C   UNL A   1      40.978  25.992  26.648  1.00  0.00     0.022 A 
BRANCH  80  84
ATOM     84  S   UNL A   1      43.073  27.390  25.520  1.00  0.00     0.124 S 
ATOM     85  O   UNL A   1      42.277  28.229  24.628  1.00  0.00    -0.237 OA
ATOM     86  O   UNL A   1      44.138  28.077  26.247  1.00  0.00    -0.237 OA
ATOM     87  O   UNL A   1      43.423  26.073  24.999  1.00  0.00    -0.744 OA
ENDBRANCH  80  84
ENDBRANCH  53  77
BRANCH  65  88
ATOM     88  C   UNL A   1      44.220  28.307  35.111  1.00  0.00     0.023 A 
ATOM     89  C   UNL A   1      44.009  27.326  36.098  1.00  0.00     0.031 A 
ATOM     90  C   UNL A   1      45.530  28.757  34.880  1.00  0.00     0.131 A 
ATOM     91  C   UNL A   1      45.090  26.865  36.858  1.00  0.00     0.055 A 
ATOM     92  C   UNL A   1      46.610  28.262  35.612  1.00  0.00     0.041 A 
ATOM     93  F   UNL A   1      45.774  29.698  33.955  1.00  0.00    -0.206 F 
ATOM     94  C   UNL A   1      46.390  27.322  36.617  1.00  0.00     0.022 A 
BRANCH  91  95
ATOM     95  S   UNL A   1      44.837  25.712  38.236  1.00  0.00     0.124 S 
ATOM     96  O   UNL A   1      44.461  24.483  37.542  1.00  0.00    -0.237 OA
ATOM     97  O   UNL A   1      46.154  25.695  38.865  1.00  0.00    -0.237 OA
ATOM     98  O   UNL A   1      43.773  26.330  39.020  1.00  0.00    -0.744 OA
ENDBRANCH  91  95
ENDBRANCH  65  88
ENDBRANCH  39  40
ENDBRANCH  31  34
ENDBRANCH  29  30
ENDBRANCH   1  29
TORSDOF 15
ENDMDL
