MODEL 1
REMARK VINA RESULT:     -11.5      0.000      0.000
REMARK SMILES O=C(NCCCCNC(=O)c1ccc(-n2cc(CSc3nc4ccccc4c(=O)n3-c3ccc(Cl)cc3)nn2)cc1)c1ccc(-c2c3nc(c(-c4cc(S(=O)(=O)[O-])ccc4F)c4ccc([nH]4)c(-c4cc(S(=O)(=O)[O-])ccc4F)c4nc(c(-c5cc(S(=O)(=O)[O-])ccc5F)c5ccc2[nH]5)C=C4)C=C3)cc1
REMARK SMILES IDX 6 1 5 2 4 3 3 4 1 5 2 6 42 8 43 9 104 10 44 11 103 12 45 13
REMARK SMILES IDX 46 14 47 15 97 16 48 17 102 18 96 19 98 20 49 21 101 22
REMARK SMILES IDX 95 23 94 24 50 26 82 27 62 28 81 29 63 30 66 31 80 32 99 33
REMARK SMILES IDX 64 34 65 35 79 37 100 38 67 39 51 40 52 41 60 42 53 43 59 44
REMARK SMILES IDX 61 45 58 46 54 47 55 48 56 49 57 50 83 51 84 52 92 53 85 54
REMARK SMILES IDX 91 55 93 56 90 57 86 58 87 59 88 60 89 61 68 62 69 63 77 64
REMARK SMILES IDX 70 65 76 66 78 67 75 68 71 69 72 70 73 71 74 72 7 73 8 74
REMARK SMILES IDX 9 75 10 77 11 78 12 79 41 80 13 81 40 82 14 83 15 84 16 85
REMARK SMILES IDX 39 86 17 87 38 88 18 89 19 90 20 91 21 92 30 93 22 94 28 95
REMARK SMILES IDX 23 96 27 97 29 98 24 99 26 100 25 101 31 102 32 103 37 104
REMARK SMILES IDX 33 105 36 106 34 107 35 108
REMARK H PARENT 3 7 98 25 66 36 8 76
REMARK Flexibility Score: inf
ROOT
ATOM      1  C   UNL A   1      36.673  31.899  33.167  1.00  0.00     0.023 C 
ENDROOT
BRANCH   1   2
ATOM      2  C   UNL A   1      36.192  32.801  32.030  1.00  0.00     0.023 C 
BRANCH   2   3
ATOM      3  C   UNL A   1      34.847  32.430  31.402  1.00  0.00     0.116 C 
BRANCH   3   4
ATOM      4  N   UNL A   1      34.813  32.468  29.953  1.00  0.00    -0.352 N 
ATOM      5  O   UNL A   1      35.010  31.957  27.819  1.00  0.00    -0.269 OA
ATOM      6  C   UNL A   1      35.459  31.786  28.957  1.00  0.00     0.251 C 
ATOM      7  H   UNL A   1      34.181  33.138  29.606  1.00  0.00     0.163 HD
BRANCH   6   8
ATOM      8  C   UNL A   1      36.651  30.909  29.139  1.00  0.00     0.039 A 
ATOM      9  C   UNL A   1      36.618  29.540  29.403  1.00  0.00     0.014 A 
ATOM     10  C   UNL A   1      37.907  31.543  29.072  1.00  0.00     0.014 A 
ATOM     11  C   UNL A   1      37.793  28.838  29.664  1.00  0.00     0.010 A 
ATOM     12  C   UNL A   1      39.088  30.842  29.311  1.00  0.00     0.010 A 
ATOM     13  C   UNL A   1      39.028  29.489  29.635  1.00  0.00    -0.014 A 
BRANCH  13  14
ATOM     14  C   UNL A   1      40.230  28.677  29.830  1.00  0.00     0.031 A 
ATOM     15  C   UNL A   1      40.684  28.515  31.241  1.00  0.00     0.074 A 
ATOM     16  C   UNL A   1      40.838  27.974  28.854  1.00  0.00     0.049 A 
ATOM     17  N   UNL A   1      41.831  28.813  31.763  1.00  0.00    -0.248 NA
ATOM     18  C   UNL A   1      39.701  28.019  32.215  1.00  0.00     0.031 C 
ATOM     19  C   UNL A   1      40.366  27.758  27.486  1.00  0.00     0.029 A 
ATOM     20  N   UNL A   1      41.964  27.204  28.927  1.00  0.00    -0.354 N 
ATOM     21  C   UNL A   1      41.790  28.365  33.084  1.00  0.00     0.074 A 
ATOM     22  C   UNL A   1      40.419  28.014  33.338  1.00  0.00     0.031 C 
ATOM     23  C   UNL A   1      41.070  26.744  26.933  1.00  0.00     0.029 A 
ATOM     24  C   UNL A   1      42.116  26.333  27.856  1.00  0.00     0.049 A 
ATOM     25  H   UNL A   1      42.606  27.260  29.671  1.00  0.00     0.167 HD
ATOM     26  C   UNL A   1      42.923  28.157  33.814  1.00  0.00     0.034 A 
ATOM     27  C   UNL A   1      42.986  25.295  27.757  1.00  0.00     0.034 A 
ATOM     28  C   UNL A   1      44.045  28.877  33.258  1.00  0.00     0.049 A 
ATOM     29  C   UNL A   1      44.096  25.541  28.707  1.00  0.00     0.074 A 
ATOM     30  C   UNL A   1      44.305  30.207  32.983  1.00  0.00     0.029 A 
ATOM     31  N   UNL A   1      45.027  28.176  32.595  1.00  0.00    -0.354 N 
ATOM     32  N   UNL A   1      44.951  26.517  28.586  1.00  0.00    -0.248 NA
ATOM     33  C   UNL A   1      44.026  24.942  30.032  1.00  0.00     0.031 C 
ATOM     34  C   UNL A   1      45.079  30.193  31.787  1.00  0.00     0.029 A 
ATOM     35  C   UNL A   1      45.282  28.859  31.434  1.00  0.00     0.049 A 
ATOM     36  H   UNL A   1      45.461  27.345  32.897  1.00  0.00     0.167 HD
ATOM     37  C   UNL A   1      45.213  26.930  29.882  1.00  0.00     0.074 A 
ATOM     38  C   UNL A   1      44.712  25.851  30.729  1.00  0.00     0.031 C 
ATOM     39  C   UNL A   1      45.557  28.222  30.161  1.00  0.00     0.034 A 
BRANCH  26  40
ATOM     40  C   UNL A   1      43.105  27.057  34.845  1.00  0.00     0.023 A 
ATOM     41  C   UNL A   1      43.839  25.918  34.450  1.00  0.00     0.031 A 
ATOM     42  C   UNL A   1      42.379  26.919  36.048  1.00  0.00     0.131 A 
ATOM     43  C   UNL A   1      43.723  24.699  35.140  1.00  0.00     0.055 A 
ATOM     44  C   UNL A   1      42.330  25.725  36.777  1.00  0.00     0.041 A 
ATOM     45  F   UNL A   1      41.609  27.893  36.547  1.00  0.00    -0.206 F 
ATOM     46  C   UNL A   1      42.970  24.594  36.304  1.00  0.00     0.022 A 
BRANCH  43  47
ATOM     47  S   UNL A   1      44.393  23.206  34.360  1.00  0.00     0.124 S 
ATOM     48  O   UNL A   1      45.591  23.728  33.710  1.00  0.00    -0.237 OA
ATOM     49  O   UNL A   1      44.610  22.340  35.514  1.00  0.00    -0.237 OA
ATOM     50  O   UNL A   1      43.324  22.789  33.456  1.00  0.00    -0.744 OA
ENDBRANCH  43  47
ENDBRANCH  26  40
BRANCH  27  51
ATOM     51  C   UNL A   1      42.727  23.985  27.102  1.00  0.00     0.023 A 
ATOM     52  C   UNL A   1      43.643  23.375  26.224  1.00  0.00     0.031 A 
ATOM     53  C   UNL A   1      41.628  23.200  27.520  1.00  0.00     0.131 A 
ATOM     54  C   UNL A   1      43.430  22.048  25.787  1.00  0.00     0.055 A 
ATOM     55  C   UNL A   1      41.414  21.896  27.074  1.00  0.00     0.041 A 
ATOM     56  F   UNL A   1      40.764  23.648  28.445  1.00  0.00    -0.206 F 
ATOM     57  C   UNL A   1      42.319  21.311  26.207  1.00  0.00     0.022 A 
BRANCH  54  58
ATOM     58  S   UNL A   1      44.662  21.217  24.734  1.00  0.00     0.124 S 
ATOM     59  O   UNL A   1      44.593  21.995  23.503  1.00  0.00    -0.237 OA
ATOM     60  O   UNL A   1      45.885  21.349  25.518  1.00  0.00    -0.237 OA
ATOM     61  O   UNL A   1      44.151  19.849  24.625  1.00  0.00    -0.744 OA
ENDBRANCH  54  58
ENDBRANCH  27  51
BRANCH  39  62
ATOM     62  C   UNL A   1      45.989  29.125  29.027  1.00  0.00     0.023 A 
ATOM     63  C   UNL A   1      45.126  29.997  28.329  1.00  0.00     0.031 A 
ATOM     64  C   UNL A   1      47.364  29.197  28.740  1.00  0.00     0.131 A 
ATOM     65  C   UNL A   1      45.651  30.891  27.376  1.00  0.00     0.055 A 
ATOM     66  C   UNL A   1      47.881  30.095  27.808  1.00  0.00     0.041 A 
ATOM     67  F   UNL A   1      48.240  28.418  29.398  1.00  0.00    -0.206 F 
ATOM     68  C   UNL A   1      47.024  30.944  27.118  1.00  0.00     0.022 A 
BRANCH  65  69
ATOM     69  S   UNL A   1      44.546  32.010  26.458  1.00  0.00     0.124 S 
ATOM     70  O   UNL A   1      43.420  31.157  26.096  1.00  0.00    -0.237 OA
ATOM     71  O   UNL A   1      44.270  33.056  27.438  1.00  0.00    -0.237 OA
ATOM     72  O   UNL A   1      45.368  32.444  25.325  1.00  0.00    -0.744 OA
ENDBRANCH  65  69
ENDBRANCH  39  62
ENDBRANCH  13  14
ENDBRANCH   6   8
ENDBRANCH   3   4
ENDBRANCH   2   3
ENDBRANCH   1   2
BRANCH   1  73
ATOM     73  C   UNL A   1      37.237  32.609  34.392  1.00  0.00     0.116 C 
BRANCH  73  74
ATOM     74  N   UNL A   1      38.274  31.855  35.079  1.00  0.00    -0.352 N 
ATOM     75  C   UNL A   1      39.621  31.761  34.812  1.00  0.00     0.251 C 
ATOM     76  H   UNL A   1      37.965  31.332  35.854  1.00  0.00     0.163 HD
ATOM     77  O   UNL A   1      40.339  31.035  35.480  1.00  0.00    -0.269 OA
BRANCH  75  78
ATOM     78  C   UNL A   1      40.199  32.513  33.675  1.00  0.00     0.039 A 
ATOM     79  C   UNL A   1      40.663  33.813  33.916  1.00  0.00     0.016 A 
ATOM     80  C   UNL A   1      40.296  31.948  32.398  1.00  0.00     0.016 A 
ATOM     81  C   UNL A   1      41.320  34.516  32.906  1.00  0.00     0.029 A 
ATOM     82  C   UNL A   1      40.975  32.633  31.390  1.00  0.00     0.029 A 
ATOM     83  C   UNL A   1      41.505  33.902  31.666  1.00  0.00     0.066 A 
BRANCH  83  84
ATOM     84  N   UNL A   1      42.227  34.581  30.674  1.00  0.00    -0.220 N 
ATOM     85  C   UNL A   1      42.884  35.777  30.847  1.00  0.00     0.141 A 
ATOM     86  N   UNL A   1      42.018  34.361  29.365  1.00  0.00    -0.062 NA
ATOM     87  C   UNL A   1      43.030  36.308  29.587  1.00  0.00     0.093 A 
ATOM     88  N   UNL A   1      42.542  35.377  28.693  1.00  0.00    -0.134 NA
BRANCH  87  89
ATOM     89  C   UNL A   1      43.295  37.669  29.058  1.00  0.00     0.138 C 
BRANCH  89  90
ATOM     90  S   UNL A   1      42.523  38.477  27.671  1.00  0.00    -0.081 SA
BRANCH  90  91
ATOM     91  C   UNL A   1      43.061  40.104  27.402  1.00  0.00     0.176 A 
ATOM     92  N   UNL A   1      42.919  40.434  26.151  1.00  0.00    -0.223 NA
ATOM     93  N   UNL A   1      43.552  40.992  28.353  1.00  0.00    -0.255 N 
ATOM     94  C   UNL A   1      43.364  41.685  25.724  1.00  0.00     0.079 A 
ATOM     95  C   UNL A   1      44.509  41.886  27.842  1.00  0.00     0.266 A 
ATOM     96  C   UNL A   1      42.981  42.199  24.486  1.00  0.00     0.029 A 
ATOM     97  C   UNL A   1      44.274  42.394  26.487  1.00  0.00     0.066 A 
ATOM     98  O   UNL A   1      45.546  42.239  28.402  1.00  0.00    -0.268 OA
ATOM     99  C   UNL A   1      43.551  43.385  24.009  1.00  0.00     0.002 A 
ATOM    100  C   UNL A   1      44.893  43.550  26.006  1.00  0.00     0.016 A 
ATOM    101  C   UNL A   1      44.530  44.044  24.756  1.00  0.00     0.001 A 
BRANCH  93 102
ATOM    102  C   UNL A   1      43.284  41.010  29.788  1.00  0.00     0.051 A 
ATOM    103  C   UNL A   1      42.032  41.452  30.273  1.00  0.00     0.028 A 
ATOM    104  C   UNL A   1      44.201  40.626  30.773  1.00  0.00     0.028 A 
ATOM    105  C   UNL A   1      41.796  41.713  31.627  1.00  0.00     0.022 A 
ATOM    106  C   UNL A   1      43.993  40.919  32.132  1.00  0.00     0.022 A 
ATOM    107  C   UNL A   1      42.804  41.498  32.549  1.00  0.00     0.041 A 
ATOM    108  Cl  UNL A   1      42.575  41.924  34.195  1.00  0.00    -0.084 Cl
ENDBRANCH  93 102
ENDBRANCH  90  91
ENDBRANCH  89  90
ENDBRANCH  87  89
ENDBRANCH  83  84
ENDBRANCH  75  78
ENDBRANCH  73  74
ENDBRANCH   1  73
TORSDOF 19
ENDMDL
MODEL 2
REMARK VINA RESULT:     -11.4      2.094      2.855
REMARK SMILES O=C(NCCCCNC(=O)c1ccc(-n2cc(CSc3nc4ccccc4c(=O)n3-c3ccc(Cl)cc3)nn2)cc1)c1ccc(-c2c3nc(c(-c4cc(S(=O)(=O)[O-])ccc4F)c4ccc([nH]4)c(-c4cc(S(=O)(=O)[O-])ccc4F)c4nc(c(-c5cc(S(=O)(=O)[O-])ccc5F)c5ccc2[nH]5)C=C4)C=C3)cc1
REMARK SMILES IDX 6 1 5 2 4 3 3 4 1 5 2 6 42 8 43 9 104 10 44 11 103 12 45 13
REMARK SMILES IDX 46 14 47 15 97 16 48 17 102 18 96 19 98 20 49 21 101 22
REMARK SMILES IDX 95 23 94 24 50 26 82 27 62 28 81 29 63 30 66 31 80 32 99 33
REMARK SMILES IDX 64 34 65 35 79 37 100 38 67 39 51 40 52 41 60 42 53 43 59 44
REMARK SMILES IDX 61 45 58 46 54 47 55 48 56 49 57 50 83 51 84 52 92 53 85 54
REMARK SMILES IDX 91 55 93 56 90 57 86 58 87 59 88 60 89 61 68 62 69 63 77 64
REMARK SMILES IDX 70 65 76 66 78 67 75 68 71 69 72 70 73 71 74 72 7 73 8 74
REMARK SMILES IDX 9 75 10 77 11 78 12 79 41 80 13 81 40 82 14 83 15 84 16 85
REMARK SMILES IDX 39 86 17 87 38 88 18 89 19 90 20 91 21 92 30 93 22 94 28 95
REMARK SMILES IDX 23 96 27 97 29 98 24 99 26 100 25 101 31 102 32 103 37 104
REMARK SMILES IDX 33 105 36 106 34 107 35 108
REMARK H PARENT 3 7 98 25 66 36 8 76
REMARK Flexibility Score: inf
ROOT
ATOM      1  C   UNL A   1      36.086  31.108  32.663  1.00  0.00     0.023 C 
ENDROOT
BRANCH   1   2
ATOM      2  C   UNL A   1      35.941  32.453  31.949  1.00  0.00     0.023 C 
BRANCH   2   3
ATOM      3  C   UNL A   1      34.627  32.678  31.199  1.00  0.00     0.116 C 
BRANCH   3   4
ATOM      4  N   UNL A   1      34.755  32.822  29.762  1.00  0.00    -0.352 N 
ATOM      5  O   UNL A   1      35.252  32.498  27.640  1.00  0.00    -0.269 OA
ATOM      6  C   UNL A   1      35.584  32.288  28.812  1.00  0.00     0.251 C 
ATOM      7  H   UNL A   1      34.096  33.447  29.383  1.00  0.00     0.163 HD
BRANCH   6   8
ATOM      8  C   UNL A   1      36.838  31.528  29.082  1.00  0.00     0.039 A 
ATOM      9  C   UNL A   1      38.082  32.091  29.366  1.00  0.00     0.014 A 
ATOM     10  C   UNL A   1      36.746  30.125  29.001  1.00  0.00     0.014 A 
ATOM     11  C   UNL A   1      39.213  31.287  29.494  1.00  0.00     0.010 A 
ATOM     12  C   UNL A   1      37.870  29.314  29.150  1.00  0.00     0.010 A 
ATOM     13  C   UNL A   1      39.114  29.900  29.370  1.00  0.00    -0.014 A 
BRANCH  13  14
ATOM     14  C   UNL A   1      40.322  29.107  29.605  1.00  0.00     0.031 A 
ATOM     15  C   UNL A   1      40.708  28.917  31.033  1.00  0.00     0.074 A 
ATOM     16  C   UNL A   1      40.992  28.443  28.643  1.00  0.00     0.049 A 
ATOM     17  N   UNL A   1      41.821  29.223  31.619  1.00  0.00    -0.248 NA
ATOM     18  C   UNL A   1      39.688  28.376  31.943  1.00  0.00     0.031 C 
ATOM     19  C   UNL A   1      40.594  28.253  27.248  1.00  0.00     0.029 A 
ATOM     20  N   UNL A   1      42.129  27.693  28.754  1.00  0.00    -0.354 N 
ATOM     21  C   UNL A   1      41.723  28.740  32.925  1.00  0.00     0.074 A 
ATOM     22  C   UNL A   1      40.348  28.355  33.100  1.00  0.00     0.031 C 
ATOM     23  C   UNL A   1      41.346  27.269  26.706  1.00  0.00     0.029 A 
ATOM     24  C   UNL A   1      42.353  26.854  27.670  1.00  0.00     0.049 A 
ATOM     25  H   UNL A   1      42.732  27.741  29.529  1.00  0.00     0.167 HD
ATOM     26  C   UNL A   1      42.822  28.536  33.705  1.00  0.00     0.034 A 
ATOM     27  C   UNL A   1      43.247  25.836  27.589  1.00  0.00     0.034 A 
ATOM     28  C   UNL A   1      43.955  29.291  33.225  1.00  0.00     0.049 A 
ATOM     29  C   UNL A   1      44.303  26.078  28.600  1.00  0.00     0.074 A 
ATOM     30  C   UNL A   1      44.201  30.633  32.997  1.00  0.00     0.029 A 
ATOM     31  N   UNL A   1      44.983  28.627  32.595  1.00  0.00    -0.354 N 
ATOM     32  N   UNL A   1      45.143  27.073  28.547  1.00  0.00    -0.248 NA
ATOM     33  C   UNL A   1      44.179  25.443  29.903  1.00  0.00     0.031 C 
ATOM     34  C   UNL A   1      45.034  30.666  31.842  1.00  0.00     0.029 A 
ATOM     35  C   UNL A   1      45.282  29.345  31.466  1.00  0.00     0.049 A 
ATOM     36  H   UNL A   1      45.419  27.797  32.897  1.00  0.00     0.167 HD
ATOM     37  C   UNL A   1      45.331  27.457  29.864  1.00  0.00     0.074 A 
ATOM     38  C   UNL A   1      44.811  26.347  30.657  1.00  0.00     0.031 C 
ATOM     39  C   UNL A   1      45.634  28.748  30.193  1.00  0.00     0.034 A 
BRANCH  26  40
ATOM     40  C   UNL A   1      42.976  27.412  34.716  1.00  0.00     0.023 A 
ATOM     41  C   UNL A   1      43.733  26.289  34.321  1.00  0.00     0.031 A 
ATOM     42  C   UNL A   1      42.206  27.240  35.888  1.00  0.00     0.131 A 
ATOM     43  C   UNL A   1      43.603  25.053  34.977  1.00  0.00     0.055 A 
ATOM     44  C   UNL A   1      42.141  26.028  36.585  1.00  0.00     0.041 A 
ATOM     45  F   UNL A   1      41.410  28.195  36.380  1.00  0.00    -0.206 F 
ATOM     46  C   UNL A   1      42.807  24.913  36.109  1.00  0.00     0.022 A 
BRANCH  43  47
ATOM     47  S   UNL A   1      44.314  23.584  34.188  1.00  0.00     0.124 S 
ATOM     48  O   UNL A   1      43.414  22.535  34.658  1.00  0.00    -0.237 OA
ATOM     49  O   UNL A   1      44.219  23.931  32.775  1.00  0.00    -0.237 OA
ATOM     50  O   UNL A   1      45.669  23.532  34.731  1.00  0.00    -0.744 OA
ENDBRANCH  43  47
ENDBRANCH  26  40
BRANCH  27  51
ATOM     51  C   UNL A   1      43.049  24.539  26.888  1.00  0.00     0.023 A 
ATOM     52  C   UNL A   1      44.007  23.987  26.016  1.00  0.00     0.031 A 
ATOM     53  C   UNL A   1      41.967  23.705  27.254  1.00  0.00     0.131 A 
ATOM     54  C   UNL A   1      43.849  22.667  25.534  1.00  0.00     0.055 A 
ATOM     55  C   UNL A   1      41.808  22.410  26.764  1.00  0.00     0.041 A 
ATOM     56  F   UNL A   1      41.066  24.096  28.170  1.00  0.00    -0.206 F 
ATOM     57  C   UNL A   1      42.754  21.882  25.903  1.00  0.00     0.022 A 
BRANCH  54  58
ATOM     58  S   UNL A   1      45.133  21.910  24.488  1.00  0.00     0.124 S 
ATOM     59  O   UNL A   1      45.402  22.963  23.515  1.00  0.00    -0.237 OA
ATOM     60  O   UNL A   1      46.194  21.629  25.449  1.00  0.00    -0.237 OA
ATOM     61  O   UNL A   1      44.474  20.723  23.942  1.00  0.00    -0.744 OA
ENDBRANCH  54  58
ENDBRANCH  27  51
BRANCH  39  62
ATOM     62  C   UNL A   1      46.103  29.689  29.105  1.00  0.00     0.023 A 
ATOM     63  C   UNL A   1      45.252  30.526  28.354  1.00  0.00     0.031 A 
ATOM     64  C   UNL A   1      47.490  29.835  28.926  1.00  0.00     0.131 A 
ATOM     65  C   UNL A   1      45.799  31.460  27.453  1.00  0.00     0.055 A 
ATOM     66  C   UNL A   1      48.029  30.773  28.046  1.00  0.00     0.041 A 
ATOM     67  F   UNL A   1      48.353  29.092  29.639  1.00  0.00    -0.206 F 
ATOM     68  C   UNL A   1      47.184  31.587  27.302  1.00  0.00     0.022 A 
BRANCH  65  69
ATOM     69  S   UNL A   1      44.711  32.535  26.466  1.00  0.00     0.124 S 
ATOM     70  O   UNL A   1      43.794  31.599  25.827  1.00  0.00    -0.237 OA
ATOM     71  O   UNL A   1      44.131  33.412  27.478  1.00  0.00    -0.237 OA
ATOM     72  O   UNL A   1      45.636  33.203  25.546  1.00  0.00    -0.744 OA
ENDBRANCH  65  69
ENDBRANCH  39  62
ENDBRANCH  13  14
ENDBRANCH   6   8
ENDBRANCH   3   4
ENDBRANCH   2   3
ENDBRANCH   1   2
BRANCH   1  73
ATOM     73  C   UNL A   1      37.510  30.667  32.976  1.00  0.00     0.116 C 
BRANCH  73  74
ATOM     74  N   UNL A   1      37.981  31.098  34.283  1.00  0.00    -0.352 N 
ATOM     75  C   UNL A   1      38.926  32.042  34.615  1.00  0.00     0.251 C 
ATOM     76  H   UNL A   1      37.558  30.644  35.049  1.00  0.00     0.163 HD
ATOM     77  O   UNL A   1      39.225  32.241  35.781  1.00  0.00    -0.269 OA
BRANCH  75  78
ATOM     78  C   UNL A   1      39.619  32.795  33.545  1.00  0.00     0.039 A 
ATOM     79  C   UNL A   1      40.840  32.293  33.073  1.00  0.00     0.016 A 
ATOM     80  C   UNL A   1      39.074  33.966  33.004  1.00  0.00     0.016 A 
ATOM     81  C   UNL A   1      41.470  32.903  31.988  1.00  0.00     0.029 A 
ATOM     82  C   UNL A   1      39.684  34.566  31.902  1.00  0.00     0.029 A 
ATOM     83  C   UNL A   1      40.863  34.008  31.388  1.00  0.00     0.066 A 
BRANCH  83  84
ATOM     84  N   UNL A   1      41.460  34.577  30.254  1.00  0.00    -0.220 N 
ATOM     85  C   UNL A   1      42.692  35.188  30.227  1.00  0.00     0.141 A 
ATOM     86  N   UNL A   1      40.741  34.954  29.183  1.00  0.00    -0.062 NA
ATOM     87  C   UNL A   1      42.684  35.995  29.114  1.00  0.00     0.093 A 
ATOM     88  N   UNL A   1      41.489  35.776  28.460  1.00  0.00    -0.134 NA
BRANCH  87  89
ATOM     89  C   UNL A   1      43.481  37.168  28.676  1.00  0.00     0.138 C 
BRANCH  89  90
ATOM     90  S   UNL A   1      44.784  38.001  29.562  1.00  0.00    -0.081 SA
BRANCH  90  91
ATOM     91  C   UNL A   1      44.237  38.964  30.898  1.00  0.00     0.176 A 
ATOM     92  N   UNL A   1      43.764  40.102  30.480  1.00  0.00    -0.223 NA
ATOM     93  N   UNL A   1      44.247  38.612  32.243  1.00  0.00    -0.255 N 
ATOM     94  C   UNL A   1      43.340  41.045  31.416  1.00  0.00     0.079 A 
ATOM     95  C   UNL A   1      44.430  39.706  33.106  1.00  0.00     0.266 A 
ATOM     96  C   UNL A   1      42.567  42.141  31.032  1.00  0.00     0.029 A 
ATOM     97  C   UNL A   1      43.765  40.957  32.729  1.00  0.00     0.066 A 
ATOM     98  O   UNL A   1      45.136  39.727  34.114  1.00  0.00    -0.268 OA
ATOM     99  C   UNL A   1      42.274  43.154  31.952  1.00  0.00     0.002 A 
ATOM    100  C   UNL A   1      43.528  41.983  33.648  1.00  0.00     0.016 A 
ATOM    101  C   UNL A   1      42.781  43.089  33.252  1.00  0.00     0.001 A 
BRANCH  93 102
ATOM    102  C   UNL A   1      44.215  37.272  32.822  1.00  0.00     0.051 A 
ATOM    103  C   UNL A   1      42.989  36.705  33.237  1.00  0.00     0.028 A 
ATOM    104  C   UNL A   1      45.342  36.466  33.025  1.00  0.00     0.028 A 
ATOM    105  C   UNL A   1      42.918  35.537  34.004  1.00  0.00     0.022 A 
ATOM    106  C   UNL A   1      45.291  35.313  33.827  1.00  0.00     0.022 A 
ATOM    107  C   UNL A   1      44.082  34.874  34.345  1.00  0.00     0.041 A 
ATOM    108  Cl  UNL A   1      44.026  33.510  35.384  1.00  0.00    -0.084 Cl
ENDBRANCH  93 102
ENDBRANCH  90  91
ENDBRANCH  89  90
ENDBRANCH  87  89
ENDBRANCH  83  84
ENDBRANCH  75  78
ENDBRANCH  73  74
ENDBRANCH   1  73
TORSDOF 19
ENDMDL
MODEL 3
REMARK VINA RESULT:     -11.3      3.291      4.515
REMARK SMILES O=C(NCCCCNC(=O)c1ccc(-n2cc(CSc3nc4ccccc4c(=O)n3-c3ccc(Cl)cc3)nn2)cc1)c1ccc(-c2c3nc(c(-c4cc(S(=O)(=O)[O-])ccc4F)c4ccc([nH]4)c(-c4cc(S(=O)(=O)[O-])ccc4F)c4nc(c(-c5cc(S(=O)(=O)[O-])ccc5F)c5ccc2[nH]5)C=C4)C=C3)cc1
REMARK SMILES IDX 6 1 5 2 4 3 3 4 1 5 2 6 42 8 43 9 104 10 44 11 103 12 45 13
REMARK SMILES IDX 46 14 47 15 97 16 48 17 102 18 96 19 98 20 49 21 101 22
REMARK SMILES IDX 95 23 94 24 50 26 82 27 62 28 81 29 63 30 66 31 80 32 99 33
REMARK SMILES IDX 64 34 65 35 79 37 100 38 67 39 51 40 52 41 60 42 53 43 59 44
REMARK SMILES IDX 61 45 58 46 54 47 55 48 56 49 57 50 83 51 84 52 92 53 85 54
REMARK SMILES IDX 91 55 93 56 90 57 86 58 87 59 88 60 89 61 68 62 69 63 77 64
REMARK SMILES IDX 70 65 76 66 78 67 75 68 71 69 72 70 73 71 74 72 7 73 8 74
REMARK SMILES IDX 9 75 10 77 11 78 12 79 41 80 13 81 40 82 14 83 15 84 16 85
REMARK SMILES IDX 39 86 17 87 38 88 18 89 19 90 20 91 21 92 30 93 22 94 28 95
REMARK SMILES IDX 23 96 27 97 29 98 24 99 26 100 25 101 31 102 32 103 37 104
REMARK SMILES IDX 33 105 36 106 34 107 35 108
REMARK H PARENT 3 7 98 25 66 36 8 76
REMARK Flexibility Score: inf
ROOT
ATOM      1  C   UNL A   1      36.281  31.109  32.514  1.00  0.00     0.023 C 
ENDROOT
BRANCH   1   2
ATOM      2  C   UNL A   1      35.869  32.473  31.959  1.00  0.00     0.023 C 
BRANCH   2   3
ATOM      3  C   UNL A   1      34.563  32.508  31.163  1.00  0.00     0.116 C 
BRANCH   3   4
ATOM      4  N   UNL A   1      34.718  32.674  29.732  1.00  0.00    -0.352 N 
ATOM      5  O   UNL A   1      35.257  32.382  27.615  1.00  0.00    -0.269 OA
ATOM      6  C   UNL A   1      35.566  32.156  28.789  1.00  0.00     0.251 C 
ATOM      7  H   UNL A   1      34.064  33.302  29.349  1.00  0.00     0.163 HD
BRANCH   6   8
ATOM      8  C   UNL A   1      36.817  31.396  29.073  1.00  0.00     0.039 A 
ATOM      9  C   UNL A   1      38.063  31.959  29.347  1.00  0.00     0.014 A 
ATOM     10  C   UNL A   1      36.720  29.992  29.015  1.00  0.00     0.014 A 
ATOM     11  C   UNL A   1      39.192  31.153  29.489  1.00  0.00     0.010 A 
ATOM     12  C   UNL A   1      37.841  29.179  29.178  1.00  0.00     0.010 A 
ATOM     13  C   UNL A   1      39.088  29.765  29.389  1.00  0.00    -0.014 A 
BRANCH  13  14
ATOM     14  C   UNL A   1      40.293  28.972  29.637  1.00  0.00     0.031 A 
ATOM     15  C   UNL A   1      40.665  28.786  31.069  1.00  0.00     0.074 A 
ATOM     16  C   UNL A   1      40.971  28.304  28.684  1.00  0.00     0.049 A 
ATOM     17  N   UNL A   1      41.773  29.093  31.664  1.00  0.00    -0.248 NA
ATOM     18  C   UNL A   1      39.637  28.248  31.971  1.00  0.00     0.031 C 
ATOM     19  C   UNL A   1      40.586  28.111  27.285  1.00  0.00     0.029 A 
ATOM     20  N   UNL A   1      42.106  27.553  28.807  1.00  0.00    -0.354 N 
ATOM     21  C   UNL A   1      41.663  28.614  32.970  1.00  0.00     0.074 A 
ATOM     22  C   UNL A   1      40.286  28.231  33.134  1.00  0.00     0.031 C 
ATOM     23  C   UNL A   1      41.342  27.124  26.753  1.00  0.00     0.029 A 
ATOM     24  C   UNL A   1      42.339  26.711  27.728  1.00  0.00     0.049 A 
ATOM     25  H   UNL A   1      42.702  27.604  29.588  1.00  0.00     0.167 HD
ATOM     26  C   UNL A   1      42.754  28.411  33.762  1.00  0.00     0.034 A 
ATOM     27  C   UNL A   1      43.234  25.692  27.658  1.00  0.00     0.034 A 
ATOM     28  C   UNL A   1      43.892  29.164  33.290  1.00  0.00     0.049 A 
ATOM     29  C   UNL A   1      44.281  25.937  28.678  1.00  0.00     0.074 A 
ATOM     30  C   UNL A   1      44.141  30.505  33.061  1.00  0.00     0.029 A 
ATOM     31  N   UNL A   1      44.926  28.497  32.672  1.00  0.00    -0.354 N 
ATOM     32  N   UNL A   1      45.122  26.931  28.630  1.00  0.00    -0.248 NA
ATOM     33  C   UNL A   1      44.144  25.306  29.982  1.00  0.00     0.031 C 
ATOM     34  C   UNL A   1      44.985  30.534  31.913  1.00  0.00     0.029 A 
ATOM     35  C   UNL A   1      45.236  29.212  31.543  1.00  0.00     0.049 A 
ATOM     36  H   UNL A   1      45.358  27.668  32.980  1.00  0.00     0.167 HD
ATOM     37  C   UNL A   1      45.298  27.319  29.948  1.00  0.00     0.074 A 
ATOM     38  C   UNL A   1      44.770  26.211  30.739  1.00  0.00     0.031 C 
ATOM     39  C   UNL A   1      45.598  28.611  30.275  1.00  0.00     0.034 A 
BRANCH  26  40
ATOM     40  C   UNL A   1      42.897  27.290  34.777  1.00  0.00     0.023 A 
ATOM     41  C   UNL A   1      43.697  26.186  34.411  1.00  0.00     0.031 A 
ATOM     42  C   UNL A   1      42.089  27.097  35.919  1.00  0.00     0.131 A 
ATOM     43  C   UNL A   1      43.573  24.947  35.062  1.00  0.00     0.055 A 
ATOM     44  C   UNL A   1      42.028  25.883  36.614  1.00  0.00     0.041 A 
ATOM     45  F   UNL A   1      41.251  28.032  36.382  1.00  0.00    -0.206 F 
ATOM     46  C   UNL A   1      42.739  24.786  36.163  1.00  0.00     0.022 A 
BRANCH  43  47
ATOM     47  S   UNL A   1      44.350  23.497  34.299  1.00  0.00     0.124 S 
ATOM     48  O   UNL A   1      45.751  23.905  34.256  1.00  0.00    -0.237 OA
ATOM     49  O   UNL A   1      44.013  22.444  35.251  1.00  0.00    -0.237 OA
ATOM     50  O   UNL A   1      43.687  23.403  33.001  1.00  0.00    -0.744 OA
ENDBRANCH  43  47
ENDBRANCH  26  40
BRANCH  27  51
ATOM     51  C   UNL A   1      43.041  24.394  26.959  1.00  0.00     0.023 A 
ATOM     52  C   UNL A   1      43.976  23.870  26.045  1.00  0.00     0.031 A 
ATOM     53  C   UNL A   1      41.998  23.530  27.365  1.00  0.00     0.131 A 
ATOM     54  C   UNL A   1      43.833  22.549  25.564  1.00  0.00     0.055 A 
ATOM     55  C   UNL A   1      41.852  22.233  26.876  1.00  0.00     0.041 A 
ATOM     56  F   UNL A   1      41.126  23.893  28.320  1.00  0.00    -0.206 F 
ATOM     57  C   UNL A   1      42.775  21.733  25.974  1.00  0.00     0.022 A 
BRANCH  54  58
ATOM     58  S   UNL A   1      45.093  21.830  24.462  1.00  0.00     0.124 S 
ATOM     59  O   UNL A   1      45.232  22.859  23.437  1.00  0.00    -0.237 OA
ATOM     60  O   UNL A   1      46.229  21.651  25.360  1.00  0.00    -0.237 OA
ATOM     61  O   UNL A   1      44.476  20.585  24.003  1.00  0.00    -0.744 OA
ENDBRANCH  54  58
ENDBRANCH  27  51
BRANCH  39  62
ATOM     62  C   UNL A   1      46.079  29.547  29.189  1.00  0.00     0.023 A 
ATOM     63  C   UNL A   1      45.230  30.343  28.390  1.00  0.00     0.031 A 
ATOM     64  C   UNL A   1      47.466  29.737  29.060  1.00  0.00     0.131 A 
ATOM     65  C   UNL A   1      45.782  31.279  27.494  1.00  0.00     0.055 A 
ATOM     66  C   UNL A   1      48.008  30.677  28.185  1.00  0.00     0.041 A 
ATOM     67  F   UNL A   1      48.324  29.036  29.821  1.00  0.00    -0.206 F 
ATOM     68  C   UNL A   1      47.166  31.450  27.394  1.00  0.00     0.022 A 
BRANCH  65  69
ATOM     69  S   UNL A   1      44.698  32.299  26.446  1.00  0.00     0.124 S 
ATOM     70  O   UNL A   1      45.607  32.850  25.449  1.00  0.00    -0.237 OA
ATOM     71  O   UNL A   1      43.723  31.327  25.959  1.00  0.00    -0.237 OA
ATOM     72  O   UNL A   1      44.151  33.286  27.381  1.00  0.00    -0.744 OA
ENDBRANCH  65  69
ENDBRANCH  39  62
ENDBRANCH  13  14
ENDBRANCH   6   8
ENDBRANCH   3   4
ENDBRANCH   2   3
ENDBRANCH   1   2
BRANCH   1  73
ATOM     73  C   UNL A   1      37.697  31.012  33.067  1.00  0.00     0.116 C 
BRANCH  73  74
ATOM     74  N   UNL A   1      37.768  30.405  34.387  1.00  0.00    -0.352 N 
ATOM     75  C   UNL A   1      38.565  30.722  35.464  1.00  0.00     0.251 C 
ATOM     76  H   UNL A   1      37.152  29.651  34.533  1.00  0.00     0.163 HD
ATOM     77  O   UNL A   1      38.515  30.065  36.491  1.00  0.00    -0.269 OA
BRANCH  75  78
ATOM     78  C   UNL A   1      39.524  31.846  35.362  1.00  0.00     0.039 A 
ATOM     79  C   UNL A   1      39.023  33.149  35.482  1.00  0.00     0.016 A 
ATOM     80  C   UNL A   1      40.892  31.625  35.166  1.00  0.00     0.016 A 
ATOM     81  C   UNL A   1      39.902  34.233  35.510  1.00  0.00     0.029 A 
ATOM     82  C   UNL A   1      41.780  32.700  35.219  1.00  0.00     0.029 A 
ATOM     83  C   UNL A   1      41.274  33.992  35.419  1.00  0.00     0.066 A 
BRANCH  83  84
ATOM     84  N   UNL A   1      42.160  35.074  35.517  1.00  0.00    -0.220 N 
ATOM     85  C   UNL A   1      42.102  36.220  34.758  1.00  0.00     0.141 A 
ATOM     86  N   UNL A   1      43.384  34.946  36.056  1.00  0.00    -0.062 NA
ATOM     87  C   UNL A   1      43.361  36.770  34.817  1.00  0.00     0.093 A 
ATOM     88  N   UNL A   1      44.107  35.991  35.678  1.00  0.00    -0.134 NA
BRANCH  87  89
ATOM     89  C   UNL A   1      44.104  37.752  33.988  1.00  0.00     0.138 C 
BRANCH  89  90
ATOM     90  S   UNL A   1      45.041  37.449  32.504  1.00  0.00    -0.081 SA
BRANCH  90  91
ATOM     91  C   UNL A   1      45.675  35.839  32.376  1.00  0.00     0.176 A 
ATOM     92  N   UNL A   1      46.737  35.702  33.117  1.00  0.00    -0.223 NA
ATOM     93  N   UNL A   1      45.151  34.789  31.630  1.00  0.00    -0.255 N 
ATOM     94  C   UNL A   1      47.431  34.494  33.091  1.00  0.00     0.079 A 
ATOM     95  C   UNL A   1      46.129  33.905  31.143  1.00  0.00     0.266 A 
ATOM     96  C   UNL A   1      48.384  34.192  34.064  1.00  0.00     0.029 A 
ATOM     97  C   UNL A   1      47.253  33.615  32.038  1.00  0.00     0.066 A 
ATOM     98  O   UNL A   1      46.157  33.396  30.023  1.00  0.00    -0.268 OA
ATOM     99  C   UNL A   1      49.177  33.045  33.942  1.00  0.00     0.002 A 
ATOM    100  C   UNL A   1      48.070  32.493  31.870  1.00  0.00     0.016 A 
ATOM    101  C   UNL A   1      49.040  32.212  32.829  1.00  0.00     0.001 A 
BRANCH  93 102
ATOM    102  C   UNL A   1      43.766  34.588  31.210  1.00  0.00     0.051 A 
ATOM    103  C   UNL A   1      43.304  35.145  29.996  1.00  0.00     0.028 A 
ATOM    104  C   UNL A   1      42.809  33.875  31.941  1.00  0.00     0.028 A 
ATOM    105  C   UNL A   1      41.947  35.189  29.654  1.00  0.00     0.022 A 
ATOM    106  C   UNL A   1      41.440  33.945  31.631  1.00  0.00     0.022 A 
ATOM    107  C   UNL A   1      41.011  34.635  30.507  1.00  0.00     0.041 A 
ATOM    108  Cl  UNL A   1      39.336  34.784  30.165  1.00  0.00    -0.084 Cl
ENDBRANCH  93 102
ENDBRANCH  90  91
ENDBRANCH  89  90
ENDBRANCH  87  89
ENDBRANCH  83  84
ENDBRANCH  75  78
ENDBRANCH  73  74
ENDBRANCH   1  73
TORSDOF 19
ENDMDL
