MODEL 1
REMARK VINA RESULT:     -11.7      0.000      0.000
REMARK SMILES C=C[C@@H]1[C@@H](O)C[C@H]2[C@]3(CC[C@]4(C)[C@@H]([C@H](C)CCC=C(C)C)CC[C@]24C)C[C@]13CCC(=O)NCCCCNC(=O)c1ccc(-c2c3nc(c(-c4cc(S(=O)(=O)[O-])ccc4F)c4ccc([nH]4)c(-c4cc(S(=O)(=O)[O-])ccc4F)c4nc(c(-c5cc(S(=O)(=O)[O-])ccc5F)c5ccc2[nH]5)C=C4)C=C3)cc1
REMARK SMILES IDX 33 1 32 2 30 3 31 4 29 6 28 7 27 8 3 9 4 10 6 11 8 12 26 13
REMARK SMILES IDX 7 14 9 15 24 16 10 17 11 18 23 19 25 20 13 21 12 22 22 23
REMARK SMILES IDX 2 24 1 25 5 26 14 28 15 29 16 30 17 31 18 32 19 33 20 34
REMARK SMILES IDX 21 35 34 36 35 37 36 38 37 39 38 40 39 42 40 43 41 44 102 45
REMARK SMILES IDX 42 46 101 47 43 48 44 49 45 50 95 51 46 52 100 53 94 54
REMARK SMILES IDX 96 55 47 56 99 57 93 58 92 59 48 61 80 62 60 63 79 64 61 65
REMARK SMILES IDX 64 66 78 67 97 68 62 69 63 70 77 72 98 73 65 74 49 75 50 76
REMARK SMILES IDX 58 77 51 78 57 79 59 80 56 81 52 82 53 83 54 84 55 85 81 86
REMARK SMILES IDX 82 87 90 88 83 89 89 90 91 91 88 92 84 93 85 94 86 95 87 96
REMARK SMILES IDX 66 97 67 98 75 99 68 100 74 101 76 102 73 103 69 104 70 105
REMARK SMILES IDX 71 106 72 107
REMARK H PARENT 32 5 5 27 37 41 96 60 64 71
REMARK Flexibility Score: inf
ROOT
ATOM      1  C   UNL A   1      38.722  21.154  25.421  1.00  0.00     0.116 C 
ENDROOT
BRANCH   1   2
ATOM      2  N   UNL A   1      37.931  22.162  26.100  1.00  0.00    -0.356 N 
ATOM      3  C   UNL A   1      37.306  23.291  25.669  1.00  0.00     0.220 C 
ATOM      4  O   UNL A   1      36.856  24.041  26.542  1.00  0.00    -0.275 OA
ATOM      5  H   UNL A   1      37.824  21.997  27.064  1.00  0.00     0.163 HD
BRANCH   3   6
ATOM      6  C   UNL A   1      37.005  23.580  24.204  1.00  0.00     0.100 C 
BRANCH   6   7
ATOM      7  C   UNL A   1      36.030  22.723  23.378  1.00  0.00     0.018 C 
BRANCH   7   8
ATOM      8  C   UNL A   1      34.583  22.541  23.880  1.00  0.00    -0.014 C 
ATOM      9  C   UNL A   1      34.423  21.532  25.084  1.00  0.00     0.047 C 
ATOM     10  C   UNL A   1      33.042  21.495  25.804  1.00  0.00     0.122 C 
ATOM     11  C   UNL A   1      31.922  22.289  25.168  1.00  0.00     0.037 C 
ATOM     12  C   UNL A   1      33.593  23.774  23.921  1.00  0.00    -0.019 C 
ATOM     13  C   UNL A   1      33.570  22.818  22.799  1.00  0.00     0.016 C 
ATOM     14  C   UNL A   1      32.353  23.730  24.853  1.00  0.00     0.005 C 
ATOM     15  C   UNL A   1      34.026  25.171  23.535  1.00  0.00     0.008 C 
ATOM     16  C   UNL A   1      31.134  24.626  24.323  1.00  0.00    -0.023 C 
ATOM     17  C   UNL A   1      32.859  25.940  22.915  1.00  0.00     0.008 C 
ATOM     18  C   UNL A   1      31.638  26.047  23.838  1.00  0.00    -0.024 C 
ATOM     19  C   UNL A   1      30.211  25.038  25.516  1.00  0.00     0.008 C 
ATOM     20  C   UNL A   1      30.298  23.844  23.280  1.00  0.00     0.012 C 
ATOM     21  C   UNL A   1      31.993  26.674  25.222  1.00  0.00    -0.002 C 
ATOM     22  C   UNL A   1      30.524  26.848  23.101  1.00  0.00     0.012 C 
ATOM     23  C   UNL A   1      30.758  26.369  26.078  1.00  0.00     0.005 C 
BRANCH   9  24
ATOM     24  C   UNL A   1      35.028  20.133  24.924  1.00  0.00    -0.028 C 
ATOM     25  C   UNL A   1      34.485  18.974  24.521  1.00  0.00     0.004 C 
ENDBRANCH   9  24
BRANCH  10  26
ATOM     26  O   UNL A   1      33.195  21.948  27.161  1.00  0.00    -0.392 OA
ATOM     27  H   UNL A   1      34.088  22.304  27.283  1.00  0.00     0.210 HD
ENDBRANCH  10  26
BRANCH  21  28
ATOM     28  C   UNL A   1      32.741  28.022  25.377  1.00  0.00    -0.010 C 
ATOM     29  C   UNL A   1      33.831  27.855  26.445  1.00  0.00     0.008 C 
BRANCH  28  30
ATOM     30  C   UNL A   1      31.929  29.335  25.399  1.00  0.00     0.008 C 
BRANCH  30  31
ATOM     31  C   UNL A   1      31.384  29.910  24.086  1.00  0.00     0.027 C 
BRANCH  31  32
ATOM     32  C   UNL A   1      29.975  30.419  24.217  1.00  0.00    -0.028 C 
ATOM     33  C   UNL A   1      29.065  30.613  23.245  1.00  0.00    -0.080 C 
ATOM     34  C   UNL A   1      27.721  31.201  23.582  1.00  0.00     0.039 C 
ATOM     35  C   UNL A   1      29.298  30.277  21.803  1.00  0.00     0.039 C 
ENDBRANCH  31  32
ENDBRANCH  30  31
ENDBRANCH  28  30
ENDBRANCH  21  28
ENDBRANCH   7   8
ENDBRANCH   6   7
ENDBRANCH   3   6
ENDBRANCH   1   2
BRANCH   1  36
ATOM     36  C   UNL A   1      40.013  20.883  26.206  1.00  0.00     0.023 C 
BRANCH  36  37
ATOM     37  C   UNL A   1      40.575  19.485  26.148  1.00  0.00     0.023 C 
BRANCH  37  38
ATOM     38  C   UNL A   1      41.983  19.405  26.709  1.00  0.00     0.116 C 
BRANCH  38  39
ATOM     39  N   UNL A   1      43.059  19.537  25.716  1.00  0.00    -0.352 N 
ATOM     40  C   UNL A   1      43.706  20.683  25.304  1.00  0.00     0.251 C 
ATOM     41  H   UNL A   1      43.356  18.700  25.292  1.00  0.00     0.163 HD
ATOM     42  O   UNL A   1      44.567  20.651  24.431  1.00  0.00    -0.269 OA
BRANCH  40  43
ATOM     43  C   UNL A   1      43.280  21.952  25.918  1.00  0.00     0.039 A 
ATOM     44  C   UNL A   1      43.481  22.147  27.284  1.00  0.00     0.014 A 
ATOM     45  C   UNL A   1      42.945  23.012  25.076  1.00  0.00     0.014 A 
ATOM     46  C   UNL A   1      43.471  23.449  27.787  1.00  0.00     0.010 A 
ATOM     47  C   UNL A   1      43.091  24.304  25.552  1.00  0.00     0.010 A 
ATOM     48  C   UNL A   1      43.353  24.541  26.911  1.00  0.00    -0.014 A 
BRANCH  48  49
ATOM     49  C   UNL A   1      43.479  25.948  27.381  1.00  0.00     0.031 A 
ATOM     50  C   UNL A   1      44.838  26.598  27.367  1.00  0.00     0.074 A 
ATOM     51  C   UNL A   1      42.416  26.594  27.905  1.00  0.00     0.049 A 
ATOM     52  N   UNL A   1      45.213  27.746  27.866  1.00  0.00    -0.248 NA
ATOM     53  C   UNL A   1      45.937  25.821  26.767  1.00  0.00     0.031 C 
ATOM     54  C   UNL A   1      41.064  26.043  28.049  1.00  0.00     0.029 A 
ATOM     55  N   UNL A   1      42.304  27.860  28.425  1.00  0.00    -0.354 N 
ATOM     56  C   UNL A   1      46.592  27.801  27.683  1.00  0.00     0.074 A 
ATOM     57  C   UNL A   1      46.994  26.540  27.104  1.00  0.00     0.031 C 
ATOM     58  C   UNL A   1      40.257  26.979  28.577  1.00  0.00     0.029 A 
ATOM     59  C   UNL A   1      41.035  28.181  28.856  1.00  0.00     0.049 A 
ATOM     60  H   UNL A   1      43.064  28.484  28.486  1.00  0.00     0.167 HD
ATOM     61  C   UNL A   1      47.439  28.826  27.935  1.00  0.00     0.034 A 
ATOM     62  C   UNL A   1      40.560  29.314  29.412  1.00  0.00     0.034 A 
ATOM     63  C   UNL A   1      47.008  30.104  28.433  1.00  0.00     0.049 A 
ATOM     64  C   UNL A   1      41.515  30.464  29.627  1.00  0.00     0.074 A 
ATOM     65  C   UNL A   1      47.758  31.248  28.632  1.00  0.00     0.029 A 
ATOM     66  N   UNL A   1      45.703  30.411  28.796  1.00  0.00    -0.354 N 
ATOM     67  N   UNL A   1      42.805  30.523  29.380  1.00  0.00    -0.248 NA
ATOM     68  C   UNL A   1      40.953  31.702  30.179  1.00  0.00     0.031 C 
ATOM     69  C   UNL A   1      46.918  32.232  29.162  1.00  0.00     0.029 A 
ATOM     70  C   UNL A   1      45.630  31.722  29.233  1.00  0.00     0.049 A 
ATOM     71  H   UNL A   1      44.943  29.789  28.749  1.00  0.00     0.167 HD
ATOM     72  C   UNL A   1      43.195  31.817  29.714  1.00  0.00     0.074 A 
ATOM     73  C   UNL A   1      42.004  32.508  30.160  1.00  0.00     0.031 C 
ATOM     74  C   UNL A   1      44.425  32.388  29.660  1.00  0.00     0.034 A 
BRANCH  61  75
ATOM     75  C   UNL A   1      48.907  28.599  27.670  1.00  0.00     0.023 A 
ATOM     76  C   UNL A   1      49.425  28.564  26.363  1.00  0.00     0.031 A 
ATOM     77  C   UNL A   1      49.796  28.388  28.738  1.00  0.00     0.131 A 
ATOM     78  C   UNL A   1      50.775  28.247  26.155  1.00  0.00     0.055 A 
ATOM     79  C   UNL A   1      51.156  28.158  28.527  1.00  0.00     0.041 A 
ATOM     80  F   UNL A   1      49.353  28.389  30.006  1.00  0.00    -0.206 F 
ATOM     81  C   UNL A   1      51.651  28.072  27.228  1.00  0.00     0.022 A 
BRANCH  78  82
ATOM     82  S   UNL A   1      51.341  27.943  24.459  1.00  0.00     0.124 S 
ATOM     83  O   UNL A   1      50.487  26.824  24.064  1.00  0.00    -0.237 OA
ATOM     84  O   UNL A   1      51.070  29.215  23.801  1.00  0.00    -0.237 OA
ATOM     85  O   UNL A   1      52.754  27.613  24.623  1.00  0.00    -0.744 OA
ENDBRANCH  78  82
ENDBRANCH  61  75
BRANCH  62  86
ATOM     86  C   UNL A   1      39.124  29.442  29.806  1.00  0.00     0.023 A 
ATOM     87  C   UNL A   1      38.237  30.229  29.053  1.00  0.00     0.031 A 
ATOM     88  C   UNL A   1      38.635  28.848  30.983  1.00  0.00     0.131 A 
ATOM     89  C   UNL A   1      36.931  30.458  29.517  1.00  0.00     0.055 A 
ATOM     90  C   UNL A   1      37.317  29.030  31.410  1.00  0.00     0.041 A 
ATOM     91  F   UNL A   1      39.435  28.080  31.740  1.00  0.00    -0.206 F 
ATOM     92  C   UNL A   1      36.462  29.855  30.685  1.00  0.00     0.022 A 
BRANCH  89  93
ATOM     93  S   UNL A   1      35.894  31.656  28.633  1.00  0.00     0.124 S 
ATOM     94  O   UNL A   1      36.847  32.722  28.349  1.00  0.00    -0.237 OA
ATOM     95  O   UNL A   1      35.443  30.875  27.486  1.00  0.00    -0.237 OA
ATOM     96  O   UNL A   1      34.855  31.988  29.606  1.00  0.00    -0.744 OA
ENDBRANCH  89  93
ENDBRANCH  62  86
BRANCH  74  97
ATOM     97  C   UNL A   1      44.522  33.844  30.038  1.00  0.00     0.023 A 
ATOM     98  C   UNL A   1      44.371  34.864  29.086  1.00  0.00     0.031 A 
ATOM     99  C   UNL A   1      44.767  34.208  31.374  1.00  0.00     0.131 A 
ATOM    100  C   UNL A   1      44.522  36.204  29.471  1.00  0.00     0.055 A 
ATOM    101  C   UNL A   1      44.857  35.544  31.762  1.00  0.00     0.041 A 
ATOM    102  F   UNL A   1      44.916  33.270  32.322  1.00  0.00    -0.206 F 
ATOM    103  C   UNL A   1      44.747  36.551  30.807  1.00  0.00     0.022 A 
BRANCH 100 104
ATOM    104  S   UNL A   1      44.503  37.483  28.189  1.00  0.00     0.124 S 
ATOM    105  O   UNL A   1      44.632  38.705  28.976  1.00  0.00    -0.237 OA
ATOM    106  O   UNL A   1      45.658  37.126  27.372  1.00  0.00    -0.237 OA
ATOM    107  O   UNL A   1      43.205  37.299  27.539  1.00  0.00    -0.744 OA
ENDBRANCH 100 104
ENDBRANCH  74  97
ENDBRANCH  48  49
ENDBRANCH  40  43
ENDBRANCH  38  39
ENDBRANCH  37  38
ENDBRANCH  36  37
ENDBRANCH   1  36
TORSDOF 22
ENDMDL
MODEL 2
REMARK VINA RESULT:     -11.6      1.996      2.743
REMARK SMILES C=C[C@@H]1[C@@H](O)C[C@H]2[C@]3(CC[C@]4(C)[C@@H]([C@H](C)CCC=C(C)C)CC[C@]24C)C[C@]13CCC(=O)NCCCCNC(=O)c1ccc(-c2c3nc(c(-c4cc(S(=O)(=O)[O-])ccc4F)c4ccc([nH]4)c(-c4cc(S(=O)(=O)[O-])ccc4F)c4nc(c(-c5cc(S(=O)(=O)[O-])ccc5F)c5ccc2[nH]5)C=C4)C=C3)cc1
REMARK SMILES IDX 33 1 32 2 30 3 31 4 29 6 28 7 27 8 3 9 4 10 6 11 8 12 26 13
REMARK SMILES IDX 7 14 9 15 24 16 10 17 11 18 23 19 25 20 13 21 12 22 22 23
REMARK SMILES IDX 2 24 1 25 5 26 14 28 15 29 16 30 17 31 18 32 19 33 20 34
REMARK SMILES IDX 21 35 34 36 35 37 36 38 37 39 38 40 39 42 40 43 41 44 102 45
REMARK SMILES IDX 42 46 101 47 43 48 44 49 45 50 95 51 46 52 100 53 94 54
REMARK SMILES IDX 96 55 47 56 99 57 93 58 92 59 48 61 80 62 60 63 79 64 61 65
REMARK SMILES IDX 64 66 78 67 97 68 62 69 63 70 77 72 98 73 65 74 49 75 50 76
REMARK SMILES IDX 58 77 51 78 57 79 59 80 56 81 52 82 53 83 54 84 55 85 81 86
REMARK SMILES IDX 82 87 90 88 83 89 89 90 91 91 88 92 84 93 85 94 86 95 87 96
REMARK SMILES IDX 66 97 67 98 75 99 68 100 74 101 76 102 73 103 69 104 70 105
REMARK SMILES IDX 71 106 72 107
REMARK H PARENT 32 5 5 27 37 41 96 60 64 71
REMARK Flexibility Score: inf
ROOT
ATOM      1  C   UNL A   1      39.378  22.886  26.503  1.00  0.00     0.116 C 
ENDROOT
BRANCH   1   2
ATOM      2  N   UNL A   1      38.855  21.852  25.631  1.00  0.00    -0.356 N 
ATOM      3  C   UNL A   1      37.680  21.718  24.959  1.00  0.00     0.220 C 
ATOM      4  O   UNL A   1      37.467  20.619  24.435  1.00  0.00    -0.275 OA
ATOM      5  H   UNL A   1      39.473  21.097  25.500  1.00  0.00     0.163 HD
BRANCH   3   6
ATOM      6  C   UNL A   1      36.723  22.873  24.694  1.00  0.00     0.100 C 
BRANCH   6   7
ATOM      7  C   UNL A   1      35.639  22.812  23.605  1.00  0.00     0.018 C 
BRANCH   7   8
ATOM      8  C   UNL A   1      34.155  22.832  24.024  1.00  0.00    -0.014 C 
ATOM      9  C   UNL A   1      33.767  21.778  25.134  1.00  0.00     0.047 C 
ATOM     10  C   UNL A   1      32.357  21.915  25.785  1.00  0.00     0.122 C 
ATOM     11  C   UNL A   1      31.417  22.924  25.165  1.00  0.00     0.037 C 
ATOM     12  C   UNL A   1      33.372  24.203  24.120  1.00  0.00    -0.019 C 
ATOM     13  C   UNL A   1      33.263  23.348  22.924  1.00  0.00     0.016 C 
ATOM     14  C   UNL A   1      32.089  24.295  24.988  1.00  0.00     0.005 C 
ATOM     15  C   UNL A   1      34.043  25.536  23.867  1.00  0.00     0.008 C 
ATOM     16  C   UNL A   1      31.061  25.413  24.476  1.00  0.00    -0.023 C 
ATOM     17  C   UNL A   1      33.051  26.527  23.259  1.00  0.00     0.008 C 
ATOM     18  C   UNL A   1      31.812  26.765  24.131  1.00  0.00    -0.024 C 
ATOM     19  C   UNL A   1      30.148  25.883  25.655  1.00  0.00     0.008 C 
ATOM     20  C   UNL A   1      30.173  24.856  23.337  1.00  0.00     0.012 C 
ATOM     21  C   UNL A   1      32.181  27.224  25.576  1.00  0.00    -0.002 C 
ATOM     22  C   UNL A   1      30.884  27.788  23.411  1.00  0.00     0.012 C 
ATOM     23  C   UNL A   1      30.865  27.063  26.347  1.00  0.00     0.005 C 
BRANCH   9  24
ATOM     24  C   UNL A   1      34.150  20.315  24.889  1.00  0.00    -0.028 C 
ATOM     25  C   UNL A   1      33.414  19.193  24.898  1.00  0.00     0.004 C 
ENDBRANCH   9  24
BRANCH  10  26
ATOM     26  O   UNL A   1      32.502  22.237  27.179  1.00  0.00    -0.392 OA
ATOM     27  H   UNL A   1      32.238  23.159  27.327  1.00  0.00     0.210 HD
ENDBRANCH  10  26
BRANCH  21  28
ATOM     28  C   UNL A   1      33.124  28.417  25.873  1.00  0.00    -0.010 C 
ATOM     29  C   UNL A   1      33.261  29.261  24.598  1.00  0.00     0.008 C 
BRANCH  28  30
ATOM     30  C   UNL A   1      34.407  28.174  26.698  1.00  0.00     0.008 C 
BRANCH  30  31
ATOM     31  C   UNL A   1      35.150  29.366  27.310  1.00  0.00     0.027 C 
BRANCH  31  32
ATOM     32  C   UNL A   1      34.263  30.566  27.503  1.00  0.00    -0.028 C 
ATOM     33  C   UNL A   1      34.616  31.816  27.850  1.00  0.00    -0.080 C 
ATOM     34  C   UNL A   1      33.556  32.864  28.059  1.00  0.00     0.039 C 
ATOM     35  C   UNL A   1      36.034  32.259  28.052  1.00  0.00     0.039 C 
ENDBRANCH  31  32
ENDBRANCH  30  31
ENDBRANCH  28  30
ENDBRANCH  21  28
ENDBRANCH   7   8
ENDBRANCH   6   7
ENDBRANCH   3   6
ENDBRANCH   1   2
BRANCH   1  36
ATOM     36  C   UNL A   1      40.791  22.513  26.974  1.00  0.00     0.023 C 
BRANCH  36  37
ATOM     37  C   UNL A   1      40.982  21.135  27.555  1.00  0.00     0.023 C 
BRANCH  37  38
ATOM     38  C   UNL A   1      42.437  20.700  27.544  1.00  0.00     0.116 C 
BRANCH  38  39
ATOM     39  N   UNL A   1      42.839  19.894  26.383  1.00  0.00    -0.352 N 
ATOM     40  C   UNL A   1      43.666  20.252  25.340  1.00  0.00     0.251 C 
ATOM     41  H   UNL A   1      42.471  18.981  26.347  1.00  0.00     0.163 HD
ATOM     42  O   UNL A   1      43.887  19.484  24.408  1.00  0.00    -0.269 OA
BRANCH  40  43
ATOM     43  C   UNL A   1      44.228  21.613  25.363  1.00  0.00     0.039 A 
ATOM     44  C   UNL A   1      43.632  22.608  24.590  1.00  0.00     0.014 A 
ATOM     45  C   UNL A   1      45.158  21.925  26.354  1.00  0.00     0.014 A 
ATOM     46  C   UNL A   1      43.877  23.944  24.906  1.00  0.00     0.010 A 
ATOM     47  C   UNL A   1      45.274  23.244  26.759  1.00  0.00     0.010 A 
ATOM     48  C   UNL A   1      44.638  24.271  26.041  1.00  0.00    -0.014 A 
BRANCH  48  49
ATOM     49  C   UNL A   1      44.810  25.676  26.499  1.00  0.00     0.031 A 
ATOM     50  C   UNL A   1      46.168  26.319  26.371  1.00  0.00     0.074 A 
ATOM     51  C   UNL A   1      43.799  26.328  27.112  1.00  0.00     0.049 A 
ATOM     52  N   UNL A   1      46.589  27.465  26.837  1.00  0.00    -0.248 NA
ATOM     53  C   UNL A   1      47.207  25.537  25.679  1.00  0.00     0.031 C 
ATOM     54  C   UNL A   1      42.461  25.784  27.369  1.00  0.00     0.029 A 
ATOM     55  N   UNL A   1      43.739  27.594  27.640  1.00  0.00    -0.354 N 
ATOM     56  C   UNL A   1      47.948  27.513  26.538  1.00  0.00     0.074 A 
ATOM     57  C   UNL A   1      48.293  26.250  25.927  1.00  0.00     0.031 C 
ATOM     58  C   UNL A   1      41.707  26.724  27.964  1.00  0.00     0.029 A 
ATOM     59  C   UNL A   1      42.512  27.921  28.176  1.00  0.00     0.049 A 
ATOM     60  H   UNL A   1      44.504  28.213  27.636  1.00  0.00     0.167 HD
ATOM     61  C   UNL A   1      48.819  28.533  26.718  1.00  0.00     0.034 A 
ATOM     62  C   UNL A   1      42.092  29.056  28.772  1.00  0.00     0.034 A 
ATOM     63  C   UNL A   1      48.438  29.813  27.251  1.00  0.00     0.049 A 
ATOM     64  C   UNL A   1      43.068  30.200  28.906  1.00  0.00     0.074 A 
ATOM     65  C   UNL A   1      49.208  30.953  27.387  1.00  0.00     0.029 A 
ATOM     66  N   UNL A   1      47.170  30.126  27.724  1.00  0.00    -0.354 N 
ATOM     67  N   UNL A   1      44.333  30.253  28.551  1.00  0.00    -0.248 NA
ATOM     68  C   UNL A   1      42.561  31.441  29.504  1.00  0.00     0.031 C 
ATOM     69  C   UNL A   1      48.421  31.941  27.987  1.00  0.00     0.029 A 
ATOM     70  C   UNL A   1      47.141  31.438  28.166  1.00  0.00     0.049 A 
ATOM     71  H   UNL A   1      46.405  29.508  27.740  1.00  0.00     0.167 HD
ATOM     72  C   UNL A   1      44.756  31.545  28.851  1.00  0.00     0.074 A 
ATOM     73  C   UNL A   1      43.611  32.242  29.397  1.00  0.00     0.031 C 
ATOM     74  C   UNL A   1      45.980  32.110  28.694  1.00  0.00     0.034 A 
BRANCH  61  75
ATOM     75  C   UNL A   1      50.258  28.299  26.330  1.00  0.00     0.023 A 
ATOM     76  C   UNL A   1      50.680  28.352  24.990  1.00  0.00     0.031 A 
ATOM     77  C   UNL A   1      51.216  27.991  27.311  1.00  0.00     0.131 A 
ATOM     78  C   UNL A   1      52.003  28.027  24.660  1.00  0.00     0.055 A 
ATOM     79  C   UNL A   1      52.551  27.751  26.984  1.00  0.00     0.041 A 
ATOM     80  F   UNL A   1      50.866  27.904  28.604  1.00  0.00    -0.206 F 
ATOM     81  C   UNL A   1      52.950  27.754  25.650  1.00  0.00     0.022 A 
BRANCH  78  82
ATOM     82  S   UNL A   1      52.437  27.841  22.909  1.00  0.00     0.124 S 
ATOM     83  O   UNL A   1      53.475  26.813  22.974  1.00  0.00    -0.237 OA
ATOM     84  O   UNL A   1      51.173  27.433  22.310  1.00  0.00    -0.237 OA
ATOM     85  O   UNL A   1      52.908  29.170  22.530  1.00  0.00    -0.744 OA
ENDBRANCH  78  82
ENDBRANCH  61  75
BRANCH  62  86
ATOM     86  C   UNL A   1      40.696  29.191  29.286  1.00  0.00     0.023 A 
ATOM     87  C   UNL A   1      40.424  29.120  30.662  1.00  0.00     0.031 A 
ATOM     88  C   UNL A   1      39.603  29.311  28.409  1.00  0.00     0.131 A 
ATOM     89  C   UNL A   1      39.095  29.099  31.118  1.00  0.00     0.055 A 
ATOM     90  C   UNL A   1      38.285  29.351  28.871  1.00  0.00     0.041 A 
ATOM     91  F   UNL A   1      39.802  29.390  27.083  1.00  0.00    -0.206 F 
ATOM     92  C   UNL A   1      38.025  29.226  30.232  1.00  0.00     0.022 A 
BRANCH  89  93
ATOM     93  S   UNL A   1      38.786  28.783  32.879  1.00  0.00     0.124 S 
ATOM     94  O   UNL A   1      39.000  30.104  33.460  1.00  0.00    -0.237 OA
ATOM     95  O   UNL A   1      37.409  28.303  32.861  1.00  0.00    -0.237 OA
ATOM     96  O   UNL A   1      39.790  27.779  33.224  1.00  0.00    -0.744 OA
ENDBRANCH  89  93
ENDBRANCH  62  86
BRANCH  74  97
ATOM     97  C   UNL A   1      46.116  33.564  29.063  1.00  0.00     0.023 A 
ATOM     98  C   UNL A   1      45.749  34.587  28.176  1.00  0.00     0.031 A 
ATOM     99  C   UNL A   1      46.621  33.925  30.326  1.00  0.00     0.131 A 
ATOM    100  C   UNL A   1      45.943  35.927  28.539  1.00  0.00     0.055 A 
ATOM    101  C   UNL A   1      46.755  35.260  30.705  1.00  0.00     0.041 A 
ATOM    102  F   UNL A   1      46.983  32.984  31.211  1.00  0.00    -0.206 F 
ATOM    103  C   UNL A   1      46.428  36.271  29.806  1.00  0.00     0.022 A 
BRANCH 100 104
ATOM    104  S   UNL A   1      45.630  37.216  27.304  1.00  0.00     0.124 S 
ATOM    105  O   UNL A   1      46.747  37.032  26.383  1.00  0.00    -0.237 OA
ATOM    106  O   UNL A   1      44.314  36.847  26.793  1.00  0.00    -0.237 OA
ATOM    107  O   UNL A   1      45.666  38.454  28.083  1.00  0.00    -0.744 OA
ENDBRANCH 100 104
ENDBRANCH  74  97
ENDBRANCH  48  49
ENDBRANCH  40  43
ENDBRANCH  38  39
ENDBRANCH  37  38
ENDBRANCH  36  37
ENDBRANCH   1  36
TORSDOF 22
ENDMDL
MODEL 3
REMARK VINA RESULT:     -11.5      6.341     10.795
REMARK SMILES C=C[C@@H]1[C@@H](O)C[C@H]2[C@]3(CC[C@]4(C)[C@@H]([C@H](C)CCC=C(C)C)CC[C@]24C)C[C@]13CCC(=O)NCCCCNC(=O)c1ccc(-c2c3nc(c(-c4cc(S(=O)(=O)[O-])ccc4F)c4ccc([nH]4)c(-c4cc(S(=O)(=O)[O-])ccc4F)c4nc(c(-c5cc(S(=O)(=O)[O-])ccc5F)c5ccc2[nH]5)C=C4)C=C3)cc1
REMARK SMILES IDX 33 1 32 2 30 3 31 4 29 6 28 7 27 8 3 9 4 10 6 11 8 12 26 13
REMARK SMILES IDX 7 14 9 15 24 16 10 17 11 18 23 19 25 20 13 21 12 22 22 23
REMARK SMILES IDX 2 24 1 25 5 26 14 28 15 29 16 30 17 31 18 32 19 33 20 34
REMARK SMILES IDX 21 35 34 36 35 37 36 38 37 39 38 40 39 42 40 43 41 44 102 45
REMARK SMILES IDX 42 46 101 47 43 48 44 49 45 50 95 51 46 52 100 53 94 54
REMARK SMILES IDX 96 55 47 56 99 57 93 58 92 59 48 61 80 62 60 63 79 64 61 65
REMARK SMILES IDX 64 66 78 67 97 68 62 69 63 70 77 72 98 73 65 74 49 75 50 76
REMARK SMILES IDX 58 77 51 78 57 79 59 80 56 81 52 82 53 83 54 84 55 85 81 86
REMARK SMILES IDX 82 87 90 88 83 89 89 90 91 91 88 92 84 93 85 94 86 95 87 96
REMARK SMILES IDX 66 97 67 98 75 99 68 100 74 101 76 102 73 103 69 104 70 105
REMARK SMILES IDX 71 106 72 107
REMARK H PARENT 32 5 5 27 37 41 96 60 64 71
REMARK Flexibility Score: inf
ROOT
ATOM      1  C   UNL A   1      34.174  31.599  27.605  1.00  0.00     0.116 C 
ENDROOT
BRANCH   1   2
ATOM      2  N   UNL A   1      34.518  30.307  27.045  1.00  0.00    -0.356 N 
ATOM      3  C   UNL A   1      33.816  29.153  26.888  1.00  0.00     0.220 C 
ATOM      4  O   UNL A   1      34.460  28.159  26.530  1.00  0.00    -0.275 OA
ATOM      5  H   UNL A   1      35.443  30.254  26.713  1.00  0.00     0.163 HD
BRANCH   3   6
ATOM      6  C   UNL A   1      32.297  29.071  26.972  1.00  0.00     0.100 C 
BRANCH   6   7
ATOM      7  C   UNL A   1      31.533  27.745  26.815  1.00  0.00     0.018 C 
BRANCH   7   8
ATOM      8  C   UNL A   1      31.375  27.134  25.407  1.00  0.00    -0.014 C 
ATOM      9  C   UNL A   1      31.432  28.178  24.223  1.00  0.00     0.047 C 
ATOM     10  C   UNL A   1      31.538  27.609  22.777  1.00  0.00     0.122 C 
ATOM     11  C   UNL A   1      31.388  26.112  22.622  1.00  0.00     0.037 C 
ATOM     12  C   UNL A   1      32.017  25.727  25.072  1.00  0.00    -0.019 C 
ATOM     13  C   UNL A   1      30.592  25.847  25.433  1.00  0.00     0.016 C 
ATOM     14  C   UNL A   1      32.296  25.344  23.595  1.00  0.00     0.005 C 
ATOM     15  C   UNL A   1      32.848  24.958  26.077  1.00  0.00     0.008 C 
ATOM     16  C   UNL A   1      32.262  23.762  23.338  1.00  0.00    -0.023 C 
ATOM     17  C   UNL A   1      32.678  23.453  25.870  1.00  0.00     0.008 C 
ATOM     18  C   UNL A   1      33.061  22.983  24.462  1.00  0.00    -0.024 C 
ATOM     19  C   UNL A   1      33.114  23.404  22.076  1.00  0.00     0.008 C 
ATOM     20  C   UNL A   1      30.807  23.277  23.122  1.00  0.00     0.012 C 
ATOM     21  C   UNL A   1      34.514  23.397  24.071  1.00  0.00    -0.002 C 
ATOM     22  C   UNL A   1      32.849  21.442  24.375  1.00  0.00     0.012 C 
ATOM     23  C   UNL A   1      34.560  23.151  22.558  1.00  0.00     0.005 C 
BRANCH   9  24
ATOM     24  C   UNL A   1      30.498  29.390  24.300  1.00  0.00    -0.028 C 
ATOM     25  C   UNL A   1      29.656  29.918  23.398  1.00  0.00     0.004 C 
ENDBRANCH   9  24
BRANCH  10  26
ATOM     26  O   UNL A   1      32.800  27.992  22.201  1.00  0.00    -0.392 OA
ATOM     27  H   UNL A   1      33.394  28.302  22.902  1.00  0.00     0.210 HD
ENDBRANCH  10  26
BRANCH  21  28
ATOM     28  C   UNL A   1      35.750  23.093  24.953  1.00  0.00    -0.010 C 
ATOM     29  C   UNL A   1      36.128  24.367  25.721  1.00  0.00     0.008 C 
BRANCH  28  30
ATOM     30  C   UNL A   1      36.907  22.257  24.364  1.00  0.00     0.008 C 
BRANCH  30  31
ATOM     31  C   UNL A   1      37.730  21.349  25.284  1.00  0.00     0.027 C 
BRANCH  31  32
ATOM     32  C   UNL A   1      38.749  22.109  26.088  1.00  0.00    -0.028 C 
ATOM     33  C   UNL A   1      39.923  21.669  26.577  1.00  0.00    -0.080 C 
ATOM     34  C   UNL A   1      40.772  22.579  27.423  1.00  0.00     0.039 C 
ATOM     35  C   UNL A   1      40.467  20.294  26.332  1.00  0.00     0.039 C 
ENDBRANCH  31  32
ENDBRANCH  30  31
ENDBRANCH  28  30
ENDBRANCH  21  28
ENDBRANCH   7   8
ENDBRANCH   6   7
ENDBRANCH   3   6
ENDBRANCH   1   2
BRANCH   1  36
ATOM     36  C   UNL A   1      35.189  31.989  28.690  1.00  0.00     0.023 C 
BRANCH  36  37
ATOM     37  C   UNL A   1      34.660  32.722  29.897  1.00  0.00     0.023 C 
BRANCH  37  38
ATOM     38  C   UNL A   1      34.473  34.206  29.635  1.00  0.00     0.116 C 
BRANCH  38  39
ATOM     39  N   UNL A   1      33.324  34.820  30.315  1.00  0.00    -0.352 N 
ATOM     40  C   UNL A   1      33.160  35.069  31.661  1.00  0.00     0.251 C 
ATOM     41  H   UNL A   1      32.575  35.087  29.734  1.00  0.00     0.163 HD
ATOM     42  O   UNL A   1      32.123  35.556  32.099  1.00  0.00    -0.269 OA
BRANCH  40  43
ATOM     43  C   UNL A   1      34.261  34.675  32.556  1.00  0.00     0.039 A 
ATOM     44  C   UNL A   1      34.163  33.479  33.268  1.00  0.00     0.014 A 
ATOM     45  C   UNL A   1      35.469  35.363  32.458  1.00  0.00     0.014 A 
ATOM     46  C   UNL A   1      35.326  32.902  33.777  1.00  0.00     0.010 A 
ATOM     47  C   UNL A   1      36.633  34.709  32.829  1.00  0.00     0.010 A 
ATOM     48  C   UNL A   1      36.578  33.473  33.494  1.00  0.00    -0.014 A 
BRANCH  48  49
ATOM     49  C   UNL A   1      37.854  32.820  33.895  1.00  0.00     0.031 A 
ATOM     50  C   UNL A   1      38.410  31.722  33.025  1.00  0.00     0.074 A 
ATOM     51  C   UNL A   1      38.448  33.133  35.066  1.00  0.00     0.049 A 
ATOM     52  N   UNL A   1      39.411  30.913  33.249  1.00  0.00    -0.248 NA
ATOM     53  C   UNL A   1      37.701  31.457  31.761  1.00  0.00     0.031 C 
ATOM     54  C   UNL A   1      37.963  34.122  36.035  1.00  0.00     0.029 A 
ATOM     55  N   UNL A   1      39.591  32.643  35.650  1.00  0.00    -0.354 N 
ATOM     56  C   UNL A   1      39.417  30.019  32.183  1.00  0.00     0.074 A 
ATOM     57  C   UNL A   1      38.273  30.334  31.359  1.00  0.00     0.031 C 
ATOM     58  C   UNL A   1      38.824  34.194  37.064  1.00  0.00     0.029 A 
ATOM     59  C   UNL A   1      39.897  33.227  36.860  1.00  0.00     0.049 A 
ATOM     60  H   UNL A   1      40.142  31.938  35.240  1.00  0.00     0.167 HD
ATOM     61  C   UNL A   1      40.318  29.052  31.894  1.00  0.00     0.034 A 
ATOM     62  C   UNL A   1      40.924  33.002  37.704  1.00  0.00     0.034 A 
ATOM     63  C   UNL A   1      41.497  28.808  32.681  1.00  0.00     0.049 A 
ATOM     64  C   UNL A   1      41.949  31.959  37.327  1.00  0.00     0.074 A 
ATOM     65  C   UNL A   1      42.531  27.925  32.432  1.00  0.00     0.029 A 
ATOM     66  N   UNL A   1      41.805  29.465  33.865  1.00  0.00    -0.354 N 
ATOM     67  N   UNL A   1      41.976  31.171  36.276  1.00  0.00    -0.248 NA
ATOM     68  C   UNL A   1      43.086  31.782  38.239  1.00  0.00     0.031 C 
ATOM     69  C   UNL A   1      43.440  28.011  33.490  1.00  0.00     0.029 A 
ATOM     70  C   UNL A   1      43.006  28.994  34.367  1.00  0.00     0.049 A 
ATOM     71  H   UNL A   1      41.252  30.161  34.285  1.00  0.00     0.167 HD
ATOM     72  C   UNL A   1      43.153  30.434  36.385  1.00  0.00     0.074 A 
ATOM     73  C   UNL A   1      43.814  30.884  37.592  1.00  0.00     0.031 C 
ATOM     74  C   UNL A   1      43.647  29.471  35.567  1.00  0.00     0.034 A 
BRANCH  61  75
ATOM     75  C   UNL A   1      40.059  28.198  30.677  1.00  0.00     0.023 A 
ATOM     76  C   UNL A   1      40.756  28.396  29.472  1.00  0.00     0.031 A 
ATOM     77  C   UNL A   1      39.082  27.188  30.715  1.00  0.00     0.131 A 
ATOM     78  C   UNL A   1      40.413  27.651  28.335  1.00  0.00     0.055 A 
ATOM     79  C   UNL A   1      38.805  26.392  29.602  1.00  0.00     0.041 A 
ATOM     80  F   UNL A   1      38.369  26.968  31.832  1.00  0.00    -0.206 F 
ATOM     81  C   UNL A   1      39.462  26.630  28.398  1.00  0.00     0.022 A 
BRANCH  78  82
ATOM     82  S   UNL A   1      41.138  28.122  26.741  1.00  0.00     0.124 S 
ATOM     83  O   UNL A   1      40.980  26.889  25.973  1.00  0.00    -0.237 OA
ATOM     84  O   UNL A   1      40.299  29.241  26.329  1.00  0.00    -0.237 OA
ATOM     85  O   UNL A   1      42.516  28.466  27.080  1.00  0.00    -0.744 OA
ENDBRANCH  78  82
ENDBRANCH  61  75
BRANCH  62  86
ATOM     86  C   UNL A   1      41.059  33.766  38.982  1.00  0.00     0.023 A 
ATOM     87  C   UNL A   1      40.420  33.329  40.154  1.00  0.00     0.031 A 
ATOM     88  C   UNL A   1      41.760  34.984  39.034  1.00  0.00     0.131 A 
ATOM     89  C   UNL A   1      40.434  34.133  41.306  1.00  0.00     0.055 A 
ATOM     90  C   UNL A   1      41.822  35.752  40.200  1.00  0.00     0.041 A 
ATOM     91  F   UNL A   1      42.397  35.448  37.947  1.00  0.00    -0.206 F 
ATOM     92  C   UNL A   1      41.141  35.336  41.340  1.00  0.00     0.022 A 
BRANCH  89  93
ATOM     93  S   UNL A   1      39.413  33.638  42.722  1.00  0.00     0.124 S 
ATOM     94  O   UNL A   1      38.744  34.889  43.058  1.00  0.00    -0.237 OA
ATOM     95  O   UNL A   1      38.574  32.596  42.139  1.00  0.00    -0.237 OA
ATOM     96  O   UNL A   1      40.393  33.171  43.700  1.00  0.00    -0.744 OA
ENDBRANCH  89  93
ENDBRANCH  62  86
BRANCH  74  97
ATOM     97  C   UNL A   1      44.991  28.890  35.926  1.00  0.00     0.023 A 
ATOM     98  C   UNL A   1      45.106  27.729  36.705  1.00  0.00     0.031 A 
ATOM     99  C   UNL A   1      46.169  29.512  35.476  1.00  0.00     0.131 A 
ATOM    100  C   UNL A   1      46.376  27.253  37.060  1.00  0.00     0.055 A 
ATOM    101  C   UNL A   1      47.428  29.000  35.782  1.00  0.00     0.041 A 
ATOM    102  F   UNL A   1      46.111  30.624  34.726  1.00  0.00    -0.206 F 
ATOM    103  C   UNL A   1      47.539  27.871  36.589  1.00  0.00     0.022 A 
BRANCH 100 104
ATOM    104  S   UNL A   1      46.490  25.860  38.215  1.00  0.00     0.124 S 
ATOM    105  O   UNL A   1      47.065  24.815  37.375  1.00  0.00    -0.237 OA
ATOM    106  O   UNL A   1      47.360  26.391  39.260  1.00  0.00    -0.237 OA
ATOM    107  O   UNL A   1      45.103  25.636  38.620  1.00  0.00    -0.744 OA
ENDBRANCH 100 104
ENDBRANCH  74  97
ENDBRANCH  48  49
ENDBRANCH  40  43
ENDBRANCH  38  39
ENDBRANCH  37  38
ENDBRANCH  36  37
ENDBRANCH   1  36
TORSDOF 22
ENDMDL
