MODEL 1
REMARK VINA RESULT:     -12.3      0.000      0.000
REMARK SMILES Cc1ccc2c(c1)C=C(C(=O)NCCCCNC(=O)c1ccc(-c3c4nc(c(-c5cc(S(=O)(=O)[O-])ccc5F)c5ccc([nH]5)c(-c5cc(S(=O)(=O)[O-])ccc5F)c5nc(c(-c6cc(S(=O)(=O)[O-])ccc6F)c6ccc3[nH]6)C=C5)C=C4)cc1)[C@@H](C(F)(F)F)O2
REMARK SMILES IDX 15 1 14 2 13 3 12 4 10 5 11 6 9 8 1 9 2 10 3 11 7 12 4 13
REMARK SMILES IDX 6 14 5 15 8 16 88 17 83 18 84 19 85 20 86 21 87 22 16 23
REMARK SMILES IDX 17 24 18 25 19 27 20 28 21 29 82 30 22 31 81 32 23 33 24 34
REMARK SMILES IDX 25 35 75 36 26 37 80 38 74 39 76 40 27 41 79 42 73 43 72 44
REMARK SMILES IDX 28 46 60 47 40 48 59 49 41 50 44 51 58 52 77 53 42 54 43 55
REMARK SMILES IDX 57 57 78 58 45 59 29 60 30 61 38 62 31 63 37 64 39 65 36 66
REMARK SMILES IDX 32 67 33 68 34 69 35 70 61 71 62 72 70 73 63 74 69 75 71 76
REMARK SMILES IDX 68 77 64 78 65 79 66 80 67 81 46 82 47 83 55 84 48 85 54 86
REMARK SMILES IDX 56 87 53 88 49 89 50 90 51 91 52 92
REMARK H PARENT 12 7 17 26 76 45 44 56
REMARK Flexibility Score: inf
ROOT
ATOM      1  C   UNL A   1      31.368  31.871  26.792  1.00  0.00     0.023 C 
ENDROOT
BRANCH   1   2
ATOM      2  C   UNL A   1      31.817  30.415  26.932  1.00  0.00     0.023 C 
BRANCH   2   3
ATOM      3  C   UNL A   1      33.289  30.174  26.606  1.00  0.00     0.116 C 
BRANCH   3   4
ATOM      4  N   UNL A   1      33.477  29.689  25.250  1.00  0.00    -0.352 N 
ATOM      5  C   UNL A   1      33.344  28.513  24.594  1.00  0.00     0.251 C 
ATOM      6  O   UNL A   1      33.621  28.547  23.391  1.00  0.00    -0.270 OA
ATOM      7  H   UNL A   1      33.783  30.407  24.649  1.00  0.00     0.163 HD
BRANCH   5   8
ATOM      8  C   UNL A   1      32.900  27.225  25.208  1.00  0.00     0.067 C 
ATOM      9  C   UNL A   1      34.982  21.496  26.321  1.00  0.00     0.044 C 
ATOM     10  C   UNL A   1      34.043  22.664  26.386  1.00  0.00    -0.050 A 
ATOM     11  C   UNL A   1      32.805  22.529  27.026  1.00  0.00     0.007 A 
ATOM     12  C   UNL A   1      34.382  23.893  25.802  1.00  0.00     0.015 A 
ATOM     13  C   UNL A   1      31.922  23.607  27.088  1.00  0.00     0.047 A 
ATOM     14  C   UNL A   1      33.496  24.975  25.858  1.00  0.00     0.017 A 
ATOM     15  C   UNL A   1      32.266  24.820  26.497  1.00  0.00     0.128 A 
ATOM     16  C   UNL A   1      33.848  26.273  25.299  1.00  0.00     0.025 C 
ATOM     17  O   UNL A   1      31.367  25.841  26.620  1.00  0.00    -0.475 OA
ATOM     18  C   UNL A   1      31.498  26.934  25.666  1.00  0.00     0.314 C 
BRANCH  18  19
ATOM     19  C   UNL A   1      30.530  26.692  24.493  1.00  0.00     0.429 C 
ATOM     20  F   UNL A   1      31.028  25.746  23.657  1.00  0.00    -0.167 F 
ATOM     21  F   UNL A   1      29.319  26.246  24.898  1.00  0.00    -0.167 F 
ATOM     22  F   UNL A   1      30.314  27.806  23.757  1.00  0.00    -0.167 F 
ENDBRANCH  18  19
ENDBRANCH   5   8
ENDBRANCH   3   4
ENDBRANCH   2   3
ENDBRANCH   1   2
BRANCH   1  23
ATOM     23  C   UNL A   1      32.492  32.904  26.726  1.00  0.00     0.116 C 
BRANCH  23  24
ATOM     24  N   UNL A   1      32.329  34.028  27.639  1.00  0.00    -0.352 N 
ATOM     25  C   UNL A   1      33.164  34.398  28.673  1.00  0.00     0.251 C 
ATOM     26  H   UNL A   1      31.532  34.588  27.503  1.00  0.00     0.163 HD
ATOM     27  O   UNL A   1      32.873  35.334  29.407  1.00  0.00    -0.269 OA
BRANCH  25  28
ATOM     28  C   UNL A   1      34.383  33.597  28.909  1.00  0.00     0.039 A 
ATOM     29  C   UNL A   1      34.280  32.325  29.474  1.00  0.00     0.014 A 
ATOM     30  C   UNL A   1      35.632  34.179  28.684  1.00  0.00     0.014 A 
ATOM     31  C   UNL A   1      35.419  31.716  29.986  1.00  0.00     0.010 A 
ATOM     32  C   UNL A   1      36.784  33.526  29.129  1.00  0.00     0.010 A 
ATOM     33  C   UNL A   1      36.679  32.322  29.842  1.00  0.00    -0.014 A 
BRANCH  33  34
ATOM     34  C   UNL A   1      37.865  31.685  30.471  1.00  0.00     0.031 A 
ATOM     35  C   UNL A   1      38.236  31.988  31.897  1.00  0.00     0.074 A 
ATOM     36  C   UNL A   1      38.565  30.774  29.768  1.00  0.00     0.049 A 
ATOM     37  N   UNL A   1      39.204  31.483  32.620  1.00  0.00    -0.248 NA
ATOM     38  C   UNL A   1      37.419  32.984  32.609  1.00  0.00     0.031 C 
ATOM     39  C   UNL A   1      38.284  30.397  28.384  1.00  0.00     0.029 A 
ATOM     40  N   UNL A   1      39.627  29.981  30.123  1.00  0.00    -0.354 N 
ATOM     41  C   UNL A   1      39.126  32.111  33.858  1.00  0.00     0.074 A 
ATOM     42  C   UNL A   1      38.034  33.055  33.782  1.00  0.00     0.031 C 
ATOM     43  C   UNL A   1      39.107  29.404  28.025  1.00  0.00     0.029 A 
ATOM     44  C   UNL A   1      40.024  29.120  29.128  1.00  0.00     0.049 A 
ATOM     45  H   UNL A   1      40.062  30.024  31.005  1.00  0.00     0.167 HD
ATOM     46  C   UNL A   1      39.886  31.905  34.960  1.00  0.00     0.034 A 
ATOM     47  C   UNL A   1      41.016  28.206  29.098  1.00  0.00     0.034 A 
ATOM     48  C   UNL A   1      40.957  30.943  35.028  1.00  0.00     0.049 A 
ATOM     49  C   UNL A   1      41.860  28.011  30.328  1.00  0.00     0.074 A 
ATOM     50  C   UNL A   1      41.771  30.645  36.107  1.00  0.00     0.029 A 
ATOM     51  N   UNL A   1      41.358  30.118  33.987  1.00  0.00    -0.354 N 
ATOM     52  N   UNL A   1      41.751  28.591  31.500  1.00  0.00    -0.248 NA
ATOM     53  C   UNL A   1      42.961  27.043  30.238  1.00  0.00     0.031 C 
ATOM     54  C   UNL A   1      42.693  29.677  35.705  1.00  0.00     0.029 A 
ATOM     55  C   UNL A   1      42.422  29.328  34.392  1.00  0.00     0.049 A 
ATOM     56  H   UNL A   1      40.948  30.098  33.092  1.00  0.00     0.167 HD
ATOM     57  C   UNL A   1      42.765  28.056  32.289  1.00  0.00     0.074 A 
ATOM     58  C   UNL A   1      43.455  27.079  31.470  1.00  0.00     0.031 C 
ATOM     59  C   UNL A   1      43.099  28.354  33.569  1.00  0.00     0.034 A 
BRANCH  46  60
ATOM     60  C   UNL A   1      39.598  32.716  36.197  1.00  0.00     0.023 A 
ATOM     61  C   UNL A   1      38.683  32.240  37.157  1.00  0.00     0.031 A 
ATOM     62  C   UNL A   1      40.132  34.006  36.369  1.00  0.00     0.131 A 
ATOM     63  C   UNL A   1      38.311  33.060  38.230  1.00  0.00     0.055 A 
ATOM     64  C   UNL A   1      39.782  34.806  37.458  1.00  0.00     0.041 A 
ATOM     65  F   UNL A   1      41.011  34.502  35.484  1.00  0.00    -0.206 F 
ATOM     66  C   UNL A   1      38.859  34.337  38.388  1.00  0.00     0.022 A 
BRANCH  63  67
ATOM     67  S   UNL A   1      37.064  32.525  39.433  1.00  0.00     0.124 S 
ATOM     68  O   UNL A   1      35.826  32.696  38.677  1.00  0.00    -0.237 OA
ATOM     69  O   UNL A   1      37.455  31.140  39.685  1.00  0.00    -0.237 OA
ATOM     70  O   UNL A   1      37.241  33.443  40.553  1.00  0.00    -0.744 OA
ENDBRANCH  63  67
ENDBRANCH  46  60
BRANCH  47  71
ATOM     71  C   UNL A   1      41.207  27.391  27.864  1.00  0.00     0.023 A 
ATOM     72  C   UNL A   1      40.836  26.034  27.831  1.00  0.00     0.031 A 
ATOM     73  C   UNL A   1      41.886  27.918  26.753  1.00  0.00     0.131 A 
ATOM     74  C   UNL A   1      41.220  25.232  26.751  1.00  0.00     0.055 A 
ATOM     75  C   UNL A   1      42.202  27.131  25.644  1.00  0.00     0.041 A 
ATOM     76  F   UNL A   1      42.272  29.202  26.744  1.00  0.00    -0.206 F 
ATOM     77  C   UNL A   1      41.888  25.774  25.649  1.00  0.00     0.022 A 
BRANCH  74  78
ATOM     78  S   UNL A   1      41.009  23.430  26.813  1.00  0.00     0.124 S 
ATOM     79  O   UNL A   1      41.916  22.981  25.762  1.00  0.00    -0.237 OA
ATOM     80  O   UNL A   1      41.426  23.127  28.180  1.00  0.00    -0.237 OA
ATOM     81  O   UNL A   1      39.588  23.241  26.544  1.00  0.00    -0.744 OA
ENDBRANCH  74  78
ENDBRANCH  47  71
BRANCH  59  82
ATOM     82  C   UNL A   1      44.274  27.638  34.188  1.00  0.00     0.023 A 
ATOM     83  C   UNL A   1      44.084  26.419  34.862  1.00  0.00     0.031 A 
ATOM     84  C   UNL A   1      45.545  28.236  34.234  1.00  0.00     0.131 A 
ATOM     85  C   UNL A   1      45.141  25.852  35.584  1.00  0.00     0.055 A 
ATOM     86  C   UNL A   1      46.606  27.647  34.922  1.00  0.00     0.041 A 
ATOM     87  F   UNL A   1      45.771  29.406  33.612  1.00  0.00    -0.206 F 
ATOM     88  C   UNL A   1      46.403  26.456  35.613  1.00  0.00     0.022 A 
BRANCH  85  89
ATOM     89  S   UNL A   1      44.900  24.355  36.581  1.00  0.00     0.124 S 
ATOM     90  O   UNL A   1      43.915  23.622  35.789  1.00  0.00    -0.237 OA
ATOM     91  O   UNL A   1      46.241  23.777  36.599  1.00  0.00    -0.237 OA
ATOM     92  O   UNL A   1      44.417  24.858  37.862  1.00  0.00    -0.744 OA
ENDBRANCH  85  89
ENDBRANCH  59  82
ENDBRANCH  33  34
ENDBRANCH  25  28
ENDBRANCH  23  24
ENDBRANCH   1  23
TORSDOF 15
ENDMDL
MODEL 2
REMARK VINA RESULT:     -12.2      2.063      2.843
REMARK SMILES Cc1ccc2c(c1)C=C(C(=O)NCCCCNC(=O)c1ccc(-c3c4nc(c(-c5cc(S(=O)(=O)[O-])ccc5F)c5ccc([nH]5)c(-c5cc(S(=O)(=O)[O-])ccc5F)c5nc(c(-c6cc(S(=O)(=O)[O-])ccc6F)c6ccc3[nH]6)C=C5)C=C4)cc1)[C@@H](C(F)(F)F)O2
REMARK SMILES IDX 15 1 14 2 13 3 12 4 10 5 11 6 9 8 1 9 2 10 3 11 7 12 4 13
REMARK SMILES IDX 6 14 5 15 8 16 88 17 83 18 84 19 85 20 86 21 87 22 16 23
REMARK SMILES IDX 17 24 18 25 19 27 20 28 21 29 82 30 22 31 81 32 23 33 24 34
REMARK SMILES IDX 25 35 75 36 26 37 80 38 74 39 76 40 27 41 79 42 73 43 72 44
REMARK SMILES IDX 28 46 60 47 40 48 59 49 41 50 44 51 58 52 77 53 42 54 43 55
REMARK SMILES IDX 57 57 78 58 45 59 29 60 30 61 38 62 31 63 37 64 39 65 36 66
REMARK SMILES IDX 32 67 33 68 34 69 35 70 61 71 62 72 70 73 63 74 69 75 71 76
REMARK SMILES IDX 68 77 64 78 65 79 66 80 67 81 46 82 47 83 55 84 48 85 54 86
REMARK SMILES IDX 56 87 53 88 49 89 50 90 51 91 52 92
REMARK H PARENT 12 7 17 26 76 45 44 56
REMARK Flexibility Score: inf
ROOT
ATOM      1  C   UNL A   1      31.739  28.799  26.981  1.00  0.00     0.023 C 
ENDROOT
BRANCH   1   2
ATOM      2  C   UNL A   1      32.053  27.335  26.664  1.00  0.00     0.023 C 
BRANCH   2   3
ATOM      3  C   UNL A   1      30.974  26.619  25.856  1.00  0.00     0.116 C 
BRANCH   3   4
ATOM      4  N   UNL A   1      30.540  25.388  26.494  1.00  0.00    -0.352 N 
ATOM      5  C   UNL A   1      30.971  24.108  26.567  1.00  0.00     0.251 C 
ATOM      6  O   UNL A   1      30.270  23.354  27.249  1.00  0.00    -0.270 OA
ATOM      7  H   UNL A   1      29.712  25.521  27.011  1.00  0.00     0.163 HD
BRANCH   5   8
ATOM      8  C   UNL A   1      32.194  23.567  25.900  1.00  0.00     0.067 C 
ATOM      9  C   UNL A   1      38.366  24.077  26.100  1.00  0.00     0.044 C 
ATOM     10  C   UNL A   1      37.036  23.523  25.682  1.00  0.00    -0.050 A 
ATOM     11  C   UNL A   1      36.974  22.517  24.710  1.00  0.00     0.007 A 
ATOM     12  C   UNL A   1      35.845  24.008  26.243  1.00  0.00     0.015 A 
ATOM     13  C   UNL A   1      35.742  21.997  24.311  1.00  0.00     0.047 A 
ATOM     14  C   UNL A   1      34.609  23.492  25.840  1.00  0.00     0.017 A 
ATOM     15  C   UNL A   1      34.567  22.493  24.870  1.00  0.00     0.128 A 
ATOM     16  C   UNL A   1      33.364  23.950  26.445  1.00  0.00     0.025 C 
ATOM     17  O   UNL A   1      33.399  21.920  24.454  1.00  0.00    -0.475 OA
ATOM     18  C   UNL A   1      32.186  22.693  24.676  1.00  0.00     0.314 C 
BRANCH  18  19
ATOM     19  C   UNL A   1      31.849  23.475  23.393  1.00  0.00     0.429 C 
ATOM     20  F   UNL A   1      30.514  23.428  23.148  1.00  0.00    -0.167 F 
ATOM     21  F   UNL A   1      32.176  24.785  23.478  1.00  0.00    -0.167 F 
ATOM     22  F   UNL A   1      32.475  22.982  22.301  1.00  0.00    -0.167 F 
ENDBRANCH  18  19
ENDBRANCH   5   8
ENDBRANCH   3   4
ENDBRANCH   2   3
ENDBRANCH   1   2
BRANCH   1  23
ATOM     23  C   UNL A   1      32.650  29.828  26.314  1.00  0.00     0.116 C 
BRANCH  23  24
ATOM     24  N   UNL A   1      32.383  31.208  26.701  1.00  0.00    -0.352 N 
ATOM     25  C   UNL A   1      33.223  32.067  27.378  1.00  0.00     0.251 C 
ATOM     26  H   UNL A   1      31.502  31.567  26.451  1.00  0.00     0.163 HD
ATOM     27  O   UNL A   1      32.845  33.189  27.697  1.00  0.00    -0.269 OA
BRANCH  25  28
ATOM     28  C   UNL A   1      34.563  31.579  27.762  1.00  0.00     0.039 A 
ATOM     29  C   UNL A   1      34.750  30.229  28.064  1.00  0.00     0.014 A 
ATOM     30  C   UNL A   1      35.595  32.501  27.946  1.00  0.00     0.014 A 
ATOM     31  C   UNL A   1      35.906  29.835  28.726  1.00  0.00     0.010 A 
ATOM     32  C   UNL A   1      36.789  32.084  28.539  1.00  0.00     0.010 A 
ATOM     33  C   UNL A   1      36.927  30.764  28.993  1.00  0.00    -0.014 A 
BRANCH  33  34
ATOM     34  C   UNL A   1      38.115  30.330  29.773  1.00  0.00     0.031 A 
ATOM     35  C   UNL A   1      38.313  30.786  31.193  1.00  0.00     0.074 A 
ATOM     36  C   UNL A   1      38.980  29.462  29.215  1.00  0.00     0.049 A 
ATOM     37  N   UNL A   1      39.261  30.464  32.036  1.00  0.00    -0.248 NA
ATOM     38  C   UNL A   1      37.322  31.726  31.743  1.00  0.00     0.031 C 
ATOM     39  C   UNL A   1      38.876  28.947  27.850  1.00  0.00     0.029 A 
ATOM     40  N   UNL A   1      40.089  28.837  29.726  1.00  0.00    -0.354 N 
ATOM     41  C   UNL A   1      38.995  31.171  33.203  1.00  0.00     0.074 A 
ATOM     42  C   UNL A   1      37.811  31.964  32.953  1.00  0.00     0.031 C 
ATOM     43  C   UNL A   1      39.840  28.039  27.651  1.00  0.00     0.029 A 
ATOM     44  C   UNL A   1      40.676  27.957  28.847  1.00  0.00     0.049 A 
ATOM     45  H   UNL A   1      40.432  29.002  30.634  1.00  0.00     0.167 HD
ATOM     46  C   UNL A   1      39.667  31.147  34.379  1.00  0.00     0.034 A 
ATOM     47  C   UNL A   1      41.766  27.174  28.981  1.00  0.00     0.034 A 
ATOM     48  C   UNL A   1      40.831  30.333  34.621  1.00  0.00     0.049 A 
ATOM     49  C   UNL A   1      42.507  27.181  30.290  1.00  0.00     0.074 A 
ATOM     50  C   UNL A   1      41.569  30.224  35.786  1.00  0.00     0.029 A 
ATOM     51  N   UNL A   1      41.422  29.487  33.694  1.00  0.00    -0.354 N 
ATOM     52  N   UNL A   1      42.223  27.833  31.393  1.00  0.00    -0.248 NA
ATOM     53  C   UNL A   1      43.718  26.354  30.378  1.00  0.00     0.031 C 
ATOM     54  C   UNL A   1      42.633  29.349  35.550  1.00  0.00     0.029 A 
ATOM     55  C   UNL A   1      42.528  28.868  34.255  1.00  0.00     0.049 A 
ATOM     56  H   UNL A   1      41.103  29.346  32.772  1.00  0.00     0.167 HD
ATOM     57  C   UNL A   1      43.213  27.490  32.308  1.00  0.00     0.074 A 
ATOM     58  C   UNL A   1      44.087  26.546  31.639  1.00  0.00     0.031 C 
ATOM     59  C   UNL A   1      43.389  27.926  33.580  1.00  0.00     0.034 A 
BRANCH  46  60
ATOM     60  C   UNL A   1      39.171  32.010  35.511  1.00  0.00     0.023 A 
ATOM     61  C   UNL A   1      39.662  33.321  35.667  1.00  0.00     0.031 A 
ATOM     62  C   UNL A   1      38.310  31.500  36.499  1.00  0.00     0.131 A 
ATOM     63  C   UNL A   1      39.309  34.066  36.799  1.00  0.00     0.055 A 
ATOM     64  C   UNL A   1      37.935  32.259  37.609  1.00  0.00     0.041 A 
ATOM     65  F   UNL A   1      37.813  30.257  36.392  1.00  0.00    -0.206 F 
ATOM     66  C   UNL A   1      38.444  33.544  37.767  1.00  0.00     0.022 A 
BRANCH  63  67
ATOM     67  S   UNL A   1      39.995  35.720  37.088  1.00  0.00     0.124 S 
ATOM     68  O   UNL A   1      39.279  36.134  38.292  1.00  0.00    -0.237 OA
ATOM     69  O   UNL A   1      41.415  35.434  37.274  1.00  0.00    -0.237 OA
ATOM     70  O   UNL A   1      39.653  36.458  35.877  1.00  0.00    -0.744 OA
ENDBRANCH  63  67
ENDBRANCH  46  60
BRANCH  47  71
ATOM     71  C   UNL A   1      42.166  26.296  27.844  1.00  0.00     0.023 A 
ATOM     72  C   UNL A   1      41.736  24.957  27.781  1.00  0.00     0.031 A 
ATOM     73  C   UNL A   1      43.090  26.740  26.885  1.00  0.00     0.131 A 
ATOM     74  C   UNL A   1      42.294  24.090  26.834  1.00  0.00     0.055 A 
ATOM     75  C   UNL A   1      43.588  25.891  25.895  1.00  0.00     0.041 A 
ATOM     76  F   UNL A   1      43.539  28.004  26.912  1.00  0.00    -0.206 F 
ATOM     77  C   UNL A   1      43.206  24.551  25.880  1.00  0.00     0.022 A 
BRANCH  74  78
ATOM     78  S   UNL A   1      41.976  22.305  26.912  1.00  0.00     0.124 S 
ATOM     79  O   UNL A   1      43.052  21.842  27.781  1.00  0.00    -0.237 OA
ATOM     80  O   UNL A   1      40.635  22.265  27.490  1.00  0.00    -0.237 OA
ATOM     81  O   UNL A   1      42.061  21.880  25.519  1.00  0.00    -0.744 OA
ENDBRANCH  74  78
ENDBRANCH  47  71
BRANCH  59  82
ATOM     82  C   UNL A   1      44.576  27.411  34.356  1.00  0.00     0.023 A 
ATOM     83  C   UNL A   1      44.444  26.283  35.185  1.00  0.00     0.031 A 
ATOM     84  C   UNL A   1      45.787  28.124  34.385  1.00  0.00     0.131 A 
ATOM     85  C   UNL A   1      45.495  25.919  36.036  1.00  0.00     0.055 A 
ATOM     86  C   UNL A   1      46.846  27.734  35.205  1.00  0.00     0.041 A 
ATOM     87  F   UNL A   1      45.955  29.213  33.617  1.00  0.00    -0.206 F 
ATOM     88  C   UNL A   1      46.698  26.635  36.046  1.00  0.00     0.022 A 
BRANCH  85  89
ATOM     89  S   UNL A   1      45.314  24.556  37.220  1.00  0.00     0.124 S 
ATOM     90  O   UNL A   1      46.589  24.603  37.931  1.00  0.00    -0.237 OA
ATOM     91  O   UNL A   1      44.151  24.976  37.997  1.00  0.00    -0.237 OA
ATOM     92  O   UNL A   1      45.114  23.382  36.378  1.00  0.00    -0.744 OA
ENDBRANCH  85  89
ENDBRANCH  59  82
ENDBRANCH  33  34
ENDBRANCH  25  28
ENDBRANCH  23  24
ENDBRANCH   1  23
TORSDOF 15
ENDMDL
MODEL 3
REMARK VINA RESULT:     -12.2      5.427     10.644
REMARK SMILES Cc1ccc2c(c1)C=C(C(=O)NCCCCNC(=O)c1ccc(-c3c4nc(c(-c5cc(S(=O)(=O)[O-])ccc5F)c5ccc([nH]5)c(-c5cc(S(=O)(=O)[O-])ccc5F)c5nc(c(-c6cc(S(=O)(=O)[O-])ccc6F)c6ccc3[nH]6)C=C5)C=C4)cc1)[C@@H](C(F)(F)F)O2
REMARK SMILES IDX 15 1 14 2 13 3 12 4 10 5 11 6 9 8 1 9 2 10 3 11 7 12 4 13
REMARK SMILES IDX 6 14 5 15 8 16 88 17 83 18 84 19 85 20 86 21 87 22 16 23
REMARK SMILES IDX 17 24 18 25 19 27 20 28 21 29 82 30 22 31 81 32 23 33 24 34
REMARK SMILES IDX 25 35 75 36 26 37 80 38 74 39 76 40 27 41 79 42 73 43 72 44
REMARK SMILES IDX 28 46 60 47 40 48 59 49 41 50 44 51 58 52 77 53 42 54 43 55
REMARK SMILES IDX 57 57 78 58 45 59 29 60 30 61 38 62 31 63 37 64 39 65 36 66
REMARK SMILES IDX 32 67 33 68 34 69 35 70 61 71 62 72 70 73 63 74 69 75 71 76
REMARK SMILES IDX 68 77 64 78 65 79 66 80 67 81 46 82 47 83 55 84 48 85 54 86
REMARK SMILES IDX 56 87 53 88 49 89 50 90 51 91 52 92
REMARK H PARENT 12 7 17 26 76 45 44 56
REMARK Flexibility Score: inf
ROOT
ATOM      1  C   UNL A   1      35.968  21.704  25.766  1.00  0.00     0.023 C 
ENDROOT
BRANCH   1   2
ATOM      2  C   UNL A   1      35.354  23.050  26.156  1.00  0.00     0.023 C 
BRANCH   2   3
ATOM      3  C   UNL A   1      34.199  22.952  27.150  1.00  0.00     0.116 C 
BRANCH   3   4
ATOM      4  N   UNL A   1      32.992  23.589  26.652  1.00  0.00    -0.352 N 
ATOM      5  C   UNL A   1      32.115  23.389  25.641  1.00  0.00     0.251 C 
ATOM      6  O   UNL A   1      31.189  24.204  25.578  1.00  0.00    -0.270 OA
ATOM      7  H   UNL A   1      32.748  24.374  27.193  1.00  0.00     0.163 HD
BRANCH   5   8
ATOM      8  C   UNL A   1      32.192  22.288  24.633  1.00  0.00     0.067 C 
ATOM      9  C   UNL A   1      33.524  16.248  24.248  1.00  0.00     0.044 C 
ATOM     10  C   UNL A   1      33.049  17.593  23.783  1.00  0.00    -0.050 A 
ATOM     11  C   UNL A   1      32.677  17.777  22.446  1.00  0.00     0.007 A 
ATOM     12  C   UNL A   1      32.984  18.680  24.668  1.00  0.00     0.015 A 
ATOM     13  C   UNL A   1      32.238  19.024  22.001  1.00  0.00     0.047 A 
ATOM     14  C   UNL A   1      32.550  19.933  24.223  1.00  0.00     0.017 A 
ATOM     15  C   UNL A   1      32.186  20.097  22.887  1.00  0.00     0.128 A 
ATOM     16  C   UNL A   1      32.431  21.062  25.136  1.00  0.00     0.025 C 
ATOM     17  O   UNL A   1      31.721  21.282  22.392  1.00  0.00    -0.475 OA
ATOM     18  C   UNL A   1      32.068  22.478  23.147  1.00  0.00     0.314 C 
BRANCH  18  19
ATOM     19  C   UNL A   1      33.324  23.115  22.524  1.00  0.00     0.429 C 
ATOM     20  F   UNL A   1      33.316  22.956  21.176  1.00  0.00    -0.167 F 
ATOM     21  F   UNL A   1      33.402  24.447  22.753  1.00  0.00    -0.167 F 
ATOM     22  F   UNL A   1      34.471  22.568  22.987  1.00  0.00    -0.167 F 
ENDBRANCH  18  19
ENDBRANCH   5   8
ENDBRANCH   3   4
ENDBRANCH   2   3
ENDBRANCH   1   2
BRANCH   1  23
ATOM     23  C   UNL A   1      37.260  21.779  24.954  1.00  0.00     0.116 C 
BRANCH  23  24
ATOM     24  N   UNL A   1      38.197  20.694  25.212  1.00  0.00    -0.352 N 
ATOM     25  C   UNL A   1      39.341  20.738  25.981  1.00  0.00     0.251 C 
ATOM     26  H   UNL A   1      37.990  19.830  24.789  1.00  0.00     0.163 HD
ATOM     27  O   UNL A   1      40.077  19.761  26.063  1.00  0.00    -0.269 OA
BRANCH  25  28
ATOM     28  C   UNL A   1      39.686  22.009  26.650  1.00  0.00     0.039 A 
ATOM     29  C   UNL A   1      39.141  23.207  26.188  1.00  0.00     0.014 A 
ATOM     30  C   UNL A   1      40.658  22.006  27.653  1.00  0.00     0.014 A 
ATOM     31  C   UNL A   1      39.703  24.411  26.596  1.00  0.00     0.010 A 
ATOM     32  C   UNL A   1      41.165  23.221  28.120  1.00  0.00     0.010 A 
ATOM     33  C   UNL A   1      40.738  24.429  27.547  1.00  0.00    -0.014 A 
BRANCH  33  34
ATOM     34  C   UNL A   1      41.373  25.725  27.903  1.00  0.00     0.031 A 
ATOM     35  C   UNL A   1      42.741  26.079  27.388  1.00  0.00     0.074 A 
ATOM     36  C   UNL A   1      40.675  26.613  28.635  1.00  0.00     0.049 A 
ATOM     37  N   UNL A   1      43.422  27.185  27.554  1.00  0.00    -0.248 NA
ATOM     38  C   UNL A   1      43.442  25.065  26.582  1.00  0.00     0.031 C 
ATOM     39  C   UNL A   1      39.336  26.376  29.174  1.00  0.00     0.029 A 
ATOM     40  N   UNL A   1      40.972  27.895  29.026  1.00  0.00    -0.354 N 
ATOM     41  C   UNL A   1      44.631  26.995  26.895  1.00  0.00     0.074 A 
ATOM     42  C   UNL A   1      44.606  25.656  26.349  1.00  0.00     0.031 C 
ATOM     43  C   UNL A   1      38.901  27.494  29.771  1.00  0.00     0.029 A 
ATOM     44  C   UNL A   1      39.955  28.505  29.720  1.00  0.00     0.049 A 
ATOM     45  H   UNL A   1      41.830  28.334  28.827  1.00  0.00     0.167 HD
ATOM     46  C   UNL A   1      45.659  27.864  26.746  1.00  0.00     0.034 A 
ATOM     47  C   UNL A   1      39.876  29.737  30.263  1.00  0.00     0.034 A 
ATOM     48  C   UNL A   1      45.660  29.204  27.277  1.00  0.00     0.049 A 
ATOM     49  C   UNL A   1      41.040  30.677  30.102  1.00  0.00     0.074 A 
ATOM     50  C   UNL A   1      46.646  30.168  27.160  1.00  0.00     0.029 A 
ATOM     51  N   UNL A   1      44.631  29.774  28.011  1.00  0.00    -0.354 N 
ATOM     52  N   UNL A   1      42.163  30.491  29.448  1.00  0.00    -0.248 NA
ATOM     53  C   UNL A   1      40.934  31.991  30.751  1.00  0.00     0.031 C 
ATOM     54  C   UNL A   1      46.234  31.302  27.864  1.00  0.00     0.029 A 
ATOM     55  C   UNL A   1      44.967  31.069  28.373  1.00  0.00     0.049 A 
ATOM     56  H   UNL A   1      43.785  29.324  28.242  1.00  0.00     0.167 HD
ATOM     57  C   UNL A   1      42.895  31.664  29.602  1.00  0.00     0.074 A 
ATOM     58  C   UNL A   1      42.072  32.568  30.382  1.00  0.00     0.031 C 
ATOM     59  C   UNL A   1      44.137  31.962  29.147  1.00  0.00     0.034 A 
BRANCH  46  60
ATOM     60  C   UNL A   1      46.875  27.419  25.974  1.00  0.00     0.023 A 
ATOM     61  C   UNL A   1      47.041  27.811  24.631  1.00  0.00     0.031 A 
ATOM     62  C   UNL A   1      47.802  26.515  26.523  1.00  0.00     0.131 A 
ATOM     63  C   UNL A   1      48.095  27.279  23.876  1.00  0.00     0.055 A 
ATOM     64  C   UNL A   1      48.868  26.013  25.776  1.00  0.00     0.041 A 
ATOM     65  F   UNL A   1      47.687  26.115  27.800  1.00  0.00    -0.206 F 
ATOM     66  C   UNL A   1      49.011  26.387  24.443  1.00  0.00     0.022 A 
BRANCH  63  67
ATOM     67  S   UNL A   1      48.289  27.680  22.119  1.00  0.00     0.124 S 
ATOM     68  O   UNL A   1      48.524  26.362  21.535  1.00  0.00    -0.237 OA
ATOM     69  O   UNL A   1      46.998  28.284  21.798  1.00  0.00    -0.237 OA
ATOM     70  O   UNL A   1      49.432  28.586  22.090  1.00  0.00    -0.744 OA
ENDBRANCH  63  67
ENDBRANCH  46  60
BRANCH  47  71
ATOM     71  C   UNL A   1      38.619  30.139  30.959  1.00  0.00     0.023 A 
ATOM     72  C   UNL A   1      37.589  30.798  30.264  1.00  0.00     0.031 A 
ATOM     73  C   UNL A   1      38.491  29.992  32.350  1.00  0.00     0.131 A 
ATOM     74  C   UNL A   1      36.519  31.360  30.971  1.00  0.00     0.055 A 
ATOM     75  C   UNL A   1      37.385  30.489  33.042  1.00  0.00     0.041 A 
ATOM     76  F   UNL A   1      39.454  29.383  33.057  1.00  0.00    -0.206 F 
ATOM     77  C   UNL A   1      36.403  31.197  32.355  1.00  0.00     0.022 A 
BRANCH  74  78
ATOM     78  S   UNL A   1      35.333  32.455  30.142  1.00  0.00     0.124 S 
ATOM     79  O   UNL A   1      34.332  32.662  31.182  1.00  0.00    -0.237 OA
ATOM     80  O   UNL A   1      36.166  33.614  29.827  1.00  0.00    -0.237 OA
ATOM     81  O   UNL A   1      34.896  31.677  28.988  1.00  0.00    -0.744 OA
ENDBRANCH  74  78
ENDBRANCH  47  71
BRANCH  59  82
ATOM     82  C   UNL A   1      44.718  33.313  29.480  1.00  0.00     0.023 A 
ATOM     83  C   UNL A   1      44.489  34.411  28.631  1.00  0.00     0.031 A 
ATOM     84  C   UNL A   1      45.612  33.474  30.553  1.00  0.00     0.131 A 
ATOM     85  C   UNL A   1      45.174  35.613  28.849  1.00  0.00     0.055 A 
ATOM     86  C   UNL A   1      46.261  34.685  30.789  1.00  0.00     0.041 A 
ATOM     87  F   UNL A   1      45.868  32.450  31.385  1.00  0.00    -0.206 F 
ATOM     88  C   UNL A   1      46.054  35.758  29.926  1.00  0.00     0.022 A 
BRANCH  85  89
ATOM     89  S   UNL A   1      45.013  37.005  27.696  1.00  0.00     0.124 S 
ATOM     90  O   UNL A   1      46.405  37.257  27.332  1.00  0.00    -0.237 OA
ATOM     91  O   UNL A   1      44.184  36.435  26.638  1.00  0.00    -0.237 OA
ATOM     92  O   UNL A   1      44.379  38.050  28.493  1.00  0.00    -0.744 OA
ENDBRANCH  85  89
ENDBRANCH  59  82
ENDBRANCH  33  34
ENDBRANCH  25  28
ENDBRANCH  23  24
ENDBRANCH   1  23
TORSDOF 15
ENDMDL
