MODEL 1
REMARK VINA RESULT:     -11.2      0.000      0.000
REMARK SMILES C[C@H](CSc1ccc(C(=O)N(C)C)cn1)C(=O)NCCCCNC(=O)c1ccc(-c2c3nc(c(-c4cc(S(=O)(=O)[O-])ccc4F)c4ccc([nH]4)c(-c4cc(S(=O)(=O)[O-])ccc4F)c4nc(c(-c5cc(S(=O)(=O)[O-])ccc5F)c5ccc2[nH]5)C=C4)C=C3)cc1
REMARK SMILES IDX 20 1 19 2 18 3 16 4 17 5 2 7 1 8 3 9 4 10 5 11 6 12 15 13
REMARK SMILES IDX 7 14 14 15 8 16 9 17 10 18 11 19 12 20 13 21 21 22 22 23
REMARK SMILES IDX 23 24 24 25 25 27 26 28 27 29 88 30 28 31 87 32 29 33 30 34
REMARK SMILES IDX 31 35 81 36 32 37 86 38 80 39 82 40 33 41 85 42 79 43 78 44
REMARK SMILES IDX 34 46 66 47 46 48 65 49 47 50 50 51 64 52 83 53 48 54 49 55
REMARK SMILES IDX 63 57 84 58 51 59 35 60 36 61 44 62 37 63 43 64 45 65 42 66
REMARK SMILES IDX 38 67 39 68 40 69 41 70 67 71 68 72 76 73 69 74 75 75 77 76
REMARK SMILES IDX 74 77 70 78 71 79 72 80 73 81 52 82 53 83 61 84 54 85 60 86
REMARK SMILES IDX 62 87 59 88 55 89 56 90 57 91 58 92
REMARK H PARENT 18 6 23 26 82 45 50 56
REMARK Flexibility Score: inf
ROOT
ATOM      1  C   UNL A   1      32.685  29.744  26.966  1.00  0.00     0.023 C 
ENDROOT
BRANCH   1   2
ATOM      2  C   UNL A   1      31.881  28.922  25.958  1.00  0.00     0.116 C 
BRANCH   2   3
ATOM      3  N   UNL A   1      32.757  28.207  25.052  1.00  0.00    -0.356 N 
ATOM      4  C   UNL A   1      33.175  26.912  25.078  1.00  0.00     0.223 C 
ATOM      5  O   UNL A   1      34.007  26.563  24.237  1.00  0.00    -0.275 OA
ATOM      6  H   UNL A   1      33.103  28.741  24.301  1.00  0.00     0.163 HD
BRANCH   4   7
ATOM      7  C   UNL A   1      32.579  25.881  26.038  1.00  0.00     0.085 C 
ATOM      8  C   UNL A   1      33.509  24.671  26.104  1.00  0.00     0.019 C 
BRANCH   7   9
ATOM      9  C   UNL A   1      31.066  25.648  25.837  1.00  0.00     0.089 C 
BRANCH   9  10
ATOM     10  S   UNL A   1      30.504  25.127  24.165  1.00  0.00    -0.106 SA
BRANCH  10  11
ATOM     11  C   UNL A   1      29.859  26.666  23.535  1.00  0.00     0.096 A 
ATOM     12  C   UNL A   1      28.528  27.002  23.760  1.00  0.00     0.036 A 
ATOM     13  N   UNL A   1      30.697  27.466  22.846  1.00  0.00    -0.249 NA
ATOM     14  C   UNL A   1      28.012  28.177  23.202  1.00  0.00     0.018 A 
ATOM     15  C   UNL A   1      30.175  28.619  22.339  1.00  0.00     0.126 A 
ATOM     16  C   UNL A   1      28.838  28.994  22.436  1.00  0.00     0.058 A 
BRANCH  16  17
ATOM     17  C   UNL A   1      28.431  30.272  21.803  1.00  0.00     0.254 C 
ATOM     18  O   UNL A   1      27.949  30.175  20.673  1.00  0.00    -0.269 OA
ATOM     19  N   UNL A   1      28.565  31.505  22.445  1.00  0.00    -0.345 N 
ATOM     20  C   UNL A   1      28.964  31.744  23.823  1.00  0.00     0.146 C 
ATOM     21  C   UNL A   1      28.133  32.684  21.702  1.00  0.00     0.146 C 
ENDBRANCH  16  17
ENDBRANCH  10  11
ENDBRANCH   9  10
ENDBRANCH   7   9
ENDBRANCH   4   7
ENDBRANCH   2   3
ENDBRANCH   1   2
BRANCH   1  22
ATOM     22  C   UNL A   1      32.235  31.200  27.075  1.00  0.00     0.023 C 
BRANCH  22  23
ATOM     23  C   UNL A   1      33.368  32.206  27.246  1.00  0.00     0.116 C 
BRANCH  23  24
ATOM     24  N   UNL A   1      32.906  33.553  27.543  1.00  0.00    -0.352 N 
ATOM     25  C   UNL A   1      33.300  34.389  28.565  1.00  0.00     0.251 C 
ATOM     26  H   UNL A   1      32.221  33.914  26.936  1.00  0.00     0.163 HD
ATOM     27  O   UNL A   1      32.703  35.434  28.771  1.00  0.00    -0.269 OA
BRANCH  25  28
ATOM     28  C   UNL A   1      34.413  33.973  29.445  1.00  0.00     0.039 A 
ATOM     29  C   UNL A   1      34.176  32.975  30.392  1.00  0.00     0.014 A 
ATOM     30  C   UNL A   1      35.692  34.515  29.290  1.00  0.00     0.014 A 
ATOM     31  C   UNL A   1      35.244  32.456  31.124  1.00  0.00     0.010 A 
ATOM     32  C   UNL A   1      36.766  33.941  29.962  1.00  0.00     0.010 A 
ATOM     33  C   UNL A   1      36.554  32.900  30.879  1.00  0.00    -0.014 A 
BRANCH  33  34
ATOM     34  C   UNL A   1      37.715  32.278  31.563  1.00  0.00     0.031 A 
ATOM     35  C   UNL A   1      38.465  31.158  30.901  1.00  0.00     0.074 A 
ATOM     36  C   UNL A   1      38.045  32.678  32.808  1.00  0.00     0.049 A 
ATOM     37  N   UNL A   1      39.447  30.430  31.365  1.00  0.00    -0.248 NA
ATOM     38  C   UNL A   1      38.025  30.785  29.548  1.00  0.00     0.031 C 
ATOM     39  C   UNL A   1      37.356  33.722  33.572  1.00  0.00     0.029 A 
ATOM     40  N   UNL A   1      39.034  32.248  33.656  1.00  0.00    -0.354 N 
ATOM     41  C   UNL A   1      39.736  29.505  30.367  1.00  0.00     0.074 A 
ATOM     42  C   UNL A   1      38.777  29.723  29.305  1.00  0.00     0.031 C 
ATOM     43  C   UNL A   1      37.958  33.866  34.763  1.00  0.00     0.029 A 
ATOM     44  C   UNL A   1      39.045  32.899  34.868  1.00  0.00     0.049 A 
ATOM     45  H   UNL A   1      39.676  31.541  33.418  1.00  0.00     0.167 HD
ATOM     46  C   UNL A   1      40.727  28.580  30.331  1.00  0.00     0.034 A 
ATOM     47  C   UNL A   1      39.835  32.727  35.946  1.00  0.00     0.034 A 
ATOM     48  C   UNL A   1      41.680  28.387  31.397  1.00  0.00     0.049 A 
ATOM     49  C   UNL A   1      40.924  31.685  35.888  1.00  0.00     0.074 A 
ATOM     50  C   UNL A   1      42.753  27.515  31.449  1.00  0.00     0.029 A 
ATOM     51  N   UNL A   1      41.672  29.076  32.605  1.00  0.00    -0.354 N 
ATOM     52  N   UNL A   1      41.216  30.850  34.918  1.00  0.00    -0.248 NA
ATOM     53  C   UNL A   1      41.794  31.572  37.065  1.00  0.00     0.031 C 
ATOM     54  C   UNL A   1      43.354  27.631  32.708  1.00  0.00     0.029 A 
ATOM     55  C   UNL A   1      42.704  28.629  33.417  1.00  0.00     0.049 A 
ATOM     56  H   UNL A   1      41.027  29.778  32.848  1.00  0.00     0.167 HD
ATOM     57  C   UNL A   1      42.325  30.132  35.357  1.00  0.00     0.074 A 
ATOM     58  C   UNL A   1      42.654  30.644  36.672  1.00  0.00     0.031 C 
ATOM     59  C   UNL A   1      43.010  29.142  34.731  1.00  0.00     0.034 A 
BRANCH  46  60
ATOM     60  C   UNL A   1      40.806  27.700  29.106  1.00  0.00     0.023 A 
ATOM     61  C   UNL A   1      41.761  27.924  28.098  1.00  0.00     0.031 A 
ATOM     62  C   UNL A   1      39.888  26.652  28.918  1.00  0.00     0.131 A 
ATOM     63  C   UNL A   1      41.722  27.172  26.915  1.00  0.00     0.055 A 
ATOM     64  C   UNL A   1      39.912  25.848  27.776  1.00  0.00     0.041 A 
ATOM     65  F   UNL A   1      38.939  26.402  29.833  1.00  0.00    -0.206 F 
ATOM     66  C   UNL A   1      40.821  26.118  26.757  1.00  0.00     0.022 A 
BRANCH  63  67
ATOM     67  S   UNL A   1      42.760  27.698  25.522  1.00  0.00     0.124 S 
ATOM     68  O   UNL A   1      42.024  28.860  25.030  1.00  0.00    -0.237 OA
ATOM     69  O   UNL A   1      44.037  27.977  26.168  1.00  0.00    -0.237 OA
ATOM     70  O   UNL A   1      42.749  26.540  24.631  1.00  0.00    -0.744 OA
ENDBRANCH  63  67
ENDBRANCH  46  60
BRANCH  47  71
ATOM     71  C   UNL A   1      39.627  33.548  37.174  1.00  0.00     0.023 A 
ATOM     72  C   UNL A   1      39.020  33.001  38.316  1.00  0.00     0.031 A 
ATOM     73  C   UNL A   1      40.001  34.902  37.210  1.00  0.00     0.131 A 
ATOM     74  C   UNL A   1      38.764  33.816  39.430  1.00  0.00     0.055 A 
ATOM     75  C   UNL A   1      39.791  35.696  38.339  1.00  0.00     0.041 A 
ATOM     76  F   UNL A   1      40.593  35.472  36.148  1.00  0.00    -0.206 F 
ATOM     77  C   UNL A   1      39.157  35.156  39.453  1.00  0.00     0.022 A 
BRANCH  74  78
ATOM     78  S   UNL A   1      37.836  33.117  40.822  1.00  0.00     0.124 S 
ATOM     79  O   UNL A   1      38.120  34.079  41.882  1.00  0.00    -0.237 OA
ATOM     80  O   UNL A   1      36.472  33.115  40.305  1.00  0.00    -0.237 OA
ATOM     81  O   UNL A   1      38.434  31.796  41.001  1.00  0.00    -0.744 OA
ENDBRANCH  74  78
ENDBRANCH  47  71
BRANCH  59  82
ATOM     82  C   UNL A   1      44.212  28.583  35.451  1.00  0.00     0.023 A 
ATOM     83  C   UNL A   1      44.098  27.523  36.368  1.00  0.00     0.031 A 
ATOM     84  C   UNL A   1      45.487  29.129  35.225  1.00  0.00     0.131 A 
ATOM     85  C   UNL A   1      45.232  27.078  37.064  1.00  0.00     0.055 A 
ATOM     86  C   UNL A   1      46.621  28.643  35.876  1.00  0.00     0.041 A 
ATOM     87  F   UNL A   1      45.652  30.144  34.360  1.00  0.00    -0.206 F 
ATOM     88  C   UNL A   1      46.495  27.620  36.812  1.00  0.00     0.022 A 
BRANCH  85  89
ATOM     89  S   UNL A   1      45.021  25.837  38.370  1.00  0.00     0.124 S 
ATOM     90  O   UNL A   1      46.397  25.606  38.794  1.00  0.00    -0.237 OA
ATOM     91  O   UNL A   1      44.167  26.533  39.327  1.00  0.00    -0.237 OA
ATOM     92  O   UNL A   1      44.388  24.716  37.677  1.00  0.00    -0.744 OA
ENDBRANCH  85  89
ENDBRANCH  59  82
ENDBRANCH  33  34
ENDBRANCH  25  28
ENDBRANCH  23  24
ENDBRANCH  22  23
ENDBRANCH   1  22
TORSDOF 18
ENDMDL
MODEL 2
REMARK VINA RESULT:     -11.0      2.563      8.209
REMARK SMILES C[C@H](CSc1ccc(C(=O)N(C)C)cn1)C(=O)NCCCCNC(=O)c1ccc(-c2c3nc(c(-c4cc(S(=O)(=O)[O-])ccc4F)c4ccc([nH]4)c(-c4cc(S(=O)(=O)[O-])ccc4F)c4nc(c(-c5cc(S(=O)(=O)[O-])ccc5F)c5ccc2[nH]5)C=C4)C=C3)cc1
REMARK SMILES IDX 20 1 19 2 18 3 16 4 17 5 2 7 1 8 3 9 4 10 5 11 6 12 15 13
REMARK SMILES IDX 7 14 14 15 8 16 9 17 10 18 11 19 12 20 13 21 21 22 22 23
REMARK SMILES IDX 23 24 24 25 25 27 26 28 27 29 88 30 28 31 87 32 29 33 30 34
REMARK SMILES IDX 31 35 81 36 32 37 86 38 80 39 82 40 33 41 85 42 79 43 78 44
REMARK SMILES IDX 34 46 66 47 46 48 65 49 47 50 50 51 64 52 83 53 48 54 49 55
REMARK SMILES IDX 63 57 84 58 51 59 35 60 36 61 44 62 37 63 43 64 45 65 42 66
REMARK SMILES IDX 38 67 39 68 40 69 41 70 67 71 68 72 76 73 69 74 75 75 77 76
REMARK SMILES IDX 74 77 70 78 71 79 72 80 73 81 52 82 53 83 61 84 54 85 60 86
REMARK SMILES IDX 62 87 59 88 55 89 56 90 57 91 58 92
REMARK H PARENT 18 6 23 26 82 45 50 56
REMARK Flexibility Score: inf
ROOT
ATOM      1  C   UNL A   1      31.662  27.857  27.220  1.00  0.00     0.023 C 
ENDROOT
BRANCH   1   2
ATOM      2  C   UNL A   1      31.761  26.647  26.291  1.00  0.00     0.116 C 
BRANCH   2   3
ATOM      3  N   UNL A   1      31.300  25.443  26.952  1.00  0.00    -0.356 N 
ATOM      4  C   UNL A   1      31.270  24.156  26.508  1.00  0.00     0.223 C 
ATOM      5  O   UNL A   1      30.734  23.314  27.233  1.00  0.00    -0.275 OA
ATOM      6  H   UNL A   1      30.954  25.577  27.864  1.00  0.00     0.163 HD
BRANCH   4   7
ATOM      7  C   UNL A   1      31.956  23.726  25.211  1.00  0.00     0.085 C 
ATOM      8  C   UNL A   1      33.395  24.238  25.219  1.00  0.00     0.019 C 
BRANCH   7   9
ATOM      9  C   UNL A   1      31.094  23.949  23.950  1.00  0.00     0.089 C 
BRANCH   9  10
ATOM     10  S   UNL A   1      31.831  24.934  22.582  1.00  0.00    -0.106 SA
BRANCH  10  11
ATOM     11  C   UNL A   1      31.089  26.528  22.882  1.00  0.00     0.096 A 
ATOM     12  C   UNL A   1      29.816  26.606  23.435  1.00  0.00     0.036 A 
ATOM     13  N   UNL A   1      31.800  27.626  22.552  1.00  0.00    -0.249 NA
ATOM     14  C   UNL A   1      29.214  27.859  23.601  1.00  0.00     0.018 A 
ATOM     15  C   UNL A   1      31.200  28.834  22.752  1.00  0.00     0.126 A 
ATOM     16  C   UNL A   1      29.899  29.007  23.215  1.00  0.00     0.058 A 
BRANCH  16  17
ATOM     17  C   UNL A   1      29.392  30.393  23.350  1.00  0.00     0.254 C 
ATOM     18  O   UNL A   1      29.803  31.017  24.329  1.00  0.00    -0.269 OA
ATOM     19  N   UNL A   1      28.519  30.968  22.422  1.00  0.00    -0.345 N 
ATOM     20  C   UNL A   1      28.086  30.406  21.152  1.00  0.00     0.146 C 
ATOM     21  C   UNL A   1      28.090  32.337  22.683  1.00  0.00     0.146 C 
ENDBRANCH  16  17
ENDBRANCH  10  11
ENDBRANCH   9  10
ENDBRANCH   7   9
ENDBRANCH   4   7
ENDBRANCH   2   3
ENDBRANCH   1   2
BRANCH   1  22
ATOM     22  C   UNL A   1      31.728  29.200  26.494  1.00  0.00     0.023 C 
BRANCH  22  23
ATOM     23  C   UNL A   1      33.093  29.878  26.531  1.00  0.00     0.116 C 
BRANCH  23  24
ATOM     24  N   UNL A   1      33.033  31.280  26.915  1.00  0.00    -0.352 N 
ATOM     25  C   UNL A   1      33.939  32.005  27.658  1.00  0.00     0.251 C 
ATOM     26  H   UNL A   1      32.242  31.775  26.604  1.00  0.00     0.163 HD
ATOM     27  O   UNL A   1      33.667  33.137  28.027  1.00  0.00    -0.269 OA
BRANCH  25  28
ATOM     28  C   UNL A   1      35.213  31.370  28.056  1.00  0.00     0.039 A 
ATOM     29  C   UNL A   1      36.348  32.174  28.179  1.00  0.00     0.014 A 
ATOM     30  C   UNL A   1      35.270  30.009  28.369  1.00  0.00     0.014 A 
ATOM     31  C   UNL A   1      37.521  31.630  28.702  1.00  0.00     0.010 A 
ATOM     32  C   UNL A   1      36.414  29.491  28.965  1.00  0.00     0.010 A 
ATOM     33  C   UNL A   1      37.548  30.298  29.146  1.00  0.00    -0.014 A 
BRANCH  33  34
ATOM     34  C   UNL A   1      38.750  29.735  29.813  1.00  0.00     0.031 A 
ATOM     35  C   UNL A   1      39.158  30.236  31.169  1.00  0.00     0.074 A 
ATOM     36  C   UNL A   1      39.507  28.828  29.163  1.00  0.00     0.049 A 
ATOM     37  N   UNL A   1      40.215  29.937  31.878  1.00  0.00    -0.248 NA
ATOM     38  C   UNL A   1      38.276  31.233  31.793  1.00  0.00     0.031 C 
ATOM     39  C   UNL A   1      39.236  28.306  27.821  1.00  0.00     0.029 A 
ATOM     40  N   UNL A   1      40.662  28.191  29.537  1.00  0.00    -0.354 N 
ATOM     41  C   UNL A   1      40.132  30.716  33.027  1.00  0.00     0.074 A 
ATOM     42  C   UNL A   1      38.958  31.550  32.883  1.00  0.00     0.031 C 
ATOM     43  C   UNL A   1      40.185  27.413  27.496  1.00  0.00     0.029 A 
ATOM     44  C   UNL A   1      41.154  27.331  28.584  1.00  0.00     0.049 A 
ATOM     45  H   UNL A   1      41.099  28.337  30.408  1.00  0.00     0.167 HD
ATOM     46  C   UNL A   1      40.946  30.716  34.112  1.00  0.00     0.034 A 
ATOM     47  C   UNL A   1      42.267  26.570  28.581  1.00  0.00     0.034 A 
ATOM     48  C   UNL A   1      42.106  29.868  34.241  1.00  0.00     0.049 A 
ATOM     49  C   UNL A   1      43.163  26.593  29.793  1.00  0.00     0.074 A 
ATOM     50  C   UNL A   1      42.973  29.747  35.312  1.00  0.00     0.029 A 
ATOM     51  N   UNL A   1      42.565  28.995  33.261  1.00  0.00    -0.354 N 
ATOM     52  N   UNL A   1      43.045  27.299  30.894  1.00  0.00    -0.248 NA
ATOM     53  C   UNL A   1      44.333  25.707  29.768  1.00  0.00     0.031 C 
ATOM     54  C   UNL A   1      43.989  28.852  34.958  1.00  0.00     0.029 A 
ATOM     55  C   UNL A   1      43.717  28.355  33.693  1.00  0.00     0.049 A 
ATOM     56  H   UNL A   1      42.136  28.853  32.387  1.00  0.00     0.167 HD
ATOM     57  C   UNL A   1      44.111  26.920  31.704  1.00  0.00     0.074 A 
ATOM     58  C   UNL A   1      44.850  25.913  30.970  1.00  0.00     0.031 C 
ATOM     59  C   UNL A   1      44.449  27.362  32.942  1.00  0.00     0.034 A 
BRANCH  46  60
ATOM     60  C   UNL A   1      40.611  31.678  35.227  1.00  0.00     0.023 A 
ATOM     61  C   UNL A   1      39.599  31.399  36.162  1.00  0.00     0.031 A 
ATOM     62  C   UNL A   1      41.279  32.911  35.332  1.00  0.00     0.131 A 
ATOM     63  C   UNL A   1      39.225  32.370  37.103  1.00  0.00     0.055 A 
ATOM     64  C   UNL A   1      40.962  33.838  36.328  1.00  0.00     0.041 A 
ATOM     65  F   UNL A   1      42.239  33.245  34.456  1.00  0.00    -0.206 F 
ATOM     66  C   UNL A   1      39.917  33.578  37.210  1.00  0.00     0.022 A 
BRANCH  63  67
ATOM     67  S   UNL A   1      37.718  32.096  38.076  1.00  0.00     0.124 S 
ATOM     68  O   UNL A   1      37.406  30.706  37.751  1.00  0.00    -0.237 OA
ATOM     69  O   UNL A   1      38.172  32.347  39.438  1.00  0.00    -0.237 OA
ATOM     70  O   UNL A   1      36.780  33.078  37.538  1.00  0.00    -0.744 OA
ENDBRANCH  63  67
ENDBRANCH  46  60
BRANCH  47  71
ATOM     71  C   UNL A   1      42.605  25.731  27.396  1.00  0.00     0.023 A 
ATOM     72  C   UNL A   1      42.186  24.395  27.310  1.00  0.00     0.031 A 
ATOM     73  C   UNL A   1      43.384  26.247  26.344  1.00  0.00     0.131 A 
ATOM     74  C   UNL A   1      42.585  23.604  26.221  1.00  0.00     0.055 A 
ATOM     75  C   UNL A   1      43.735  25.471  25.238  1.00  0.00     0.041 A 
ATOM     76  F   UNL A   1      43.804  27.522  26.372  1.00  0.00    -0.206 F 
ATOM     77  C   UNL A   1      43.346  24.137  25.178  1.00  0.00     0.022 A 
BRANCH  74  78
ATOM     78  S   UNL A   1      42.159  21.841  26.225  1.00  0.00     0.124 S 
ATOM     79  O   UNL A   1      42.473  21.463  27.599  1.00  0.00    -0.237 OA
ATOM     80  O   UNL A   1      40.743  21.871  25.874  1.00  0.00    -0.237 OA
ATOM     81  O   UNL A   1      43.040  21.276  25.205  1.00  0.00    -0.744 OA
ENDBRANCH  74  78
ENDBRANCH  47  71
BRANCH  59  82
ATOM     82  C   UNL A   1      45.648  26.719  33.592  1.00  0.00     0.023 A 
ATOM     83  C   UNL A   1      45.581  25.436  34.165  1.00  0.00     0.031 A 
ATOM     84  C   UNL A   1      46.873  27.407  33.650  1.00  0.00     0.131 A 
ATOM     85  C   UNL A   1      46.704  24.904  34.817  1.00  0.00     0.055 A 
ATOM     86  C   UNL A   1      48.003  26.847  34.247  1.00  0.00     0.041 A 
ATOM     87  F   UNL A   1      46.992  28.636  33.120  1.00  0.00    -0.206 F 
ATOM     88  C   UNL A   1      47.919  25.594  34.847  1.00  0.00     0.022 A 
BRANCH  85  89
ATOM     89  S   UNL A   1      46.531  23.330  35.702  1.00  0.00     0.124 S 
ATOM     90  O   UNL A   1      45.711  23.713  36.845  1.00  0.00    -0.237 OA
ATOM     91  O   UNL A   1      45.883  22.482  34.706  1.00  0.00    -0.237 OA
ATOM     92  O   UNL A   1      47.911  22.964  36.022  1.00  0.00    -0.744 OA
ENDBRANCH  85  89
ENDBRANCH  59  82
ENDBRANCH  33  34
ENDBRANCH  25  28
ENDBRANCH  23  24
ENDBRANCH  22  23
ENDBRANCH   1  22
TORSDOF 18
ENDMDL
MODEL 3
REMARK VINA RESULT:     -10.9      3.760      9.315
REMARK SMILES C[C@H](CSc1ccc(C(=O)N(C)C)cn1)C(=O)NCCCCNC(=O)c1ccc(-c2c3nc(c(-c4cc(S(=O)(=O)[O-])ccc4F)c4ccc([nH]4)c(-c4cc(S(=O)(=O)[O-])ccc4F)c4nc(c(-c5cc(S(=O)(=O)[O-])ccc5F)c5ccc2[nH]5)C=C4)C=C3)cc1
REMARK SMILES IDX 20 1 19 2 18 3 16 4 17 5 2 7 1 8 3 9 4 10 5 11 6 12 15 13
REMARK SMILES IDX 7 14 14 15 8 16 9 17 10 18 11 19 12 20 13 21 21 22 22 23
REMARK SMILES IDX 23 24 24 25 25 27 26 28 27 29 88 30 28 31 87 32 29 33 30 34
REMARK SMILES IDX 31 35 81 36 32 37 86 38 80 39 82 40 33 41 85 42 79 43 78 44
REMARK SMILES IDX 34 46 66 47 46 48 65 49 47 50 50 51 64 52 83 53 48 54 49 55
REMARK SMILES IDX 63 57 84 58 51 59 35 60 36 61 44 62 37 63 43 64 45 65 42 66
REMARK SMILES IDX 38 67 39 68 40 69 41 70 67 71 68 72 76 73 69 74 75 75 77 76
REMARK SMILES IDX 74 77 70 78 71 79 72 80 73 81 52 82 53 83 61 84 54 85 60 86
REMARK SMILES IDX 62 87 59 88 55 89 56 90 57 91 58 92
REMARK H PARENT 18 6 23 26 82 45 50 56
REMARK Flexibility Score: inf
ROOT
ATOM      1  C   UNL A   1      32.086  27.979  27.011  1.00  0.00     0.023 C 
ENDROOT
BRANCH   1   2
ATOM      2  C   UNL A   1      31.317  27.248  25.910  1.00  0.00     0.116 C 
BRANCH   2   3
ATOM      3  N   UNL A   1      30.669  26.060  26.427  1.00  0.00    -0.356 N 
ATOM      4  C   UNL A   1      30.953  24.745  26.218  1.00  0.00     0.223 C 
ATOM      5  O   UNL A   1      30.184  23.911  26.700  1.00  0.00    -0.275 OA
ATOM      6  H   UNL A   1      29.902  26.231  27.020  1.00  0.00     0.163 HD
BRANCH   4   7
ATOM      7  C   UNL A   1      32.227  24.291  25.503  1.00  0.00     0.085 C 
ATOM      8  C   UNL A   1      33.439  24.760  26.306  1.00  0.00     0.019 C 
BRANCH   7   9
ATOM      9  C   UNL A   1      32.203  24.536  23.980  1.00  0.00     0.089 C 
BRANCH   9  10
ATOM     10  S   UNL A   1      33.458  23.658  22.960  1.00  0.00    -0.106 SA
BRANCH  10  11
ATOM     11  C   UNL A   1      33.360  22.016  23.651  1.00  0.00     0.096 A 
ATOM     12  C   UNL A   1      34.384  21.547  24.468  1.00  0.00     0.036 A 
ATOM     13  N   UNL A   1      32.279  21.269  23.351  1.00  0.00    -0.249 NA
ATOM     14  C   UNL A   1      34.333  20.233  24.948  1.00  0.00     0.018 A 
ATOM     15  C   UNL A   1      32.241  20.003  23.856  1.00  0.00     0.126 A 
ATOM     16  C   UNL A   1      33.258  19.418  24.605  1.00  0.00     0.058 A 
BRANCH  16  17
ATOM     17  C   UNL A   1      33.067  18.019  25.056  1.00  0.00     0.254 C 
ATOM     18  O   UNL A   1      32.433  17.879  26.103  1.00  0.00    -0.269 OA
ATOM     19  N   UNL A   1      33.554  16.924  24.337  1.00  0.00    -0.345 N 
ATOM     20  C   UNL A   1      34.173  16.938  23.021  1.00  0.00     0.146 C 
ATOM     21  C   UNL A   1      33.304  15.603  24.901  1.00  0.00     0.146 C 
ENDBRANCH  16  17
ENDBRANCH  10  11
ENDBRANCH   9  10
ENDBRANCH   7   9
ENDBRANCH   4   7
ENDBRANCH   2   3
ENDBRANCH   1   2
BRANCH   1  22
ATOM     22  C   UNL A   1      32.005  29.501  26.915  1.00  0.00     0.023 C 
BRANCH  22  23
ATOM     23  C   UNL A   1      33.353  30.206  26.802  1.00  0.00     0.116 C 
BRANCH  23  24
ATOM     24  N   UNL A   1      33.356  31.543  27.376  1.00  0.00    -0.352 N 
ATOM     25  C   UNL A   1      34.293  32.116  28.208  1.00  0.00     0.251 C 
ATOM     26  H   UNL A   1      32.589  32.111  27.139  1.00  0.00     0.163 HD
ATOM     27  O   UNL A   1      34.073  33.198  28.730  1.00  0.00    -0.269 OA
BRANCH  25  28
ATOM     28  C   UNL A   1      35.536  31.374  28.510  1.00  0.00     0.039 A 
ATOM     29  C   UNL A   1      36.758  32.029  28.349  1.00  0.00     0.014 A 
ATOM     30  C   UNL A   1      35.490  30.070  29.010  1.00  0.00     0.014 A 
ATOM     31  C   UNL A   1      37.931  31.406  28.774  1.00  0.00     0.010 A 
ATOM     32  C   UNL A   1      36.649  29.485  29.507  1.00  0.00     0.010 A 
ATOM     33  C   UNL A   1      37.880  30.151  29.402  1.00  0.00    -0.014 A 
BRANCH  33  34
ATOM     34  C   UNL A   1      39.103  29.525  29.967  1.00  0.00     0.031 A 
ATOM     35  C   UNL A   1      39.723  30.084  31.215  1.00  0.00     0.074 A 
ATOM     36  C   UNL A   1      39.687  28.501  29.313  1.00  0.00     0.049 A 
ATOM     37  N   UNL A   1      40.832  29.737  31.816  1.00  0.00    -0.248 NA
ATOM     38  C   UNL A   1      39.020  31.208  31.851  1.00  0.00     0.031 C 
ATOM     39  C   UNL A   1      39.203  27.908  28.063  1.00  0.00     0.029 A 
ATOM     40  N   UNL A   1      40.821  27.784  29.600  1.00  0.00    -0.354 N 
ATOM     41  C   UNL A   1      40.966  30.606  32.894  1.00  0.00     0.074 A 
ATOM     42  C   UNL A   1      39.860  31.538  32.819  1.00  0.00     0.031 C 
ATOM     43  C   UNL A   1      40.020  26.904  27.706  1.00  0.00     0.029 A 
ATOM     44  C   UNL A   1      41.108  26.809  28.673  1.00  0.00     0.049 A 
ATOM     45  H   UNL A   1      41.376  27.951  30.396  1.00  0.00     0.167 HD
ATOM     46  C   UNL A   1      41.907  30.607  33.869  1.00  0.00     0.034 A 
ATOM     47  C   UNL A   1      42.140  25.945  28.603  1.00  0.00     0.034 A 
ATOM     48  C   UNL A   1      42.995  29.661  33.932  1.00  0.00     0.049 A 
ATOM     49  C   UNL A   1      43.182  25.970  29.693  1.00  0.00     0.074 A 
ATOM     50  C   UNL A   1      43.978  29.537  34.898  1.00  0.00     0.029 A 
ATOM     51  N   UNL A   1      43.246  28.675  32.983  1.00  0.00    -0.354 N 
ATOM     52  N   UNL A   1      43.269  26.766  30.733  1.00  0.00    -0.248 NA
ATOM     53  C   UNL A   1      44.256  24.974  29.605  1.00  0.00     0.031 C 
ATOM     54  C   UNL A   1      44.857  28.521  34.503  1.00  0.00     0.029 A 
ATOM     55  C   UNL A   1      44.383  27.959  33.328  1.00  0.00     0.049 A 
ATOM     56  H   UNL A   1      42.698  28.511  32.183  1.00  0.00     0.167 HD
ATOM     57  C   UNL A   1      44.392  26.347  31.439  1.00  0.00     0.074 A 
ATOM     58  C   UNL A   1      44.939  25.219  30.713  1.00  0.00     0.031 C 
ATOM     59  C   UNL A   1      44.922  26.845  32.585  1.00  0.00     0.034 A 
BRANCH  46  60
ATOM     60  C   UNL A   1      41.804  31.679  34.928  1.00  0.00     0.023 A 
ATOM     61  C   UNL A   1      40.824  31.628  35.935  1.00  0.00     0.031 A 
ATOM     62  C   UNL A   1      42.665  32.790  34.907  1.00  0.00     0.131 A 
ATOM     63  C   UNL A   1      40.671  32.704  36.822  1.00  0.00     0.055 A 
ATOM     64  C   UNL A   1      42.566  33.817  35.849  1.00  0.00     0.041 A 
ATOM     65  F   UNL A   1      43.607  32.908  33.958  1.00  0.00    -0.206 F 
ATOM     66  C   UNL A   1      41.553  33.787  36.802  1.00  0.00     0.022 A 
BRANCH  63  67
ATOM     67  S   UNL A   1      39.208  32.742  37.892  1.00  0.00     0.124 S 
ATOM     68  O   UNL A   1      38.668  34.069  37.607  1.00  0.00    -0.237 OA
ATOM     69  O   UNL A   1      38.426  31.614  37.399  1.00  0.00    -0.237 OA
ATOM     70  O   UNL A   1      39.761  32.578  39.235  1.00  0.00    -0.744 OA
ENDBRANCH  63  67
ENDBRANCH  46  60
BRANCH  47  71
ATOM     71  C   UNL A   1      42.249  24.989  27.463  1.00  0.00     0.023 A 
ATOM     72  C   UNL A   1      41.544  23.775  27.466  1.00  0.00     0.031 A 
ATOM     73  C   UNL A   1      43.089  25.263  26.369  1.00  0.00     0.131 A 
ATOM     74  C   UNL A   1      41.725  22.859  26.418  1.00  0.00     0.055 A 
ATOM     75  C   UNL A   1      43.226  24.370  25.304  1.00  0.00     0.041 A 
ATOM     76  F   UNL A   1      43.778  26.413  26.313  1.00  0.00    -0.206 F 
ATOM     77  C   UNL A   1      42.552  23.154  25.332  1.00  0.00     0.022 A 
BRANCH  74  78
ATOM     78  S   UNL A   1      40.924  21.236  26.535  1.00  0.00     0.124 S 
ATOM     79  O   UNL A   1      40.824  21.057  27.979  1.00  0.00    -0.237 OA
ATOM     80  O   UNL A   1      39.669  21.467  25.828  1.00  0.00    -0.237 OA
ATOM     81  O   UNL A   1      41.863  20.343  25.858  1.00  0.00    -0.744 OA
ENDBRANCH  74  78
ENDBRANCH  47  71
BRANCH  59  82
ATOM     82  C   UNL A   1      46.133  26.138  33.141  1.00  0.00     0.023 A 
ATOM     83  C   UNL A   1      46.016  24.997  33.955  1.00  0.00     0.031 A 
ATOM     84  C   UNL A   1      47.423  26.621  32.859  1.00  0.00     0.131 A 
ATOM     85  C   UNL A   1      47.167  24.411  34.503  1.00  0.00     0.055 A 
ATOM     86  C   UNL A   1      48.567  25.998  33.359  1.00  0.00     0.041 A 
ATOM     87  F   UNL A   1      47.592  27.708  32.087  1.00  0.00    -0.206 F 
ATOM     88  C   UNL A   1      48.442  24.894  34.197  1.00  0.00     0.022 A 
BRANCH  85  89
ATOM     89  S   UNL A   1      46.970  23.057  35.694  1.00  0.00     0.124 S 
ATOM     90  O   UNL A   1      47.918  23.431  36.738  1.00  0.00    -0.237 OA
ATOM     91  O   UNL A   1      45.558  23.156  36.049  1.00  0.00    -0.237 OA
ATOM     92  O   UNL A   1      47.332  21.868  34.924  1.00  0.00    -0.744 OA
ENDBRANCH  85  89
ENDBRANCH  59  82
ENDBRANCH  33  34
ENDBRANCH  25  28
ENDBRANCH  23  24
ENDBRANCH  22  23
ENDBRANCH   1  22
TORSDOF 18
ENDMDL
