MODEL 1
REMARK VINA RESULT:     -12.1      0.000      0.000
REMARK SMILES C[NH2+][C@]1(C(=O)NCCCCNC(=O)c2ccc(-c3c4nc(c(-c5cc(S(=O)(=O)[O-])ccc5F)c5ccc([nH]5)c(-c5cc(S(=O)(=O)[O-])ccc5F)c5nc(c(-c6cc(S(=O)(=O)[O-])ccc6F)c6ccc3[nH]6)C=C5)C=C4)cc2)CC[C@@H](Sc2cc(F)ccc2F)C1
REMARK SMILES IDX 9 1 8 2 7 3 6 4 4 5 5 6 3 8 77 9 89 10 78 11 79 12 2 13 1 14
REMARK SMILES IDX 80 17 81 18 82 19 87 20 83 21 86 22 88 23 84 24 85 25 10 26
REMARK SMILES IDX 11 27 12 28 13 30 14 31 15 32 76 33 16 34 75 35 17 36 18 37
REMARK SMILES IDX 19 38 69 39 20 40 74 41 68 42 70 43 21 44 73 45 67 46 66 47
REMARK SMILES IDX 22 49 54 50 34 51 53 52 35 53 38 54 52 55 71 56 36 57 37 58
REMARK SMILES IDX 51 60 72 61 39 62 23 63 24 64 32 65 25 66 31 67 33 68 30 69
REMARK SMILES IDX 26 70 27 71 28 72 29 73 55 74 56 75 64 76 57 77 63 78 65 79
REMARK SMILES IDX 62 80 58 81 59 82 60 83 61 84 40 85 41 86 49 87 42 88 48 89
REMARK SMILES IDX 50 90 47 91 43 92 44 93 45 94 46 95
REMARK H PARENT 6 7 2 15 2 16 11 29 70 48 38 59
REMARK Flexibility Score: inf
ROOT
ATOM      1  C   UNL A   1      32.046  31.372  26.944  1.00  0.00     0.023 C 
ENDROOT
BRANCH   1   2
ATOM      2  C   UNL A   1      32.346  29.909  27.266  1.00  0.00     0.023 C 
BRANCH   2   3
ATOM      3  C   UNL A   1      33.749  29.447  26.880  1.00  0.00     0.116 C 
BRANCH   3   4
ATOM      4  N   UNL A   1      33.797  28.020  26.621  1.00  0.00    -0.351 N 
ATOM      5  C   UNL A   1      33.390  27.260  25.558  1.00  0.00     0.281 C 
ATOM      6  O   UNL A   1      33.536  26.042  25.703  1.00  0.00    -0.268 OA
ATOM      7  H   UNL A   1      34.199  27.497  27.351  1.00  0.00     0.163 HD
BRANCH   5   8
ATOM      8  C   UNL A   1      32.828  27.893  24.230  1.00  0.00     0.176 C 
ATOM      9  C   UNL A   1      32.601  26.831  23.129  1.00  0.00     0.080 C 
ATOM     10  C   UNL A   1      31.432  28.511  24.446  1.00  0.00     0.094 C 
ATOM     11  C   UNL A   1      31.350  27.245  22.351  1.00  0.00     0.022 C 
ATOM     12  C   UNL A   1      30.760  28.452  23.081  1.00  0.00     0.059 C 
BRANCH   8  13
ATOM     13  N   UNL A   1      33.806  28.851  23.640  1.00  0.00    -0.336 N 
ATOM     14  C   UNL A   1      34.479  28.411  22.428  1.00  0.00     0.331 C 
ATOM     15  H   UNL A   1      33.305  29.713  23.423  1.00  0.00     0.346 HD
ATOM     16  H   UNL A   1      34.541  28.958  24.339  1.00  0.00     0.346 HD
ENDBRANCH   8  13
BRANCH  12  17
ATOM     17  S   UNL A   1      28.925  28.542  23.085  1.00  0.00    -0.119 SA
BRANCH  17  18
ATOM     18  C   UNL A   1      28.569  30.186  22.478  1.00  0.00     0.046 A 
ATOM     19  C   UNL A   1      28.092  30.350  21.174  1.00  0.00     0.057 A 
ATOM     20  C   UNL A   1      28.855  31.336  23.230  1.00  0.00     0.136 A 
ATOM     21  C   UNL A   1      27.870  31.631  20.667  1.00  0.00     0.124 A 
ATOM     22  C   UNL A   1      28.620  32.616  22.722  1.00  0.00     0.043 A 
ATOM     23  F   UNL A   1      29.349  31.229  24.471  1.00  0.00    -0.206 F 
ATOM     24  F   UNL A   1      27.413  31.768  19.417  1.00  0.00    -0.207 F 
ATOM     25  C   UNL A   1      28.121  32.765  21.432  1.00  0.00     0.042 A 
ENDBRANCH  17  18
ENDBRANCH  12  17
ENDBRANCH   5   8
ENDBRANCH   3   4
ENDBRANCH   2   3
ENDBRANCH   1   2
BRANCH   1  26
ATOM     26  C   UNL A   1      33.176  32.351  27.247  1.00  0.00     0.116 C 
BRANCH  26  27
ATOM     27  N   UNL A   1      32.710  33.685  27.593  1.00  0.00    -0.352 N 
ATOM     28  C   UNL A   1      33.186  34.533  28.570  1.00  0.00     0.251 C 
ATOM     29  H   UNL A   1      31.958  34.028  27.059  1.00  0.00     0.163 HD
ATOM     30  O   UNL A   1      32.633  35.603  28.772  1.00  0.00    -0.269 OA
BRANCH  28  31
ATOM     31  C   UNL A   1      34.342  34.109  29.388  1.00  0.00     0.039 A 
ATOM     32  C   UNL A   1      34.115  33.333  30.527  1.00  0.00     0.014 A 
ATOM     33  C   UNL A   1      35.646  34.434  29.002  1.00  0.00     0.014 A 
ATOM     34  C   UNL A   1      35.201  32.820  31.240  1.00  0.00     0.010 A 
ATOM     35  C   UNL A   1      36.725  33.869  29.676  1.00  0.00     0.010 A 
ATOM     36  C   UNL A   1      36.514  33.051  30.797  1.00  0.00    -0.014 A 
BRANCH  36  37
ATOM     37  C   UNL A   1      37.681  32.440  31.487  1.00  0.00     0.031 A 
ATOM     38  C   UNL A   1      38.427  31.305  30.843  1.00  0.00     0.074 A 
ATOM     39  C   UNL A   1      38.016  32.857  32.725  1.00  0.00     0.049 A 
ATOM     40  N   UNL A   1      39.406  30.582  31.319  1.00  0.00    -0.248 NA
ATOM     41  C   UNL A   1      37.987  30.911  29.496  1.00  0.00     0.031 C 
ATOM     42  C   UNL A   1      37.335  33.916  33.473  1.00  0.00     0.029 A 
ATOM     43  N   UNL A   1      39.001  32.430  33.579  1.00  0.00    -0.354 N 
ATOM     44  C   UNL A   1      39.691  29.636  30.340  1.00  0.00     0.074 A 
ATOM     45  C   UNL A   1      38.739  29.846  29.269  1.00  0.00     0.031 C 
ATOM     46  C   UNL A   1      37.934  34.067  34.666  1.00  0.00     0.029 A 
ATOM     47  C   UNL A   1      39.012  33.090  34.786  1.00  0.00     0.049 A 
ATOM     48  H   UNL A   1      39.642  31.719  33.349  1.00  0.00     0.167 HD
ATOM     49  C   UNL A   1      40.667  28.695  30.328  1.00  0.00     0.034 A 
ATOM     50  C   UNL A   1      39.791  32.919  35.873  1.00  0.00     0.034 A 
ATOM     51  C   UNL A   1      41.618  28.511  31.397  1.00  0.00     0.049 A 
ATOM     52  C   UNL A   1      40.870  31.866  35.836  1.00  0.00     0.074 A 
ATOM     53  C   UNL A   1      42.687  27.633  31.459  1.00  0.00     0.029 A 
ATOM     54  N   UNL A   1      41.611  29.212  32.596  1.00  0.00    -0.354 N 
ATOM     55  N   UNL A   1      41.162  31.017  34.879  1.00  0.00    -0.248 NA
ATOM     56  C   UNL A   1      41.730  31.758  37.022  1.00  0.00     0.031 C 
ATOM     57  C   UNL A   1      43.287  27.760  32.718  1.00  0.00     0.029 A 
ATOM     58  C   UNL A   1      42.638  28.767  33.415  1.00  0.00     0.049 A 
ATOM     59  H   UNL A   1      40.970  29.921  32.831  1.00  0.00     0.167 HD
ATOM     60  C   UNL A   1      42.259  30.292  35.337  1.00  0.00     0.074 A 
ATOM     61  C   UNL A   1      42.583  30.816  36.649  1.00  0.00     0.031 C 
ATOM     62  C   UNL A   1      42.941  29.290  34.727  1.00  0.00     0.034 A 
BRANCH  49  63
ATOM     63  C   UNL A   1      40.733  27.779  29.128  1.00  0.00     0.023 A 
ATOM     64  C   UNL A   1      41.675  27.971  28.102  1.00  0.00     0.031 A 
ATOM     65  C   UNL A   1      39.821  26.717  28.993  1.00  0.00     0.131 A 
ATOM     66  C   UNL A   1      41.634  27.167  26.954  1.00  0.00     0.055 A 
ATOM     67  C   UNL A   1      39.840  25.867  27.884  1.00  0.00     0.041 A 
ATOM     68  F   UNL A   1      38.886  26.495  29.929  1.00  0.00    -0.206 F 
ATOM     69  C   UNL A   1      40.740  26.100  26.849  1.00  0.00     0.022 A 
BRANCH  66  70
ATOM     70  S   UNL A   1      42.671  27.628  25.539  1.00  0.00     0.124 S 
ATOM     71  O   UNL A   1      41.966  28.801  25.028  1.00  0.00    -0.237 OA
ATOM     72  O   UNL A   1      43.964  27.881  26.163  1.00  0.00    -0.237 OA
ATOM     73  O   UNL A   1      42.615  26.451  24.675  1.00  0.00    -0.744 OA
ENDBRANCH  66  70
ENDBRANCH  49  63
BRANCH  50  74
ATOM     74  C   UNL A   1      39.581  33.751  37.091  1.00  0.00     0.023 A 
ATOM     75  C   UNL A   1      38.907  33.239  38.211  1.00  0.00     0.031 A 
ATOM     76  C   UNL A   1      40.023  35.085  37.139  1.00  0.00     0.131 A 
ATOM     77  C   UNL A   1      38.656  34.068  39.315  1.00  0.00     0.055 A 
ATOM     78  C   UNL A   1      39.813  35.892  38.259  1.00  0.00     0.041 A 
ATOM     79  F   UNL A   1      40.679  35.620  36.097  1.00  0.00    -0.206 F 
ATOM     80  C   UNL A   1      39.114  35.387  39.352  1.00  0.00     0.022 A 
BRANCH  77  81
ATOM     81  S   UNL A   1      37.653  33.417  40.679  1.00  0.00     0.124 S 
ATOM     82  O   UNL A   1      38.504  32.348  41.191  1.00  0.00    -0.237 OA
ATOM     83  O   UNL A   1      37.509  34.590  41.534  1.00  0.00    -0.237 OA
ATOM     84  O   UNL A   1      36.426  32.977  40.019  1.00  0.00    -0.744 OA
ENDBRANCH  77  81
ENDBRANCH  50  74
BRANCH  62  85
ATOM     85  C   UNL A   1      44.133  28.727  35.462  1.00  0.00     0.023 A 
ATOM     86  C   UNL A   1      44.004  27.675  36.385  1.00  0.00     0.031 A 
ATOM     87  C   UNL A   1      45.415  29.259  35.238  1.00  0.00     0.131 A 
ATOM     88  C   UNL A   1      45.129  27.225  37.092  1.00  0.00     0.055 A 
ATOM     89  C   UNL A   1      46.540  28.768  35.902  1.00  0.00     0.041 A 
ATOM     90  F   UNL A   1      45.595  30.265  34.367  1.00  0.00    -0.206 F 
ATOM     91  C   UNL A   1      46.399  27.754  36.844  1.00  0.00     0.022 A 
BRANCH  88  92
ATOM     92  S   UNL A   1      44.898  25.994  38.405  1.00  0.00     0.124 S 
ATOM     93  O   UNL A   1      44.195  24.927  37.701  1.00  0.00    -0.237 OA
ATOM     94  O   UNL A   1      46.272  25.699  38.801  1.00  0.00    -0.237 OA
ATOM     95  O   UNL A   1      44.105  26.705  39.406  1.00  0.00    -0.744 OA
ENDBRANCH  88  92
ENDBRANCH  62  85
ENDBRANCH  36  37
ENDBRANCH  28  31
ENDBRANCH  26  27
ENDBRANCH   1  26
TORSDOF 17
ENDMDL
MODEL 2
REMARK VINA RESULT:     -11.8      2.142      3.611
REMARK SMILES C[NH2+][C@]1(C(=O)NCCCCNC(=O)c2ccc(-c3c4nc(c(-c5cc(S(=O)(=O)[O-])ccc5F)c5ccc([nH]5)c(-c5cc(S(=O)(=O)[O-])ccc5F)c5nc(c(-c6cc(S(=O)(=O)[O-])ccc6F)c6ccc3[nH]6)C=C5)C=C4)cc2)CC[C@@H](Sc2cc(F)ccc2F)C1
REMARK SMILES IDX 9 1 8 2 7 3 6 4 4 5 5 6 3 8 77 9 89 10 78 11 79 12 2 13 1 14
REMARK SMILES IDX 80 17 81 18 82 19 87 20 83 21 86 22 88 23 84 24 85 25 10 26
REMARK SMILES IDX 11 27 12 28 13 30 14 31 15 32 76 33 16 34 75 35 17 36 18 37
REMARK SMILES IDX 19 38 69 39 20 40 74 41 68 42 70 43 21 44 73 45 67 46 66 47
REMARK SMILES IDX 22 49 54 50 34 51 53 52 35 53 38 54 52 55 71 56 36 57 37 58
REMARK SMILES IDX 51 60 72 61 39 62 23 63 24 64 32 65 25 66 31 67 33 68 30 69
REMARK SMILES IDX 26 70 27 71 28 72 29 73 55 74 56 75 64 76 57 77 63 78 65 79
REMARK SMILES IDX 62 80 58 81 59 82 60 83 61 84 40 85 41 86 49 87 42 88 48 89
REMARK SMILES IDX 50 90 47 91 43 92 44 93 45 94 46 95
REMARK H PARENT 6 7 2 15 2 16 11 29 70 48 38 59
REMARK Flexibility Score: inf
ROOT
ATOM      1  C   UNL A   1      31.833  31.725  26.713  1.00  0.00     0.023 C 
ENDROOT
BRANCH   1   2
ATOM      2  C   UNL A   1      32.118  30.233  26.546  1.00  0.00     0.023 C 
BRANCH   2   3
ATOM      3  C   UNL A   1      31.797  29.675  25.161  1.00  0.00     0.116 C 
BRANCH   3   4
ATOM      4  N   UNL A   1      32.976  29.608  24.318  1.00  0.00    -0.351 N 
ATOM      5  C   UNL A   1      33.355  28.744  23.328  1.00  0.00     0.281 C 
ATOM      6  O   UNL A   1      34.475  28.958  22.851  1.00  0.00    -0.268 OA
ATOM      7  H   UNL A   1      33.630  30.322  24.493  1.00  0.00     0.163 HD
BRANCH   5   8
ATOM      8  C   UNL A   1      32.416  27.596  22.799  1.00  0.00     0.176 C 
ATOM      9  C   UNL A   1      33.038  26.837  21.604  1.00  0.00     0.080 C 
ATOM     10  C   UNL A   1      32.203  26.504  23.866  1.00  0.00     0.094 C 
ATOM     11  C   UNL A   1      32.630  25.368  21.738  1.00  0.00     0.022 C 
ATOM     12  C   UNL A   1      31.903  25.236  23.076  1.00  0.00     0.059 C 
BRANCH   8  13
ATOM     13  N   UNL A   1      31.138  28.154  22.271  1.00  0.00    -0.336 N 
ATOM     14  C   UNL A   1      29.946  27.876  23.056  1.00  0.00     0.331 C 
ATOM     15  H   UNL A   1      31.242  29.167  22.209  1.00  0.00     0.346 HD
ATOM     16  H   UNL A   1      30.989  27.694  21.373  1.00  0.00     0.346 HD
ENDBRANCH   8  13
BRANCH  12  17
ATOM     17  S   UNL A   1      32.184  23.652  23.965  1.00  0.00    -0.119 SA
BRANCH  17  18
ATOM     18  C   UNL A   1      33.949  23.623  24.252  1.00  0.00     0.046 A 
ATOM     19  C   UNL A   1      34.795  23.071  23.285  1.00  0.00     0.057 A 
ATOM     20  C   UNL A   1      34.514  24.040  25.467  1.00  0.00     0.136 A 
ATOM     21  C   UNL A   1      36.167  22.985  23.523  1.00  0.00     0.124 A 
ATOM     22  C   UNL A   1      35.890  23.963  25.696  1.00  0.00     0.043 A 
ATOM     23  F   UNL A   1      33.738  24.542  26.438  1.00  0.00    -0.206 F 
ATOM     24  F   UNL A   1      36.960  22.453  22.586  1.00  0.00    -0.207 F 
ATOM     25  C   UNL A   1      36.724  23.435  24.715  1.00  0.00     0.042 A 
ENDBRANCH  17  18
ENDBRANCH  12  17
ENDBRANCH   5   8
ENDBRANCH   3   4
ENDBRANCH   2   3
ENDBRANCH   1   2
BRANCH   1  26
ATOM     26  C   UNL A   1      32.896  32.511  27.472  1.00  0.00     0.116 C 
BRANCH  26  27
ATOM     27  N   UNL A   1      32.529  33.896  27.718  1.00  0.00    -0.352 N 
ATOM     28  C   UNL A   1      33.103  34.793  28.593  1.00  0.00     0.251 C 
ATOM     29  H   UNL A   1      31.772  34.239  27.190  1.00  0.00     0.163 HD
ATOM     30  O   UNL A   1      32.626  35.910  28.724  1.00  0.00    -0.269 OA
BRANCH  28  31
ATOM     31  C   UNL A   1      34.273  34.368  29.393  1.00  0.00     0.039 A 
ATOM     32  C   UNL A   1      34.057  33.732  30.618  1.00  0.00     0.014 A 
ATOM     33  C   UNL A   1      35.571  34.553  28.909  1.00  0.00     0.014 A 
ATOM     34  C   UNL A   1      35.145  33.214  31.326  1.00  0.00     0.010 A 
ATOM     35  C   UNL A   1      36.645  33.980  29.585  1.00  0.00     0.010 A 
ATOM     36  C   UNL A   1      36.443  33.298  30.795  1.00  0.00    -0.014 A 
BRANCH  36  37
ATOM     37  C   UNL A   1      37.602  32.675  31.486  1.00  0.00     0.031 A 
ATOM     38  C   UNL A   1      38.326  31.521  30.850  1.00  0.00     0.074 A 
ATOM     39  C   UNL A   1      37.948  33.097  32.719  1.00  0.00     0.049 A 
ATOM     40  N   UNL A   1      39.295  30.787  31.330  1.00  0.00    -0.248 NA
ATOM     41  C   UNL A   1      37.874  31.122  29.509  1.00  0.00     0.031 C 
ATOM     42  C   UNL A   1      37.289  34.175  33.460  1.00  0.00     0.029 A 
ATOM     43  N   UNL A   1      38.929  32.662  33.573  1.00  0.00    -0.354 N 
ATOM     44  C   UNL A   1      39.560  29.827  30.358  1.00  0.00     0.074 A 
ATOM     45  C   UNL A   1      38.607  30.042  29.289  1.00  0.00     0.031 C 
ATOM     46  C   UNL A   1      37.894  34.327  34.649  1.00  0.00     0.029 A 
ATOM     47  C   UNL A   1      38.956  33.333  34.774  1.00  0.00     0.049 A 
ATOM     48  H   UNL A   1      39.557  31.938  33.348  1.00  0.00     0.167 HD
ATOM     49  C   UNL A   1      40.520  28.869  30.352  1.00  0.00     0.034 A 
ATOM     50  C   UNL A   1      39.736  33.159  35.860  1.00  0.00     0.034 A 
ATOM     51  C   UNL A   1      41.472  28.680  31.420  1.00  0.00     0.049 A 
ATOM     52  C   UNL A   1      40.798  32.088  35.829  1.00  0.00     0.074 A 
ATOM     53  C   UNL A   1      42.527  27.785  31.486  1.00  0.00     0.029 A 
ATOM     54  N   UNL A   1      41.481  29.392  32.612  1.00  0.00    -0.354 N 
ATOM     55  N   UNL A   1      41.072  31.225  34.879  1.00  0.00    -0.248 NA
ATOM     56  C   UNL A   1      41.661  31.977  37.012  1.00  0.00     0.031 C 
ATOM     57  C   UNL A   1      43.133  27.913  32.741  1.00  0.00     0.029 A 
ATOM     58  C   UNL A   1      42.504  28.938  33.431  1.00  0.00     0.049 A 
ATOM     59  H   UNL A   1      40.853  30.114  32.842  1.00  0.00     0.167 HD
ATOM     60  C   UNL A   1      42.158  30.487  35.340  1.00  0.00     0.074 A 
ATOM     61  C   UNL A   1      42.496  31.017  36.646  1.00  0.00     0.031 C 
ATOM     62  C   UNL A   1      42.821  29.467  34.737  1.00  0.00     0.034 A 
BRANCH  49  63
ATOM     63  C   UNL A   1      40.566  27.941  29.161  1.00  0.00     0.023 A 
ATOM     64  C   UNL A   1      41.518  28.098  28.138  1.00  0.00     0.031 A 
ATOM     65  C   UNL A   1      39.626  26.903  29.031  1.00  0.00     0.131 A 
ATOM     66  C   UNL A   1      41.460  27.284  26.997  1.00  0.00     0.055 A 
ATOM     67  C   UNL A   1      39.626  26.044  27.929  1.00  0.00     0.041 A 
ATOM     68  F   UNL A   1      38.680  26.717  29.963  1.00  0.00    -0.206 F 
ATOM     69  C   UNL A   1      40.537  26.242  26.896  1.00  0.00     0.022 A 
BRANCH  66  70
ATOM     70  S   UNL A   1      42.516  27.703  25.583  1.00  0.00     0.124 S 
ATOM     71  O   UNL A   1      41.857  28.902  25.068  1.00  0.00    -0.237 OA
ATOM     72  O   UNL A   1      43.817  27.908  26.209  1.00  0.00    -0.237 OA
ATOM     73  O   UNL A   1      42.417  26.528  24.720  1.00  0.00    -0.744 OA
ENDBRANCH  66  70
ENDBRANCH  49  63
BRANCH  50  74
ATOM     74  C   UNL A   1      39.545  34.007  37.071  1.00  0.00     0.023 A 
ATOM     75  C   UNL A   1      38.942  33.491  38.228  1.00  0.00     0.031 A 
ATOM     76  C   UNL A   1      39.934  35.358  37.075  1.00  0.00     0.131 A 
ATOM     77  C   UNL A   1      38.705  34.330  39.327  1.00  0.00     0.055 A 
ATOM     78  C   UNL A   1      39.739  36.177  38.189  1.00  0.00     0.041 A 
ATOM     79  F   UNL A   1      40.522  35.898  35.996  1.00  0.00    -0.206 F 
ATOM     80  C   UNL A   1      39.109  35.667  39.320  1.00  0.00     0.022 A 
BRANCH  77  81
ATOM     81  S   UNL A   1      37.789  33.666  40.745  1.00  0.00     0.124 S 
ATOM     82  O   UNL A   1      37.202  34.874  41.314  1.00  0.00    -0.237 OA
ATOM     83  O   UNL A   1      36.862  32.743  40.100  1.00  0.00    -0.237 OA
ATOM     84  O   UNL A   1      38.829  33.035  41.556  1.00  0.00    -0.744 OA
ENDBRANCH  77  81
ENDBRANCH  50  74
BRANCH  62  85
ATOM     85  C   UNL A   1      44.006  28.891  35.473  1.00  0.00     0.023 A 
ATOM     86  C   UNL A   1      43.876  27.791  36.337  1.00  0.00     0.031 A 
ATOM     87  C   UNL A   1      45.281  29.460  35.310  1.00  0.00     0.131 A 
ATOM     88  C   UNL A   1      44.993  27.327  37.049  1.00  0.00     0.055 A 
ATOM     89  C   UNL A   1      46.399  28.958  35.976  1.00  0.00     0.041 A 
ATOM     90  F   UNL A   1      45.461  30.514  34.497  1.00  0.00    -0.206 F 
ATOM     91  C   UNL A   1      46.258  27.894  36.862  1.00  0.00     0.022 A 
BRANCH  88  92
ATOM     92  S   UNL A   1      44.757  26.026  38.290  1.00  0.00     0.124 S 
ATOM     93  O   UNL A   1      46.122  25.557  38.502  1.00  0.00    -0.237 OA
ATOM     94  O   UNL A   1      44.155  26.759  39.399  1.00  0.00    -0.237 OA
ATOM     95  O   UNL A   1      43.870  25.073  37.624  1.00  0.00    -0.744 OA
ENDBRANCH  88  92
ENDBRANCH  62  85
ENDBRANCH  36  37
ENDBRANCH  28  31
ENDBRANCH  26  27
ENDBRANCH   1  26
TORSDOF 17
ENDMDL
MODEL 3
REMARK VINA RESULT:     -11.8      1.829      7.848
REMARK SMILES C[NH2+][C@]1(C(=O)NCCCCNC(=O)c2ccc(-c3c4nc(c(-c5cc(S(=O)(=O)[O-])ccc5F)c5ccc([nH]5)c(-c5cc(S(=O)(=O)[O-])ccc5F)c5nc(c(-c6cc(S(=O)(=O)[O-])ccc6F)c6ccc3[nH]6)C=C5)C=C4)cc2)CC[C@@H](Sc2cc(F)ccc2F)C1
REMARK SMILES IDX 9 1 8 2 7 3 6 4 4 5 5 6 3 8 77 9 89 10 78 11 79 12 2 13 1 14
REMARK SMILES IDX 80 17 81 18 82 19 87 20 83 21 86 22 88 23 84 24 85 25 10 26
REMARK SMILES IDX 11 27 12 28 13 30 14 31 15 32 76 33 16 34 75 35 17 36 18 37
REMARK SMILES IDX 19 38 69 39 20 40 74 41 68 42 70 43 21 44 73 45 67 46 66 47
REMARK SMILES IDX 22 49 54 50 34 51 53 52 35 53 38 54 52 55 71 56 36 57 37 58
REMARK SMILES IDX 51 60 72 61 39 62 23 63 24 64 32 65 25 66 31 67 33 68 30 69
REMARK SMILES IDX 26 70 27 71 28 72 29 73 55 74 56 75 64 76 57 77 63 78 65 79
REMARK SMILES IDX 62 80 58 81 59 82 60 83 61 84 40 85 41 86 49 87 42 88 48 89
REMARK SMILES IDX 50 90 47 91 43 92 44 93 45 94 46 95
REMARK H PARENT 6 7 2 15 2 16 11 29 70 48 38 59
REMARK Flexibility Score: inf
ROOT
ATOM      1  C   UNL A   1      31.034  32.078  26.553  1.00  0.00     0.023 C 
ENDROOT
BRANCH   1   2
ATOM      2  C   UNL A   1      30.967  31.060  25.416  1.00  0.00     0.023 C 
BRANCH   2   3
ATOM      3  C   UNL A   1      31.853  29.831  25.610  1.00  0.00     0.116 C 
BRANCH   3   4
ATOM      4  N   UNL A   1      32.860  29.720  24.571  1.00  0.00    -0.351 N 
ATOM      5  C   UNL A   1      32.931  28.967  23.431  1.00  0.00     0.281 C 
ATOM      6  O   UNL A   1      33.983  29.084  22.795  1.00  0.00    -0.268 OA
ATOM      7  H   UNL A   1      33.643  30.297  24.713  1.00  0.00     0.163 HD
BRANCH   5   8
ATOM      8  C   UNL A   1      31.742  28.059  22.939  1.00  0.00     0.176 C 
ATOM      9  C   UNL A   1      31.275  27.067  24.030  1.00  0.00     0.080 C 
ATOM     10  C   UNL A   1      30.483  28.895  22.631  1.00  0.00     0.094 C 
ATOM     11  C   UNL A   1      29.757  26.927  23.896  1.00  0.00     0.022 C 
ATOM     12  C   UNL A   1      29.315  27.939  22.839  1.00  0.00     0.059 C 
BRANCH   8  13
ATOM     13  N   UNL A   1      32.164  27.198  21.798  1.00  0.00    -0.336 N 
ATOM     14  C   UNL A   1      32.713  25.898  22.147  1.00  0.00     0.331 C 
ATOM     15  H   UNL A   1      31.348  27.044  21.205  1.00  0.00     0.346 HD
ATOM     16  H   UNL A   1      32.923  27.703  21.340  1.00  0.00     0.346 HD
ENDBRANCH   8  13
BRANCH  12  17
ATOM     17  S   UNL A   1      27.681  28.723  23.142  1.00  0.00    -0.119 SA
BRANCH  17  18
ATOM     18  C   UNL A   1      27.868  30.380  22.497  1.00  0.00     0.046 A 
ATOM     19  C   UNL A   1      27.974  30.573  21.116  1.00  0.00     0.057 A 
ATOM     20  C   UNL A   1      28.022  31.494  23.336  1.00  0.00     0.136 A 
ATOM     21  C   UNL A   1      28.183  31.854  20.603  1.00  0.00     0.124 A 
ATOM     22  C   UNL A   1      28.219  32.776  22.818  1.00  0.00     0.043 A 
ATOM     23  F   UNL A   1      27.965  31.353  24.668  1.00  0.00    -0.206 F 
ATOM     24  F   UNL A   1      28.282  32.019  19.279  1.00  0.00    -0.207 F 
ATOM     25  C   UNL A   1      28.297  32.959  21.440  1.00  0.00     0.042 A 
ENDBRANCH  17  18
ENDBRANCH  12  17
ENDBRANCH   5   8
ENDBRANCH   3   4
ENDBRANCH   2   3
ENDBRANCH   1   2
BRANCH   1  26
ATOM     26  C   UNL A   1      32.439  32.457  27.009  1.00  0.00     0.116 C 
BRANCH  26  27
ATOM     27  N   UNL A   1      32.543  33.823  27.497  1.00  0.00    -0.352 N 
ATOM     28  C   UNL A   1      33.504  34.368  28.320  1.00  0.00     0.251 C 
ATOM     29  H   UNL A   1      31.834  34.438  27.201  1.00  0.00     0.163 HD
ATOM     30  O   UNL A   1      33.406  35.528  28.690  1.00  0.00    -0.269 OA
BRANCH  28  31
ATOM     31  C   UNL A   1      34.626  33.519  28.775  1.00  0.00     0.039 A 
ATOM     32  C   UNL A   1      35.934  33.933  28.514  1.00  0.00     0.014 A 
ATOM     33  C   UNL A   1      34.385  32.347  29.499  1.00  0.00     0.014 A 
ATOM     34  C   UNL A   1      37.005  33.209  29.044  1.00  0.00     0.010 A 
ATOM     35  C   UNL A   1      35.451  31.665  30.079  1.00  0.00     0.010 A 
ATOM     36  C   UNL A   1      36.771  32.092  29.864  1.00  0.00    -0.014 A 
BRANCH  36  37
ATOM     37  C   UNL A   1      37.891  31.361  30.512  1.00  0.00     0.031 A 
ATOM     38  C   UNL A   1      38.292  31.695  31.922  1.00  0.00     0.074 A 
ATOM     39  C   UNL A   1      38.594  30.455  29.803  1.00  0.00     0.049 A 
ATOM     40  N   UNL A   1      39.294  31.239  32.627  1.00  0.00    -0.248 NA
ATOM     41  C   UNL A   1      37.475  32.702  32.616  1.00  0.00     0.031 C 
ATOM     42  C   UNL A   1      38.331  30.082  28.411  1.00  0.00     0.029 A 
ATOM     43  N   UNL A   1      39.682  29.694  30.148  1.00  0.00    -0.354 N 
ATOM     44  C   UNL A   1      39.240  31.914  33.843  1.00  0.00     0.074 A 
ATOM     45  C   UNL A   1      38.139  32.851  33.751  1.00  0.00     0.031 C 
ATOM     46  C   UNL A   1      39.222  29.154  28.028  1.00  0.00     0.029 A 
ATOM     47  C   UNL A   1      40.144  28.894  29.129  1.00  0.00     0.049 A 
ATOM     48  H   UNL A   1      40.093  29.718  31.043  1.00  0.00     0.167 HD
ATOM     49  C   UNL A   1      40.023  31.753  34.938  1.00  0.00     0.034 A 
ATOM     50  C   UNL A   1      41.200  28.057  29.081  1.00  0.00     0.034 A 
ATOM     51  C   UNL A   1      41.106  30.802  35.018  1.00  0.00     0.049 A 
ATOM     52  C   UNL A   1      42.057  27.894  30.311  1.00  0.00     0.074 A 
ATOM     53  C   UNL A   1      41.920  30.511  36.100  1.00  0.00     0.029 A 
ATOM     54  N   UNL A   1      41.532  29.994  33.972  1.00  0.00    -0.354 N 
ATOM     55  N   UNL A   1      41.958  28.498  31.472  1.00  0.00    -0.248 NA
ATOM     56  C   UNL A   1      43.159  26.926  30.227  1.00  0.00     0.031 C 
ATOM     57  C   UNL A   1      42.875  29.573  35.690  1.00  0.00     0.029 A 
ATOM     58  C   UNL A   1      42.614  29.225  34.374  1.00  0.00     0.049 A 
ATOM     59  H   UNL A   1      41.126  29.970  33.076  1.00  0.00     0.167 HD
ATOM     60  C   UNL A   1      42.968  27.963  32.266  1.00  0.00     0.074 A 
ATOM     61  C   UNL A   1      43.654  26.977  31.454  1.00  0.00     0.031 C 
ATOM     62  C   UNL A   1      43.297  28.255  33.550  1.00  0.00     0.034 A 
BRANCH  49  63
ATOM     63  C   UNL A   1      39.747  32.645  36.126  1.00  0.00     0.023 A 
ATOM     64  C   UNL A   1      38.921  32.231  37.185  1.00  0.00     0.031 A 
ATOM     65  C   UNL A   1      40.293  33.940  36.185  1.00  0.00     0.131 A 
ATOM     66  C   UNL A   1      38.602  33.126  38.217  1.00  0.00     0.055 A 
ATOM     67  C   UNL A   1      40.037  34.798  37.258  1.00  0.00     0.041 A 
ATOM     68  F   UNL A   1      41.072  34.400  35.194  1.00  0.00    -0.206 F 
ATOM     69  C   UNL A   1      39.174  34.398  38.274  1.00  0.00     0.022 A 
BRANCH  66  70
ATOM     70  S   UNL A   1      37.315  32.654  39.404  1.00  0.00     0.124 S 
ATOM     71  O   UNL A   1      37.452  33.698  40.417  1.00  0.00    -0.237 OA
ATOM     72  O   UNL A   1      36.104  32.704  38.594  1.00  0.00    -0.237 OA
ATOM     73  O   UNL A   1      37.721  31.318  39.837  1.00  0.00    -0.744 OA
ENDBRANCH  66  70
ENDBRANCH  49  63
BRANCH  50  74
ATOM     74  C   UNL A   1      41.517  27.314  27.828  1.00  0.00     0.023 A 
ATOM     75  C   UNL A   1      41.329  25.926  27.742  1.00  0.00     0.031 A 
ATOM     76  C   UNL A   1      42.045  27.980  26.708  1.00  0.00     0.131 A 
ATOM     77  C   UNL A   1      41.707  25.240  26.577  1.00  0.00     0.055 A 
ATOM     78  C   UNL A   1      42.375  27.300  25.534  1.00  0.00     0.041 A 
ATOM     79  F   UNL A   1      42.236  29.308  26.736  1.00  0.00    -0.206 F 
ATOM     80  C   UNL A   1      42.218  25.918  25.469  1.00  0.00     0.022 A 
BRANCH  77  81
ATOM     81  S   UNL A   1      41.589  23.430  26.559  1.00  0.00     0.124 S 
ATOM     82  O   UNL A   1      40.149  23.225  26.460  1.00  0.00    -0.237 OA
ATOM     83  O   UNL A   1      42.371  23.089  25.376  1.00  0.00    -0.237 OA
ATOM     84  O   UNL A   1      42.190  23.037  27.833  1.00  0.00    -0.744 OA
ENDBRANCH  77  81
ENDBRANCH  50  74
BRANCH  62  85
ATOM     85  C   UNL A   1      44.424  27.462  34.165  1.00  0.00     0.023 A 
ATOM     86  C   UNL A   1      44.184  26.322  34.950  1.00  0.00     0.031 A 
ATOM     87  C   UNL A   1      45.757  27.862  33.967  1.00  0.00     0.131 A 
ATOM     88  C   UNL A   1      45.258  25.652  35.554  1.00  0.00     0.055 A 
ATOM     89  C   UNL A   1      46.825  27.158  34.523  1.00  0.00     0.041 A 
ATOM     90  F   UNL A   1      46.043  28.946  33.226  1.00  0.00    -0.206 F 
ATOM     91  C   UNL A   1      46.579  26.054  35.332  1.00  0.00     0.022 A 
BRANCH  88  92
ATOM     92  S   UNL A   1      44.904  24.296  36.706  1.00  0.00     0.124 S 
ATOM     93  O   UNL A   1      46.189  24.121  37.374  1.00  0.00    -0.237 OA
ATOM     94  O   UNL A   1      43.831  24.853  37.523  1.00  0.00    -0.237 OA
ATOM     95  O   UNL A   1      44.506  23.196  35.829  1.00  0.00    -0.744 OA
ENDBRANCH  88  92
ENDBRANCH  62  85
ENDBRANCH  36  37
ENDBRANCH  28  31
ENDBRANCH  26  27
ENDBRANCH   1  26
TORSDOF 17
ENDMDL
