MODEL 1
REMARK VINA RESULT:     -12.0      0.000      0.000
REMARK SMILES C[C@@H]1CN(C(=O)C[NH+]2CCC(CC(=O)NCCCCNC(=O)c3ccc(-c4c5nc(c(-c6cc(S(=O)(=O)[O-])ccc6F)c6ccc([nH]6)c(-c6cc(S(=O)(=O)[O-])ccc6F)c6nc(c(-c7cc(S(=O)(=O)[O-])ccc7F)c7ccc4[nH]7)C=C6)C=C5)cc3)CC2)C[C@@H](C)O1
REMARK SMILES IDX 17 1 16 2 15 3 13 4 14 5 12 7 11 8 8 9 9 10 87 11 10 13
REMARK SMILES IDX 86 14 7 15 5 16 1 17 2 18 3 19 91 20 4 21 89 22 88 23 90 24
REMARK SMILES IDX 6 25 18 26 19 27 20 28 21 29 22 31 23 32 24 33 85 34 25 35
REMARK SMILES IDX 84 36 26 37 27 38 28 39 78 40 29 41 83 42 77 43 79 44 30 45
REMARK SMILES IDX 82 46 76 47 75 48 31 50 63 51 43 52 62 53 44 54 47 55 61 56
REMARK SMILES IDX 80 57 45 58 46 59 60 61 81 62 48 63 32 64 33 65 41 66 34 67
REMARK SMILES IDX 40 68 42 69 39 70 35 71 36 72 37 73 38 74 64 75 65 76 73 77
REMARK SMILES IDX 66 78 72 79 74 80 71 81 67 82 68 83 69 84 70 85 49 86 50 87
REMARK SMILES IDX 58 88 51 89 57 90 59 91 56 92 52 93 53 94 54 95 55 96
REMARK H PARENT 15 6 8 12 20 30 79 49 47 60
REMARK Flexibility Score: inf
ROOT
ATOM      1  C   UNL A   1      32.275  27.793  26.372  1.00  0.00     0.023 C 
ENDROOT
BRANCH   1   2
ATOM      2  C   UNL A   1      31.137  26.789  26.226  1.00  0.00     0.116 C 
BRANCH   2   3
ATOM      3  N   UNL A   1      31.469  25.580  26.947  1.00  0.00    -0.356 N 
ATOM      4  C   UNL A   1      31.760  24.356  26.426  1.00  0.00     0.220 C 
ATOM      5  O   UNL A   1      31.788  23.378  27.172  1.00  0.00    -0.275 OA
ATOM      6  H   UNL A   1      31.487  25.650  27.929  1.00  0.00     0.163 HD
BRANCH   4   7
ATOM      7  C   UNL A   1      32.114  24.222  24.953  1.00  0.00     0.104 C 
BRANCH   7   8
ATOM      8  C   UNL A   1      33.515  24.755  24.510  1.00  0.00     0.009 C 
ATOM      9  N   UNL A   1      35.941  23.107  24.937  1.00  0.00    -0.327 N 
ATOM     10  C   UNL A   1      35.517  23.334  23.562  1.00  0.00     0.262 C 
ATOM     11  C   UNL A   1      35.885  24.393  25.618  1.00  0.00     0.262 C 
ATOM     12  H   UNL A   1      36.887  22.727  24.905  1.00  0.00     0.348 HD
ATOM     13  C   UNL A   1      34.083  23.834  23.410  1.00  0.00     0.066 C 
ATOM     14  C   UNL A   1      34.471  24.951  25.712  1.00  0.00     0.066 C 
BRANCH   9  15
ATOM     15  C   UNL A   1      35.212  22.056  25.681  1.00  0.00     0.363 C 
BRANCH  15  16
ATOM     16  C   UNL A   1      35.449  20.643  25.120  1.00  0.00     0.277 C 
ATOM     17  C   UNL A   1      32.299  20.353  22.717  1.00  0.00     0.040 C 
ATOM     18  C   UNL A   1      32.115  19.560  24.011  1.00  0.00     0.135 C 
ATOM     19  C   UNL A   1      32.956  20.037  25.219  1.00  0.00     0.151 C 
ATOM     20  O   UNL A   1      32.373  18.167  23.757  1.00  0.00    -0.372 OA
ATOM     21  N   UNL A   1      34.381  19.759  25.019  1.00  0.00    -0.333 N 
ATOM     22  C   UNL A   1      33.767  17.898  23.508  1.00  0.00     0.135 C 
ATOM     23  C   UNL A   1      34.640  18.355  24.688  1.00  0.00     0.151 C 
ATOM     24  C   UNL A   1      33.881  16.401  23.274  1.00  0.00     0.040 C 
ATOM     25  O   UNL A   1      36.593  20.288  24.815  1.00  0.00    -0.268 OA
ENDBRANCH  15  16
ENDBRANCH   9  15
ENDBRANCH   7   8
ENDBRANCH   4   7
ENDBRANCH   2   3
ENDBRANCH   1   2
BRANCH   1  26
ATOM     26  C   UNL A   1      31.852  29.223  26.615  1.00  0.00     0.023 C 
BRANCH  26  27
ATOM     27  C   UNL A   1      32.900  30.232  26.205  1.00  0.00     0.116 C 
BRANCH  27  28
ATOM     28  N   UNL A   1      32.715  31.555  26.797  1.00  0.00    -0.352 N 
ATOM     29  C   UNL A   1      33.599  32.242  27.609  1.00  0.00     0.251 C 
ATOM     30  H   UNL A   1      31.865  32.008  26.595  1.00  0.00     0.163 HD
ATOM     31  O   UNL A   1      33.309  33.308  28.109  1.00  0.00    -0.269 OA
BRANCH  29  32
ATOM     32  C   UNL A   1      34.893  31.579  27.877  1.00  0.00     0.039 A 
ATOM     33  C   UNL A   1      36.043  32.358  27.997  1.00  0.00     0.014 A 
ATOM     34  C   UNL A   1      34.887  30.232  28.244  1.00  0.00     0.014 A 
ATOM     35  C   UNL A   1      37.181  31.798  28.582  1.00  0.00     0.010 A 
ATOM     36  C   UNL A   1      35.968  29.730  28.946  1.00  0.00     0.010 A 
ATOM     37  C   UNL A   1      37.134  30.499  29.112  1.00  0.00    -0.014 A 
BRANCH  37  38
ATOM     38  C   UNL A   1      38.296  29.865  29.789  1.00  0.00     0.031 A 
ATOM     39  C   UNL A   1      38.626  30.311  31.191  1.00  0.00     0.074 A 
ATOM     40  C   UNL A   1      39.103  29.006  29.136  1.00  0.00     0.049 A 
ATOM     41  N   UNL A   1      39.710  30.117  31.891  1.00  0.00    -0.248 NA
ATOM     42  C   UNL A   1      37.623  31.159  31.858  1.00  0.00     0.031 C 
ATOM     43  C   UNL A   1      38.916  28.531  27.762  1.00  0.00     0.029 A 
ATOM     44  N   UNL A   1      40.262  28.389  29.539  1.00  0.00    -0.354 N 
ATOM     45  C   UNL A   1      39.545  30.872  33.048  1.00  0.00     0.074 A 
ATOM     46  C   UNL A   1      38.293  31.582  32.916  1.00  0.00     0.031 C 
ATOM     47  C   UNL A   1      39.907  27.679  27.449  1.00  0.00     0.029 A 
ATOM     48  C   UNL A   1      40.831  27.586  28.575  1.00  0.00     0.049 A 
ATOM     49  H   UNL A   1      40.650  28.509  30.436  1.00  0.00     0.167 HD
ATOM     50  C   UNL A   1      40.348  30.941  34.136  1.00  0.00     0.034 A 
ATOM     51  C   UNL A   1      41.976  26.872  28.599  1.00  0.00     0.034 A 
ATOM     52  C   UNL A   1      41.543  30.154  34.282  1.00  0.00     0.049 A 
ATOM     53  C   UNL A   1      42.825  26.912  29.849  1.00  0.00     0.074 A 
ATOM     54  C   UNL A   1      42.397  30.073  35.367  1.00  0.00     0.029 A 
ATOM     55  N   UNL A   1      42.039  29.287  33.317  1.00  0.00    -0.354 N 
ATOM     56  N   UNL A   1      42.643  27.611  30.947  1.00  0.00    -0.248 NA
ATOM     57  C   UNL A   1      44.023  26.061  29.871  1.00  0.00     0.031 C 
ATOM     58  C   UNL A   1      43.431  29.189  35.043  1.00  0.00     0.029 A 
ATOM     59  C   UNL A   1      43.187  28.670  33.781  1.00  0.00     0.049 A 
ATOM     60  H   UNL A   1      41.633  29.135  32.432  1.00  0.00     0.167 HD
ATOM     61  C   UNL A   1      43.678  27.245  31.804  1.00  0.00     0.074 A 
ATOM     62  C   UNL A   1      44.479  26.267  31.098  1.00  0.00     0.031 C 
ATOM     63  C   UNL A   1      43.943  27.673  33.065  1.00  0.00     0.034 A 
BRANCH  50  64
ATOM     64  C   UNL A   1      39.955  31.897  35.235  1.00  0.00     0.023 A 
ATOM     65  C   UNL A   1      39.184  31.481  36.335  1.00  0.00     0.031 A 
ATOM     66  C   UNL A   1      40.320  33.253  35.162  1.00  0.00     0.131 A 
ATOM     67  C   UNL A   1      38.724  32.426  37.264  1.00  0.00     0.055 A 
ATOM     68  C   UNL A   1      39.937  34.171  36.141  1.00  0.00     0.041 A 
ATOM     69  F   UNL A   1      41.037  33.712  34.125  1.00  0.00    -0.206 F 
ATOM     70  C   UNL A   1      39.120  33.762  37.191  1.00  0.00     0.022 A 
BRANCH  67  71
ATOM     71  S   UNL A   1      37.483  31.906  38.478  1.00  0.00     0.124 S 
ATOM     72  O   UNL A   1      36.422  32.883  38.247  1.00  0.00    -0.237 OA
ATOM     73  O   UNL A   1      37.191  30.537  38.068  1.00  0.00    -0.237 OA
ATOM     74  O   UNL A   1      38.178  32.040  39.757  1.00  0.00    -0.744 OA
ENDBRANCH  67  71
ENDBRANCH  50  64
BRANCH  51  75
ATOM     75  C   UNL A   1      42.401  26.061  27.421  1.00  0.00     0.023 A 
ATOM     76  C   UNL A   1      42.019  24.714  27.299  1.00  0.00     0.031 A 
ATOM     77  C   UNL A   1      43.244  26.595  26.430  1.00  0.00     0.131 A 
ATOM     78  C   UNL A   1      42.527  23.931  26.250  1.00  0.00     0.055 A 
ATOM     79  C   UNL A   1      43.702  25.827  25.357  1.00  0.00     0.041 A 
ATOM     80  F   UNL A   1      43.635  27.877  26.491  1.00  0.00    -0.206 F 
ATOM     81  C   UNL A   1      43.356  24.481  25.271  1.00  0.00     0.022 A 
BRANCH  78  82
ATOM     82  S   UNL A   1      42.171  22.152  26.244  1.00  0.00     0.124 S 
ATOM     83  O   UNL A   1      42.948  21.697  25.098  1.00  0.00    -0.237 OA
ATOM     84  O   UNL A   1      42.661  21.742  27.557  1.00  0.00    -0.237 OA
ATOM     85  O   UNL A   1      40.719  22.097  26.077  1.00  0.00    -0.744 OA
ENDBRANCH  78  82
ENDBRANCH  51  75
BRANCH  63  86
ATOM     86  C   UNL A   1      45.086  27.019  33.792  1.00  0.00     0.023 A 
ATOM     87  C   UNL A   1      44.918  25.841  34.536  1.00  0.00     0.031 A 
ATOM     88  C   UNL A   1      46.375  27.573  33.699  1.00  0.00     0.131 A 
ATOM     89  C   UNL A   1      46.020  25.270  35.190  1.00  0.00     0.055 A 
ATOM     90  C   UNL A   1      47.476  26.974  34.311  1.00  0.00     0.041 A 
ATOM     91  F   UNL A   1      46.586  28.696  32.994  1.00  0.00    -0.206 F 
ATOM     92  C   UNL A   1      47.299  25.820  35.068  1.00  0.00     0.022 A 
BRANCH  89  93
ATOM     93  S   UNL A   1      45.751  23.820  36.244  1.00  0.00     0.124 S 
ATOM     94  O   UNL A   1      44.546  23.239  35.662  1.00  0.00    -0.237 OA
ATOM     95  O   UNL A   1      46.981  23.060  36.051  1.00  0.00    -0.237 OA
ATOM     96  O   UNL A   1      45.583  24.394  37.579  1.00  0.00    -0.744 OA
ENDBRANCH  89  93
ENDBRANCH  63  86
ENDBRANCH  37  38
ENDBRANCH  29  32
ENDBRANCH  27  28
ENDBRANCH  26  27
ENDBRANCH   1  26
TORSDOF 17
ENDMDL
MODEL 2
REMARK VINA RESULT:     -11.8      5.698      8.870
REMARK SMILES C[C@@H]1CN(C(=O)C[NH+]2CCC(CC(=O)NCCCCNC(=O)c3ccc(-c4c5nc(c(-c6cc(S(=O)(=O)[O-])ccc6F)c6ccc([nH]6)c(-c6cc(S(=O)(=O)[O-])ccc6F)c6nc(c(-c7cc(S(=O)(=O)[O-])ccc7F)c7ccc4[nH]7)C=C6)C=C5)cc3)CC2)C[C@@H](C)O1
REMARK SMILES IDX 17 1 16 2 15 3 13 4 14 5 12 7 11 8 8 9 9 10 87 11 10 13
REMARK SMILES IDX 86 14 7 15 5 16 1 17 2 18 3 19 91 20 4 21 89 22 88 23 90 24
REMARK SMILES IDX 6 25 18 26 19 27 20 28 21 29 22 31 23 32 24 33 85 34 25 35
REMARK SMILES IDX 84 36 26 37 27 38 28 39 78 40 29 41 83 42 77 43 79 44 30 45
REMARK SMILES IDX 82 46 76 47 75 48 31 50 63 51 43 52 62 53 44 54 47 55 61 56
REMARK SMILES IDX 80 57 45 58 46 59 60 61 81 62 48 63 32 64 33 65 41 66 34 67
REMARK SMILES IDX 40 68 42 69 39 70 35 71 36 72 37 73 38 74 64 75 65 76 73 77
REMARK SMILES IDX 66 78 72 79 74 80 71 81 67 82 68 83 69 84 70 85 49 86 50 87
REMARK SMILES IDX 58 88 51 89 57 90 59 91 56 92 52 93 53 94 54 95 55 96
REMARK H PARENT 15 6 8 12 20 30 79 49 47 60
REMARK Flexibility Score: inf
ROOT
ATOM      1  C   UNL A   1      37.802  23.247  25.697  1.00  0.00     0.023 C 
ENDROOT
BRANCH   1   2
ATOM      2  C   UNL A   1      36.301  23.504  25.631  1.00  0.00     0.116 C 
BRANCH   2   3
ATOM      3  N   UNL A   1      35.631  22.689  26.619  1.00  0.00    -0.356 N 
ATOM      4  C   UNL A   1      34.325  22.752  27.000  1.00  0.00     0.220 C 
ATOM      5  O   UNL A   1      33.967  22.156  28.015  1.00  0.00    -0.275 OA
ATOM      6  H   UNL A   1      36.183  22.010  27.070  1.00  0.00     0.163 HD
BRANCH   4   7
ATOM      7  C   UNL A   1      33.316  23.491  26.135  1.00  0.00     0.104 C 
BRANCH   7   8
ATOM      8  C   UNL A   1      32.442  22.628  25.169  1.00  0.00     0.009 C 
ATOM      9  N   UNL A   1      31.837  23.599  22.435  1.00  0.00    -0.327 N 
ATOM     10  C   UNL A   1      32.700  22.431  22.558  1.00  0.00     0.262 C 
ATOM     11  C   UNL A   1      30.707  23.389  23.330  1.00  0.00     0.262 C 
ATOM     12  H   UNL A   1      31.550  23.665  21.458  1.00  0.00     0.348 HD
ATOM     13  C   UNL A   1      33.291  22.218  23.948  1.00  0.00     0.066 C 
ATOM     14  C   UNL A   1      31.116  23.334  24.796  1.00  0.00     0.066 C 
BRANCH   9  15
ATOM     15  C   UNL A   1      32.480  24.913  22.657  1.00  0.00     0.363 C 
BRANCH  15  16
ATOM     16  C   UNL A   1      31.626  26.095  22.163  1.00  0.00     0.277 C 
ATOM     17  C   UNL A   1      33.104  28.979  24.460  1.00  0.00     0.040 C 
ATOM     18  C   UNL A   1      31.739  28.494  24.946  1.00  0.00     0.135 C 
ATOM     19  C   UNL A   1      31.346  27.058  24.526  1.00  0.00     0.151 C 
ATOM     20  O   UNL A   1      30.724  29.421  24.521  1.00  0.00    -0.372 OA
ATOM     21  N   UNL A   1      31.080  26.978  23.087  1.00  0.00    -0.333 N 
ATOM     22  C   UNL A   1      30.498  29.383  23.098  1.00  0.00     0.135 C 
ATOM     23  C   UNL A   1      30.100  27.971  22.638  1.00  0.00     0.151 C 
ATOM     24  C   UNL A   1      29.403  30.395  22.809  1.00  0.00     0.040 C 
ATOM     25  O   UNL A   1      31.389  26.218  20.955  1.00  0.00    -0.268 OA
ENDBRANCH  15  16
ENDBRANCH   9  15
ENDBRANCH   7   8
ENDBRANCH   4   7
ENDBRANCH   2   3
ENDBRANCH   1   2
BRANCH   1  26
ATOM     26  C   UNL A   1      38.217  21.796  25.619  1.00  0.00     0.023 C 
BRANCH  26  27
ATOM     27  C   UNL A   1      39.416  21.472  26.480  1.00  0.00     0.116 C 
BRANCH  27  28
ATOM     28  N   UNL A   1      40.031  20.182  26.179  1.00  0.00    -0.352 N 
ATOM     29  C   UNL A   1      41.381  19.903  26.060  1.00  0.00     0.251 C 
ATOM     30  H   UNL A   1      39.416  19.425  26.046  1.00  0.00     0.163 HD
ATOM     31  O   UNL A   1      41.779  18.806  25.732  1.00  0.00    -0.269 OA
BRANCH  29  32
ATOM     32  C   UNL A   1      42.306  21.031  26.303  1.00  0.00     0.039 A 
ATOM     33  C   UNL A   1      42.636  21.878  25.245  1.00  0.00     0.014 A 
ATOM     34  C   UNL A   1      42.623  21.359  27.621  1.00  0.00     0.014 A 
ATOM     35  C   UNL A   1      43.211  23.119  25.527  1.00  0.00     0.010 A 
ATOM     36  C   UNL A   1      43.063  22.642  27.899  1.00  0.00     0.010 A 
ATOM     37  C   UNL A   1      43.376  23.533  26.857  1.00  0.00    -0.014 A 
BRANCH  37  38
ATOM     38  C   UNL A   1      43.938  24.860  27.222  1.00  0.00     0.031 A 
ATOM     39  C   UNL A   1      43.014  25.869  27.854  1.00  0.00     0.074 A 
ATOM     40  C   UNL A   1      45.201  25.199  26.895  1.00  0.00     0.049 A 
ATOM     41  N   UNL A   1      43.176  27.154  28.023  1.00  0.00    -0.248 NA
ATOM     42  C   UNL A   1      41.695  25.369  28.279  1.00  0.00     0.031 C 
ATOM     43  C   UNL A   1      46.180  24.327  26.240  1.00  0.00     0.029 A 
ATOM     44  N   UNL A   1      45.876  26.385  27.052  1.00  0.00    -0.354 N 
ATOM     45  C   UNL A   1      41.958  27.620  28.510  1.00  0.00     0.074 A 
ATOM     46  C   UNL A   1      41.052  26.495  28.535  1.00  0.00     0.031 C 
ATOM     47  C   UNL A   1      47.333  24.998  26.079  1.00  0.00     0.029 A 
ATOM     48  C   UNL A   1      47.165  26.363  26.566  1.00  0.00     0.049 A 
ATOM     49  H   UNL A   1      45.475  27.178  27.476  1.00  0.00     0.167 HD
ATOM     50  C   UNL A   1      41.636  28.867  28.929  1.00  0.00     0.034 A 
ATOM     51  C   UNL A   1      48.093  27.341  26.509  1.00  0.00     0.034 A 
ATOM     52  C   UNL A   1      42.583  29.948  28.981  1.00  0.00     0.049 A 
ATOM     53  C   UNL A   1      47.733  28.709  27.044  1.00  0.00     0.074 A 
ATOM     54  C   UNL A   1      42.402  31.232  29.460  1.00  0.00     0.029 A 
ATOM     55  N   UNL A   1      43.904  29.860  28.559  1.00  0.00    -0.354 N 
ATOM     56  N   UNL A   1      46.584  29.130  27.525  1.00  0.00    -0.248 NA
ATOM     57  C   UNL A   1      48.791  29.727  27.040  1.00  0.00     0.031 C 
ATOM     58  C   UNL A   1      43.601  31.934  29.292  1.00  0.00     0.029 A 
ATOM     59  C   UNL A   1      44.547  31.068  28.766  1.00  0.00     0.049 A 
ATOM     60  H   UNL A   1      44.320  29.057  28.170  1.00  0.00     0.167 HD
ATOM     61  C   UNL A   1      46.801  30.446  27.923  1.00  0.00     0.074 A 
ATOM     62  C   UNL A   1      48.185  30.750  27.626  1.00  0.00     0.031 C 
ATOM     63  C   UNL A   1      45.938  31.327  28.490  1.00  0.00     0.034 A 
BRANCH  50  64
ATOM     64  C   UNL A   1      40.210  29.113  29.356  1.00  0.00     0.023 A 
ATOM     65  C   UNL A   1      39.829  29.083  30.709  1.00  0.00     0.031 A 
ATOM     66  C   UNL A   1      39.210  29.340  28.395  1.00  0.00     0.131 A 
ATOM     67  C   UNL A   1      38.473  29.181  31.056  1.00  0.00     0.055 A 
ATOM     68  C   UNL A   1      37.875  29.530  28.754  1.00  0.00     0.041 A 
ATOM     69  F   UNL A   1      39.511  29.358  27.087  1.00  0.00    -0.206 F 
ATOM     70  C   UNL A   1      37.497  29.434  30.090  1.00  0.00     0.022 A 
BRANCH  67  71
ATOM     71  S   UNL A   1      37.995  28.823  32.766  1.00  0.00     0.124 S 
ATOM     72  O   UNL A   1      36.638  29.366  32.809  1.00  0.00    -0.237 OA
ATOM     73  O   UNL A   1      38.103  27.371  32.830  1.00  0.00    -0.237 OA
ATOM     74  O   UNL A   1      38.978  29.560  33.559  1.00  0.00    -0.744 OA
ENDBRANCH  67  71
ENDBRANCH  50  64
BRANCH  51  75
ATOM     75  C   UNL A   1      49.444  27.085  25.932  1.00  0.00     0.023 A 
ATOM     76  C   UNL A   1      49.778  27.547  24.647  1.00  0.00     0.031 A 
ATOM     77  C   UNL A   1      50.404  26.324  26.623  1.00  0.00     0.131 A 
ATOM     78  C   UNL A   1      51.008  27.194  24.070  1.00  0.00     0.055 A 
ATOM     79  C   UNL A   1      51.649  26.022  26.067  1.00  0.00     0.041 A 
ATOM     80  F   UNL A   1      50.143  25.863  27.857  1.00  0.00    -0.206 F 
ATOM     81  C   UNL A   1      51.951  26.444  24.776  1.00  0.00     0.022 A 
BRANCH  78  82
ATOM     82  S   UNL A   1      51.314  27.641  22.338  1.00  0.00     0.124 S 
ATOM     83  O   UNL A   1      52.771  27.658  22.288  1.00  0.00    -0.237 OA
ATOM     84  O   UNL A   1      50.659  26.548  21.625  1.00  0.00    -0.237 OA
ATOM     85  O   UNL A   1      50.668  28.945  22.205  1.00  0.00    -0.744 OA
ENDBRANCH  78  82
ENDBRANCH  51  75
BRANCH  63  86
ATOM     86  C   UNL A   1      46.488  32.663  28.910  1.00  0.00     0.023 A 
ATOM     87  C   UNL A   1      46.445  33.783  28.065  1.00  0.00     0.031 A 
ATOM     88  C   UNL A   1      47.029  32.818  30.198  1.00  0.00     0.131 A 
ATOM     89  C   UNL A   1      46.968  35.007  28.508  1.00  0.00     0.055 A 
ATOM     90  C   UNL A   1      47.502  34.048  30.651  1.00  0.00     0.041 A 
ATOM     91  F   UNL A   1      47.086  31.776  31.043  1.00  0.00    -0.206 F 
ATOM     92  C   UNL A   1      47.480  35.150  29.801  1.00  0.00     0.022 A 
BRANCH  89  93
ATOM     93  S   UNL A   1      47.013  36.404  27.354  1.00  0.00     0.124 S 
ATOM     94  O   UNL A   1      47.509  35.776  26.134  1.00  0.00    -0.237 OA
ATOM     95  O   UNL A   1      45.618  36.833  27.327  1.00  0.00    -0.237 OA
ATOM     96  O   UNL A   1      47.936  37.344  27.989  1.00  0.00    -0.744 OA
ENDBRANCH  89  93
ENDBRANCH  63  86
ENDBRANCH  37  38
ENDBRANCH  29  32
ENDBRANCH  27  28
ENDBRANCH  26  27
ENDBRANCH   1  26
TORSDOF 17
ENDMDL
MODEL 3
REMARK VINA RESULT:     -11.8      2.050      3.187
REMARK SMILES C[C@@H]1CN(C(=O)C[NH+]2CCC(CC(=O)NCCCCNC(=O)c3ccc(-c4c5nc(c(-c6cc(S(=O)(=O)[O-])ccc6F)c6ccc([nH]6)c(-c6cc(S(=O)(=O)[O-])ccc6F)c6nc(c(-c7cc(S(=O)(=O)[O-])ccc7F)c7ccc4[nH]7)C=C6)C=C5)cc3)CC2)C[C@@H](C)O1
REMARK SMILES IDX 17 1 16 2 15 3 13 4 14 5 12 7 11 8 8 9 9 10 87 11 10 13
REMARK SMILES IDX 86 14 7 15 5 16 1 17 2 18 3 19 91 20 4 21 89 22 88 23 90 24
REMARK SMILES IDX 6 25 18 26 19 27 20 28 21 29 22 31 23 32 24 33 85 34 25 35
REMARK SMILES IDX 84 36 26 37 27 38 28 39 78 40 29 41 83 42 77 43 79 44 30 45
REMARK SMILES IDX 82 46 76 47 75 48 31 50 63 51 43 52 62 53 44 54 47 55 61 56
REMARK SMILES IDX 80 57 45 58 46 59 60 61 81 62 48 63 32 64 33 65 41 66 34 67
REMARK SMILES IDX 40 68 42 69 39 70 35 71 36 72 37 73 38 74 64 75 65 76 73 77
REMARK SMILES IDX 66 78 72 79 74 80 71 81 67 82 68 83 69 84 70 85 49 86 50 87
REMARK SMILES IDX 58 88 51 89 57 90 59 91 56 92 52 93 53 94 54 95 55 96
REMARK H PARENT 15 6 8 12 20 30 79 49 47 60
REMARK Flexibility Score: inf
ROOT
ATOM      1  C   UNL A   1      34.804  30.548  27.743  1.00  0.00     0.023 C 
ENDROOT
BRANCH   1   2
ATOM      2  C   UNL A   1      34.381  29.172  27.242  1.00  0.00     0.116 C 
BRANCH   2   3
ATOM      3  N   UNL A   1      33.161  28.773  27.908  1.00  0.00    -0.356 N 
ATOM      4  C   UNL A   1      32.074  28.164  27.357  1.00  0.00     0.220 C 
ATOM      5  O   UNL A   1      31.028  28.106  28.001  1.00  0.00    -0.275 OA
ATOM      6  H   UNL A   1      33.109  28.966  28.872  1.00  0.00     0.163 HD
BRANCH   4   7
ATOM      7  C   UNL A   1      32.186  27.505  25.991  1.00  0.00     0.104 C 
BRANCH   7   8
ATOM      8  C   UNL A   1      31.599  28.291  24.774  1.00  0.00     0.009 C 
ATOM      9  N   UNL A   1      32.435  27.608  22.015  1.00  0.00    -0.327 N 
ATOM     10  C   UNL A   1      31.055  27.328  22.387  1.00  0.00     0.262 C 
ATOM     11  C   UNL A   1      32.739  28.953  22.486  1.00  0.00     0.262 C 
ATOM     12  H   UNL A   1      32.499  27.531  20.999  1.00  0.00     0.348 HD
ATOM     13  C   UNL A   1      30.788  27.322  23.889  1.00  0.00     0.066 C 
ATOM     14  C   UNL A   1      32.692  29.071  24.004  1.00  0.00     0.066 C 
BRANCH   9  15
ATOM     15  C   UNL A   1      33.446  26.625  22.462  1.00  0.00     0.363 C 
BRANCH  15  16
ATOM     16  C   UNL A   1      33.155  25.194  21.975  1.00  0.00     0.277 C 
ATOM     17  C   UNL A   1      30.890  23.924  24.981  1.00  0.00     0.040 C 
ATOM     18  C   UNL A   1      32.312  23.366  25.051  1.00  0.00     0.135 C 
ATOM     19  C   UNL A   1      33.398  24.197  24.328  1.00  0.00     0.151 C 
ATOM     20  O   UNL A   1      32.319  22.016  24.552  1.00  0.00    -0.372 OA
ATOM     21  N   UNL A   1      33.235  24.136  22.873  1.00  0.00    -0.333 N 
ATOM     22  C   UNL A   1      32.105  21.949  23.128  1.00  0.00     0.135 C 
ATOM     23  C   UNL A   1      33.168  22.761  22.370  1.00  0.00     0.151 C 
ATOM     24  C   UNL A   1      32.153  20.477  22.754  1.00  0.00     0.040 C 
ATOM     25  O   UNL A   1      32.906  24.991  20.781  1.00  0.00    -0.268 OA
ENDBRANCH  15  16
ENDBRANCH   9  15
ENDBRANCH   7   8
ENDBRANCH   4   7
ENDBRANCH   2   3
ENDBRANCH   1   2
BRANCH   1  26
ATOM     26  C   UNL A   1      33.727  31.608  27.717  1.00  0.00     0.023 C 
BRANCH  26  27
ATOM     27  C   UNL A   1      34.276  33.013  27.626  1.00  0.00     0.116 C 
BRANCH  27  28
ATOM     28  N   UNL A   1      33.488  34.007  28.350  1.00  0.00    -0.352 N 
ATOM     29  C   UNL A   1      33.653  34.416  29.662  1.00  0.00     0.251 C 
ATOM     30  H   UNL A   1      32.757  34.434  27.848  1.00  0.00     0.163 HD
ATOM     31  O   UNL A   1      32.890  35.198  30.186  1.00  0.00    -0.269 OA
BRANCH  29  32
ATOM     32  C   UNL A   1      34.779  33.805  30.400  1.00  0.00     0.039 A 
ATOM     33  C   UNL A   1      34.535  32.702  31.219  1.00  0.00     0.014 A 
ATOM     34  C   UNL A   1      36.078  34.190  30.070  1.00  0.00     0.014 A 
ATOM     35  C   UNL A   1      35.613  31.918  31.635  1.00  0.00     0.010 A 
ATOM     36  C   UNL A   1      37.122  33.332  30.370  1.00  0.00     0.010 A 
ATOM     37  C   UNL A   1      36.907  32.194  31.167  1.00  0.00    -0.014 A 
BRANCH  37  38
ATOM     38  C   UNL A   1      38.087  31.369  31.537  1.00  0.00     0.031 A 
ATOM     39  C   UNL A   1      38.775  31.667  32.844  1.00  0.00     0.074 A 
ATOM     40  C   UNL A   1      38.602  30.462  30.682  1.00  0.00     0.049 A 
ATOM     41  N   UNL A   1      39.948  31.285  33.273  1.00  0.00    -0.248 NA
ATOM     42  C   UNL A   1      38.072  32.585  33.757  1.00  0.00     0.031 C 
ATOM     43  C   UNL A   1      38.055  30.117  29.368  1.00  0.00     0.029 A 
ATOM     44  N   UNL A   1      39.722  29.675  30.786  1.00  0.00    -0.354 N 
ATOM     45  C   UNL A   1      40.148  31.969  34.468  1.00  0.00     0.074 A 
ATOM     46  C   UNL A   1      39.010  32.841  34.652  1.00  0.00     0.031 C 
ATOM     47  C   UNL A   1      38.823  29.169  28.803  1.00  0.00     0.029 A 
ATOM     48  C   UNL A   1      39.948  28.877  29.686  1.00  0.00     0.049 A 
ATOM     49  H   UNL A   1      40.310  29.678  31.576  1.00  0.00     0.167 HD
ATOM     50  C   UNL A   1      41.171  31.856  35.347  1.00  0.00     0.034 A 
ATOM     51  C   UNL A   1      40.958  28.022  29.420  1.00  0.00     0.034 A 
ATOM     52  C   UNL A   1      42.245  30.913  35.186  1.00  0.00     0.049 A 
ATOM     53  C   UNL A   1      42.057  27.862  30.446  1.00  0.00     0.074 A 
ATOM     54  C   UNL A   1      43.296  30.646  36.044  1.00  0.00     0.029 A 
ATOM     55  N   UNL A   1      42.391  30.062  34.098  1.00  0.00    -0.354 N 
ATOM     56  N   UNL A   1      42.220  28.498  31.585  1.00  0.00    -0.248 NA
ATOM     57  C   UNL A   1      43.098  26.866  30.161  1.00  0.00     0.031 C 
ATOM     58  C   UNL A   1      44.098  29.662  35.458  1.00  0.00     0.029 A 
ATOM     59  C   UNL A   1      43.514  29.271  34.264  1.00  0.00     0.049 A 
ATOM     60  H   UNL A   1      41.785  30.028  33.323  1.00  0.00     0.167 HD
ATOM     61  C   UNL A   1      43.355  27.942  32.169  1.00  0.00     0.074 A 
ATOM     62  C   UNL A   1      43.836  26.923  31.261  1.00  0.00     0.031 C 
ATOM     63  C   UNL A   1      43.946  28.240  33.354  1.00  0.00     0.034 A 
BRANCH  50  64
ATOM     64  C   UNL A   1      41.167  32.772  36.546  1.00  0.00     0.023 A 
ATOM     65  C   UNL A   1      40.437  32.465  37.707  1.00  0.00     0.031 A 
ATOM     66  C   UNL A   1      41.867  33.991  36.511  1.00  0.00     0.131 A 
ATOM     67  C   UNL A   1      40.348  33.403  38.746  1.00  0.00     0.055 A 
ATOM     68  C   UNL A   1      41.849  34.879  37.587  1.00  0.00     0.041 A 
ATOM     69  F   UNL A   1      42.563  34.348  35.421  1.00  0.00    -0.206 F 
ATOM     70  C   UNL A   1      41.072  34.596  38.707  1.00  0.00     0.022 A 
BRANCH  67  71
ATOM     71  S   UNL A   1      39.153  33.104  40.075  1.00  0.00     0.124 S 
ATOM     72  O   UNL A   1      40.037  32.832  41.207  1.00  0.00    -0.237 OA
ATOM     73  O   UNL A   1      38.417  34.362  40.130  1.00  0.00    -0.237 OA
ATOM     74  O   UNL A   1      38.389  31.953  39.598  1.00  0.00    -0.744 OA
ENDBRANCH  67  71
ENDBRANCH  50  64
BRANCH  51  75
ATOM     75  C   UNL A   1      40.996  27.251  28.144  1.00  0.00     0.023 A 
ATOM     76  C   UNL A   1      40.671  25.884  28.119  1.00  0.00     0.031 A 
ATOM     77  C   UNL A   1      41.417  27.846  26.941  1.00  0.00     0.131 A 
ATOM     78  C   UNL A   1      40.829  25.145  26.936  1.00  0.00     0.055 A 
ATOM     79  C   UNL A   1      41.520  27.118  25.752  1.00  0.00     0.041 A 
ATOM     80  F   UNL A   1      41.733  29.150  26.904  1.00  0.00    -0.206 F 
ATOM     81  C   UNL A   1      41.241  25.755  25.749  1.00  0.00     0.022 A 
BRANCH  78  82
ATOM     82  S   UNL A   1      40.592  23.347  26.998  1.00  0.00     0.124 S 
ATOM     83  O   UNL A   1      41.541  22.887  25.991  1.00  0.00    -0.237 OA
ATOM     84  O   UNL A   1      40.931  23.046  28.385  1.00  0.00    -0.237 OA
ATOM     85  O   UNL A   1      39.182  23.178  26.651  1.00  0.00    -0.744 OA
ENDBRANCH  78  82
ENDBRANCH  51  75
BRANCH  63  86
ATOM     86  C   UNL A   1      45.117  27.394  33.775  1.00  0.00     0.023 A 
ATOM     87  C   UNL A   1      44.951  26.199  34.494  1.00  0.00     0.031 A 
ATOM     88  C   UNL A   1      46.419  27.780  33.411  1.00  0.00     0.131 A 
ATOM     89  C   UNL A   1      46.078  25.446  34.857  1.00  0.00     0.055 A 
ATOM     90  C   UNL A   1      47.530  27.002  33.732  1.00  0.00     0.041 A 
ATOM     91  F   UNL A   1      46.627  28.911  32.719  1.00  0.00    -0.206 F 
ATOM     92  C   UNL A   1      47.363  25.831  34.466  1.00  0.00     0.022 A 
BRANCH  89  93
ATOM     93  S   UNL A   1      45.845  23.975  35.890  1.00  0.00     0.124 S 
ATOM     94  O   UNL A   1      46.387  24.413  37.171  1.00  0.00    -0.237 OA
ATOM     95  O   UNL A   1      44.399  23.784  35.842  1.00  0.00    -0.237 OA
ATOM     96  O   UNL A   1      46.626  22.947  35.203  1.00  0.00    -0.744 OA
ENDBRANCH  89  93
ENDBRANCH  63  86
ENDBRANCH  37  38
ENDBRANCH  29  32
ENDBRANCH  27  28
ENDBRANCH  26  27
ENDBRANCH   1  26
TORSDOF 17
ENDMDL
