MODEL 1
REMARK VINA RESULT:     -12.5      0.000      0.000
REMARK SMILES C[C@@H]1C(C(=O)NCCCCNC(=O)c2ccc(-c3c4nc(c(-c5cc(S(=O)(=O)[O-])ccc5F)c5ccc([nH]5)c(-c5cc(S(=O)(=O)[O-])ccc5F)c5nc(c(-c6cc(S(=O)(=O)[O-])ccc6F)c6ccc3[nH]6)C=C5)C=C4)cc2)=NC2=C1C(=O)C[C@H](c1ccccc1)C2
REMARK SMILES IDX 9 1 8 2 7 3 6 4 4 5 5 6 3 8 1 9 2 10 79 11 77 12 78 13 80 14
REMARK SMILES IDX 90 15 81 16 82 17 83 18 84 19 85 20 89 21 86 22 88 23 87 24
REMARK SMILES IDX 10 25 11 26 12 27 13 29 14 30 15 31 76 32 16 33 75 34 17 35
REMARK SMILES IDX 18 36 19 37 69 38 20 39 74 40 68 41 70 42 21 43 73 44 67 45
REMARK SMILES IDX 66 46 22 48 54 49 34 50 53 51 35 52 38 53 52 54 71 55 36 56
REMARK SMILES IDX 37 57 51 59 72 60 39 61 23 62 24 63 32 64 25 65 31 66 33 67
REMARK SMILES IDX 30 68 26 69 27 70 28 71 29 72 55 73 56 74 64 75 57 76 63 77
REMARK SMILES IDX 65 78 62 79 58 80 59 81 60 82 61 83 40 84 41 85 49 86 42 87
REMARK SMILES IDX 48 88 50 89 47 90 43 91 44 92 45 93 46 94
REMARK H PARENT 6 7 11 28 70 47 38 58
REMARK Flexibility Score: inf
ROOT
ATOM      1  C   UNL A   1      37.837  20.229  24.963  1.00  0.00     0.023 C 
ENDROOT
BRANCH   1   2
ATOM      2  C   UNL A   1      36.939  21.323  24.440  1.00  0.00     0.023 C 
BRANCH   2   3
ATOM      3  C   UNL A   1      35.919  21.892  25.409  1.00  0.00     0.116 C 
BRANCH   3   4
ATOM      4  N   UNL A   1      35.817  23.319  25.589  1.00  0.00    -0.351 N 
ATOM      5  C   UNL A   1      34.686  24.127  25.461  1.00  0.00     0.266 C 
ATOM      6  O   UNL A   1      34.712  25.232  25.997  1.00  0.00    -0.268 OA
ATOM      7  H   UNL A   1      36.651  23.782  25.833  1.00  0.00     0.163 HD
BRANCH   5   8
ATOM      8  C   UNL A   1      33.493  23.755  24.519  1.00  0.00     0.113 C 
ATOM      9  C   UNL A   1      32.833  22.131  22.614  1.00  0.00     0.020 C 
ATOM     10  C   UNL A   1      33.629  23.352  23.062  1.00  0.00     0.076 C 
ATOM     11  C   UNL A   1      32.801  24.504  22.655  1.00  0.00     0.026 C 
ATOM     12  N   UNL A   1      32.282  24.178  24.804  1.00  0.00    -0.251 NA
ATOM     13  C   UNL A   1      31.868  24.686  23.590  1.00  0.00     0.049 C 
ATOM     14  C   UNL A   1      32.895  25.572  21.667  1.00  0.00     0.161 C 
ATOM     15  C   UNL A   1      30.845  25.763  23.411  1.00  0.00     0.065 C 
ATOM     16  O   UNL A   1      33.170  25.320  20.501  1.00  0.00    -0.294 OA
ATOM     17  C   UNL A   1      32.632  27.010  22.187  1.00  0.00     0.089 C 
ATOM     18  C   UNL A   1      31.624  27.094  23.405  1.00  0.00     0.033 C 
BRANCH  18  19
ATOM     19  C   UNL A   1      32.237  27.351  24.800  1.00  0.00    -0.044 A 
ATOM     20  C   UNL A   1      33.544  27.879  24.924  1.00  0.00     0.004 A 
ATOM     21  C   UNL A   1      31.507  27.196  25.981  1.00  0.00     0.004 A 
ATOM     22  C   UNL A   1      33.991  28.468  26.101  1.00  0.00     0.000 A 
ATOM     23  C   UNL A   1      31.993  27.717  27.189  1.00  0.00     0.000 A 
ATOM     24  C   UNL A   1      33.206  28.398  27.237  1.00  0.00     0.000 A 
ENDBRANCH  18  19
ENDBRANCH   5   8
ENDBRANCH   3   4
ENDBRANCH   2   3
ENDBRANCH   1   2
BRANCH   1  25
ATOM     25  C   UNL A   1      38.930  20.766  25.853  1.00  0.00     0.116 C 
BRANCH  25  26
ATOM     26  N   UNL A   1      40.007  19.807  26.114  1.00  0.00    -0.352 N 
ATOM     27  C   UNL A   1      41.373  20.092  26.114  1.00  0.00     0.251 C 
ATOM     28  H   UNL A   1      39.743  18.878  26.305  1.00  0.00     0.163 HD
ATOM     29  O   UNL A   1      42.209  19.222  25.984  1.00  0.00    -0.269 OA
BRANCH  27  30
ATOM     30  C   UNL A   1      41.738  21.489  26.461  1.00  0.00     0.039 A 
ATOM     31  C   UNL A   1      42.342  22.473  25.679  1.00  0.00     0.014 A 
ATOM     32  C   UNL A   1      41.592  21.790  27.798  1.00  0.00     0.014 A 
ATOM     33  C   UNL A   1      42.855  23.627  26.381  1.00  0.00     0.010 A 
ATOM     34  C   UNL A   1      41.487  23.092  28.126  1.00  0.00     0.010 A 
ATOM     35  C   UNL A   1      42.621  23.769  27.794  1.00  0.00    -0.014 A 
BRANCH  35  36
ATOM     36  C   UNL A   1      42.743  24.955  28.750  1.00  0.00     0.031 A 
ATOM     37  C   UNL A   1      41.418  25.779  28.313  1.00  0.00     0.074 A 
ATOM     38  C   UNL A   1      43.672  25.132  29.844  1.00  0.00     0.049 A 
ATOM     39  N   UNL A   1      41.418  26.702  27.389  1.00  0.00    -0.248 NA
ATOM     40  C   UNL A   1      39.968  25.293  28.421  1.00  0.00     0.031 C 
ATOM     41  C   UNL A   1      44.888  24.377  30.409  1.00  0.00     0.029 A 
ATOM     42  N   UNL A   1      43.764  26.179  30.801  1.00  0.00    -0.354 N 
ATOM     43  C   UNL A   1      40.125  27.239  27.381  1.00  0.00     0.074 A 
ATOM     44  C   UNL A   1      39.258  26.174  27.699  1.00  0.00     0.031 C 
ATOM     45  C   UNL A   1      45.240  24.777  31.688  1.00  0.00     0.029 A 
ATOM     46  C   UNL A   1      44.459  25.938  32.075  1.00  0.00     0.049 A 
ATOM     47  H   UNL A   1      43.364  27.060  30.613  1.00  0.00     0.167 HD
ATOM     48  C   UNL A   1      39.964  28.565  27.632  1.00  0.00     0.034 A 
ATOM     49  C   UNL A   1      44.573  26.766  33.221  1.00  0.00     0.034 A 
ATOM     50  C   UNL A   1      41.255  29.190  27.468  1.00  0.00     0.049 A 
ATOM     51  C   UNL A   1      44.084  28.095  32.742  1.00  0.00     0.074 A 
ATOM     52  C   UNL A   1      42.158  29.273  26.428  1.00  0.00     0.029 A 
ATOM     53  N   UNL A   1      41.973  29.225  28.632  1.00  0.00    -0.354 N 
ATOM     54  N   UNL A   1      44.759  28.776  31.851  1.00  0.00    -0.248 NA
ATOM     55  C   UNL A   1      42.623  28.175  32.680  1.00  0.00     0.031 C 
ATOM     56  C   UNL A   1      43.436  29.026  27.013  1.00  0.00     0.029 A 
ATOM     57  C   UNL A   1      43.306  29.031  28.400  1.00  0.00     0.049 A 
ATOM     58  H   UNL A   1      41.580  29.372  29.522  1.00  0.00     0.167 HD
ATOM     59  C   UNL A   1      43.858  28.932  30.811  1.00  0.00     0.074 A 
ATOM     60  C   UNL A   1      42.546  28.522  31.386  1.00  0.00     0.031 C 
ATOM     61  C   UNL A   1      44.252  28.945  29.491  1.00  0.00     0.034 A 
BRANCH  48  62
ATOM     62  C   UNL A   1      38.900  29.178  28.532  1.00  0.00     0.023 A 
ATOM     63  C   UNL A   1      39.097  28.989  29.908  1.00  0.00     0.031 A 
ATOM     64  C   UNL A   1      37.614  29.645  28.160  1.00  0.00     0.131 A 
ATOM     65  C   UNL A   1      38.060  29.196  30.832  1.00  0.00     0.055 A 
ATOM     66  C   UNL A   1      36.604  29.927  29.095  1.00  0.00     0.041 A 
ATOM     67  F   UNL A   1      37.231  29.765  26.882  1.00  0.00    -0.206 F 
ATOM     68  C   UNL A   1      36.819  29.688  30.443  1.00  0.00     0.022 A 
BRANCH  65  69
ATOM     69  S   UNL A   1      38.337  28.631  32.528  1.00  0.00     0.124 S 
ATOM     70  O   UNL A   1      38.881  27.296  32.307  1.00  0.00    -0.237 OA
ATOM     71  O   UNL A   1      39.277  29.633  33.023  1.00  0.00    -0.237 OA
ATOM     72  O   UNL A   1      37.006  28.678  33.123  1.00  0.00    -0.744 OA
ENDBRANCH  65  69
ENDBRANCH  48  62
BRANCH  49  73
ATOM     73  C   UNL A   1      44.428  26.399  34.748  1.00  0.00     0.023 A 
ATOM     74  C   UNL A   1      44.978  26.986  35.974  1.00  0.00     0.031 A 
ATOM     75  C   UNL A   1      43.387  25.486  34.980  1.00  0.00     0.131 A 
ATOM     76  C   UNL A   1      44.446  26.628  37.281  1.00  0.00     0.055 A 
ATOM     77  C   UNL A   1      42.853  25.192  36.234  1.00  0.00     0.041 A 
ATOM     78  F   UNL A   1      42.772  24.885  33.956  1.00  0.00    -0.206 F 
ATOM     79  C   UNL A   1      43.356  25.767  37.382  1.00  0.00     0.022 A 
BRANCH  76  80
ATOM     80  S   UNL A   1      45.106  27.189  38.941  1.00  0.00     0.124 S 
ATOM     81  O   UNL A   1      44.209  26.531  39.884  1.00  0.00    -0.237 OA
ATOM     82  O   UNL A   1      46.490  26.734  38.931  1.00  0.00    -0.237 OA
ATOM     83  O   UNL A   1      44.957  28.649  38.903  1.00  0.00    -0.744 OA
ENDBRANCH  76  80
ENDBRANCH  49  73
BRANCH  61  84
ATOM     84  C   UNL A   1      45.733  28.966  29.118  1.00  0.00     0.023 A 
ATOM     85  C   UNL A   1      46.585  27.885  28.755  1.00  0.00     0.031 A 
ATOM     86  C   UNL A   1      46.283  30.255  29.047  1.00  0.00     0.131 A 
ATOM     87  C   UNL A   1      47.953  28.131  28.469  1.00  0.00     0.055 A 
ATOM     88  C   UNL A   1      47.603  30.495  28.686  1.00  0.00     0.041 A 
ATOM     89  F   UNL A   1      45.518  31.328  29.298  1.00  0.00    -0.206 F 
ATOM     90  C   UNL A   1      48.457  29.434  28.429  1.00  0.00     0.022 A 
BRANCH  87  91
ATOM     91  S   UNL A   1      49.160  26.758  28.313  1.00  0.00     0.124 S 
ATOM     92  O   UNL A   1      50.250  27.196  29.205  1.00  0.00    -0.237 OA
ATOM     93  O   UNL A   1      48.409  25.601  28.768  1.00  0.00    -0.237 OA
ATOM     94  O   UNL A   1      49.505  26.756  26.897  1.00  0.00    -0.744 OA
ENDBRANCH  87  91
ENDBRANCH  61  84
ENDBRANCH  35  36
ENDBRANCH  27  30
ENDBRANCH  25  26
ENDBRANCH   1  25
TORSDOF 15
ENDMDL
MODEL 2
REMARK VINA RESULT:     -12.4      1.751      2.155
REMARK SMILES C[C@@H]1C(C(=O)NCCCCNC(=O)c2ccc(-c3c4nc(c(-c5cc(S(=O)(=O)[O-])ccc5F)c5ccc([nH]5)c(-c5cc(S(=O)(=O)[O-])ccc5F)c5nc(c(-c6cc(S(=O)(=O)[O-])ccc6F)c6ccc3[nH]6)C=C5)C=C4)cc2)=NC2=C1C(=O)C[C@H](c1ccccc1)C2
REMARK SMILES IDX 9 1 8 2 7 3 6 4 4 5 5 6 3 8 1 9 2 10 79 11 77 12 78 13 80 14
REMARK SMILES IDX 90 15 81 16 82 17 83 18 84 19 85 20 89 21 86 22 88 23 87 24
REMARK SMILES IDX 10 25 11 26 12 27 13 29 14 30 15 31 76 32 16 33 75 34 17 35
REMARK SMILES IDX 18 36 19 37 69 38 20 39 74 40 68 41 70 42 21 43 73 44 67 45
REMARK SMILES IDX 66 46 22 48 54 49 34 50 53 51 35 52 38 53 52 54 71 55 36 56
REMARK SMILES IDX 37 57 51 59 72 60 39 61 23 62 24 63 32 64 25 65 31 66 33 67
REMARK SMILES IDX 30 68 26 69 27 70 28 71 29 72 55 73 56 74 64 75 57 76 63 77
REMARK SMILES IDX 65 78 62 79 58 80 59 81 60 82 61 83 40 84 41 85 49 86 42 87
REMARK SMILES IDX 48 88 50 89 47 90 43 91 44 92 45 93 46 94
REMARK H PARENT 6 7 11 28 70 47 38 58
REMARK Flexibility Score: inf
ROOT
ATOM      1  C   UNL A   1      38.808  19.287  25.393  1.00  0.00     0.023 C 
ENDROOT
BRANCH   1   2
ATOM      2  C   UNL A   1      37.925  20.343  24.775  1.00  0.00     0.023 C 
BRANCH   2   3
ATOM      3  C   UNL A   1      37.939  21.713  25.428  1.00  0.00     0.116 C 
BRANCH   3   4
ATOM      4  N   UNL A   1      37.298  22.827  24.774  1.00  0.00    -0.351 N 
ATOM      5  C   UNL A   1      35.969  23.242  24.878  1.00  0.00     0.266 C 
ATOM      6  O   UNL A   1      35.705  24.394  24.546  1.00  0.00    -0.268 OA
ATOM      7  H   UNL A   1      37.871  23.362  24.178  1.00  0.00     0.163 HD
BRANCH   5   8
ATOM      8  C   UNL A   1      34.807  22.250  25.214  1.00  0.00     0.113 C 
ATOM      9  C   UNL A   1      34.163  19.746  25.081  1.00  0.00     0.020 C 
ATOM     10  C   UNL A   1      34.398  21.067  24.356  1.00  0.00     0.076 C 
ATOM     11  C   UNL A   1      33.049  21.642  24.187  1.00  0.00     0.026 C 
ATOM     12  N   UNL A   1      33.846  22.626  26.028  1.00  0.00    -0.251 NA
ATOM     13  C   UNL A   1      32.718  22.249  25.328  1.00  0.00     0.049 C 
ATOM     14  C   UNL A   1      32.145  21.899  23.072  1.00  0.00     0.161 C 
ATOM     15  C   UNL A   1      31.370  22.881  25.462  1.00  0.00     0.065 C 
ATOM     16  O   UNL A   1      31.909  21.025  22.248  1.00  0.00    -0.294 OA
ATOM     17  C   UNL A   1      31.526  23.320  23.008  1.00  0.00     0.089 C 
ATOM     18  C   UNL A   1      31.322  24.013  24.416  1.00  0.00     0.033 C 
BRANCH  18  19
ATOM     19  C   UNL A   1      32.325  25.124  24.798  1.00  0.00    -0.044 A 
ATOM     20  C   UNL A   1      33.080  25.784  23.799  1.00  0.00     0.004 A 
ATOM     21  C   UNL A   1      32.448  25.610  26.102  1.00  0.00     0.004 A 
ATOM     22  C   UNL A   1      33.696  27.008  24.031  1.00  0.00     0.000 A 
ATOM     23  C   UNL A   1      33.140  26.804  26.353  1.00  0.00     0.000 A 
ATOM     24  C   UNL A   1      33.715  27.528  25.312  1.00  0.00     0.000 A 
ENDBRANCH  18  19
ENDBRANCH   5   8
ENDBRANCH   3   4
ENDBRANCH   2   3
ENDBRANCH   1   2
BRANCH   1  25
ATOM     25  C   UNL A   1      39.837  19.878  26.323  1.00  0.00     0.116 C 
BRANCH  25  26
ATOM     26  N   UNL A   1      41.184  19.329  26.145  1.00  0.00    -0.352 N 
ATOM     27  C   UNL A   1      42.327  20.058  25.809  1.00  0.00     0.251 C 
ATOM     28  H   UNL A   1      41.293  18.358  26.272  1.00  0.00     0.163 HD
ATOM     29  O   UNL A   1      43.309  19.525  25.337  1.00  0.00    -0.269 OA
BRANCH  27  30
ATOM     30  C   UNL A   1      42.327  21.481  26.231  1.00  0.00     0.039 A 
ATOM     31  C   UNL A   1      42.377  22.640  25.457  1.00  0.00     0.014 A 
ATOM     32  C   UNL A   1      42.454  21.661  27.592  1.00  0.00     0.014 A 
ATOM     33  C   UNL A   1      42.680  23.867  26.156  1.00  0.00     0.010 A 
ATOM     34  C   UNL A   1      42.050  22.843  28.094  1.00  0.00     0.010 A 
ATOM     35  C   UNL A   1      42.795  23.866  27.591  1.00  0.00    -0.014 A 
BRANCH  35  36
ATOM     36  C   UNL A   1      42.799  24.986  28.631  1.00  0.00     0.031 A 
ATOM     37  C   UNL A   1      41.352  25.642  28.312  1.00  0.00     0.074 A 
ATOM     38  C   UNL A   1      43.747  25.214  29.699  1.00  0.00     0.049 A 
ATOM     39  N   UNL A   1      41.178  26.619  27.463  1.00  0.00    -0.248 NA
ATOM     40  C   UNL A   1      39.990  24.948  28.438  1.00  0.00     0.031 C 
ATOM     41  C   UNL A   1      45.082  24.601  30.155  1.00  0.00     0.029 A 
ATOM     42  N   UNL A   1      43.740  26.192  30.730  1.00  0.00    -0.354 N 
ATOM     43  C   UNL A   1      39.824  26.966  27.547  1.00  0.00     0.074 A 
ATOM     44  C   UNL A   1      39.130  25.768  27.815  1.00  0.00     0.031 C 
ATOM     45  C   UNL A   1      45.438  24.955  31.446  1.00  0.00     0.029 A 
ATOM     46  C   UNL A   1      44.524  25.961  31.953  1.00  0.00     0.049 A 
ATOM     47  H   UNL A   1      43.213  27.018  30.627  1.00  0.00     0.167 HD
ATOM     48  C   UNL A   1      39.493  28.234  27.907  1.00  0.00     0.034 A 
ATOM     49  C   UNL A   1      44.578  26.713  33.155  1.00  0.00     0.034 A 
ATOM     50  C   UNL A   1      40.674  29.046  27.742  1.00  0.00     0.049 A 
ATOM     51  C   UNL A   1      43.887  27.990  32.800  1.00  0.00     0.074 A 
ATOM     52  C   UNL A   1      41.504  29.331  26.678  1.00  0.00     0.029 A 
ATOM     53  N   UNL A   1      41.437  29.100  28.876  1.00  0.00    -0.354 N 
ATOM     54  N   UNL A   1      44.415  28.822  31.939  1.00  0.00    -0.248 NA
ATOM     55  C   UNL A   1      42.427  27.866  32.802  1.00  0.00     0.031 C 
ATOM     56  C   UNL A   1      42.832  29.228  27.191  1.00  0.00     0.029 A 
ATOM     57  C   UNL A   1      42.771  29.115  28.578  1.00  0.00     0.049 A 
ATOM     58  H   UNL A   1      41.072  29.125  29.790  1.00  0.00     0.167 HD
ATOM     59  C   UNL A   1      43.451  28.923  30.950  1.00  0.00     0.074 A 
ATOM     60  C   UNL A   1      42.239  28.290  31.543  1.00  0.00     0.031 C 
ATOM     61  C   UNL A   1      43.774  29.086  29.622  1.00  0.00     0.034 A 
BRANCH  48  62
ATOM     62  C   UNL A   1      38.400  28.623  28.893  1.00  0.00     0.023 A 
ATOM     63  C   UNL A   1      37.567  29.675  28.480  1.00  0.00     0.031 A 
ATOM     64  C   UNL A   1      38.301  28.270  30.262  1.00  0.00     0.131 A 
ATOM     65  C   UNL A   1      36.745  30.358  29.391  1.00  0.00     0.055 A 
ATOM     66  C   UNL A   1      37.418  28.904  31.153  1.00  0.00     0.041 A 
ATOM     67  F   UNL A   1      39.109  27.368  30.835  1.00  0.00    -0.206 F 
ATOM     68  C   UNL A   1      36.642  29.968  30.721  1.00  0.00     0.022 A 
BRANCH  65  69
ATOM     69  S   UNL A   1      35.956  31.879  28.813  1.00  0.00     0.124 S 
ATOM     70  O   UNL A   1      37.080  32.808  28.802  1.00  0.00    -0.237 OA
ATOM     71  O   UNL A   1      35.449  31.471  27.506  1.00  0.00    -0.237 OA
ATOM     72  O   UNL A   1      34.935  32.138  29.824  1.00  0.00    -0.744 OA
ENDBRANCH  65  69
ENDBRANCH  48  62
BRANCH  49  73
ATOM     73  C   UNL A   1      44.562  26.221  34.653  1.00  0.00     0.023 A 
ATOM     74  C   UNL A   1      45.120  26.771  35.892  1.00  0.00     0.031 A 
ATOM     75  C   UNL A   1      43.636  25.187  34.863  1.00  0.00     0.131 A 
ATOM     76  C   UNL A   1      44.705  26.262  37.192  1.00  0.00     0.055 A 
ATOM     77  C   UNL A   1      43.209  24.746  36.116  1.00  0.00     0.041 A 
ATOM     78  F   UNL A   1      43.026  24.602  33.828  1.00  0.00    -0.206 F 
ATOM     79  C   UNL A   1      43.717  25.285  37.279  1.00  0.00     0.022 A 
BRANCH  76  80
ATOM     80  S   UNL A   1      45.401  26.767  38.856  1.00  0.00     0.124 S 
ATOM     81  O   UNL A   1      44.792  28.074  39.077  1.00  0.00    -0.237 OA
ATOM     82  O   UNL A   1      44.976  25.692  39.744  1.00  0.00    -0.237 OA
ATOM     83  O   UNL A   1      46.849  26.818  38.630  1.00  0.00    -0.744 OA
ENDBRANCH  76  80
ENDBRANCH  49  73
BRANCH  61  84
ATOM     84  C   UNL A   1      45.216  29.344  29.193  1.00  0.00     0.023 A 
ATOM     85  C   UNL A   1      46.205  28.418  28.757  1.00  0.00     0.031 A 
ATOM     86  C   UNL A   1      45.563  30.704  29.152  1.00  0.00     0.131 A 
ATOM     87  C   UNL A   1      47.507  28.878  28.429  1.00  0.00     0.055 A 
ATOM     88  C   UNL A   1      46.815  31.153  28.751  1.00  0.00     0.041 A 
ATOM     89  F   UNL A   1      44.656  31.639  29.474  1.00  0.00    -0.206 F 
ATOM     90  C   UNL A   1      47.807  30.243  28.421  1.00  0.00     0.022 A 
BRANCH  87  91
ATOM     91  S   UNL A   1      48.899  27.710  28.173  1.00  0.00     0.124 S 
ATOM     92  O   UNL A   1      50.054  28.621  28.058  1.00  0.00    -0.237 OA
ATOM     93  O   UNL A   1      48.870  26.890  29.371  1.00  0.00    -0.237 OA
ATOM     94  O   UNL A   1      48.552  27.019  26.938  1.00  0.00    -0.744 OA
ENDBRANCH  87  91
ENDBRANCH  61  84
ENDBRANCH  35  36
ENDBRANCH  27  30
ENDBRANCH  25  26
ENDBRANCH   1  25
TORSDOF 15
ENDMDL
MODEL 3
REMARK VINA RESULT:     -12.4      3.263      7.833
REMARK SMILES C[C@@H]1C(C(=O)NCCCCNC(=O)c2ccc(-c3c4nc(c(-c5cc(S(=O)(=O)[O-])ccc5F)c5ccc([nH]5)c(-c5cc(S(=O)(=O)[O-])ccc5F)c5nc(c(-c6cc(S(=O)(=O)[O-])ccc6F)c6ccc3[nH]6)C=C5)C=C4)cc2)=NC2=C1C(=O)C[C@H](c1ccccc1)C2
REMARK SMILES IDX 9 1 8 2 7 3 6 4 4 5 5 6 3 8 1 9 2 10 79 11 77 12 78 13 80 14
REMARK SMILES IDX 90 15 81 16 82 17 83 18 84 19 85 20 89 21 86 22 88 23 87 24
REMARK SMILES IDX 10 25 11 26 12 27 13 29 14 30 15 31 76 32 16 33 75 34 17 35
REMARK SMILES IDX 18 36 19 37 69 38 20 39 74 40 68 41 70 42 21 43 73 44 67 45
REMARK SMILES IDX 66 46 22 48 54 49 34 50 53 51 35 52 38 53 52 54 71 55 36 56
REMARK SMILES IDX 37 57 51 59 72 60 39 61 23 62 24 63 32 64 25 65 31 66 33 67
REMARK SMILES IDX 30 68 26 69 27 70 28 71 29 72 55 73 56 74 64 75 57 76 63 77
REMARK SMILES IDX 65 78 62 79 58 80 59 81 60 82 61 83 40 84 41 85 49 86 42 87
REMARK SMILES IDX 48 88 50 89 47 90 43 91 44 92 45 93 46 94
REMARK H PARENT 6 7 11 28 70 47 38 58
REMARK Flexibility Score: inf
ROOT
ATOM      1  C   UNL A   1      33.429  28.616  26.778  1.00  0.00     0.023 C 
ENDROOT
BRANCH   1   2
ATOM      2  C   UNL A   1      34.051  27.406  26.127  1.00  0.00     0.023 C 
BRANCH   2   3
ATOM      3  C   UNL A   1      33.202  26.665  25.110  1.00  0.00     0.116 C 
BRANCH   3   4
ATOM      4  N   UNL A   1      33.823  26.071  23.953  1.00  0.00    -0.351 N 
ATOM      5  C   UNL A   1      34.478  24.841  23.859  1.00  0.00     0.266 C 
ATOM      6  O   UNL A   1      34.615  24.353  22.741  1.00  0.00    -0.268 OA
ATOM      7  H   UNL A   1      33.780  26.600  23.123  1.00  0.00     0.163 HD
BRANCH   5   8
ATOM      8  C   UNL A   1      35.191  24.177  25.083  1.00  0.00     0.113 C 
ATOM      9  C   UNL A   1      37.533  23.812  26.124  1.00  0.00     0.020 C 
ATOM     10  C   UNL A   1      36.530  23.466  25.029  1.00  0.00     0.076 C 
ATOM     11  C   UNL A   1      35.896  22.215  25.489  1.00  0.00     0.026 C 
ATOM     12  N   UNL A   1      34.485  23.822  26.134  1.00  0.00    -0.251 NA
ATOM     13  C   UNL A   1      34.938  22.538  26.357  1.00  0.00     0.049 C 
ATOM     14  C   UNL A   1      35.900  20.817  25.073  1.00  0.00     0.161 C 
ATOM     15  C   UNL A   1      34.157  21.455  27.031  1.00  0.00     0.065 C 
ATOM     16  O   UNL A   1      36.955  20.236  24.850  1.00  0.00    -0.294 OA
ATOM     17  C   UNL A   1      34.510  20.141  24.935  1.00  0.00     0.089 C 
ATOM     18  C   UNL A   1      33.401  20.713  25.909  1.00  0.00     0.033 C 
BRANCH  18  19
ATOM     19  C   UNL A   1      32.338  21.645  25.286  1.00  0.00    -0.044 A 
ATOM     20  C   UNL A   1      31.465  22.392  26.112  1.00  0.00     0.004 A 
ATOM     21  C   UNL A   1      32.266  21.888  23.912  1.00  0.00     0.004 A 
ATOM     22  C   UNL A   1      30.768  23.497  25.636  1.00  0.00     0.000 A 
ATOM     23  C   UNL A   1      31.497  22.952  23.419  1.00  0.00     0.000 A 
ATOM     24  C   UNL A   1      30.794  23.786  24.285  1.00  0.00     0.000 A 
ENDBRANCH  18  19
ENDBRANCH   5   8
ENDBRANCH   3   4
ENDBRANCH   2   3
ENDBRANCH   1   2
BRANCH   1  25
ATOM     25  C   UNL A   1      34.440  29.438  27.537  1.00  0.00     0.116 C 
BRANCH  25  26
ATOM     26  N   UNL A   1      34.484  30.846  27.133  1.00  0.00    -0.352 N 
ATOM     27  C   UNL A   1      35.201  31.858  27.774  1.00  0.00     0.251 C 
ATOM     28  H   UNL A   1      33.959  31.102  26.340  1.00  0.00     0.163 HD
ATOM     29  O   UNL A   1      34.928  33.030  27.622  1.00  0.00    -0.269 OA
BRANCH  27  30
ATOM     30  C   UNL A   1      36.419  31.420  28.501  1.00  0.00     0.039 A 
ATOM     31  C   UNL A   1      36.880  31.783  29.766  1.00  0.00     0.014 A 
ATOM     32  C   UNL A   1      37.287  30.668  27.738  1.00  0.00     0.014 A 
ATOM     33  C   UNL A   1      38.249  31.438  30.075  1.00  0.00     0.010 A 
ATOM     34  C   UNL A   1      38.170  29.895  28.397  1.00  0.00     0.010 A 
ATOM     35  C   UNL A   1      39.018  30.655  29.144  1.00  0.00    -0.014 A 
BRANCH  35  36
ATOM     36  C   UNL A   1      40.330  29.881  29.278  1.00  0.00     0.031 A 
ATOM     37  C   UNL A   1      40.424  29.806  30.894  1.00  0.00     0.074 A 
ATOM     38  C   UNL A   1      41.106  29.246  28.235  1.00  0.00     0.049 A 
ATOM     39  N   UNL A   1      41.039  30.701  31.619  1.00  0.00    -0.248 NA
ATOM     40  C   UNL A   1      39.427  29.118  31.833  1.00  0.00     0.031 C 
ATOM     41  C   UNL A   1      41.056  29.164  26.700  1.00  0.00     0.029 A 
ATOM     42  N   UNL A   1      42.282  28.453  28.329  1.00  0.00    -0.354 N 
ATOM     43  C   UNL A   1      40.987  30.231  32.937  1.00  0.00     0.074 A 
ATOM     44  C   UNL A   1      39.760  29.548  33.059  1.00  0.00     0.031 C 
ATOM     45  C   UNL A   1      41.835  28.145  26.177  1.00  0.00     0.029 A 
ATOM     46  C   UNL A   1      42.631  27.541  27.229  1.00  0.00     0.049 A 
ATOM     47  H   UNL A   1      42.859  28.514  29.126  1.00  0.00     0.167 HD
ATOM     48  C   UNL A   1      42.153  30.002  33.598  1.00  0.00     0.034 A 
ATOM     49  C   UNL A   1      43.664  26.573  27.143  1.00  0.00     0.034 A 
ATOM     50  C   UNL A   1      43.196  30.687  32.874  1.00  0.00     0.049 A 
ATOM     51  C   UNL A   1      44.537  26.888  28.314  1.00  0.00     0.074 A 
ATOM     52  C   UNL A   1      43.408  31.999  32.505  1.00  0.00     0.029 A 
ATOM     53  N   UNL A   1      43.776  29.898  31.918  1.00  0.00    -0.354 N 
ATOM     54  N   UNL A   1      45.220  28.004  28.361  1.00  0.00    -0.248 NA
ATOM     55  C   UNL A   1      44.000  26.379  29.578  1.00  0.00     0.031 C 
ATOM     56  C   UNL A   1      43.839  31.948  31.145  1.00  0.00     0.029 A 
ATOM     57  C   UNL A   1      44.095  30.622  30.803  1.00  0.00     0.049 A 
ATOM     58  H   UNL A   1      43.941  28.934  32.019  1.00  0.00     0.167 HD
ATOM     59  C   UNL A   1      44.763  28.616  29.515  1.00  0.00     0.074 A 
ATOM     60  C   UNL A   1      43.992  27.555  30.223  1.00  0.00     0.031 C 
ATOM     61  C   UNL A   1      44.644  29.984  29.626  1.00  0.00     0.034 A 
BRANCH  48  62
ATOM     62  C   UNL A   1      42.460  28.790  34.466  1.00  0.00     0.023 A 
ATOM     63  C   UNL A   1      43.126  29.067  35.670  1.00  0.00     0.031 A 
ATOM     64  C   UNL A   1      42.427  27.423  34.090  1.00  0.00     0.131 A 
ATOM     65  C   UNL A   1      43.763  28.055  36.405  1.00  0.00     0.055 A 
ATOM     66  C   UNL A   1      42.997  26.403  34.869  1.00  0.00     0.041 A 
ATOM     67  F   UNL A   1      41.934  27.009  32.916  1.00  0.00    -0.206 F 
ATOM     68  C   UNL A   1      43.685  26.718  36.031  1.00  0.00     0.022 A 
BRANCH  65  69
ATOM     69  S   UNL A   1      44.840  28.570  37.763  1.00  0.00     0.124 S 
ATOM     70  O   UNL A   1      46.153  28.522  37.131  1.00  0.00    -0.237 OA
ATOM     71  O   UNL A   1      44.321  29.902  38.062  1.00  0.00    -0.237 OA
ATOM     72  O   UNL A   1      44.598  27.562  38.790  1.00  0.00    -0.744 OA
ENDBRANCH  65  69
ENDBRANCH  48  62
BRANCH  49  73
ATOM     73  C   UNL A   1      43.615  25.094  26.596  1.00  0.00     0.023 A 
ATOM     74  C   UNL A   1      42.759  23.944  26.902  1.00  0.00     0.031 A 
ATOM     75  C   UNL A   1      44.383  24.931  25.433  1.00  0.00     0.131 A 
ATOM     76  C   UNL A   1      42.738  22.773  26.036  1.00  0.00     0.055 A 
ATOM     77  C   UNL A   1      44.314  23.825  24.585  1.00  0.00     0.041 A 
ATOM     78  F   UNL A   1      45.197  25.906  25.015  1.00  0.00    -0.206 F 
ATOM     79  C   UNL A   1      43.487  22.757  24.862  1.00  0.00     0.022 A 
BRANCH  76  80
ATOM     80  S   UNL A   1      41.800  21.182  26.341  1.00  0.00     0.124 S 
ATOM     81  O   UNL A   1      40.417  21.569  26.087  1.00  0.00    -0.237 OA
ATOM     82  O   UNL A   1      42.398  20.246  25.398  1.00  0.00    -0.237 OA
ATOM     83  O   UNL A   1      42.080  20.873  27.748  1.00  0.00    -0.744 OA
ENDBRANCH  76  80
ENDBRANCH  49  73
BRANCH  61  84
ATOM     84  C   UNL A   1      45.183  30.906  28.535  1.00  0.00     0.023 A 
ATOM     85  C   UNL A   1      44.496  31.885  27.763  1.00  0.00     0.031 A 
ATOM     86  C   UNL A   1      46.572  30.814  28.347  1.00  0.00     0.131 A 
ATOM     87  C   UNL A   1      45.196  32.620  26.771  1.00  0.00     0.055 A 
ATOM     88  C   UNL A   1      47.264  31.595  27.430  1.00  0.00     0.041 A 
ATOM     89  F   UNL A   1      47.297  29.969  29.095  1.00  0.00    -0.206 F 
ATOM     90  C   UNL A   1      46.578  32.477  26.611  1.00  0.00     0.022 A 
BRANCH  87  91
ATOM     91  S   UNL A   1      44.310  33.651  25.539  1.00  0.00     0.124 S 
ATOM     92  O   UNL A   1      43.359  34.400  26.384  1.00  0.00    -0.237 OA
ATOM     93  O   UNL A   1      45.371  34.444  24.943  1.00  0.00    -0.237 OA
ATOM     94  O   UNL A   1      43.688  32.677  24.652  1.00  0.00    -0.744 OA
ENDBRANCH  87  91
ENDBRANCH  61  84
ENDBRANCH  35  36
ENDBRANCH  27  30
ENDBRANCH  25  26
ENDBRANCH   1  25
TORSDOF 15
ENDMDL
