MODEL 1
REMARK VINA RESULT:     -12.0      0.000      0.000
REMARK SMILES COc1cccc(/C=C(/CC(=O)NCCCCNC(=O)c2ccc(-c3c4nc(c(-c5cc(S(=O)(=O)[O-])ccc5F)c5ccc([nH]5)c(-c5cc(S(=O)(=O)[O-])ccc5F)c5nc(c(-c6cc(S(=O)(=O)[O-])ccc6F)c6ccc3[nH]6)C=C5)C=C4)cc2)c2nc3ccccc3o2)c1
REMARK SMILES IDX 15 1 14 2 13 3 11 4 12 5 10 7 9 8 8 9 7 10 3 11 4 12 93 13
REMARK SMILES IDX 5 14 6 15 2 16 1 17 84 18 85 19 92 20 86 21 91 22 87 23
REMARK SMILES IDX 90 24 88 25 89 26 16 27 17 28 18 29 19 30 20 32 21 33 22 34
REMARK SMILES IDX 83 35 23 36 82 37 24 38 25 39 26 40 76 41 27 42 81 43 75 44
REMARK SMILES IDX 77 45 28 46 80 47 74 48 73 49 29 51 61 52 41 53 60 54 42 55
REMARK SMILES IDX 45 56 59 57 78 58 43 59 44 60 58 62 79 63 46 64 30 65 31 66
REMARK SMILES IDX 39 67 32 68 38 69 40 70 37 71 33 72 34 73 35 74 36 75 62 76
REMARK SMILES IDX 63 77 71 78 64 79 70 80 72 81 69 82 65 83 66 84 67 85 68 86
REMARK SMILES IDX 47 87 48 88 56 89 49 90 55 91 57 92 54 93 50 94 51 95 52 96
REMARK SMILES IDX 53 97
REMARK H PARENT 13 6 18 31 77 50 45 61
REMARK Flexibility Score: inf
ROOT
ATOM      1  C   UNL A   1      32.177  26.591  25.541  1.00  0.00     0.023 C 
ENDROOT
BRANCH   1   2
ATOM      2  C   UNL A   1      30.856  25.841  25.381  1.00  0.00     0.116 C 
BRANCH   2   3
ATOM      3  N   UNL A   1      30.578  24.947  26.488  1.00  0.00    -0.356 N 
ATOM      4  C   UNL A   1      30.566  23.581  26.516  1.00  0.00     0.224 C 
ATOM      5  O   UNL A   1      30.433  23.017  27.604  1.00  0.00    -0.275 OA
ATOM      6  H   UNL A   1      30.369  25.389  27.343  1.00  0.00     0.163 HD
BRANCH   4   7
ATOM      7  C   UNL A   1      30.797  22.782  25.233  1.00  0.00     0.141 C 
BRANCH   7   8
ATOM      8  C   UNL A   1      32.227  22.253  25.100  1.00  0.00     0.025 C 
ATOM      9  C   UNL A   1      33.234  23.163  25.130  1.00  0.00     0.018 C 
BRANCH   9  10
ATOM     10  C   UNL A   1      34.699  23.171  24.875  1.00  0.00    -0.021 A 
ATOM     11  C   UNL A   1      36.928  23.642  25.790  1.00  0.00     0.119 A 
ATOM     12  C   UNL A   1      37.504  23.383  24.554  1.00  0.00     0.046 A 
ATOM     13  C   UNL A   1      35.540  23.539  25.950  1.00  0.00     0.054 A 
ATOM     14  C   UNL A   1      36.699  23.007  23.486  1.00  0.00     0.004 A 
ATOM     15  C   UNL A   1      35.311  22.920  23.644  1.00  0.00     0.008 A 
BRANCH  11  16
ATOM     16  O   UNL A   1      37.779  24.089  26.763  1.00  0.00    -0.497 OA
ATOM     17  C   UNL A   1      39.143  24.130  26.366  1.00  0.00     0.278 C 
ENDBRANCH  11  16
ENDBRANCH   9  10
BRANCH   8  18
ATOM     18  C   UNL A   1      32.428  20.849  24.889  1.00  0.00     0.223 A 
ATOM     19  N   UNL A   1      32.292  19.935  25.843  1.00  0.00    -0.210 NA
ATOM     20  O   UNL A   1      32.898  20.290  23.708  1.00  0.00    -0.436 OA
ATOM     21  C   UNL A   1      32.641  18.745  25.273  1.00  0.00     0.110 A 
ATOM     22  C   UNL A   1      32.982  18.951  23.953  1.00  0.00     0.155 A 
ATOM     23  C   UNL A   1      32.690  17.451  25.804  1.00  0.00     0.032 A 
ATOM     24  C   UNL A   1      33.338  17.943  23.066  1.00  0.00     0.049 A 
ATOM     25  C   UNL A   1      33.053  16.404  24.945  1.00  0.00     0.003 A 
ATOM     26  C   UNL A   1      33.358  16.647  23.599  1.00  0.00     0.004 A 
ENDBRANCH   8  18
ENDBRANCH   7   8
ENDBRANCH   4   7
ENDBRANCH   2   3
ENDBRANCH   1   2
BRANCH   1  27
ATOM     27  C   UNL A   1      32.076  27.942  26.257  1.00  0.00     0.023 C 
BRANCH  27  28
ATOM     28  C   UNL A   1      32.925  29.068  25.674  1.00  0.00     0.116 C 
BRANCH  28  29
ATOM     29  N   UNL A   1      32.538  30.384  26.151  1.00  0.00    -0.352 N 
ATOM     30  C   UNL A   1      33.161  31.207  27.056  1.00  0.00     0.251 C 
ATOM     31  H   UNL A   1      31.702  30.739  25.770  1.00  0.00     0.163 HD
ATOM     32  O   UNL A   1      32.592  32.239  27.415  1.00  0.00    -0.269 OA
BRANCH  30  33
ATOM     33  C   UNL A   1      34.481  30.850  27.629  1.00  0.00     0.039 A 
ATOM     34  C   UNL A   1      35.460  31.843  27.706  1.00  0.00     0.014 A 
ATOM     35  C   UNL A   1      34.766  29.558  28.079  1.00  0.00     0.014 A 
ATOM     36  C   UNL A   1      36.698  31.556  28.287  1.00  0.00     0.010 A 
ATOM     37  C   UNL A   1      35.974  29.294  28.729  1.00  0.00     0.010 A 
ATOM     38  C   UNL A   1      36.953  30.290  28.841  1.00  0.00    -0.014 A 
BRANCH  38  39
ATOM     39  C   UNL A   1      38.232  30.029  29.560  1.00  0.00     0.031 A 
ATOM     40  C   UNL A   1      38.477  30.589  30.935  1.00  0.00     0.074 A 
ATOM     41  C   UNL A   1      39.186  29.292  28.954  1.00  0.00     0.049 A 
ATOM     42  N   UNL A   1      39.510  30.424  31.723  1.00  0.00    -0.248 NA
ATOM     43  C   UNL A   1      37.437  31.467  31.490  1.00  0.00     0.031 C 
ATOM     44  C   UNL A   1      39.092  28.744  27.599  1.00  0.00     0.029 A 
ATOM     45  N   UNL A   1      40.412  28.864  29.397  1.00  0.00    -0.354 N 
ATOM     46  C   UNL A   1      39.246  31.176  32.864  1.00  0.00     0.074 A 
ATOM     47  C   UNL A   1      37.986  31.851  32.633  1.00  0.00     0.031 C 
ATOM     48  C   UNL A   1      40.187  28.013  27.341  1.00  0.00     0.029 A 
ATOM     49  C   UNL A   1      41.084  28.075  28.491  1.00  0.00     0.049 A 
ATOM     50  H   UNL A   1      40.778  29.100  30.280  1.00  0.00     0.167 HD
ATOM     51  C   UNL A   1      39.972  31.272  34.006  1.00  0.00     0.034 A 
ATOM     52  C   UNL A   1      42.283  27.467  28.574  1.00  0.00     0.034 A 
ATOM     53  C   UNL A   1      41.231  30.595  34.218  1.00  0.00     0.049 A 
ATOM     54  C   UNL A   1      43.076  27.598  29.849  1.00  0.00     0.074 A 
ATOM     55  C   UNL A   1      42.028  30.589  35.351  1.00  0.00     0.029 A 
ATOM     56  N   UNL A   1      41.888  29.814  33.274  1.00  0.00    -0.354 N 
ATOM     57  N   UNL A   1      42.779  28.259  30.945  1.00  0.00    -0.248 NA
ATOM     58  C   UNL A   1      44.355  26.883  29.904  1.00  0.00     0.031 C 
ATOM     59  C   UNL A   1      43.196  29.872  35.066  1.00  0.00     0.029 A 
ATOM     60  C   UNL A   1      43.091  29.349  33.788  1.00  0.00     0.049 A 
ATOM     61  H   UNL A   1      41.549  29.619  32.371  1.00  0.00     0.167 HD
ATOM     62  C   UNL A   1      43.823  28.010  31.831  1.00  0.00     0.074 A 
ATOM     63  C   UNL A   1      44.738  27.115  31.150  1.00  0.00     0.031 C 
ATOM     64  C   UNL A   1      44.009  28.475  33.094  1.00  0.00     0.034 A 
BRANCH  51  65
ATOM     65  C   UNL A   1      39.432  32.164  35.103  1.00  0.00     0.023 A 
ATOM     66  C   UNL A   1      38.851  31.634  36.270  1.00  0.00     0.031 A 
ATOM     67  C   UNL A   1      39.484  33.563  34.977  1.00  0.00     0.131 A 
ATOM     68  C   UNL A   1      38.280  32.492  37.223  1.00  0.00     0.055 A 
ATOM     69  C   UNL A   1      38.991  34.414  35.970  1.00  0.00     0.041 A 
ATOM     70  F   UNL A   1      40.006  34.133  33.879  1.00  0.00    -0.206 F 
ATOM     71  C   UNL A   1      38.370  33.879  37.095  1.00  0.00     0.022 A 
BRANCH  68  72
ATOM     72  S   UNL A   1      37.285  31.767  38.556  1.00  0.00     0.124 S 
ATOM     73  O   UNL A   1      36.091  32.609  38.524  1.00  0.00    -0.237 OA
ATOM     74  O   UNL A   1      37.109  30.391  38.107  1.00  0.00    -0.237 OA
ATOM     75  O   UNL A   1      38.123  31.936  39.740  1.00  0.00    -0.744 OA
ENDBRANCH  68  72
ENDBRANCH  51  65
BRANCH  52  76
ATOM     76  C   UNL A   1      42.812  26.673  27.425  1.00  0.00     0.023 A 
ATOM     77  C   UNL A   1      42.649  25.279  27.368  1.00  0.00     0.031 A 
ATOM     78  C   UNL A   1      43.530  27.294  26.388  1.00  0.00     0.131 A 
ATOM     79  C   UNL A   1      43.243  24.547  26.326  1.00  0.00     0.055 A 
ATOM     80  C   UNL A   1      44.065  26.570  25.322  1.00  0.00     0.041 A 
ATOM     81  F   UNL A   1      43.713  28.624  26.390  1.00  0.00    -0.206 F 
ATOM     82  C   UNL A   1      43.936  25.185  25.296  1.00  0.00     0.022 A 
BRANCH  79  83
ATOM     83  S   UNL A   1      43.179  22.735  26.391  1.00  0.00     0.124 S 
ATOM     84  O   UNL A   1      42.673  22.504  27.739  1.00  0.00    -0.237 OA
ATOM     85  O   UNL A   1      42.262  22.425  25.299  1.00  0.00    -0.237 OA
ATOM     86  O   UNL A   1      44.567  22.338  26.167  1.00  0.00    -0.744 OA
ENDBRANCH  79  83
ENDBRANCH  52  76
BRANCH  64  87
ATOM     87  C   UNL A   1      45.236  27.980  33.828  1.00  0.00     0.023 A 
ATOM     88  C   UNL A   1      46.469  28.652  33.750  1.00  0.00     0.031 A 
ATOM     89  C   UNL A   1      45.186  26.786  34.570  1.00  0.00     0.131 A 
ATOM     90  C   UNL A   1      47.617  28.079  34.318  1.00  0.00     0.055 A 
ATOM     91  C   UNL A   1      46.315  26.263  35.204  1.00  0.00     0.041 A 
ATOM     92  F   UNL A   1      44.039  26.096  34.680  1.00  0.00    -0.206 F 
ATOM     93  C   UNL A   1      47.544  26.899  35.061  1.00  0.00     0.022 A 
BRANCH  90  94
ATOM     94  S   UNL A   1      49.232  28.816  33.941  1.00  0.00     0.124 S 
ATOM     95  O   UNL A   1      49.063  30.181  34.426  1.00  0.00    -0.237 OA
ATOM     96  O   UNL A   1      50.144  27.975  34.710  1.00  0.00    -0.237 OA
ATOM     97  O   UNL A   1      49.339  28.682  32.489  1.00  0.00    -0.744 OA
ENDBRANCH  90  94
ENDBRANCH  64  87
ENDBRANCH  38  39
ENDBRANCH  30  33
ENDBRANCH  28  29
ENDBRANCH  27  28
ENDBRANCH   1  27
TORSDOF 18
ENDMDL
MODEL 2
REMARK VINA RESULT:     -12.0      1.975      2.338
REMARK SMILES COc1cccc(/C=C(/CC(=O)NCCCCNC(=O)c2ccc(-c3c4nc(c(-c5cc(S(=O)(=O)[O-])ccc5F)c5ccc([nH]5)c(-c5cc(S(=O)(=O)[O-])ccc5F)c5nc(c(-c6cc(S(=O)(=O)[O-])ccc6F)c6ccc3[nH]6)C=C5)C=C4)cc2)c2nc3ccccc3o2)c1
REMARK SMILES IDX 15 1 14 2 13 3 11 4 12 5 10 7 9 8 8 9 7 10 3 11 4 12 93 13
REMARK SMILES IDX 5 14 6 15 2 16 1 17 84 18 85 19 92 20 86 21 91 22 87 23
REMARK SMILES IDX 90 24 88 25 89 26 16 27 17 28 18 29 19 30 20 32 21 33 22 34
REMARK SMILES IDX 83 35 23 36 82 37 24 38 25 39 26 40 76 41 27 42 81 43 75 44
REMARK SMILES IDX 77 45 28 46 80 47 74 48 73 49 29 51 61 52 41 53 60 54 42 55
REMARK SMILES IDX 45 56 59 57 78 58 43 59 44 60 58 62 79 63 46 64 30 65 31 66
REMARK SMILES IDX 39 67 32 68 38 69 40 70 37 71 33 72 34 73 35 74 36 75 62 76
REMARK SMILES IDX 63 77 71 78 64 79 70 80 72 81 69 82 65 83 66 84 67 85 68 86
REMARK SMILES IDX 47 87 48 88 56 89 49 90 55 91 57 92 54 93 50 94 51 95 52 96
REMARK SMILES IDX 53 97
REMARK H PARENT 13 6 18 31 77 50 45 61
REMARK Flexibility Score: inf
ROOT
ATOM      1  C   UNL A   1      31.878  26.897  25.989  1.00  0.00     0.023 C 
ENDROOT
BRANCH   1   2
ATOM      2  C   UNL A   1      30.552  26.196  25.704  1.00  0.00     0.116 C 
BRANCH   2   3
ATOM      3  N   UNL A   1      30.301  25.081  26.596  1.00  0.00    -0.356 N 
ATOM      4  C   UNL A   1      30.512  23.746  26.394  1.00  0.00     0.224 C 
ATOM      5  O   UNL A   1      30.350  22.975  27.343  1.00  0.00    -0.275 OA
ATOM      6  H   UNL A   1      29.925  25.321  27.474  1.00  0.00     0.163 HD
BRANCH   4   7
ATOM      7  C   UNL A   1      31.017  23.241  25.042  1.00  0.00     0.141 C 
BRANCH   7   8
ATOM      8  C   UNL A   1      32.378  22.545  25.128  1.00  0.00     0.025 C 
ATOM      9  C   UNL A   1      33.463  23.324  25.367  1.00  0.00     0.018 C 
BRANCH   9  10
ATOM     10  C   UNL A   1      34.941  23.159  25.362  1.00  0.00    -0.021 A 
ATOM     11  C   UNL A   1      36.820  21.610  25.055  1.00  0.00     0.119 A 
ATOM     12  C   UNL A   1      37.715  22.601  25.431  1.00  0.00     0.046 A 
ATOM     13  C   UNL A   1      35.447  21.883  25.021  1.00  0.00     0.054 A 
ATOM     14  C   UNL A   1      37.243  23.866  25.758  1.00  0.00     0.004 A 
ATOM     15  C   UNL A   1      35.869  24.132  25.739  1.00  0.00     0.008 A 
BRANCH  11  16
ATOM     16  O   UNL A   1      37.359  20.372  24.833  1.00  0.00    -0.497 OA
ATOM     17  C   UNL A   1      36.402  19.322  24.795  1.00  0.00     0.278 C 
ENDBRANCH  11  16
ENDBRANCH   9  10
BRANCH   8  18
ATOM     18  C   UNL A   1      32.447  21.132  24.890  1.00  0.00     0.223 A 
ATOM     19  N   UNL A   1      32.507  20.225  25.857  1.00  0.00    -0.210 NA
ATOM     20  O   UNL A   1      32.578  20.551  23.635  1.00  0.00    -0.436 OA
ATOM     21  C   UNL A   1      32.642  19.020  25.233  1.00  0.00     0.110 A 
ATOM     22  C   UNL A   1      32.652  19.209  23.867  1.00  0.00     0.155 A 
ATOM     23  C   UNL A   1      32.755  17.724  25.749  1.00  0.00     0.032 A 
ATOM     24  C   UNL A   1      32.724  18.185  22.931  1.00  0.00     0.049 A 
ATOM     25  C   UNL A   1      32.839  16.660  24.840  1.00  0.00     0.003 A 
ATOM     26  C   UNL A   1      32.810  16.889  23.457  1.00  0.00     0.004 A 
ENDBRANCH   8  18
ENDBRANCH   7   8
ENDBRANCH   4   7
ENDBRANCH   2   3
ENDBRANCH   1   2
BRANCH   1  27
ATOM     27  C   UNL A   1      31.757  28.327  26.525  1.00  0.00     0.023 C 
BRANCH  27  28
ATOM     28  C   UNL A   1      32.722  29.345  25.924  1.00  0.00     0.116 C 
BRANCH  28  29
ATOM     29  N   UNL A   1      32.446  30.710  26.340  1.00  0.00    -0.352 N 
ATOM     30  C   UNL A   1      33.153  31.530  27.183  1.00  0.00     0.251 C 
ATOM     31  H   UNL A   1      31.628  31.106  25.961  1.00  0.00     0.163 HD
ATOM     32  O   UNL A   1      32.673  32.618  27.500  1.00  0.00    -0.269 OA
BRANCH  30  33
ATOM     33  C   UNL A   1      34.459  31.106  27.742  1.00  0.00     0.039 A 
ATOM     34  C   UNL A   1      35.462  32.067  27.886  1.00  0.00     0.014 A 
ATOM     35  C   UNL A   1      34.709  29.781  28.113  1.00  0.00     0.014 A 
ATOM     36  C   UNL A   1      36.688  31.713  28.457  1.00  0.00     0.010 A 
ATOM     37  C   UNL A   1      35.904  29.448  28.753  1.00  0.00     0.010 A 
ATOM     38  C   UNL A   1      36.907  30.410  28.933  1.00  0.00    -0.014 A 
BRANCH  38  39
ATOM     39  C   UNL A   1      38.174  30.073  29.643  1.00  0.00     0.031 A 
ATOM     40  C   UNL A   1      38.443  30.584  31.033  1.00  0.00     0.074 A 
ATOM     41  C   UNL A   1      39.093  29.311  29.016  1.00  0.00     0.049 A 
ATOM     42  N   UNL A   1      39.468  30.352  31.814  1.00  0.00    -0.248 NA
ATOM     43  C   UNL A   1      37.443  31.492  31.612  1.00  0.00     0.031 C 
ATOM     44  C   UNL A   1      38.976  28.806  27.646  1.00  0.00     0.029 A 
ATOM     45  N   UNL A   1      40.300  28.818  29.445  1.00  0.00    -0.354 N 
ATOM     46  C   UNL A   1      39.238  31.083  32.975  1.00  0.00     0.074 A 
ATOM     47  C   UNL A   1      38.009  31.819  32.765  1.00  0.00     0.031 C 
ATOM     48  C   UNL A   1      40.037  28.034  27.367  1.00  0.00     0.029 A 
ATOM     49  C   UNL A   1      40.936  28.025  28.517  1.00  0.00     0.049 A 
ATOM     50  H   UNL A   1      40.676  29.013  30.334  1.00  0.00     0.167 HD
ATOM     51  C   UNL A   1      39.968  31.116  34.119  1.00  0.00     0.034 A 
ATOM     52  C   UNL A   1      42.107  27.362  28.581  1.00  0.00     0.034 A 
ATOM     53  C   UNL A   1      41.196  30.379  34.310  1.00  0.00     0.049 A 
ATOM     54  C   UNL A   1      42.905  27.424  29.859  1.00  0.00     0.074 A 
ATOM     55  C   UNL A   1      41.991  30.307  35.442  1.00  0.00     0.029 A 
ATOM     56  N   UNL A   1      41.817  29.596  33.344  1.00  0.00    -0.354 N 
ATOM     57  N   UNL A   1      42.638  28.067  30.973  1.00  0.00    -0.248 NA
ATOM     58  C   UNL A   1      44.152  26.651  29.893  1.00  0.00     0.031 C 
ATOM     59  C   UNL A   1      43.126  29.547  35.136  1.00  0.00     0.029 A 
ATOM     60  C   UNL A   1      42.998  29.064  33.844  1.00  0.00     0.049 A 
ATOM     61  H   UNL A   1      41.469  29.440  32.437  1.00  0.00     0.167 HD
ATOM     62  C   UNL A   1      43.670  27.748  31.851  1.00  0.00     0.074 A 
ATOM     63  C   UNL A   1      44.544  26.833  31.144  1.00  0.00     0.031 C 
ATOM     64  C   UNL A   1      43.877  28.170  33.125  1.00  0.00     0.034 A 
BRANCH  51  65
ATOM     65  C   UNL A   1      39.468  32.001  35.240  1.00  0.00     0.023 A 
ATOM     66  C   UNL A   1      39.910  33.329  35.390  1.00  0.00     0.031 A 
ATOM     67  C   UNL A   1      38.547  31.510  36.183  1.00  0.00     0.131 A 
ATOM     68  C   UNL A   1      39.493  34.089  36.493  1.00  0.00     0.055 A 
ATOM     69  C   UNL A   1      38.069  32.301  37.230  1.00  0.00     0.041 A 
ATOM     70  F   UNL A   1      38.102  30.245  36.110  1.00  0.00    -0.206 F 
ATOM     71  C   UNL A   1      38.554  33.594  37.400  1.00  0.00     0.022 A 
BRANCH  68  72
ATOM     72  S   UNL A   1      40.310  35.678  36.810  1.00  0.00     0.124 S 
ATOM     73  O   UNL A   1      39.626  36.556  35.865  1.00  0.00    -0.237 OA
ATOM     74  O   UNL A   1      40.020  35.906  38.221  1.00  0.00    -0.237 OA
ATOM     75  O   UNL A   1      41.712  35.411  36.497  1.00  0.00    -0.744 OA
ENDBRANCH  68  72
ENDBRANCH  51  65
BRANCH  52  76
ATOM     76  C   UNL A   1      42.600  26.577  27.411  1.00  0.00     0.023 A 
ATOM     77  C   UNL A   1      42.273  25.221  27.255  1.00  0.00     0.031 A 
ATOM     78  C   UNL A   1      43.447  27.164  26.454  1.00  0.00     0.131 A 
ATOM     79  C   UNL A   1      42.831  24.482  26.198  1.00  0.00     0.055 A 
ATOM     80  C   UNL A   1      43.950  26.442  25.371  1.00  0.00     0.041 A 
ATOM     81  F   UNL A   1      43.790  28.458  26.552  1.00  0.00    -0.206 F 
ATOM     82  C   UNL A   1      43.654  25.088  25.247  1.00  0.00     0.022 A 
BRANCH  79  83
ATOM     83  S   UNL A   1      42.543  22.692  26.141  1.00  0.00     0.124 S 
ATOM     84  O   UNL A   1      43.207  22.325  24.896  1.00  0.00    -0.237 OA
ATOM     85  O   UNL A   1      43.188  22.242  27.370  1.00  0.00    -0.237 OA
ATOM     86  O   UNL A   1      41.086  22.583  26.129  1.00  0.00    -0.744 OA
ENDBRANCH  79  83
ENDBRANCH  52  76
BRANCH  64  87
ATOM     87  C   UNL A   1      45.081  27.601  33.844  1.00  0.00     0.023 A 
ATOM     88  C   UNL A   1      45.015  26.395  34.564  1.00  0.00     0.031 A 
ATOM     89  C   UNL A   1      46.299  28.306  33.856  1.00  0.00     0.131 A 
ATOM     90  C   UNL A   1      46.108  25.981  35.341  1.00  0.00     0.055 A 
ATOM     91  C   UNL A   1      47.411  27.846  34.564  1.00  0.00     0.041 A 
ATOM     92  F   UNL A   1      46.425  29.466  33.190  1.00  0.00    -0.206 F 
ATOM     93  C   UNL A   1      47.311  26.689  35.330  1.00  0.00     0.022 A 
BRANCH  90  94
ATOM     94  S   UNL A   1      45.882  24.592  36.486  1.00  0.00     0.124 S 
ATOM     95  O   UNL A   1      47.194  23.954  36.451  1.00  0.00    -0.237 OA
ATOM     96  O   UNL A   1      45.535  25.269  37.731  1.00  0.00    -0.237 OA
ATOM     97  O   UNL A   1      44.800  23.818  35.878  1.00  0.00    -0.744 OA
ENDBRANCH  90  94
ENDBRANCH  64  87
ENDBRANCH  38  39
ENDBRANCH  30  33
ENDBRANCH  28  29
ENDBRANCH  27  28
ENDBRANCH   1  27
TORSDOF 18
ENDMDL
MODEL 3
REMARK VINA RESULT:     -11.8      4.755      9.944
REMARK SMILES COc1cccc(/C=C(/CC(=O)NCCCCNC(=O)c2ccc(-c3c4nc(c(-c5cc(S(=O)(=O)[O-])ccc5F)c5ccc([nH]5)c(-c5cc(S(=O)(=O)[O-])ccc5F)c5nc(c(-c6cc(S(=O)(=O)[O-])ccc6F)c6ccc3[nH]6)C=C5)C=C4)cc2)c2nc3ccccc3o2)c1
REMARK SMILES IDX 15 1 14 2 13 3 11 4 12 5 10 7 9 8 8 9 7 10 3 11 4 12 93 13
REMARK SMILES IDX 5 14 6 15 2 16 1 17 84 18 85 19 92 20 86 21 91 22 87 23
REMARK SMILES IDX 90 24 88 25 89 26 16 27 17 28 18 29 19 30 20 32 21 33 22 34
REMARK SMILES IDX 83 35 23 36 82 37 24 38 25 39 26 40 76 41 27 42 81 43 75 44
REMARK SMILES IDX 77 45 28 46 80 47 74 48 73 49 29 51 61 52 41 53 60 54 42 55
REMARK SMILES IDX 45 56 59 57 78 58 43 59 44 60 58 62 79 63 46 64 30 65 31 66
REMARK SMILES IDX 39 67 32 68 38 69 40 70 37 71 33 72 34 73 35 74 36 75 62 76
REMARK SMILES IDX 63 77 71 78 64 79 70 80 72 81 69 82 65 83 66 84 67 85 68 86
REMARK SMILES IDX 47 87 48 88 56 89 49 90 55 91 57 92 54 93 50 94 51 95 52 96
REMARK SMILES IDX 53 97
REMARK H PARENT 13 6 18 31 77 50 45 61
REMARK Flexibility Score: inf
ROOT
ATOM      1  C   UNL A   1      35.042  22.370  24.189  1.00  0.00     0.023 C 
ENDROOT
BRANCH   1   2
ATOM      2  C   UNL A   1      33.569  22.461  23.800  1.00  0.00     0.116 C 
BRANCH   2   3
ATOM      3  N   UNL A   1      32.746  23.046  24.841  1.00  0.00    -0.356 N 
ATOM      4  C   UNL A   1      32.142  24.271  24.881  1.00  0.00     0.224 C 
ATOM      5  O   UNL A   1      31.372  24.516  25.813  1.00  0.00    -0.275 OA
ATOM      6  H   UNL A   1      32.601  22.478  25.631  1.00  0.00     0.163 HD
BRANCH   4   7
ATOM      7  C   UNL A   1      32.358  25.275  23.748  1.00  0.00     0.141 C 
BRANCH   7   8
ATOM      8  C   UNL A   1      32.293  26.732  24.212  1.00  0.00     0.025 C 
ATOM      9  C   UNL A   1      33.195  27.131  25.144  1.00  0.00     0.018 C 
BRANCH   9  10
ATOM     10  C   UNL A   1      33.416  28.327  26.000  1.00  0.00    -0.021 A 
ATOM     11  C   UNL A   1      32.558  30.515  26.709  1.00  0.00     0.119 A 
ATOM     12  C   UNL A   1      33.710  30.741  27.449  1.00  0.00     0.046 A 
ATOM     13  C   UNL A   1      32.411  29.322  25.990  1.00  0.00     0.054 A 
ATOM     14  C   UNL A   1      34.706  29.773  27.484  1.00  0.00     0.004 A 
ATOM     15  C   UNL A   1      34.563  28.588  26.752  1.00  0.00     0.008 A 
BRANCH  11  16
ATOM     16  O   UNL A   1      31.668  31.553  26.659  1.00  0.00    -0.497 OA
ATOM     17  C   UNL A   1      30.751  31.478  25.576  1.00  0.00     0.278 C 
ENDBRANCH  11  16
ENDBRANCH   9  10
BRANCH   8  18
ATOM     18  C   UNL A   1      31.255  27.576  23.694  1.00  0.00     0.223 A 
ATOM     19  N   UNL A   1      29.966  27.410  23.969  1.00  0.00    -0.210 NA
ATOM     20  O   UNL A   1      31.453  28.583  22.758  1.00  0.00    -0.436 OA
ATOM     21  C   UNL A   1      29.303  28.348  23.233  1.00  0.00     0.110 A 
ATOM     22  C   UNL A   1      30.213  29.094  22.514  1.00  0.00     0.155 A 
ATOM     23  C   UNL A   1      27.938  28.635  23.124  1.00  0.00     0.032 A 
ATOM     24  C   UNL A   1      29.879  30.169  21.698  1.00  0.00     0.049 A 
ATOM     25  C   UNL A   1      27.556  29.707  22.306  1.00  0.00     0.003 A 
ATOM     26  C   UNL A   1      28.512  30.466  21.617  1.00  0.00     0.004 A 
ENDBRANCH   8  18
ENDBRANCH   7   8
ENDBRANCH   4   7
ENDBRANCH   2   3
ENDBRANCH   1   2
BRANCH   1  27
ATOM     27  C   UNL A   1      35.715  23.710  24.507  1.00  0.00     0.023 C 
BRANCH  27  28
ATOM     28  C   UNL A   1      36.490  23.769  25.821  1.00  0.00     0.116 C 
BRANCH  28  29
ATOM     29  N   UNL A   1      37.464  22.700  25.959  1.00  0.00    -0.352 N 
ATOM     30  C   UNL A   1      38.762  22.748  26.401  1.00  0.00     0.251 C 
ATOM     31  H   UNL A   1      37.146  21.806  25.694  1.00  0.00     0.163 HD
ATOM     32  O   UNL A   1      39.458  21.736  26.322  1.00  0.00    -0.269 OA
BRANCH  30  33
ATOM     33  C   UNL A   1      39.340  24.005  26.934  1.00  0.00     0.039 A 
ATOM     34  C   UNL A   1      40.005  24.856  26.048  1.00  0.00     0.014 A 
ATOM     35  C   UNL A   1      39.244  24.349  28.285  1.00  0.00     0.014 A 
ATOM     36  C   UNL A   1      40.518  26.073  26.505  1.00  0.00     0.010 A 
ATOM     37  C   UNL A   1      39.687  25.599  28.723  1.00  0.00     0.010 A 
ATOM     38  C   UNL A   1      40.329  26.476  27.838  1.00  0.00    -0.014 A 
BRANCH  38  39
ATOM     39  C   UNL A   1      40.778  27.824  28.286  1.00  0.00     0.031 A 
ATOM     40  C   UNL A   1      42.235  28.202  28.266  1.00  0.00     0.074 A 
ATOM     41  C   UNL A   1      39.860  28.706  28.729  1.00  0.00     0.049 A 
ATOM     42  N   UNL A   1      42.796  29.343  28.577  1.00  0.00    -0.248 NA
ATOM     43  C   UNL A   1      43.187  27.155  27.869  1.00  0.00     0.031 C 
ATOM     44  C   UNL A   1      38.425  28.438  28.853  1.00  0.00     0.029 A 
ATOM     45  N   UNL A   1      39.987  30.008  29.146  1.00  0.00    -0.354 N 
ATOM     46  C   UNL A   1      44.165  29.154  28.412  1.00  0.00     0.074 A 
ATOM     47  C   UNL A   1      44.350  27.767  28.042  1.00  0.00     0.031 C 
ATOM     48  C   UNL A   1      37.801  29.552  29.264  1.00  0.00     0.029 A 
ATOM     49  C   UNL A   1      38.792  30.603  29.478  1.00  0.00     0.049 A 
ATOM     50  H   UNL A   1      40.854  30.473  29.202  1.00  0.00     0.167 HD
ATOM     51  C   UNL A   1      45.170  30.059  28.532  1.00  0.00     0.034 A 
ATOM     52  C   UNL A   1      38.519  31.852  29.905  1.00  0.00     0.034 A 
ATOM     53  C   UNL A   1      44.968  31.439  28.909  1.00  0.00     0.049 A 
ATOM     54  C   UNL A   1      39.654  32.835  30.041  1.00  0.00     0.074 A 
ATOM     55  C   UNL A   1      45.908  32.450  29.018  1.00  0.00     0.029 A 
ATOM     56  N   UNL A   1      43.744  32.004  29.250  1.00  0.00    -0.354 N 
ATOM     57  N   UNL A   1      40.936  32.657  29.816  1.00  0.00    -0.248 NA
ATOM     58  C   UNL A   1      39.299  34.192  30.468  1.00  0.00     0.031 C 
ATOM     59  C   UNL A   1      45.269  33.599  29.498  1.00  0.00     0.029 A 
ATOM     60  C   UNL A   1      43.912  33.337  29.600  1.00  0.00     0.049 A 
ATOM     61  H   UNL A   1      42.883  31.527  29.245  1.00  0.00     0.167 HD
ATOM     62  C   UNL A   1      41.534  33.893  30.044  1.00  0.00     0.074 A 
ATOM     63  C   UNL A   1      40.468  34.810  30.394  1.00  0.00     0.031 C 
ATOM     64  C   UNL A   1      42.846  34.240  29.969  1.00  0.00     0.034 A 
BRANCH  51  65
ATOM     65  C   UNL A   1      46.580  29.572  28.280  1.00  0.00     0.023 A 
ATOM     66  C   UNL A   1      47.008  29.172  27.000  1.00  0.00     0.031 A 
ATOM     67  C   UNL A   1      47.508  29.490  29.333  1.00  0.00     0.131 A 
ATOM     68  C   UNL A   1      48.295  28.642  26.823  1.00  0.00     0.055 A 
ATOM     69  C   UNL A   1      48.816  29.042  29.133  1.00  0.00     0.041 A 
ATOM     70  F   UNL A   1      47.157  29.836  30.583  1.00  0.00    -0.206 F 
ATOM     71  C   UNL A   1      49.212  28.600  27.875  1.00  0.00     0.022 A 
BRANCH  68  72
ATOM     72  S   UNL A   1      48.703  27.868  25.233  1.00  0.00     0.124 S 
ATOM     73  O   UNL A   1      48.679  26.449  25.580  1.00  0.00    -0.237 OA
ATOM     74  O   UNL A   1      47.625  28.334  24.369  1.00  0.00    -0.237 OA
ATOM     75  O   UNL A   1      50.027  28.401  24.922  1.00  0.00    -0.744 OA
ENDBRANCH  68  72
ENDBRANCH  51  65
BRANCH  52  76
ATOM     76  C   UNL A   1      37.118  32.254  30.229  1.00  0.00     0.023 A 
ATOM     77  C   UNL A   1      36.326  32.947  29.299  1.00  0.00     0.031 A 
ATOM     78  C   UNL A   1      36.566  31.989  31.495  1.00  0.00     0.131 A 
ATOM     79  C   UNL A   1      35.048  33.400  29.667  1.00  0.00     0.055 A 
ATOM     80  C   UNL A   1      35.272  32.386  31.835  1.00  0.00     0.041 A 
ATOM     81  F   UNL A   1      37.277  31.326  32.421  1.00  0.00    -0.206 F 
ATOM     82  C   UNL A   1      34.511  33.110  30.923  1.00  0.00     0.022 A 
BRANCH  79  83
ATOM     83  S   UNL A   1      34.135  34.459  28.511  1.00  0.00     0.124 S 
ATOM     84  O   UNL A   1      34.773  34.133  27.242  1.00  0.00    -0.237 OA
ATOM     85  O   UNL A   1      32.766  33.984  28.683  1.00  0.00    -0.237 OA
ATOM     86  O   UNL A   1      34.392  35.807  29.013  1.00  0.00    -0.744 OA
ENDBRANCH  79  83
ENDBRANCH  52  76
BRANCH  64  87
ATOM     87  C   UNL A   1      43.181  35.692  30.233  1.00  0.00     0.023 A 
ATOM     88  C   UNL A   1      43.011  36.683  29.251  1.00  0.00     0.031 A 
ATOM     89  C   UNL A   1      43.735  36.079  31.467  1.00  0.00     0.131 A 
ATOM     90  C   UNL A   1      43.475  37.987  29.482  1.00  0.00     0.055 A 
ATOM     91  C   UNL A   1      44.119  37.397  31.722  1.00  0.00     0.041 A 
ATOM     92  F   UNL A   1      43.926  35.179  32.445  1.00  0.00    -0.206 F 
ATOM     93  C   UNL A   1      44.011  38.354  30.718  1.00  0.00     0.022 A 
BRANCH  90  94
ATOM     94  S   UNL A   1      43.513  39.154  28.093  1.00  0.00     0.124 S 
ATOM     95  O   UNL A   1      44.596  40.051  28.481  1.00  0.00    -0.237 OA
ATOM     96  O   UNL A   1      43.786  38.278  26.958  1.00  0.00    -0.237 OA
ATOM     97  O   UNL A   1      42.177  39.750  28.110  1.00  0.00    -0.744 OA
ENDBRANCH  90  94
ENDBRANCH  64  87
ENDBRANCH  38  39
ENDBRANCH  30  33
ENDBRANCH  28  29
ENDBRANCH  27  28
ENDBRANCH   1  27
TORSDOF 18
ENDMDL
