MODEL 1
REMARK VINA RESULT:     -11.7      0.000      0.000
REMARK SMILES C[C@]([NH2+]Cc1nc(-c2ccsc2)no1)(C(=O)NCCCCNC(=O)c1ccc(-c2c3nc(c(-c4cc(S(=O)(=O)[O-])ccc4F)c4ccc([nH]4)c(-c4cc(S(=O)(=O)[O-])ccc4F)c4nc(c(-c5cc(S(=O)(=O)[O-])ccc5F)c5ccc2[nH]5)C=C4)C=C3)cc1)C(F)(F)F
REMARK SMILES IDX 19 1 18 2 17 3 15 4 16 5 2 7 1 8 88 9 89 10 90 11 91 12 3 13
REMARK SMILES IDX 4 16 5 17 6 18 14 19 7 20 13 21 8 22 9 23 12 24 10 25 11 26
REMARK SMILES IDX 20 27 21 28 22 29 23 30 24 32 25 33 26 34 87 35 27 36 86 37
REMARK SMILES IDX 28 38 29 39 30 40 80 41 31 42 85 43 79 44 81 45 32 46 84 47
REMARK SMILES IDX 78 48 77 49 33 51 65 52 45 53 64 54 46 55 49 56 63 57 82 58
REMARK SMILES IDX 47 59 48 60 62 62 83 63 50 64 34 65 35 66 43 67 36 68 42 69
REMARK SMILES IDX 44 70 41 71 37 72 38 73 39 74 40 75 66 76 67 77 75 78 68 79
REMARK SMILES IDX 74 80 76 81 73 82 69 83 70 84 71 85 72 86 51 87 52 88 60 89
REMARK SMILES IDX 53 90 59 91 61 92 58 93 54 94 55 95 56 96 57 97
REMARK H PARENT 17 6 3 14 3 15 22 31 81 50 49 61
REMARK Flexibility Score: inf
ROOT
ATOM      1  C   UNL A   1      32.136  28.939  23.558  1.00  0.00     0.023 C 
ENDROOT
BRANCH   1   2
ATOM      2  C   UNL A   1      33.480  28.267  23.284  1.00  0.00     0.116 C 
BRANCH   2   3
ATOM      3  N   UNL A   1      33.424  27.385  22.135  1.00  0.00    -0.350 N 
ATOM      4  C   UNL A   1      33.205  26.039  22.008  1.00  0.00     0.290 C 
ATOM      5  O   UNL A   1      33.247  25.602  20.856  1.00  0.00    -0.267 OA
ATOM      6  H   UNL A   1      33.574  27.844  21.276  1.00  0.00     0.163 HD
BRANCH   4   7
ATOM      7  C   UNL A   1      32.929  25.132  23.238  1.00  0.00     0.268 C 
ATOM      8  C   UNL A   1      33.647  25.699  24.484  1.00  0.00     0.101 C 
BRANCH   7   9
ATOM      9  C   UNL A   1      31.393  25.254  23.497  1.00  0.00     0.453 C 
ATOM     10  F   UNL A   1      30.765  26.096  22.649  1.00  0.00    -0.164 F 
ATOM     11  F   UNL A   1      30.801  24.035  23.321  1.00  0.00    -0.164 F 
ATOM     12  F   UNL A   1      31.102  25.615  24.768  1.00  0.00    -0.164 F 
ENDBRANCH   7   9
BRANCH   7  13
ATOM     13  N   UNL A   1      33.430  23.754  22.889  1.00  0.00    -0.318 N 
ATOM     14  H   UNL A   1      33.992  23.828  22.042  1.00  0.00     0.347 HD
ATOM     15  H   UNL A   1      32.602  23.170  22.778  1.00  0.00     0.347 HD
BRANCH  13  16
ATOM     16  C   UNL A   1      34.247  23.113  23.922  1.00  0.00     0.363 C 
BRANCH  16  17
ATOM     17  C   UNL A   1      33.659  21.811  24.362  1.00  0.00     0.282 A 
ATOM     18  N   UNL A   1      34.175  20.602  24.337  1.00  0.00    -0.186 NA
ATOM     19  O   UNL A   1      32.370  21.842  24.813  1.00  0.00    -0.333 OA
ATOM     20  C   UNL A   1      33.121  19.835  24.758  1.00  0.00     0.203 A 
ATOM     21  N   UNL A   1      32.007  20.515  25.058  1.00  0.00    -0.057 NA
BRANCH  20  22
ATOM     22  C   UNL A   1      33.227  18.377  24.766  1.00  0.00     0.033 A 
ATOM     23  C   UNL A   1      33.993  17.650  23.805  1.00  0.00     0.024 A 
ATOM     24  C   UNL A   1      32.596  17.541  25.663  1.00  0.00     0.077 A 
ATOM     25  C   UNL A   1      33.919  16.289  24.009  1.00  0.00     0.065 A 
ATOM     26  S   UNL A   1      32.916  15.890  25.339  1.00  0.00    -0.152 S 
ENDBRANCH  20  22
ENDBRANCH  16  17
ENDBRANCH  13  16
ENDBRANCH   7  13
ENDBRANCH   4   7
ENDBRANCH   2   3
ENDBRANCH   1   2
BRANCH   1  27
ATOM     27  C   UNL A   1      31.781  29.078  25.040  1.00  0.00     0.023 C 
BRANCH  27  28
ATOM     28  C   UNL A   1      32.891  29.629  25.931  1.00  0.00     0.116 C 
BRANCH  28  29
ATOM     29  N   UNL A   1      32.648  30.995  26.368  1.00  0.00    -0.352 N 
ATOM     30  C   UNL A   1      33.391  31.770  27.227  1.00  0.00     0.251 C 
ATOM     31  H   UNL A   1      31.841  31.422  26.000  1.00  0.00     0.163 HD
ATOM     32  O   UNL A   1      32.965  32.867  27.579  1.00  0.00    -0.269 OA
BRANCH  30  33
ATOM     33  C   UNL A   1      34.677  31.259  27.750  1.00  0.00     0.039 A 
ATOM     34  C   UNL A   1      35.718  32.162  27.978  1.00  0.00     0.014 A 
ATOM     35  C   UNL A   1      34.845  29.903  28.040  1.00  0.00     0.014 A 
ATOM     36  C   UNL A   1      36.903  31.716  28.567  1.00  0.00     0.010 A 
ATOM     37  C   UNL A   1      35.999  29.473  28.690  1.00  0.00     0.010 A 
ATOM     38  C   UNL A   1      37.038  30.374  28.965  1.00  0.00    -0.014 A 
BRANCH  38  39
ATOM     39  C   UNL A   1      38.255  29.899  29.674  1.00  0.00     0.031 A 
ATOM     40  C   UNL A   1      38.579  30.421  31.047  1.00  0.00     0.074 A 
ATOM     41  C   UNL A   1      39.101  29.053  29.055  1.00  0.00     0.049 A 
ATOM     42  N   UNL A   1      39.630  30.196  31.793  1.00  0.00    -0.248 NA
ATOM     43  C   UNL A   1      37.605  31.346  31.646  1.00  0.00     0.031 C 
ATOM     44  C   UNL A   1      38.916  28.508  27.707  1.00  0.00     0.029 A 
ATOM     45  N   UNL A   1      40.291  28.510  29.469  1.00  0.00    -0.354 N 
ATOM     46  C   UNL A   1      39.453  30.962  32.941  1.00  0.00     0.074 A 
ATOM     47  C   UNL A   1      38.222  31.703  32.762  1.00  0.00     0.031 C 
ATOM     48  C   UNL A   1      39.942  27.692  27.417  1.00  0.00     0.029 A 
ATOM     49  C   UNL A   1      40.881  27.688  28.534  1.00  0.00     0.049 A 
ATOM     50  H   UNL A   1      40.687  28.692  30.351  1.00  0.00     0.167 HD
ATOM     51  C   UNL A   1      40.235  31.025  34.048  1.00  0.00     0.034 A 
ATOM     52  C   UNL A   1      42.050  27.019  28.569  1.00  0.00     0.034 A 
ATOM     53  C   UNL A   1      41.451  30.266  34.215  1.00  0.00     0.049 A 
ATOM     54  C   UNL A   1      42.912  27.121  29.802  1.00  0.00     0.074 A 
ATOM     55  C   UNL A   1      42.283  30.204  35.320  1.00  0.00     0.029 A 
ATOM     56  N   UNL A   1      42.016  29.444  33.248  1.00  0.00    -0.354 N 
ATOM     57  N   UNL A   1      42.704  27.808  30.902  1.00  0.00    -0.248 NA
ATOM     58  C   UNL A   1      44.162  26.350  29.800  1.00  0.00     0.031 C 
ATOM     59  C   UNL A   1      43.384  29.403  34.997  1.00  0.00     0.029 A 
ATOM     60  C   UNL A   1      43.202  28.899  33.718  1.00  0.00     0.049 A 
ATOM     61  H   UNL A   1      41.632  29.274  32.358  1.00  0.00     0.167 HD
ATOM     62  C   UNL A   1      43.782  27.523  31.736  1.00  0.00     0.074 A 
ATOM     63  C   UNL A   1      44.629  26.594  31.016  1.00  0.00     0.031 C 
ATOM     64  C   UNL A   1      44.045  27.983  32.986  1.00  0.00     0.034 A 
BRANCH  51  65
ATOM     65  C   UNL A   1      39.805  31.967  35.148  1.00  0.00     0.023 A 
ATOM     66  C   UNL A   1      39.076  31.520  36.264  1.00  0.00     0.031 A 
ATOM     67  C   UNL A   1      40.102  33.339  35.065  1.00  0.00     0.131 A 
ATOM     68  C   UNL A   1      38.600  32.442  37.207  1.00  0.00     0.055 A 
ATOM     69  C   UNL A   1      39.698  34.241  36.053  1.00  0.00     0.041 A 
ATOM     70  F   UNL A   1      40.776  33.831  34.015  1.00  0.00    -0.206 F 
ATOM     71  C   UNL A   1      38.928  33.797  37.123  1.00  0.00     0.022 A 
BRANCH  68  72
ATOM     72  S   UNL A   1      37.419  31.869  38.459  1.00  0.00     0.124 S 
ATOM     73  O   UNL A   1      36.320  32.815  38.283  1.00  0.00    -0.237 OA
ATOM     74  O   UNL A   1      37.155  30.498  38.039  1.00  0.00    -0.237 OA
ATOM     75  O   UNL A   1      38.155  32.007  39.713  1.00  0.00    -0.744 OA
ENDBRANCH  68  72
ENDBRANCH  51  65
BRANCH  52  76
ATOM     76  C   UNL A   1      42.485  26.196  27.404  1.00  0.00     0.023 A 
ATOM     77  C   UNL A   1      42.119  24.844  27.300  1.00  0.00     0.031 A 
ATOM     78  C   UNL A   1      43.308  26.736  26.400  1.00  0.00     0.131 A 
ATOM     79  C   UNL A   1      42.612  24.066  26.241  1.00  0.00     0.055 A 
ATOM     80  C   UNL A   1      43.754  25.970  25.322  1.00  0.00     0.041 A 
ATOM     81  F   UNL A   1      43.684  28.025  26.449  1.00  0.00    -0.206 F 
ATOM     82  C   UNL A   1      43.416  24.622  25.245  1.00  0.00     0.022 A 
BRANCH  79  83
ATOM     83  S   UNL A   1      42.251  22.288  26.231  1.00  0.00     0.124 S 
ATOM     84  O   UNL A   1      40.796  22.281  26.132  1.00  0.00    -0.237 OA
ATOM     85  O   UNL A   1      42.977  21.839  25.047  1.00  0.00    -0.237 OA
ATOM     86  O   UNL A   1      42.794  21.824  27.506  1.00  0.00    -0.744 OA
ENDBRANCH  79  83
ENDBRANCH  52  76
BRANCH  64  87
ATOM     87  C   UNL A   1      45.279  27.445  33.668  1.00  0.00     0.023 A 
ATOM     88  C   UNL A   1      45.232  26.314  34.501  1.00  0.00     0.031 A 
ATOM     89  C   UNL A   1      46.518  28.086  33.489  1.00  0.00     0.131 A 
ATOM     90  C   UNL A   1      46.393  25.890  35.167  1.00  0.00     0.055 A 
ATOM     91  C   UNL A   1      47.680  27.623  34.108  1.00  0.00     0.041 A 
ATOM     92  F   UNL A   1      46.619  29.172  32.707  1.00  0.00    -0.206 F 
ATOM     93  C   UNL A   1      47.619  26.527  34.963  1.00  0.00     0.022 A 
BRANCH  90  94
ATOM     94  S   UNL A   1      46.259  24.547  36.380  1.00  0.00     0.124 S 
ATOM     95  O   UNL A   1      46.997  23.472  35.726  1.00  0.00    -0.237 OA
ATOM     96  O   UNL A   1      46.892  25.128  37.560  1.00  0.00    -0.237 OA
ATOM     97  O   UNL A   1      44.818  24.330  36.495  1.00  0.00    -0.744 OA
ENDBRANCH  90  94
ENDBRANCH  64  87
ENDBRANCH  38  39
ENDBRANCH  30  33
ENDBRANCH  28  29
ENDBRANCH  27  28
ENDBRANCH   1  27
TORSDOF 19
ENDMDL
MODEL 2
REMARK VINA RESULT:     -11.7      2.762      8.291
REMARK SMILES C[C@]([NH2+]Cc1nc(-c2ccsc2)no1)(C(=O)NCCCCNC(=O)c1ccc(-c2c3nc(c(-c4cc(S(=O)(=O)[O-])ccc4F)c4ccc([nH]4)c(-c4cc(S(=O)(=O)[O-])ccc4F)c4nc(c(-c5cc(S(=O)(=O)[O-])ccc5F)c5ccc2[nH]5)C=C4)C=C3)cc1)C(F)(F)F
REMARK SMILES IDX 19 1 18 2 17 3 15 4 16 5 2 7 1 8 88 9 89 10 90 11 91 12 3 13
REMARK SMILES IDX 4 16 5 17 6 18 14 19 7 20 13 21 8 22 9 23 12 24 10 25 11 26
REMARK SMILES IDX 20 27 21 28 22 29 23 30 24 32 25 33 26 34 87 35 27 36 86 37
REMARK SMILES IDX 28 38 29 39 30 40 80 41 31 42 85 43 79 44 81 45 32 46 84 47
REMARK SMILES IDX 78 48 77 49 33 51 65 52 45 53 64 54 46 55 49 56 63 57 82 58
REMARK SMILES IDX 47 59 48 60 62 62 83 63 50 64 34 65 35 66 43 67 36 68 42 69
REMARK SMILES IDX 44 70 41 71 37 72 38 73 39 74 40 75 66 76 67 77 75 78 68 79
REMARK SMILES IDX 74 80 76 81 73 82 69 83 70 84 71 85 72 86 51 87 52 88 60 89
REMARK SMILES IDX 53 90 59 91 61 92 58 93 54 94 55 95 56 96 57 97
REMARK H PARENT 17 6 3 14 3 15 22 31 81 50 49 61
REMARK Flexibility Score: inf
ROOT
ATOM      1  C   UNL A   1      34.815  30.224  27.853  1.00  0.00     0.023 C 
ENDROOT
BRANCH   1   2
ATOM      2  C   UNL A   1      34.399  28.946  27.129  1.00  0.00     0.116 C 
BRANCH   2   3
ATOM      3  N   UNL A   1      33.123  28.444  27.600  1.00  0.00    -0.350 N 
ATOM      4  C   UNL A   1      32.026  27.944  26.951  1.00  0.00     0.290 C 
ATOM      5  O   UNL A   1      31.083  27.620  27.676  1.00  0.00    -0.267 OA
ATOM      6  H   UNL A   1      33.025  28.469  28.580  1.00  0.00     0.163 HD
BRANCH   4   7
ATOM      7  C   UNL A   1      31.980  27.801  25.406  1.00  0.00     0.268 C 
ATOM      8  C   UNL A   1      30.711  27.025  24.985  1.00  0.00     0.101 C 
BRANCH   7   9
ATOM      9  C   UNL A   1      31.828  29.260  24.865  1.00  0.00     0.453 C 
ATOM     10  F   UNL A   1      32.999  29.830  24.510  1.00  0.00    -0.164 F 
ATOM     11  F   UNL A   1      31.057  29.252  23.737  1.00  0.00    -0.164 F 
ATOM     12  F   UNL A   1      31.188  30.076  25.733  1.00  0.00    -0.164 F 
ENDBRANCH   7   9
BRANCH   7  13
ATOM     13  N   UNL A   1      33.235  27.074  24.994  1.00  0.00    -0.318 N 
ATOM     14  H   UNL A   1      33.266  26.188  25.497  1.00  0.00     0.347 HD
ATOM     15  H   UNL A   1      34.011  27.697  25.217  1.00  0.00     0.347 HD
BRANCH  13  16
ATOM     16  C   UNL A   1      33.342  26.787  23.562  1.00  0.00     0.363 C 
BRANCH  16  17
ATOM     17  C   UNL A   1      33.442  25.320  23.298  1.00  0.00     0.282 A 
ATOM     18  N   UNL A   1      33.074  24.302  24.045  1.00  0.00    -0.186 NA
ATOM     19  O   UNL A   1      34.054  24.946  22.135  1.00  0.00    -0.333 OA
ATOM     20  C   UNL A   1      33.528  23.235  23.315  1.00  0.00     0.203 A 
ATOM     21  N   UNL A   1      34.127  23.550  22.160  1.00  0.00    -0.057 NA
BRANCH  20  22
ATOM     22  C   UNL A   1      33.429  21.879  23.852  1.00  0.00     0.033 A 
ATOM     23  C   UNL A   1      34.469  21.271  24.619  1.00  0.00     0.024 A 
ATOM     24  C   UNL A   1      32.359  21.030  23.670  1.00  0.00     0.077 A 
ATOM     25  C   UNL A   1      34.149  19.984  24.993  1.00  0.00     0.065 A 
ATOM     26  S   UNL A   1      32.613  19.505  24.407  1.00  0.00    -0.152 S 
ENDBRANCH  20  22
ENDBRANCH  16  17
ENDBRANCH  13  16
ENDBRANCH   7  13
ENDBRANCH   4   7
ENDBRANCH   2   3
ENDBRANCH   1   2
BRANCH   1  27
ATOM     27  C   UNL A   1      34.272  31.515  27.237  1.00  0.00     0.023 C 
BRANCH  27  28
ATOM     28  C   UNL A   1      32.896  31.949  27.734  1.00  0.00     0.116 C 
BRANCH  28  29
ATOM     29  N   UNL A   1      32.738  33.394  27.791  1.00  0.00    -0.352 N 
ATOM     30  C   UNL A   1      33.439  34.309  28.542  1.00  0.00     0.251 C 
ATOM     31  H   UNL A   1      32.033  33.769  27.214  1.00  0.00     0.163 HD
ATOM     32  O   UNL A   1      33.085  35.485  28.553  1.00  0.00    -0.269 OA
BRANCH  30  33
ATOM     33  C   UNL A   1      34.587  33.861  29.359  1.00  0.00     0.039 A 
ATOM     34  C   UNL A   1      34.349  33.030  30.457  1.00  0.00     0.014 A 
ATOM     35  C   UNL A   1      35.892  34.234  29.028  1.00  0.00     0.014 A 
ATOM     36  C   UNL A   1      35.428  32.513  31.178  1.00  0.00     0.010 A 
ATOM     37  C   UNL A   1      36.967  33.663  29.705  1.00  0.00     0.010 A 
ATOM     38  C   UNL A   1      36.748  32.794  30.784  1.00  0.00    -0.014 A 
BRANCH  38  39
ATOM     39  C   UNL A   1      37.908  32.183  31.482  1.00  0.00     0.031 A 
ATOM     40  C   UNL A   1      38.671  31.059  30.835  1.00  0.00     0.074 A 
ATOM     41  C   UNL A   1      38.230  32.591  32.725  1.00  0.00     0.049 A 
ATOM     42  N   UNL A   1      39.654  30.341  31.314  1.00  0.00    -0.248 NA
ATOM     43  C   UNL A   1      38.248  30.671  29.482  1.00  0.00     0.031 C 
ATOM     44  C   UNL A   1      37.540  33.645  33.474  1.00  0.00     0.029 A 
ATOM     45  N   UNL A   1      39.211  32.165  33.585  1.00  0.00    -0.354 N 
ATOM     46  C   UNL A   1      39.958  29.406  30.329  1.00  0.00     0.074 A 
ATOM     47  C   UNL A   1      39.012  29.614  29.252  1.00  0.00     0.031 C 
ATOM     48  C   UNL A   1      38.134  33.798  34.668  1.00  0.00     0.029 A 
ATOM     49  C   UNL A   1      39.216  32.826  34.793  1.00  0.00     0.049 A 
ATOM     50  H   UNL A   1      39.852  31.452  33.360  1.00  0.00     0.167 HD
ATOM     51  C   UNL A   1      40.945  28.477  30.316  1.00  0.00     0.034 A 
ATOM     52  C   UNL A   1      39.995  32.660  35.880  1.00  0.00     0.034 A 
ATOM     53  C   UNL A   1      41.890  28.295  31.392  1.00  0.00     0.049 A 
ATOM     54  C   UNL A   1      41.073  31.606  35.850  1.00  0.00     0.074 A 
ATOM     55  C   UNL A   1      42.968  27.430  31.455  1.00  0.00     0.029 A 
ATOM     56  N   UNL A   1      41.864  28.983  32.599  1.00  0.00    -0.354 N 
ATOM     57  N   UNL A   1      41.381  30.766  34.889  1.00  0.00    -0.248 NA
ATOM     58  C   UNL A   1      41.912  31.484  37.049  1.00  0.00     0.031 C 
ATOM     59  C   UNL A   1      43.551  27.544  32.722  1.00  0.00     0.029 A 
ATOM     60  C   UNL A   1      42.886  28.538  33.424  1.00  0.00     0.049 A 
ATOM     61  H   UNL A   1      41.215  29.684  32.834  1.00  0.00     0.167 HD
ATOM     62  C   UNL A   1      42.474  30.040  35.357  1.00  0.00     0.074 A 
ATOM     63  C   UNL A   1      42.775  30.550  36.679  1.00  0.00     0.031 C 
ATOM     64  C   UNL A   1      43.169  29.046  34.746  1.00  0.00     0.034 A 
BRANCH  51  65
ATOM     65  C   UNL A   1      41.031  27.572  29.109  1.00  0.00     0.023 A 
ATOM     66  C   UNL A   1      42.020  27.742  28.124  1.00  0.00     0.031 A 
ATOM     67  C   UNL A   1      40.092  26.542  28.924  1.00  0.00     0.131 A 
ATOM     68  C   UNL A   1      41.999  26.954  26.964  1.00  0.00     0.055 A 
ATOM     69  C   UNL A   1      40.128  25.703  27.807  1.00  0.00     0.041 A 
ATOM     70  F   UNL A   1      39.112  26.341  29.818  1.00  0.00    -0.206 F 
ATOM     71  C   UNL A   1      41.075  25.918  26.811  1.00  0.00     0.022 A 
BRANCH  68  72
ATOM     72  S   UNL A   1      43.098  27.402  25.593  1.00  0.00     0.124 S 
ATOM     73  O   UNL A   1      44.153  28.136  26.289  1.00  0.00    -0.237 OA
ATOM     74  O   UNL A   1      43.475  26.102  25.052  1.00  0.00    -0.237 OA
ATOM     75  O   UNL A   1      42.250  28.218  24.727  1.00  0.00    -0.744 OA
ENDBRANCH  68  72
ENDBRANCH  51  65
BRANCH  52  76
ATOM     76  C   UNL A   1      39.789  33.501  37.094  1.00  0.00     0.023 A 
ATOM     77  C   UNL A   1      40.575  34.643  37.321  1.00  0.00     0.031 A 
ATOM     78  C   UNL A   1      38.833  33.154  38.065  1.00  0.00     0.131 A 
ATOM     79  C   UNL A   1      40.424  35.370  38.512  1.00  0.00     0.055 A 
ATOM     80  C   UNL A   1      38.652  33.910  39.224  1.00  0.00     0.041 A 
ATOM     81  F   UNL A   1      38.052  32.075  37.894  1.00  0.00    -0.206 F 
ATOM     82  C   UNL A   1      39.460  35.019  39.459  1.00  0.00     0.022 A 
BRANCH  79  83
ATOM     83  S   UNL A   1      41.568  36.738  38.843  1.00  0.00     0.124 S 
ATOM     84  O   UNL A   1      42.442  36.157  39.855  1.00  0.00    -0.237 OA
ATOM     85  O   UNL A   1      42.165  36.957  37.529  1.00  0.00    -0.237 OA
ATOM     86  O   UNL A   1      40.691  37.808  39.312  1.00  0.00    -0.744 OA
ENDBRANCH  79  83
ENDBRANCH  52  76
BRANCH  64  87
ATOM     87  C   UNL A   1      44.354  28.482  35.491  1.00  0.00     0.023 A 
ATOM     88  C   UNL A   1      44.214  27.451  36.436  1.00  0.00     0.031 A 
ATOM     89  C   UNL A   1      45.642  28.998  35.259  1.00  0.00     0.131 A 
ATOM     90  C   UNL A   1      45.335  27.004  37.153  1.00  0.00     0.055 A 
ATOM     91  C   UNL A   1      46.762  28.507  35.933  1.00  0.00     0.041 A 
ATOM     92  F   UNL A   1      45.833  29.985  34.370  1.00  0.00    -0.206 F 
ATOM     93  C   UNL A   1      46.610  27.514  36.895  1.00  0.00     0.022 A 
BRANCH  90  94
ATOM     94  S   UNL A   1      45.090  25.809  38.496  1.00  0.00     0.124 S 
ATOM     95  O   UNL A   1      44.429  26.623  39.510  1.00  0.00    -0.237 OA
ATOM     96  O   UNL A   1      44.263  24.789  37.859  1.00  0.00    -0.237 OA
ATOM     97  O   UNL A   1      46.448  25.385  38.830  1.00  0.00    -0.744 OA
ENDBRANCH  90  94
ENDBRANCH  64  87
ENDBRANCH  38  39
ENDBRANCH  30  33
ENDBRANCH  28  29
ENDBRANCH  27  28
ENDBRANCH   1  27
TORSDOF 19
ENDMDL
MODEL 3
REMARK VINA RESULT:     -11.6      1.751      7.675
REMARK SMILES C[C@]([NH2+]Cc1nc(-c2ccsc2)no1)(C(=O)NCCCCNC(=O)c1ccc(-c2c3nc(c(-c4cc(S(=O)(=O)[O-])ccc4F)c4ccc([nH]4)c(-c4cc(S(=O)(=O)[O-])ccc4F)c4nc(c(-c5cc(S(=O)(=O)[O-])ccc5F)c5ccc2[nH]5)C=C4)C=C3)cc1)C(F)(F)F
REMARK SMILES IDX 19 1 18 2 17 3 15 4 16 5 2 7 1 8 88 9 89 10 90 11 91 12 3 13
REMARK SMILES IDX 4 16 5 17 6 18 14 19 7 20 13 21 8 22 9 23 12 24 10 25 11 26
REMARK SMILES IDX 20 27 21 28 22 29 23 30 24 32 25 33 26 34 87 35 27 36 86 37
REMARK SMILES IDX 28 38 29 39 30 40 80 41 31 42 85 43 79 44 81 45 32 46 84 47
REMARK SMILES IDX 78 48 77 49 33 51 65 52 45 53 64 54 46 55 49 56 63 57 82 58
REMARK SMILES IDX 47 59 48 60 62 62 83 63 50 64 34 65 35 66 43 67 36 68 42 69
REMARK SMILES IDX 44 70 41 71 37 72 38 73 39 74 40 75 66 76 67 77 75 78 68 79
REMARK SMILES IDX 74 80 76 81 73 82 69 83 70 84 71 85 72 86 51 87 52 88 60 89
REMARK SMILES IDX 53 90 59 91 61 92 58 93 54 94 55 95 56 96 57 97
REMARK H PARENT 17 6 3 14 3 15 22 31 81 50 49 61
REMARK Flexibility Score: inf
ROOT
ATOM      1  C   UNL A   1      31.127  27.665  25.011  1.00  0.00     0.023 C 
ENDROOT
BRANCH   1   2
ATOM      2  C   UNL A   1      31.530  26.248  24.608  1.00  0.00     0.116 C 
BRANCH   2   3
ATOM      3  N   UNL A   1      32.427  26.240  23.469  1.00  0.00    -0.350 N 
ATOM      4  C   UNL A   1      33.475  25.431  23.121  1.00  0.00     0.290 C 
ATOM      5  O   UNL A   1      34.046  25.728  22.069  1.00  0.00    -0.267 OA
ATOM      6  H   UNL A   1      32.248  26.958  22.820  1.00  0.00     0.163 HD
BRANCH   4   7
ATOM      7  C   UNL A   1      33.911  24.226  23.998  1.00  0.00     0.268 C 
ATOM      8  C   UNL A   1      34.992  23.401  23.262  1.00  0.00     0.101 C 
BRANCH   7   9
ATOM      9  C   UNL A   1      34.592  24.861  25.253  1.00  0.00     0.453 C 
ATOM     10  F   UNL A   1      35.873  24.472  25.429  1.00  0.00    -0.164 F 
ATOM     11  F   UNL A   1      34.629  26.220  25.116  1.00  0.00    -0.164 F 
ATOM     12  F   UNL A   1      33.904  24.633  26.395  1.00  0.00    -0.164 F 
ENDBRANCH   7   9
BRANCH   7  13
ATOM     13  N   UNL A   1      32.675  23.406  24.264  1.00  0.00    -0.318 N 
ATOM     14  H   UNL A   1      32.004  23.997  24.755  1.00  0.00     0.347 HD
ATOM     15  H   UNL A   1      32.981  22.600  24.809  1.00  0.00     0.347 HD
BRANCH  13  16
ATOM     16  C   UNL A   1      32.020  22.868  23.071  1.00  0.00     0.363 C 
BRANCH  16  17
ATOM     17  C   UNL A   1      32.105  21.377  23.018  1.00  0.00     0.282 A 
ATOM     18  N   UNL A   1      32.434  20.518  23.957  1.00  0.00    -0.186 NA
ATOM     19  O   UNL A   1      31.862  20.791  21.808  1.00  0.00    -0.333 OA
ATOM     20  C   UNL A   1      32.436  19.333  23.270  1.00  0.00     0.203 A 
ATOM     21  N   UNL A   1      32.104  19.426  21.976  1.00  0.00    -0.057 NA
BRANCH  20  22
ATOM     22  C   UNL A   1      32.875  18.101  23.925  1.00  0.00     0.033 A 
ATOM     23  C   UNL A   1      33.759  17.166  23.305  1.00  0.00     0.024 A 
ATOM     24  C   UNL A   1      32.481  17.687  25.179  1.00  0.00     0.077 A 
ATOM     25  C   UNL A   1      34.006  16.078  24.114  1.00  0.00     0.065 A 
ATOM     26  S   UNL A   1      33.162  16.174  25.601  1.00  0.00    -0.152 S 
ENDBRANCH  20  22
ENDBRANCH  16  17
ENDBRANCH  13  16
ENDBRANCH   7  13
ENDBRANCH   4   7
ENDBRANCH   2   3
ENDBRANCH   1   2
BRANCH   1  27
ATOM     27  C   UNL A   1      31.974  28.277  26.129  1.00  0.00     0.023 C 
BRANCH  27  28
ATOM     28  C   UNL A   1      32.901  29.411  25.702  1.00  0.00     0.116 C 
BRANCH  28  29
ATOM     29  N   UNL A   1      32.464  30.716  26.175  1.00  0.00    -0.352 N 
ATOM     30  C   UNL A   1      33.051  31.534  27.112  1.00  0.00     0.251 C 
ATOM     31  H   UNL A   1      31.635  31.059  25.770  1.00  0.00     0.163 HD
ATOM     32  O   UNL A   1      32.472  32.553  27.476  1.00  0.00    -0.269 OA
BRANCH  30  33
ATOM     33  C   UNL A   1      34.355  31.158  27.700  1.00  0.00     0.039 A 
ATOM     34  C   UNL A   1      35.364  32.121  27.773  1.00  0.00     0.014 A 
ATOM     35  C   UNL A   1      34.571  29.872  28.202  1.00  0.00     0.014 A 
ATOM     36  C   UNL A   1      36.565  31.816  28.417  1.00  0.00     0.010 A 
ATOM     37  C   UNL A   1      35.741  29.593  28.904  1.00  0.00     0.010 A 
ATOM     38  C   UNL A   1      36.749  30.561  29.023  1.00  0.00    -0.014 A 
BRANCH  38  39
ATOM     39  C   UNL A   1      37.982  30.248  29.790  1.00  0.00     0.031 A 
ATOM     40  C   UNL A   1      38.999  29.294  29.226  1.00  0.00     0.074 A 
ATOM     41  C   UNL A   1      38.152  30.767  31.022  1.00  0.00     0.049 A 
ATOM     42  N   UNL A   1      40.093  28.829  29.773  1.00  0.00    -0.248 NA
ATOM     43  C   UNL A   1      38.731  28.768  27.879  1.00  0.00     0.031 C 
ATOM     44  C   UNL A   1      37.217  31.673  31.694  1.00  0.00     0.029 A 
ATOM     45  N   UNL A   1      39.163  30.601  31.935  1.00  0.00    -0.354 N 
ATOM     46  C   UNL A   1      40.636  27.945  28.846  1.00  0.00     0.074 A 
ATOM     47  C   UNL A   1      39.716  27.896  27.728  1.00  0.00     0.031 C 
ATOM     48  C   UNL A   1      37.710  32.001  32.899  1.00  0.00     0.029 A 
ATOM     49  C   UNL A   1      38.971  31.296  33.108  1.00  0.00     0.049 A 
ATOM     50  H   UNL A   1      39.953  30.038  31.767  1.00  0.00     0.167 HD
ATOM     51  C   UNL A   1      41.802  27.255  28.912  1.00  0.00     0.034 A 
ATOM     52  C   UNL A   1      39.718  31.349  34.229  1.00  0.00     0.034 A 
ATOM     53  C   UNL A   1      42.714  27.329  30.028  1.00  0.00     0.049 A 
ATOM     54  C   UNL A   1      41.000  30.557  34.288  1.00  0.00     0.074 A 
ATOM     55  C   UNL A   1      43.951  26.724  30.171  1.00  0.00     0.029 A 
ATOM     56  N   UNL A   1      42.486  28.042  31.198  1.00  0.00    -0.354 N 
ATOM     57  N   UNL A   1      41.526  29.767  33.380  1.00  0.00    -0.248 NA
ATOM     58  C   UNL A   1      41.791  30.670  35.519  1.00  0.00     0.031 C 
ATOM     59  C   UNL A   1      44.438  27.015  31.450  1.00  0.00     0.029 A 
ATOM     60  C   UNL A   1      43.543  27.866  32.079  1.00  0.00     0.049 A 
ATOM     61  H   UNL A   1      41.690  28.593  31.377  1.00  0.00     0.167 HD
ATOM     62  C   UNL A   1      42.728  29.318  33.920  1.00  0.00     0.074 A 
ATOM     63  C   UNL A   1      42.853  29.934  35.225  1.00  0.00     0.031 C 
ATOM     64  C   UNL A   1      43.649  28.477  33.384  1.00  0.00     0.034 A 
BRANCH  51  65
ATOM     65  C   UNL A   1      42.135  26.343  27.755  1.00  0.00     0.023 A 
ATOM     66  C   UNL A   1      41.728  24.997  27.732  1.00  0.00     0.031 A 
ATOM     67  C   UNL A   1      42.897  26.816  26.673  1.00  0.00     0.131 A 
ATOM     68  C   UNL A   1      42.151  24.154  26.694  1.00  0.00     0.055 A 
ATOM     69  C   UNL A   1      43.243  25.993  25.599  1.00  0.00     0.041 A 
ATOM     70  F   UNL A   1      43.333  28.085  26.646  1.00  0.00    -0.206 F 
ATOM     71  C   UNL A   1      42.884  24.648  25.613  1.00  0.00     0.022 A 
BRANCH  68  72
ATOM     72  S   UNL A   1      41.859  22.371  26.854  1.00  0.00     0.124 S 
ATOM     73  O   UNL A   1      42.887  21.990  27.821  1.00  0.00    -0.237 OA
ATOM     74  O   UNL A   1      40.482  22.318  27.332  1.00  0.00    -0.237 OA
ATOM     75  O   UNL A   1      42.071  21.865  25.500  1.00  0.00    -0.744 OA
ENDBRANCH  68  72
ENDBRANCH  51  65
BRANCH  52  76
ATOM     76  C   UNL A   1      39.280  32.173  35.392  1.00  0.00     0.023 A 
ATOM     77  C   UNL A   1      39.712  33.501  35.537  1.00  0.00     0.031 A 
ATOM     78  C   UNL A   1      38.458  31.633  36.397  1.00  0.00     0.131 A 
ATOM     79  C   UNL A   1      39.360  34.230  36.683  1.00  0.00     0.055 A 
ATOM     80  C   UNL A   1      38.069  32.379  37.510  1.00  0.00     0.041 A 
ATOM     81  F   UNL A   1      38.013  30.369  36.304  1.00  0.00    -0.206 F 
ATOM     82  C   UNL A   1      38.530  33.683  37.665  1.00  0.00     0.022 A 
BRANCH  79  83
ATOM     83  S   UNL A   1      40.071  35.883  36.913  1.00  0.00     0.124 S 
ATOM     84  O   UNL A   1      39.664  36.555  35.684  1.00  0.00    -0.237 OA
ATOM     85  O   UNL A   1      39.412  36.328  38.137  1.00  0.00    -0.237 OA
ATOM     86  O   UNL A   1      41.503  35.622  37.038  1.00  0.00    -0.744 OA
ENDBRANCH  79  83
ENDBRANCH  52  76
BRANCH  64  87
ATOM     87  C   UNL A   1      44.894  28.217  34.196  1.00  0.00     0.023 A 
ATOM     88  C   UNL A   1      44.978  27.148  35.104  1.00  0.00     0.031 A 
ATOM     89  C   UNL A   1      46.010  29.065  34.065  1.00  0.00     0.131 A 
ATOM     90  C   UNL A   1      46.132  26.986  35.887  1.00  0.00     0.055 A 
ATOM     91  C   UNL A   1      47.177  28.861  34.803  1.00  0.00     0.041 A 
ATOM     92  F   UNL A   1      45.984  30.103  33.214  1.00  0.00    -0.206 F 
ATOM     93  C   UNL A   1      47.238  27.825  35.730  1.00  0.00     0.022 A 
BRANCH  90  94
ATOM     94  S   UNL A   1      46.134  25.715  37.182  1.00  0.00     0.124 S 
ATOM     95  O   UNL A   1      46.666  24.558  36.472  1.00  0.00    -0.237 OA
ATOM     96  O   UNL A   1      47.010  26.301  38.192  1.00  0.00    -0.237 OA
ATOM     97  O   UNL A   1      44.727  25.615  37.567  1.00  0.00    -0.744 OA
ENDBRANCH  90  94
ENDBRANCH  64  87
ENDBRANCH  38  39
ENDBRANCH  30  33
ENDBRANCH  28  29
ENDBRANCH  27  28
ENDBRANCH   1  27
TORSDOF 19
ENDMDL
