MODEL 1
REMARK VINA RESULT:     -12.2      0.000      0.000
REMARK SMILES Cc1c(N[C@@H]2CC[C@@H]([NH3+])C2)cccc1C(=O)NCCCCNC(=O)c1ccc(-c2c3nc(c(-c4cc(S(=O)(=O)[O-])ccc4F)c4ccc([nH]4)c(-c4cc(S(=O)(=O)[O-])ccc4F)c4nc(c(-c5cc(S(=O)(=O)[O-])ccc5F)c5ccc2[nH]5)C=C4)C=C3)cc1
REMARK SMILES IDX 19 1 18 2 17 3 15 4 16 5 14 7 1 8 2 9 3 10 11 11 13 12 12 13
REMARK SMILES IDX 4 14 5 16 6 17 10 18 7 19 8 20 9 21 20 25 21 26 22 27 23 28
REMARK SMILES IDX 24 30 25 31 26 32 87 33 27 34 86 35 28 36 29 37 30 38 80 39
REMARK SMILES IDX 31 40 85 41 79 42 81 43 32 44 84 45 78 46 77 47 33 49 65 50
REMARK SMILES IDX 45 51 64 52 46 53 49 54 63 55 82 56 47 57 48 58 62 60 83 61
REMARK SMILES IDX 50 62 34 63 35 64 43 65 36 66 42 67 44 68 41 69 37 70 38 71
REMARK SMILES IDX 39 72 40 73 66 74 67 75 75 76 68 77 74 78 76 79 73 80 69 81
REMARK SMILES IDX 70 82 71 83 72 84 51 85 52 86 60 87 53 88 59 89 61 90 58 91
REMARK SMILES IDX 54 92 55 93 56 94 57 95
REMARK H PARENT 17 6 4 15 9 22 9 23 9 24 22 29 81 48 49 59
REMARK Flexibility Score: inf
ROOT
ATOM      1  C   UNL A   1      36.956  21.553  24.805  1.00  0.00     0.023 C 
ENDROOT
BRANCH   1   2
ATOM      2  C   UNL A   1      35.873  21.211  25.849  1.00  0.00     0.116 C 
BRANCH   2   3
ATOM      3  N   UNL A   1      34.623  20.851  25.193  1.00  0.00    -0.352 N 
ATOM      4  C   UNL A   1      33.626  21.551  24.563  1.00  0.00     0.251 C 
ATOM      5  O   UNL A   1      32.667  20.875  24.168  1.00  0.00    -0.269 OA
ATOM      6  H   UNL A   1      34.455  19.881  25.204  1.00  0.00     0.163 HD
BRANCH   4   7
ATOM      7  C   UNL A   1      33.636  23.015  24.231  1.00  0.00     0.044 A 
ATOM      8  C   UNL A   1      33.067  23.983  26.526  1.00  0.00     0.047 C 
ATOM      9  C   UNL A   1      33.527  24.117  25.102  1.00  0.00    -0.015 A 
ATOM     10  C   UNL A   1      33.682  25.447  24.619  1.00  0.00     0.038 A 
ATOM     11  C   UNL A   1      33.604  25.659  23.245  1.00  0.00     0.026 A 
ATOM     12  C   UNL A   1      33.646  23.284  22.848  1.00  0.00     0.014 A 
ATOM     13  C   UNL A   1      33.573  24.587  22.359  1.00  0.00     0.003 A 
BRANCH  10  14
ATOM     14  N   UNL A   1      33.840  26.463  25.539  1.00  0.00    -0.382 N 
ATOM     15  H   UNL A   1      34.352  26.209  26.341  1.00  0.00     0.160 HD
BRANCH  14  16
ATOM     16  C   UNL A   1      33.384  27.834  25.533  1.00  0.00     0.085 C 
ATOM     17  C   UNL A   1      34.251  28.794  26.350  1.00  0.00     0.031 C 
ATOM     18  C   UNL A   1      31.941  28.029  25.983  1.00  0.00     0.089 C 
ATOM     19  C   UNL A   1      33.268  29.610  27.188  1.00  0.00     0.067 C 
ATOM     20  C   UNL A   1      31.913  29.470  26.492  1.00  0.00     0.182 C 
BRANCH  20  21
ATOM     21  N   UNL A   1      31.772  30.440  25.403  1.00  0.00    -0.355 N 
ATOM     22  H   UNL A   1      32.447  30.226  24.669  1.00  0.00     0.344 HD
ATOM     23  H   UNL A   1      31.944  31.379  25.760  1.00  0.00     0.344 HD
ATOM     24  H   UNL A   1      30.827  30.388  25.022  1.00  0.00     0.344 HD
ENDBRANCH  20  21
ENDBRANCH  14  16
ENDBRANCH  10  14
ENDBRANCH   4   7
ENDBRANCH   2   3
ENDBRANCH   1   2
BRANCH   1  25
ATOM     25  C   UNL A   1      38.390  21.525  25.322  1.00  0.00     0.023 C 
BRANCH  25  26
ATOM     26  C   UNL A   1      38.758  22.791  26.070  1.00  0.00     0.116 C 
BRANCH  26  27
ATOM     27  N   UNL A   1      40.162  22.888  26.464  1.00  0.00    -0.352 N 
ATOM     28  C   UNL A   1      40.903  24.033  26.705  1.00  0.00     0.251 C 
ATOM     29  H   UNL A   1      40.640  22.034  26.571  1.00  0.00     0.163 HD
ATOM     30  O   UNL A   1      42.112  23.990  26.920  1.00  0.00    -0.269 OA
BRANCH  28  31
ATOM     31  C   UNL A   1      40.179  25.321  26.821  1.00  0.00     0.039 A 
ATOM     32  C   UNL A   1      40.748  26.433  26.192  1.00  0.00     0.014 A 
ATOM     33  C   UNL A   1      39.197  25.478  27.792  1.00  0.00     0.014 A 
ATOM     34  C   UNL A   1      40.531  27.696  26.732  1.00  0.00     0.010 A 
ATOM     35  C   UNL A   1      39.095  26.706  28.413  1.00  0.00     0.010 A 
ATOM     36  C   UNL A   1      39.815  27.803  27.925  1.00  0.00    -0.014 A 
BRANCH  36  37
ATOM     37  C   UNL A   1      39.915  28.965  28.806  1.00  0.00     0.031 A 
ATOM     38  C   UNL A   1      38.879  30.016  28.796  1.00  0.00     0.074 A 
ATOM     39  C   UNL A   1      40.930  29.047  29.697  1.00  0.00     0.049 A 
ATOM     40  N   UNL A   1      39.065  31.232  29.187  1.00  0.00    -0.248 NA
ATOM     41  C   UNL A   1      37.536  29.787  28.278  1.00  0.00     0.031 C 
ATOM     42  C   UNL A   1      41.052  29.970  30.822  1.00  0.00     0.029 A 
ATOM     43  N   UNL A   1      42.187  28.451  29.602  1.00  0.00    -0.354 N 
ATOM     44  C   UNL A   1      37.832  31.839  29.278  1.00  0.00     0.074 A 
ATOM     45  C   UNL A   1      36.931  30.929  28.614  1.00  0.00     0.031 C 
ATOM     46  C   UNL A   1      42.347  30.086  31.150  1.00  0.00     0.029 A 
ATOM     47  C   UNL A   1      43.114  29.345  30.166  1.00  0.00     0.049 A 
ATOM     48  H   UNL A   1      42.387  27.568  29.214  1.00  0.00     0.167 HD
ATOM     49  C   UNL A   1      37.697  32.966  30.038  1.00  0.00     0.034 A 
ATOM     50  C   UNL A   1      44.141  29.848  29.424  1.00  0.00     0.034 A 
ATOM     51  C   UNL A   1      38.998  33.445  30.518  1.00  0.00     0.049 A 
ATOM     52  C   UNL A   1      44.095  31.352  29.265  1.00  0.00     0.074 A 
ATOM     53  C   UNL A   1      39.635  33.387  31.747  1.00  0.00     0.029 A 
ATOM     54  N   UNL A   1      39.963  33.857  29.601  1.00  0.00    -0.354 N 
ATOM     55  N   UNL A   1      43.064  32.089  29.578  1.00  0.00    -0.248 NA
ATOM     56  C   UNL A   1      45.196  32.143  28.724  1.00  0.00     0.031 C 
ATOM     57  C   UNL A   1      41.007  33.695  31.549  1.00  0.00     0.029 A 
ATOM     58  C   UNL A   1      41.201  33.974  30.207  1.00  0.00     0.049 A 
ATOM     59  H   UNL A   1      39.788  34.039  28.650  1.00  0.00     0.167 HD
ATOM     60  C   UNL A   1      43.318  33.401  29.267  1.00  0.00     0.074 A 
ATOM     61  C   UNL A   1      44.681  33.386  28.766  1.00  0.00     0.031 C 
ATOM     62  C   UNL A   1      42.372  34.377  29.437  1.00  0.00     0.034 A 
BRANCH  49  63
ATOM     63  C   UNL A   1      36.373  33.443  30.615  1.00  0.00     0.023 A 
ATOM     64  C   UNL A   1      35.459  34.118  29.774  1.00  0.00     0.031 A 
ATOM     65  C   UNL A   1      35.972  33.350  31.962  1.00  0.00     0.131 A 
ATOM     66  C   UNL A   1      34.311  34.754  30.285  1.00  0.00     0.055 A 
ATOM     67  C   UNL A   1      34.863  34.031  32.484  1.00  0.00     0.041 A 
ATOM     68  F   UNL A   1      36.588  32.543  32.832  1.00  0.00    -0.206 F 
ATOM     69  C   UNL A   1      34.032  34.755  31.647  1.00  0.00     0.022 A 
BRANCH  66  70
ATOM     70  S   UNL A   1      33.174  35.585  29.141  1.00  0.00     0.124 S 
ATOM     71  O   UNL A   1      32.586  34.463  28.418  1.00  0.00    -0.237 OA
ATOM     72  O   UNL A   1      32.291  36.304  30.053  1.00  0.00    -0.237 OA
ATOM     73  O   UNL A   1      34.058  36.436  28.344  1.00  0.00    -0.744 OA
ENDBRANCH  66  70
ENDBRANCH  49  63
BRANCH  50  74
ATOM     74  C   UNL A   1      44.674  28.868  28.435  1.00  0.00     0.023 A 
ATOM     75  C   UNL A   1      45.418  27.787  28.954  1.00  0.00     0.031 A 
ATOM     76  C   UNL A   1      44.144  28.740  27.144  1.00  0.00     0.131 A 
ATOM     77  C   UNL A   1      45.468  26.565  28.271  1.00  0.00     0.055 A 
ATOM     78  C   UNL A   1      44.256  27.537  26.433  1.00  0.00     0.041 A 
ATOM     79  F   UNL A   1      43.396  29.717  26.612  1.00  0.00    -0.206 F 
ATOM     80  C   UNL A   1      44.877  26.428  27.014  1.00  0.00     0.022 A 
BRANCH  77  81
ATOM     81  S   UNL A   1      46.059  25.095  29.168  1.00  0.00     0.124 S 
ATOM     82  O   UNL A   1      47.482  25.382  29.316  1.00  0.00    -0.237 OA
ATOM     83  O   UNL A   1      45.276  25.124  30.404  1.00  0.00    -0.237 OA
ATOM     84  O   UNL A   1      45.723  23.991  28.273  1.00  0.00    -0.744 OA
ENDBRANCH  77  81
ENDBRANCH  50  74
BRANCH  62  85
ATOM     85  C   UNL A   1      42.482  35.817  28.971  1.00  0.00     0.023 A 
ATOM     86  C   UNL A   1      43.195  36.809  29.661  1.00  0.00     0.031 A 
ATOM     87  C   UNL A   1      41.915  36.225  27.737  1.00  0.00     0.131 A 
ATOM     88  C   UNL A   1      43.252  38.133  29.184  1.00  0.00     0.055 A 
ATOM     89  C   UNL A   1      42.042  37.520  27.225  1.00  0.00     0.041 A 
ATOM     90  F   UNL A   1      41.213  35.379  26.967  1.00  0.00    -0.206 F 
ATOM     91  C   UNL A   1      42.701  38.491  27.959  1.00  0.00     0.022 A 
BRANCH  88  92
ATOM     92  S   UNL A   1      44.013  39.396  30.239  1.00  0.00     0.124 S 
ATOM     93  O   UNL A   1      43.874  38.802  31.566  1.00  0.00    -0.237 OA
ATOM     94  O   UNL A   1      45.373  39.465  29.716  1.00  0.00    -0.237 OA
ATOM     95  O   UNL A   1      43.195  40.584  30.004  1.00  0.00    -0.744 OA
ENDBRANCH  88  92
ENDBRANCH  62  85
ENDBRANCH  36  37
ENDBRANCH  28  31
ENDBRANCH  26  27
ENDBRANCH  25  26
ENDBRANCH   1  25
TORSDOF 17
ENDMDL
MODEL 2
REMARK VINA RESULT:     -12.1      4.032     10.736
REMARK SMILES Cc1c(N[C@@H]2CC[C@@H]([NH3+])C2)cccc1C(=O)NCCCCNC(=O)c1ccc(-c2c3nc(c(-c4cc(S(=O)(=O)[O-])ccc4F)c4ccc([nH]4)c(-c4cc(S(=O)(=O)[O-])ccc4F)c4nc(c(-c5cc(S(=O)(=O)[O-])ccc5F)c5ccc2[nH]5)C=C4)C=C3)cc1
REMARK SMILES IDX 19 1 18 2 17 3 15 4 16 5 14 7 1 8 2 9 3 10 11 11 13 12 12 13
REMARK SMILES IDX 4 14 5 16 6 17 10 18 7 19 8 20 9 21 20 25 21 26 22 27 23 28
REMARK SMILES IDX 24 30 25 31 26 32 87 33 27 34 86 35 28 36 29 37 30 38 80 39
REMARK SMILES IDX 31 40 85 41 79 42 81 43 32 44 84 45 78 46 77 47 33 49 65 50
REMARK SMILES IDX 45 51 64 52 46 53 49 54 63 55 82 56 47 57 48 58 62 60 83 61
REMARK SMILES IDX 50 62 34 63 35 64 43 65 36 66 42 67 44 68 41 69 37 70 38 71
REMARK SMILES IDX 39 72 40 73 66 74 67 75 75 76 68 77 74 78 76 79 73 80 69 81
REMARK SMILES IDX 70 82 71 83 72 84 51 85 52 86 60 87 53 88 59 89 61 90 58 91
REMARK SMILES IDX 54 92 55 93 56 94 57 95
REMARK H PARENT 17 6 4 15 9 22 9 23 9 24 22 29 81 48 49 59
REMARK Flexibility Score: inf
ROOT
ATOM      1  C   UNL A   1      32.331  30.161  26.532  1.00  0.00     0.023 C 
ENDROOT
BRANCH   1   2
ATOM      2  C   UNL A   1      32.912  29.770  25.158  1.00  0.00     0.116 C 
BRANCH   2   3
ATOM      3  N   UNL A   1      31.851  29.349  24.252  1.00  0.00    -0.352 N 
ATOM      4  C   UNL A   1      31.231  28.157  23.979  1.00  0.00     0.251 C 
ATOM      5  O   UNL A   1      30.385  28.190  23.077  1.00  0.00    -0.269 OA
ATOM      6  H   UNL A   1      31.496  30.092  23.713  1.00  0.00     0.163 HD
BRANCH   4   7
ATOM      7  C   UNL A   1      31.414  26.865  24.721  1.00  0.00     0.044 A 
ATOM      8  C   UNL A   1      33.705  26.171  23.826  1.00  0.00     0.047 C 
ATOM      9  C   UNL A   1      32.552  26.035  24.779  1.00  0.00    -0.015 A 
ATOM     10  C   UNL A   1      32.585  24.902  25.641  1.00  0.00     0.038 A 
ATOM     11  C   UNL A   1      31.380  24.437  26.159  1.00  0.00     0.026 A 
ATOM     12  C   UNL A   1      30.240  26.394  25.341  1.00  0.00     0.014 A 
ATOM     13  C   UNL A   1      30.207  25.169  26.003  1.00  0.00     0.003 A 
BRANCH  10  14
ATOM     14  N   UNL A   1      33.800  24.288  25.867  1.00  0.00    -0.382 N 
ATOM     15  H   UNL A   1      34.424  24.812  26.420  1.00  0.00     0.160 HD
BRANCH  14  16
ATOM     16  C   UNL A   1      34.318  23.011  25.432  1.00  0.00     0.085 C 
ATOM     17  C   UNL A   1      33.770  22.530  24.087  1.00  0.00     0.031 C 
ATOM     18  C   UNL A   1      34.133  21.874  26.430  1.00  0.00     0.089 C 
ATOM     19  C   UNL A   1      33.374  21.072  24.311  1.00  0.00     0.067 C 
ATOM     20  C   UNL A   1      34.140  20.620  25.556  1.00  0.00     0.182 C 
BRANCH  20  21
ATOM     21  N   UNL A   1      35.498  20.189  25.218  1.00  0.00    -0.355 N 
ATOM     22  H   UNL A   1      35.720  20.480  24.267  1.00  0.00     0.344 HD
ATOM     23  H   UNL A   1      35.559  19.173  25.285  1.00  0.00     0.344 HD
ATOM     24  H   UNL A   1      36.161  20.613  25.868  1.00  0.00     0.344 HD
ENDBRANCH  20  21
ENDBRANCH  14  16
ENDBRANCH  10  14
ENDBRANCH   4   7
ENDBRANCH   2   3
ENDBRANCH   1   2
BRANCH   1  25
ATOM     25  C   UNL A   1      33.153  31.175  27.321  1.00  0.00     0.023 C 
BRANCH  25  26
ATOM     26  C   UNL A   1      34.372  30.549  27.969  1.00  0.00     0.116 C 
BRANCH  26  27
ATOM     27  N   UNL A   1      35.290  31.497  28.597  1.00  0.00    -0.352 N 
ATOM     28  C   UNL A   1      36.530  31.239  29.159  1.00  0.00     0.251 C 
ATOM     29  H   UNL A   1      34.991  32.435  28.624  1.00  0.00     0.163 HD
ATOM     30  O   UNL A   1      37.161  32.104  29.762  1.00  0.00    -0.269 OA
BRANCH  28  31
ATOM     31  C   UNL A   1      37.144  29.914  28.914  1.00  0.00     0.039 A 
ATOM     32  C   UNL A   1      37.352  29.088  30.025  1.00  0.00     0.014 A 
ATOM     33  C   UNL A   1      37.798  29.666  27.713  1.00  0.00     0.014 A 
ATOM     34  C   UNL A   1      38.414  28.192  30.009  1.00  0.00     0.010 A 
ATOM     35  C   UNL A   1      38.935  28.884  27.747  1.00  0.00     0.010 A 
ATOM     36  C   UNL A   1      39.283  28.198  28.916  1.00  0.00    -0.014 A 
BRANCH  36  37
ATOM     37  C   UNL A   1      40.642  27.666  28.983  1.00  0.00     0.031 A 
ATOM     38  C   UNL A   1      40.935  26.279  28.569  1.00  0.00     0.074 A 
ATOM     39  C   UNL A   1      41.661  28.472  29.359  1.00  0.00     0.049 A 
ATOM     40  N   UNL A   1      41.953  25.595  28.970  1.00  0.00    -0.248 NA
ATOM     41  C   UNL A   1      40.050  25.520  27.695  1.00  0.00     0.031 C 
ATOM     42  C   UNL A   1      43.093  28.211  29.232  1.00  0.00     0.029 A 
ATOM     43  N   UNL A   1      41.587  29.606  30.167  1.00  0.00    -0.354 N 
ATOM     44  C   UNL A   1      42.036  24.465  28.186  1.00  0.00     0.074 A 
ATOM     45  C   UNL A   1      40.780  24.424  27.478  1.00  0.00     0.031 C 
ATOM     46  C   UNL A   1      43.752  28.967  30.122  1.00  0.00     0.029 A 
ATOM     47  C   UNL A   1      42.762  29.642  30.940  1.00  0.00     0.049 A 
ATOM     48  H   UNL A   1      40.852  30.259  30.191  1.00  0.00     0.167 HD
ATOM     49  C   UNL A   1      43.219  23.785  28.117  1.00  0.00     0.034 A 
ATOM     50  C   UNL A   1      42.704  29.604  32.302  1.00  0.00     0.034 A 
ATOM     51  C   UNL A   1      44.198  24.320  29.071  1.00  0.00     0.049 A 
ATOM     52  C   UNL A   1      43.377  28.390  32.904  1.00  0.00     0.074 A 
ATOM     53  C   UNL A   1      45.315  25.128  28.929  1.00  0.00     0.029 A 
ATOM     54  N   UNL A   1      43.935  24.259  30.438  1.00  0.00    -0.354 N 
ATOM     55  N   UNL A   1      43.760  27.349  32.215  1.00  0.00    -0.248 NA
ATOM     56  C   UNL A   1      43.656  28.242  34.329  1.00  0.00     0.031 C 
ATOM     57  C   UNL A   1      45.677  25.610  30.215  1.00  0.00     0.029 A 
ATOM     58  C   UNL A   1      44.802  25.072  31.143  1.00  0.00     0.049 A 
ATOM     59  H   UNL A   1      43.226  23.711  30.846  1.00  0.00     0.167 HD
ATOM     60  C   UNL A   1      44.286  26.401  33.056  1.00  0.00     0.074 A 
ATOM     61  C   UNL A   1      44.228  27.025  34.367  1.00  0.00     0.031 C 
ATOM     62  C   UNL A   1      44.706  25.183  32.595  1.00  0.00     0.034 A 
BRANCH  49  63
ATOM     63  C   UNL A   1      43.597  22.860  26.970  1.00  0.00     0.023 A 
ATOM     64  C   UNL A   1      43.000  21.582  26.892  1.00  0.00     0.031 A 
ATOM     65  C   UNL A   1      44.568  23.117  25.982  1.00  0.00     0.131 A 
ATOM     66  C   UNL A   1      43.448  20.609  25.976  1.00  0.00     0.055 A 
ATOM     67  C   UNL A   1      45.057  22.134  25.110  1.00  0.00     0.041 A 
ATOM     68  F   UNL A   1      45.047  24.345  25.760  1.00  0.00    -0.206 F 
ATOM     69  C   UNL A   1      44.509  20.863  25.114  1.00  0.00     0.022 A 
BRANCH  66  70
ATOM     70  S   UNL A   1      42.621  18.995  25.922  1.00  0.00     0.124 S 
ATOM     71  O   UNL A   1      43.467  18.244  25.001  1.00  0.00    -0.237 OA
ATOM     72  O   UNL A   1      42.659  18.583  27.321  1.00  0.00    -0.237 OA
ATOM     73  O   UNL A   1      41.287  19.315  25.412  1.00  0.00    -0.744 OA
ENDBRANCH  66  70
ENDBRANCH  49  63
BRANCH  50  74
ATOM     74  C   UNL A   1      41.520  30.324  32.851  1.00  0.00     0.023 A 
ATOM     75  C   UNL A   1      41.566  31.734  32.818  1.00  0.00     0.031 A 
ATOM     76  C   UNL A   1      40.268  29.711  32.992  1.00  0.00     0.131 A 
ATOM     77  C   UNL A   1      40.384  32.482  32.746  1.00  0.00     0.055 A 
ATOM     78  C   UNL A   1      39.088  30.469  32.991  1.00  0.00     0.041 A 
ATOM     79  F   UNL A   1      40.156  28.375  32.992  1.00  0.00    -0.206 F 
ATOM     80  C   UNL A   1      39.140  31.855  32.819  1.00  0.00     0.022 A 
BRANCH  77  81
ATOM     81  S   UNL A   1      40.497  34.236  32.271  1.00  0.00     0.124 S 
ATOM     82  O   UNL A   1      39.098  34.649  32.299  1.00  0.00    -0.237 OA
ATOM     83  O   UNL A   1      41.346  34.808  33.317  1.00  0.00    -0.237 OA
ATOM     84  O   UNL A   1      41.120  34.193  30.951  1.00  0.00    -0.744 OA
ENDBRANCH  77  81
ENDBRANCH  50  74
BRANCH  62  85
ATOM     85  C   UNL A   1      45.139  24.006  33.450  1.00  0.00     0.023 A 
ATOM     86  C   UNL A   1      46.441  23.840  33.949  1.00  0.00     0.031 A 
ATOM     87  C   UNL A   1      44.202  23.024  33.860  1.00  0.00     0.131 A 
ATOM     88  C   UNL A   1      46.786  22.719  34.729  1.00  0.00     0.055 A 
ATOM     89  C   UNL A   1      44.529  21.956  34.702  1.00  0.00     0.041 A 
ATOM     90  F   UNL A   1      42.920  23.061  33.466  1.00  0.00    -0.206 F 
ATOM     91  C   UNL A   1      45.834  21.787  35.129  1.00  0.00     0.022 A 
BRANCH  88  92
ATOM     92  S   UNL A   1      48.531  22.473  35.156  1.00  0.00     0.124 S 
ATOM     93  O   UNL A   1      48.760  21.102  34.705  1.00  0.00    -0.237 OA
ATOM     94  O   UNL A   1      49.194  23.513  34.377  1.00  0.00    -0.237 OA
ATOM     95  O   UNL A   1      48.564  22.663  36.604  1.00  0.00    -0.744 OA
ENDBRANCH  88  92
ENDBRANCH  62  85
ENDBRANCH  36  37
ENDBRANCH  28  31
ENDBRANCH  26  27
ENDBRANCH  25  26
ENDBRANCH   1  25
TORSDOF 17
ENDMDL
MODEL 3
REMARK VINA RESULT:     -12.0      1.590      3.632
REMARK SMILES Cc1c(N[C@@H]2CC[C@@H]([NH3+])C2)cccc1C(=O)NCCCCNC(=O)c1ccc(-c2c3nc(c(-c4cc(S(=O)(=O)[O-])ccc4F)c4ccc([nH]4)c(-c4cc(S(=O)(=O)[O-])ccc4F)c4nc(c(-c5cc(S(=O)(=O)[O-])ccc5F)c5ccc2[nH]5)C=C4)C=C3)cc1
REMARK SMILES IDX 19 1 18 2 17 3 15 4 16 5 14 7 1 8 2 9 3 10 11 11 13 12 12 13
REMARK SMILES IDX 4 14 5 16 6 17 10 18 7 19 8 20 9 21 20 25 21 26 22 27 23 28
REMARK SMILES IDX 24 30 25 31 26 32 87 33 27 34 86 35 28 36 29 37 30 38 80 39
REMARK SMILES IDX 31 40 85 41 79 42 81 43 32 44 84 45 78 46 77 47 33 49 65 50
REMARK SMILES IDX 45 51 64 52 46 53 49 54 63 55 82 56 47 57 48 58 62 60 83 61
REMARK SMILES IDX 50 62 34 63 35 64 43 65 36 66 42 67 44 68 41 69 37 70 38 71
REMARK SMILES IDX 39 72 40 73 66 74 67 75 75 76 68 77 74 78 76 79 73 80 69 81
REMARK SMILES IDX 70 82 71 83 72 84 51 85 52 86 60 87 53 88 59 89 61 90 58 91
REMARK SMILES IDX 54 92 55 93 56 94 57 95
REMARK H PARENT 17 6 4 15 9 22 9 23 9 24 22 29 81 48 49 59
REMARK Flexibility Score: inf
ROOT
ATOM      1  C   UNL A   1      37.435  23.428  26.109  1.00  0.00     0.023 C 
ENDROOT
BRANCH   1   2
ATOM      2  C   UNL A   1      36.617  23.794  24.853  1.00  0.00     0.116 C 
BRANCH   2   3
ATOM      3  N   UNL A   1      35.395  24.495  25.223  1.00  0.00    -0.352 N 
ATOM      4  C   UNL A   1      34.054  24.247  25.069  1.00  0.00     0.251 C 
ATOM      5  O   UNL A   1      33.298  25.134  25.482  1.00  0.00    -0.269 OA
ATOM      6  H   UNL A   1      35.571  25.342  25.693  1.00  0.00     0.163 HD
BRANCH   4   7
ATOM      7  C   UNL A   1      33.435  22.985  24.544  1.00  0.00     0.044 A 
ATOM      8  C   UNL A   1      34.296  21.324  26.284  1.00  0.00     0.047 C 
ATOM      9  C   UNL A   1      33.412  21.704  25.131  1.00  0.00    -0.015 A 
ATOM     10  C   UNL A   1      32.665  20.645  24.542  1.00  0.00     0.038 A 
ATOM     11  C   UNL A   1      32.247  20.792  23.222  1.00  0.00     0.026 A 
ATOM     12  C   UNL A   1      32.916  23.106  23.240  1.00  0.00     0.014 A 
ATOM     13  C   UNL A   1      32.380  22.012  22.564  1.00  0.00     0.003 A 
BRANCH  10  14
ATOM     14  N   UNL A   1      32.449  19.503  25.287  1.00  0.00    -0.382 N 
ATOM     15  H   UNL A   1      31.712  19.575  25.935  1.00  0.00     0.160 HD
BRANCH  14  16
ATOM     16  C   UNL A   1      33.117  18.222  25.282  1.00  0.00     0.085 C 
ATOM     17  C   UNL A   1      34.290  18.122  24.305  1.00  0.00     0.031 C 
ATOM     18  C   UNL A   1      32.206  17.028  25.021  1.00  0.00     0.089 C 
ATOM     19  C   UNL A   1      34.087  16.802  23.564  1.00  0.00     0.067 C 
ATOM     20  C   UNL A   1      33.149  15.972  24.444  1.00  0.00     0.182 C 
BRANCH  20  21
ATOM     21  N   UNL A   1      33.890  15.262  25.489  1.00  0.00    -0.355 N 
ATOM     22  H   UNL A   1      33.240  14.714  26.053  1.00  0.00     0.344 HD
ATOM     23  H   UNL A   1      34.371  15.936  26.083  1.00  0.00     0.344 HD
ATOM     24  H   UNL A   1      34.574  14.640  25.056  1.00  0.00     0.344 HD
ENDBRANCH  20  21
ENDBRANCH  14  16
ENDBRANCH  10  14
ENDBRANCH   4   7
ENDBRANCH   2   3
ENDBRANCH   1   2
BRANCH   1  25
ATOM     25  C   UNL A   1      38.758  22.719  25.839  1.00  0.00     0.023 C 
BRANCH  25  26
ATOM     26  C   UNL A   1      39.630  22.635  27.077  1.00  0.00     0.116 C 
BRANCH  26  27
ATOM     27  N   UNL A   1      41.019  23.042  26.880  1.00  0.00    -0.352 N 
ATOM     28  C   UNL A   1      41.514  24.323  26.697  1.00  0.00     0.251 C 
ATOM     29  H   UNL A   1      41.686  22.317  26.877  1.00  0.00     0.163 HD
ATOM     30  O   UNL A   1      42.696  24.528  26.427  1.00  0.00    -0.269 OA
BRANCH  28  31
ATOM     31  C   UNL A   1      40.608  25.465  26.955  1.00  0.00     0.039 A 
ATOM     32  C   UNL A   1      40.826  26.635  26.220  1.00  0.00     0.014 A 
ATOM     33  C   UNL A   1      39.830  25.485  28.107  1.00  0.00     0.014 A 
ATOM     34  C   UNL A   1      40.497  27.860  26.789  1.00  0.00     0.010 A 
ATOM     35  C   UNL A   1      39.634  26.699  28.732  1.00  0.00     0.010 A 
ATOM     36  C   UNL A   1      40.029  27.886  28.104  1.00  0.00    -0.014 A 
BRANCH  36  37
ATOM     37  C   UNL A   1      40.092  29.081  28.942  1.00  0.00     0.031 A 
ATOM     38  C   UNL A   1      39.022  30.098  28.895  1.00  0.00     0.074 A 
ATOM     39  C   UNL A   1      41.103  29.227  29.828  1.00  0.00     0.049 A 
ATOM     40  N   UNL A   1      39.170  31.332  29.242  1.00  0.00    -0.248 NA
ATOM     41  C   UNL A   1      37.688  29.808  28.387  1.00  0.00     0.031 C 
ATOM     42  C   UNL A   1      41.195  30.194  30.919  1.00  0.00     0.029 A 
ATOM     43  N   UNL A   1      42.378  28.668  29.754  1.00  0.00    -0.354 N 
ATOM     44  C   UNL A   1      37.918  31.903  29.312  1.00  0.00     0.074 A 
ATOM     45  C   UNL A   1      37.047  30.941  28.682  1.00  0.00     0.031 C 
ATOM     46  C   UNL A   1      42.486  30.363  31.241  1.00  0.00     0.029 A 
ATOM     47  C   UNL A   1      43.277  29.611  30.285  1.00  0.00     0.049 A 
ATOM     48  H   UNL A   1      42.607  27.780  29.398  1.00  0.00     0.167 HD
ATOM     49  C   UNL A   1      37.747  33.051  30.031  1.00  0.00     0.034 A 
ATOM     50  C   UNL A   1      44.287  30.120  29.523  1.00  0.00     0.034 A 
ATOM     51  C   UNL A   1      39.032  33.589  30.492  1.00  0.00     0.049 A 
ATOM     52  C   UNL A   1      44.193  31.615  29.310  1.00  0.00     0.074 A 
ATOM     53  C   UNL A   1      39.670  33.595  31.722  1.00  0.00     0.029 A 
ATOM     54  N   UNL A   1      39.984  33.998  29.560  1.00  0.00    -0.354 N 
ATOM     55  N   UNL A   1      43.139  32.330  29.597  1.00  0.00    -0.248 NA
ATOM     56  C   UNL A   1      45.268  32.421  28.740  1.00  0.00     0.031 C 
ATOM     57  C   UNL A   1      41.031  33.939  31.511  1.00  0.00     0.029 A 
ATOM     58  C   UNL A   1      41.217  34.176  30.160  1.00  0.00     0.049 A 
ATOM     59  H   UNL A   1      39.803  34.139  28.603  1.00  0.00     0.167 HD
ATOM     60  C   UNL A   1      43.351  33.637  29.239  1.00  0.00     0.074 A 
ATOM     61  C   UNL A   1      44.714  33.647  28.738  1.00  0.00     0.031 C 
ATOM     62  C   UNL A   1      42.375  34.588  29.375  1.00  0.00     0.034 A 
BRANCH  49  63
ATOM     63  C   UNL A   1      36.408  33.507  30.592  1.00  0.00     0.023 A 
ATOM     64  C   UNL A   1      35.503  34.186  29.745  1.00  0.00     0.031 A 
ATOM     65  C   UNL A   1      35.984  33.388  31.930  1.00  0.00     0.131 A 
ATOM     66  C   UNL A   1      34.339  34.803  30.246  1.00  0.00     0.055 A 
ATOM     67  C   UNL A   1      34.859  34.051  32.443  1.00  0.00     0.041 A 
ATOM     68  F   UNL A   1      36.593  32.573  32.797  1.00  0.00    -0.206 F 
ATOM     69  C   UNL A   1      34.037  34.779  31.602  1.00  0.00     0.022 A 
BRANCH  66  70
ATOM     70  S   UNL A   1      33.215  35.642  29.095  1.00  0.00     0.124 S 
ATOM     71  O   UNL A   1      34.139  36.390  28.249  1.00  0.00    -0.237 OA
ATOM     72  O   UNL A   1      32.525  34.521  28.468  1.00  0.00    -0.237 OA
ATOM     73  O   UNL A   1      32.381  36.463  29.973  1.00  0.00    -0.744 OA
ENDBRANCH  66  70
ENDBRANCH  49  63
BRANCH  50  74
ATOM     74  C   UNL A   1      44.851  29.123  28.570  1.00  0.00     0.023 A 
ATOM     75  C   UNL A   1      45.668  28.112  29.121  1.00  0.00     0.031 A 
ATOM     76  C   UNL A   1      44.299  28.900  27.302  1.00  0.00     0.131 A 
ATOM     77  C   UNL A   1      45.770  26.862  28.498  1.00  0.00     0.055 A 
ATOM     78  C   UNL A   1      44.462  27.671  26.647  1.00  0.00     0.041 A 
ATOM     79  F   UNL A   1      43.484  29.806  26.742  1.00  0.00    -0.206 F 
ATOM     80  C   UNL A   1      45.159  26.629  27.266  1.00  0.00     0.022 A 
BRANCH  77  81
ATOM     81  S   UNL A   1      46.465  25.474  29.450  1.00  0.00     0.124 S 
ATOM     82  O   UNL A   1      47.505  24.981  28.553  1.00  0.00    -0.237 OA
ATOM     83  O   UNL A   1      46.940  26.118  30.675  1.00  0.00    -0.237 OA
ATOM     84  O   UNL A   1      45.321  24.587  29.645  1.00  0.00    -0.744 OA
ENDBRANCH  77  81
ENDBRANCH  50  74
BRANCH  62  85
ATOM     85  C   UNL A   1      42.439  36.013  28.856  1.00  0.00     0.023 A 
ATOM     86  C   UNL A   1      43.134  37.048  29.501  1.00  0.00     0.031 A 
ATOM     87  C   UNL A   1      41.843  36.361  27.618  1.00  0.00     0.131 A 
ATOM     88  C   UNL A   1      43.149  38.355  28.977  1.00  0.00     0.055 A 
ATOM     89  C   UNL A   1      41.928  37.641  27.059  1.00  0.00     0.041 A 
ATOM     90  F   UNL A   1      41.154  35.471  26.889  1.00  0.00    -0.206 F 
ATOM     91  C   UNL A   1      42.571  38.655  27.748  1.00  0.00     0.022 A 
BRANCH  88  92
ATOM     92  S   UNL A   1      43.890  39.675  29.976  1.00  0.00     0.124 S 
ATOM     93  O   UNL A   1      43.701  39.166  31.332  1.00  0.00    -0.237 OA
ATOM     94  O   UNL A   1      45.267  39.697  29.495  1.00  0.00    -0.237 OA
ATOM     95  O   UNL A   1      43.094  40.853  29.639  1.00  0.00    -0.744 OA
ENDBRANCH  88  92
ENDBRANCH  62  85
ENDBRANCH  36  37
ENDBRANCH  28  31
ENDBRANCH  26  27
ENDBRANCH  25  26
ENDBRANCH   1  25
TORSDOF 17
ENDMDL
