MODEL 1
REMARK VINA RESULT:     -11.2      0.000      0.000
REMARK SMILES O=C(CCCCCN1C(=O)/C(=C/c2cccc(O)c2)SC1=S)NCCCCNC(=O)c1ccc(-c2c3nc(c(-c4cc(S(=O)(=O)[O-])ccc4F)c4ccc([nH]4)c(-c4cc(S(=O)(=O)[O-])ccc4F)c4nc(c(-c5cc(S(=O)(=O)[O-])ccc5F)c5ccc2[nH]5)C=C4)C=C3)cc1
REMARK SMILES IDX 1 1 2 2 23 3 3 5 4 6 5 7 6 8 7 9 8 10 9 11 21 12 10 13 11 14
REMARK SMILES IDX 20 15 22 16 12 17 13 18 14 19 19 20 15 21 17 22 16 23 18 24
REMARK SMILES IDX 24 26 25 27 26 28 27 29 28 30 29 31 30 33 31 34 32 35 93 36
REMARK SMILES IDX 33 37 92 38 34 39 35 40 36 41 86 42 37 43 91 44 85 45 87 46
REMARK SMILES IDX 38 47 90 48 84 49 83 50 39 52 71 53 51 54 70 55 52 56 55 57
REMARK SMILES IDX 69 58 88 59 53 60 54 61 68 63 89 64 56 65 40 66 41 67 49 68
REMARK SMILES IDX 42 69 48 70 50 71 47 72 43 73 44 74 45 75 46 76 72 77 73 78
REMARK SMILES IDX 81 79 74 80 80 81 82 82 79 83 75 84 76 85 77 86 78 87 57 88
REMARK SMILES IDX 58 89 66 90 59 91 65 92 67 93 64 94 60 95 61 96 62 97 63 98
REMARK H PARENT 23 4 18 25 28 32 87 51 55 62
REMARK Flexibility Score: inf
ROOT
ATOM      1  O   UNL A   1      34.798  24.599  23.967  1.00  0.00    -0.275 OA
ATOM      2  C   UNL A   1      34.772  24.708  25.188  1.00  0.00     0.219 C 
ATOM      3  N   UNL A   1      34.157  25.743  25.855  1.00  0.00    -0.356 N 
ATOM      4  H   UNL A   1      34.134  25.721  26.839  1.00  0.00     0.163 HD
ENDROOT
BRANCH   2   5
ATOM      5  C   UNL A   1      35.435  23.694  26.102  1.00  0.00     0.100 C 
BRANCH   5   6
ATOM      6  C   UNL A   1      34.464  23.049  27.093  1.00  0.00     0.010 C 
BRANCH   6   7
ATOM      7  C   UNL A   1      34.276  21.536  26.965  1.00  0.00     0.002 C 
BRANCH   7   8
ATOM      8  C   UNL A   1      33.497  21.072  25.725  1.00  0.00     0.022 C 
BRANCH   8   9
ATOM      9  C   UNL A   1      32.011  21.447  25.702  1.00  0.00     0.127 C 
BRANCH   9  10
ATOM     10  N   UNL A   1      31.611  22.627  24.932  1.00  0.00    -0.293 N 
ATOM     11  C   UNL A   1      31.023  23.675  25.637  1.00  0.00     0.266 C 
ATOM     12  C   UNL A   1      31.598  22.767  23.558  1.00  0.00     0.148 C 
ATOM     13  O   UNL A   1      30.794  23.702  26.841  1.00  0.00    -0.268 OA
ATOM     14  C   UNL A   1      30.655  24.774  24.709  1.00  0.00     0.081 C 
ATOM     15  S   UNL A   1      31.331  24.452  23.162  1.00  0.00    -0.054 SA
ATOM     16  S   UNL A   1      31.782  21.633  22.350  1.00  0.00    -0.052 S 
ATOM     17  C   UNL A   1      29.871  25.810  25.046  1.00  0.00     0.029 C 
BRANCH  17  18
ATOM     18  C   UNL A   1      29.528  26.883  24.102  1.00  0.00    -0.021 A 
ATOM     19  C   UNL A   1      30.524  27.699  23.545  1.00  0.00     0.008 A 
ATOM     20  C   UNL A   1      28.185  27.171  23.851  1.00  0.00     0.054 A 
ATOM     21  C   UNL A   1      30.179  28.848  22.832  1.00  0.00     0.004 A 
ATOM     22  C   UNL A   1      27.852  28.309  23.124  1.00  0.00     0.116 A 
ATOM     23  C   UNL A   1      28.837  29.162  22.631  1.00  0.00     0.046 A 
BRANCH  22  24
ATOM     24  O   UNL A   1      26.528  28.580  22.939  1.00  0.00    -0.508 OA
ATOM     25  H   UNL A   1      25.894  27.894  23.014  1.00  0.00     0.293 HD
ENDBRANCH  22  24
ENDBRANCH  17  18
ENDBRANCH   9  10
ENDBRANCH   8   9
ENDBRANCH   7   8
ENDBRANCH   6   7
ENDBRANCH   5   6
ENDBRANCH   2   5
BRANCH   3  26
ATOM     26  C   UNL A   1      33.539  26.862  25.174  1.00  0.00     0.116 C 
BRANCH  26  27
ATOM     27  C   UNL A   1      33.893  28.193  25.832  1.00  0.00     0.023 C 
BRANCH  27  28
ATOM     28  C   UNL A   1      32.925  29.346  25.538  1.00  0.00     0.023 C 
BRANCH  28  29
ATOM     29  C   UNL A   1      32.213  29.933  26.755  1.00  0.00     0.116 C 
BRANCH  29  30
ATOM     30  N   UNL A   1      32.234  31.387  26.762  1.00  0.00    -0.352 N 
ATOM     31  C   UNL A   1      33.121  32.255  27.353  1.00  0.00     0.251 C 
ATOM     32  H   UNL A   1      31.499  31.815  26.266  1.00  0.00     0.163 HD
ATOM     33  O   UNL A   1      32.848  33.453  27.393  1.00  0.00    -0.269 OA
BRANCH  31  34
ATOM     34  C   UNL A   1      34.377  31.761  27.964  1.00  0.00     0.039 A 
ATOM     35  C   UNL A   1      35.487  32.611  28.004  1.00  0.00     0.014 A 
ATOM     36  C   UNL A   1      34.477  30.466  28.479  1.00  0.00     0.014 A 
ATOM     37  C   UNL A   1      36.667  32.189  28.622  1.00  0.00     0.010 A 
ATOM     38  C   UNL A   1      35.630  30.074  29.162  1.00  0.00     0.010 A 
ATOM     39  C   UNL A   1      36.738  30.932  29.244  1.00  0.00    -0.014 A 
BRANCH  39  40
ATOM     40  C   UNL A   1      37.954  30.508  29.991  1.00  0.00     0.031 A 
ATOM     41  C   UNL A   1      38.931  29.541  29.373  1.00  0.00     0.074 A 
ATOM     42  C   UNL A   1      38.154  30.951  31.250  1.00  0.00     0.049 A 
ATOM     43  N   UNL A   1      40.008  29.007  29.892  1.00  0.00    -0.248 NA
ATOM     44  C   UNL A   1      38.644  29.101  28.000  1.00  0.00     0.031 C 
ATOM     45  C   UNL A   1      37.268  31.868  31.970  1.00  0.00     0.029 A 
ATOM     46  N   UNL A   1      39.158  30.689  32.149  1.00  0.00    -0.354 N 
ATOM     47  C   UNL A   1      40.519  28.158  28.915  1.00  0.00     0.074 A 
ATOM     48  C   UNL A   1      39.600  28.209  27.797  1.00  0.00     0.031 C 
ATOM     49  C   UNL A   1      37.783  32.114  33.186  1.00  0.00     0.029 A 
ATOM     50  C   UNL A   1      39.003  31.332  33.357  1.00  0.00     0.049 A 
ATOM     51  H   UNL A   1      39.917  30.095  31.949  1.00  0.00     0.167 HD
ATOM     52  C   UNL A   1      41.658  27.421  28.942  1.00  0.00     0.034 A 
ATOM     53  C   UNL A   1      39.748  31.287  34.479  1.00  0.00     0.034 A 
ATOM     54  C   UNL A   1      42.567  27.386  30.063  1.00  0.00     0.049 A 
ATOM     55  C   UNL A   1      40.984  30.421  34.502  1.00  0.00     0.074 A 
ATOM     56  C   UNL A   1      43.775  26.718  30.172  1.00  0.00     0.029 A 
ATOM     57  N   UNL A   1      42.365  28.034  31.276  1.00  0.00    -0.354 N 
ATOM     58  N   UNL A   1      41.479  29.664  33.551  1.00  0.00    -0.248 NA
ATOM     59  C   UNL A   1      41.764  30.412  35.746  1.00  0.00     0.031 C 
ATOM     60  C   UNL A   1      44.258  26.890  31.473  1.00  0.00     0.029 A 
ATOM     61  C   UNL A   1      43.404  27.744  32.150  1.00  0.00     0.049 A 
ATOM     62  H   UNL A   1      41.597  28.613  31.485  1.00  0.00     0.167 HD
ATOM     63  C   UNL A   1      42.650  29.119  34.073  1.00  0.00     0.074 A 
ATOM     64  C   UNL A   1      42.792  29.645  35.413  1.00  0.00     0.031 C 
ATOM     65  C   UNL A   1      43.532  28.265  33.491  1.00  0.00     0.034 A 
BRANCH  52  66
ATOM     66  C   UNL A   1      41.965  26.565  27.735  1.00  0.00     0.023 A 
ATOM     67  C   UNL A   1      41.598  25.209  27.673  1.00  0.00     0.031 A 
ATOM     68  C   UNL A   1      42.650  27.108  26.632  1.00  0.00     0.131 A 
ATOM     69  C   UNL A   1      41.983  24.427  26.574  1.00  0.00     0.055 A 
ATOM     70  C   UNL A   1      42.952  26.347  25.502  1.00  0.00     0.041 A 
ATOM     71  F   UNL A   1      43.046  28.391  26.638  1.00  0.00    -0.206 F 
ATOM     72  C   UNL A   1      42.632  24.993  25.474  1.00  0.00     0.022 A 
BRANCH  69  73
ATOM     73  S   UNL A   1      41.755  22.629  26.666  1.00  0.00     0.124 S 
ATOM     74  O   UNL A   1      40.312  22.526  26.867  1.00  0.00    -0.237 OA
ATOM     75  O   UNL A   1      42.255  22.181  25.372  1.00  0.00    -0.237 OA
ATOM     76  O   UNL A   1      42.567  22.240  27.819  1.00  0.00    -0.744 OA
ENDBRANCH  69  73
ENDBRANCH  52  66
BRANCH  53  77
ATOM     77  C   UNL A   1      39.348  32.069  35.687  1.00  0.00     0.023 A 
ATOM     78  C   UNL A   1      38.601  31.476  36.717  1.00  0.00     0.031 A 
ATOM     79  C   UNL A   1      39.659  33.436  35.803  1.00  0.00     0.131 A 
ATOM     80  C   UNL A   1      38.145  32.257  37.791  1.00  0.00     0.055 A 
ATOM     81  C   UNL A   1      39.257  34.194  36.904  1.00  0.00     0.041 A 
ATOM     82  F   UNL A   1      40.370  34.055  34.847  1.00  0.00    -0.206 F 
ATOM     83  C   UNL A   1      38.482  33.608  37.900  1.00  0.00     0.022 A 
BRANCH  80  84
ATOM     84  S   UNL A   1      37.017  31.503  38.994  1.00  0.00     0.124 S 
ATOM     85  O   UNL A   1      36.879  30.153  38.465  1.00  0.00    -0.237 OA
ATOM     86  O   UNL A   1      37.769  31.634  40.237  1.00  0.00    -0.237 OA
ATOM     87  O   UNL A   1      35.818  32.336  38.903  1.00  0.00    -0.744 OA
ENDBRANCH  80  84
ENDBRANCH  53  77
BRANCH  65  88
ATOM     88  C   UNL A   1      44.759  27.889  34.291  1.00  0.00     0.023 A 
ATOM     89  C   UNL A   1      44.789  26.754  35.119  1.00  0.00     0.031 A 
ATOM     90  C   UNL A   1      45.914  28.690  34.229  1.00  0.00     0.131 A 
ATOM     91  C   UNL A   1      45.927  26.484  35.896  1.00  0.00     0.055 A 
ATOM     92  C   UNL A   1      47.066  28.379  34.951  1.00  0.00     0.041 A 
ATOM     93  F   UNL A   1      45.942  29.791  33.460  1.00  0.00    -0.206 F 
ATOM     94  C   UNL A   1      47.072  27.278  35.801  1.00  0.00     0.022 A 
BRANCH  91  95
ATOM     95  S   UNL A   1      45.853  25.140  37.112  1.00  0.00     0.124 S 
ATOM     96  O   UNL A   1      47.229  25.091  37.594  1.00  0.00    -0.237 OA
ATOM     97  O   UNL A   1      44.862  25.634  38.063  1.00  0.00    -0.237 OA
ATOM     98  O   UNL A   1      45.430  23.985  36.322  1.00  0.00    -0.744 OA
ENDBRANCH  91  95
ENDBRANCH  65  88
ENDBRANCH  39  40
ENDBRANCH  31  34
ENDBRANCH  29  30
ENDBRANCH  28  29
ENDBRANCH  27  28
ENDBRANCH  26  27
ENDBRANCH   3  26
TORSDOF 21
ENDMDL
MODEL 2
REMARK VINA RESULT:     -11.0      1.293      7.428
REMARK SMILES O=C(CCCCCN1C(=O)/C(=C/c2cccc(O)c2)SC1=S)NCCCCNC(=O)c1ccc(-c2c3nc(c(-c4cc(S(=O)(=O)[O-])ccc4F)c4ccc([nH]4)c(-c4cc(S(=O)(=O)[O-])ccc4F)c4nc(c(-c5cc(S(=O)(=O)[O-])ccc5F)c5ccc2[nH]5)C=C4)C=C3)cc1
REMARK SMILES IDX 1 1 2 2 23 3 3 5 4 6 5 7 6 8 7 9 8 10 9 11 21 12 10 13 11 14
REMARK SMILES IDX 20 15 22 16 12 17 13 18 14 19 19 20 15 21 17 22 16 23 18 24
REMARK SMILES IDX 24 26 25 27 26 28 27 29 28 30 29 31 30 33 31 34 32 35 93 36
REMARK SMILES IDX 33 37 92 38 34 39 35 40 36 41 86 42 37 43 91 44 85 45 87 46
REMARK SMILES IDX 38 47 90 48 84 49 83 50 39 52 71 53 51 54 70 55 52 56 55 57
REMARK SMILES IDX 69 58 88 59 53 60 54 61 68 63 89 64 56 65 40 66 41 67 49 68
REMARK SMILES IDX 42 69 48 70 50 71 47 72 43 73 44 74 45 75 46 76 72 77 73 78
REMARK SMILES IDX 81 79 74 80 80 81 82 82 79 83 75 84 76 85 77 86 78 87 57 88
REMARK SMILES IDX 58 89 66 90 59 91 65 92 67 93 64 94 60 95 61 96 62 97 63 98
REMARK H PARENT 23 4 18 25 28 32 87 51 55 62
REMARK Flexibility Score: inf
ROOT
ATOM      1  O   UNL A   1      34.916  24.618  24.098  1.00  0.00    -0.275 OA
ATOM      2  C   UNL A   1      34.770  24.545  25.313  1.00  0.00     0.219 C 
ATOM      3  N   UNL A   1      34.110  25.488  26.067  1.00  0.00    -0.356 N 
ATOM      4  H   UNL A   1      33.988  25.320  27.029  1.00  0.00     0.163 HD
ENDROOT
BRANCH   2   5
ATOM      5  C   UNL A   1      35.319  23.383  26.122  1.00  0.00     0.100 C 
BRANCH   5   6
ATOM      6  C   UNL A   1      34.379  22.928  27.240  1.00  0.00     0.010 C 
BRANCH   6   7
ATOM      7  C   UNL A   1      33.902  21.476  27.170  1.00  0.00     0.002 C 
BRANCH   7   8
ATOM      8  C   UNL A   1      33.441  21.000  25.784  1.00  0.00     0.022 C 
BRANCH   8   9
ATOM      9  C   UNL A   1      31.967  21.256  25.455  1.00  0.00     0.127 C 
BRANCH   9  10
ATOM     10  N   UNL A   1      31.623  22.499  24.760  1.00  0.00    -0.293 N 
ATOM     11  C   UNL A   1      31.028  23.506  25.518  1.00  0.00     0.266 C 
ATOM     12  C   UNL A   1      31.670  22.741  23.401  1.00  0.00     0.148 C 
ATOM     13  O   UNL A   1      30.750  23.448  26.711  1.00  0.00    -0.268 OA
ATOM     14  C   UNL A   1      30.720  24.678  24.662  1.00  0.00     0.081 C 
ATOM     15  S   UNL A   1      31.453  24.457  23.123  1.00  0.00    -0.054 SA
ATOM     16  S   UNL A   1      31.881  21.696  22.120  1.00  0.00    -0.052 S 
ATOM     17  C   UNL A   1      29.945  25.705  25.045  1.00  0.00     0.029 C 
BRANCH  17  18
ATOM     18  C   UNL A   1      29.663  26.853  24.171  1.00  0.00    -0.021 A 
ATOM     19  C   UNL A   1      30.671  27.771  23.839  1.00  0.00     0.008 A 
ATOM     20  C   UNL A   1      28.350  27.098  23.766  1.00  0.00     0.054 A 
ATOM     21  C   UNL A   1      30.351  28.969  23.200  1.00  0.00     0.004 A 
ATOM     22  C   UNL A   1      28.045  28.289  23.113  1.00  0.00     0.116 A 
ATOM     23  C   UNL A   1      29.031  29.237  22.847  1.00  0.00     0.046 A 
BRANCH  22  24
ATOM     24  O   UNL A   1      26.742  28.513  22.775  1.00  0.00    -0.508 OA
ATOM     25  H   UNL A   1      26.059  28.310  23.383  1.00  0.00     0.293 HD
ENDBRANCH  22  24
ENDBRANCH  17  18
ENDBRANCH   9  10
ENDBRANCH   8   9
ENDBRANCH   7   8
ENDBRANCH   6   7
ENDBRANCH   5   6
ENDBRANCH   2   5
BRANCH   3  26
ATOM     26  C   UNL A   1      33.585  26.716  25.507  1.00  0.00     0.116 C 
BRANCH  26  27
ATOM     27  C   UNL A   1      34.359  27.939  25.995  1.00  0.00     0.023 C 
BRANCH  27  28
ATOM     28  C   UNL A   1      33.653  29.285  25.789  1.00  0.00     0.023 C 
BRANCH  28  29
ATOM     29  C   UNL A   1      32.864  29.804  26.990  1.00  0.00     0.116 C 
BRANCH  29  30
ATOM     30  N   UNL A   1      33.016  31.237  27.176  1.00  0.00    -0.352 N 
ATOM     31  C   UNL A   1      34.000  31.945  27.826  1.00  0.00     0.251 C 
ATOM     32  H   UNL A   1      32.305  31.787  26.773  1.00  0.00     0.163 HD
ATOM     33  O   UNL A   1      33.838  33.147  28.027  1.00  0.00    -0.269 OA
BRANCH  31  34
ATOM     34  C   UNL A   1      35.228  31.271  28.310  1.00  0.00     0.039 A 
ATOM     35  C   UNL A   1      36.470  31.835  28.004  1.00  0.00     0.014 A 
ATOM     36  C   UNL A   1      35.168  30.083  29.043  1.00  0.00     0.014 A 
ATOM     37  C   UNL A   1      37.642  31.250  28.493  1.00  0.00     0.010 A 
ATOM     38  C   UNL A   1      36.331  29.543  29.593  1.00  0.00     0.010 A 
ATOM     39  C   UNL A   1      37.583  30.121  29.326  1.00  0.00    -0.014 A 
BRANCH  39  40
ATOM     40  C   UNL A   1      38.813  29.545  29.935  1.00  0.00     0.031 A 
ATOM     41  C   UNL A   1      39.323  30.057  31.256  1.00  0.00     0.074 A 
ATOM     42  C   UNL A   1      39.505  28.596  29.271  1.00  0.00     0.049 A 
ATOM     43  N   UNL A   1      40.409  29.727  31.909  1.00  0.00    -0.248 NA
ATOM     44  C   UNL A   1      38.517  31.094  31.917  1.00  0.00     0.031 C 
ATOM     45  C   UNL A   1      39.132  28.035  27.971  1.00  0.00     0.029 A 
ATOM     46  N   UNL A   1      40.668  27.937  29.591  1.00  0.00    -0.354 N 
ATOM     47  C   UNL A   1      40.424  30.524  33.050  1.00  0.00     0.074 A 
ATOM     48  C   UNL A   1      39.267  31.391  32.966  1.00  0.00     0.031 C 
ATOM     49  C   UNL A   1      40.028  27.099  27.620  1.00  0.00     0.029 A 
ATOM     50  C   UNL A   1      41.072  27.030  28.638  1.00  0.00     0.049 A 
ATOM     51  H   UNL A   1      41.166  28.101  30.424  1.00  0.00     0.167 HD
ATOM     52  C   UNL A   1      41.308  30.518  34.079  1.00  0.00     0.034 A 
ATOM     53  C   UNL A   1      42.165  26.242  28.580  1.00  0.00     0.034 A 
ATOM     54  C   UNL A   1      42.454  29.643  34.150  1.00  0.00     0.049 A 
ATOM     55  C   UNL A   1      43.160  26.290  29.713  1.00  0.00     0.074 A 
ATOM     56  C   UNL A   1      43.380  29.517  35.171  1.00  0.00     0.029 A 
ATOM     57  N   UNL A   1      42.842  28.752  33.155  1.00  0.00    -0.354 N 
ATOM     58  N   UNL A   1      43.131  27.013  30.809  1.00  0.00    -0.248 NA
ATOM     59  C   UNL A   1      44.328  25.408  29.606  1.00  0.00     0.031 C 
ATOM     60  C   UNL A   1      44.370  28.620  34.761  1.00  0.00     0.029 A 
ATOM     61  C   UNL A   1      44.015  28.109  33.523  1.00  0.00     0.049 A 
ATOM     62  H   UNL A   1      42.355  28.601  32.313  1.00  0.00     0.167 HD
ATOM     63  C   UNL A   1      44.260  26.644  31.536  1.00  0.00     0.074 A 
ATOM     64  C   UNL A   1      44.937  25.626  30.762  1.00  0.00     0.031 C 
ATOM     65  C   UNL A   1      44.692  27.101  32.740  1.00  0.00     0.034 A 
BRANCH  52  66
ATOM     66  C   UNL A   1      41.089  31.514  35.194  1.00  0.00     0.023 A 
ATOM     67  C   UNL A   1      39.987  31.426  36.064  1.00  0.00     0.031 A 
ATOM     68  C   UNL A   1      41.988  32.580  35.384  1.00  0.00     0.131 A 
ATOM     69  C   UNL A   1      39.772  32.422  37.028  1.00  0.00     0.055 A 
ATOM     70  C   UNL A   1      41.816  33.519  36.402  1.00  0.00     0.041 A 
ATOM     71  F   UNL A   1      43.048  32.732  34.574  1.00  0.00    -0.206 F 
ATOM     72  C   UNL A   1      40.694  33.453  37.223  1.00  0.00     0.022 A 
BRANCH  69  73
ATOM     73  S   UNL A   1      38.194  32.436  37.923  1.00  0.00     0.124 S 
ATOM     74  O   UNL A   1      37.788  33.832  37.783  1.00  0.00    -0.237 OA
ATOM     75  O   UNL A   1      37.402  31.462  37.182  1.00  0.00    -0.237 OA
ATOM     76  O   UNL A   1      38.566  32.036  39.279  1.00  0.00    -0.744 OA
ENDBRANCH  69  73
ENDBRANCH  52  66
BRANCH  53  77
ATOM     77  C   UNL A   1      42.394  25.348  27.406  1.00  0.00     0.023 A 
ATOM     78  C   UNL A   1      41.896  24.036  27.389  1.00  0.00     0.031 A 
ATOM     79  C   UNL A   1      43.164  25.775  26.308  1.00  0.00     0.131 A 
ATOM     80  C   UNL A   1      42.214  23.180  26.323  1.00  0.00     0.055 A 
ATOM     81  C   UNL A   1      43.425  24.939  25.221  1.00  0.00     0.041 A 
ATOM     82  F   UNL A   1      43.667  27.018  26.272  1.00  0.00    -0.206 F 
ATOM     83  C   UNL A   1      42.962  23.627  25.231  1.00  0.00     0.022 A 
BRANCH  80  84
ATOM     84  S   UNL A   1      41.722  21.438  26.433  1.00  0.00     0.124 S 
ATOM     85  O   UNL A   1      40.297  21.514  26.140  1.00  0.00    -0.237 OA
ATOM     86  O   UNL A   1      42.558  20.822  25.408  1.00  0.00    -0.237 OA
ATOM     87  O   UNL A   1      42.060  21.076  27.809  1.00  0.00    -0.744 OA
ENDBRANCH  80  84
ENDBRANCH  53  77
BRANCH  65  88
ATOM     88  C   UNL A   1      45.935  26.461  33.315  1.00  0.00     0.023 A 
ATOM     89  C   UNL A   1      45.882  25.273  34.064  1.00  0.00     0.031 A 
ATOM     90  C   UNL A   1      47.193  27.059  33.116  1.00  0.00     0.131 A 
ATOM     91  C   UNL A   1      47.053  24.754  34.637  1.00  0.00     0.055 A 
ATOM     92  C   UNL A   1      48.363  26.501  33.630  1.00  0.00     0.041 A 
ATOM     93  F   UNL A   1      47.305  28.198  32.413  1.00  0.00    -0.206 F 
ATOM     94  C   UNL A   1      48.296  25.349  34.407  1.00  0.00     0.022 A 
BRANCH  91  95
ATOM     95  S   UNL A   1      46.918  23.347  35.774  1.00  0.00     0.124 S 
ATOM     96  O   UNL A   1      47.470  22.258  34.976  1.00  0.00    -0.237 OA
ATOM     97  O   UNL A   1      47.730  23.782  36.907  1.00  0.00    -0.237 OA
ATOM     98  O   UNL A   1      45.484  23.258  36.040  1.00  0.00    -0.744 OA
ENDBRANCH  91  95
ENDBRANCH  65  88
ENDBRANCH  39  40
ENDBRANCH  31  34
ENDBRANCH  29  30
ENDBRANCH  28  29
ENDBRANCH  27  28
ENDBRANCH  26  27
ENDBRANCH   3  26
TORSDOF 21
ENDMDL
MODEL 3
REMARK VINA RESULT:     -10.8      2.943      7.762
REMARK SMILES O=C(CCCCCN1C(=O)/C(=C/c2cccc(O)c2)SC1=S)NCCCCNC(=O)c1ccc(-c2c3nc(c(-c4cc(S(=O)(=O)[O-])ccc4F)c4ccc([nH]4)c(-c4cc(S(=O)(=O)[O-])ccc4F)c4nc(c(-c5cc(S(=O)(=O)[O-])ccc5F)c5ccc2[nH]5)C=C4)C=C3)cc1
REMARK SMILES IDX 1 1 2 2 23 3 3 5 4 6 5 7 6 8 7 9 8 10 9 11 21 12 10 13 11 14
REMARK SMILES IDX 20 15 22 16 12 17 13 18 14 19 19 20 15 21 17 22 16 23 18 24
REMARK SMILES IDX 24 26 25 27 26 28 27 29 28 30 29 31 30 33 31 34 32 35 93 36
REMARK SMILES IDX 33 37 92 38 34 39 35 40 36 41 86 42 37 43 91 44 85 45 87 46
REMARK SMILES IDX 38 47 90 48 84 49 83 50 39 52 71 53 51 54 70 55 52 56 55 57
REMARK SMILES IDX 69 58 88 59 53 60 54 61 68 63 89 64 56 65 40 66 41 67 49 68
REMARK SMILES IDX 42 69 48 70 50 71 47 72 43 73 44 74 45 75 46 76 72 77 73 78
REMARK SMILES IDX 81 79 74 80 80 81 82 82 79 83 75 84 76 85 77 86 78 87 57 88
REMARK SMILES IDX 58 89 66 90 59 91 65 92 67 93 64 94 60 95 61 96 62 97 63 98
REMARK H PARENT 23 4 18 25 28 32 87 51 55 62
REMARK Flexibility Score: inf
ROOT
ATOM      1  O   UNL A   1      34.847  24.636  24.096  1.00  0.00    -0.275 OA
ATOM      2  C   UNL A   1      34.741  24.579  25.316  1.00  0.00     0.219 C 
ATOM      3  N   UNL A   1      34.049  25.498  26.072  1.00  0.00    -0.356 N 
ATOM      4  H   UNL A   1      33.965  25.344  27.040  1.00  0.00     0.163 HD
ENDROOT
BRANCH   2   5
ATOM      5  C   UNL A   1      35.381  23.469  26.130  1.00  0.00     0.100 C 
BRANCH   5   6
ATOM      6  C   UNL A   1      34.465  22.918  27.225  1.00  0.00     0.010 C 
BRANCH   6   7
ATOM      7  C   UNL A   1      34.074  21.444  27.098  1.00  0.00     0.002 C 
BRANCH   7   8
ATOM      8  C   UNL A   1      33.375  21.059  25.785  1.00  0.00     0.022 C 
BRANCH   8   9
ATOM      9  C   UNL A   1      31.896  21.448  25.687  1.00  0.00     0.127 C 
BRANCH   9  10
ATOM     10  N   UNL A   1      31.549  22.646  24.919  1.00  0.00    -0.293 N 
ATOM     11  C   UNL A   1      30.903  23.673  25.603  1.00  0.00     0.266 C 
ATOM     12  C   UNL A   1      31.641  22.823  23.552  1.00  0.00     0.148 C 
ATOM     13  O   UNL A   1      30.582  23.667  26.787  1.00  0.00    -0.268 OA
ATOM     14  C   UNL A   1      30.600  24.794  24.679  1.00  0.00     0.081 C 
ATOM     15  S   UNL A   1      31.395  24.516  23.180  1.00  0.00    -0.054 SA
ATOM     16  S   UNL A   1      31.925  21.721  22.333  1.00  0.00    -0.052 S 
ATOM     17  C   UNL A   1      29.787  25.818  24.982  1.00  0.00     0.029 C 
BRANCH  17  18
ATOM     18  C   UNL A   1      29.511  26.914  24.042  1.00  0.00    -0.021 A 
ATOM     19  C   UNL A   1      30.545  27.732  23.564  1.00  0.00     0.008 A 
ATOM     20  C   UNL A   1      28.188  27.221  23.717  1.00  0.00     0.054 A 
ATOM     21  C   UNL A   1      30.254  28.899  22.857  1.00  0.00     0.004 A 
ATOM     22  C   UNL A   1      27.909  28.377  22.996  1.00  0.00     0.116 A 
ATOM     23  C   UNL A   1      28.929  29.231  22.582  1.00  0.00     0.046 A 
BRANCH  22  24
ATOM     24  O   UNL A   1      26.601  28.666  22.738  1.00  0.00    -0.508 OA
ATOM     25  H   UNL A   1      26.275  29.533  22.879  1.00  0.00     0.293 HD
ENDBRANCH  22  24
ENDBRANCH  17  18
ENDBRANCH   9  10
ENDBRANCH   8   9
ENDBRANCH   7   8
ENDBRANCH   6   7
ENDBRANCH   5   6
ENDBRANCH   2   5
BRANCH   3  26
ATOM     26  C   UNL A   1      33.436  26.682  25.505  1.00  0.00     0.116 C 
BRANCH  26  27
ATOM     27  C   UNL A   1      34.336  27.907  25.639  1.00  0.00     0.023 C 
BRANCH  27  28
ATOM     28  C   UNL A   1      33.605  29.231  25.893  1.00  0.00     0.023 C 
BRANCH  28  29
ATOM     29  C   UNL A   1      33.264  29.525  27.353  1.00  0.00     0.116 C 
BRANCH  29  30
ATOM     30  N   UNL A   1      33.418  30.932  27.686  1.00  0.00    -0.352 N 
ATOM     31  C   UNL A   1      34.416  31.571  28.382  1.00  0.00     0.251 C 
ATOM     32  H   UNL A   1      32.696  31.517  27.362  1.00  0.00     0.163 HD
ATOM     33  O   UNL A   1      34.257  32.744  28.714  1.00  0.00    -0.269 OA
BRANCH  31  34
ATOM     34  C   UNL A   1      35.658  30.856  28.761  1.00  0.00     0.039 A 
ATOM     35  C   UNL A   1      36.861  31.226  28.151  1.00  0.00     0.014 A 
ATOM     36  C   UNL A   1      35.645  29.815  29.693  1.00  0.00     0.014 A 
ATOM     37  C   UNL A   1      38.055  30.604  28.528  1.00  0.00     0.010 A 
ATOM     38  C   UNL A   1      36.847  29.248  30.123  1.00  0.00     0.010 A 
ATOM     39  C   UNL A   1      38.066  29.638  29.547  1.00  0.00    -0.014 A 
BRANCH  39  40
ATOM     40  C   UNL A   1      39.341  29.038  30.028  1.00  0.00     0.031 A 
ATOM     41  C   UNL A   1      40.047  29.609  31.230  1.00  0.00     0.074 A 
ATOM     42  C   UNL A   1      39.895  28.012  29.349  1.00  0.00     0.049 A 
ATOM     43  N   UNL A   1      41.196  29.265  31.757  1.00  0.00    -0.248 NA
ATOM     44  C   UNL A   1      39.384  30.728  31.915  1.00  0.00     0.031 C 
ATOM     45  C   UNL A   1      39.324  27.387  28.154  1.00  0.00     0.029 A 
ATOM     46  N   UNL A   1      41.060  27.315  29.560  1.00  0.00    -0.354 N 
ATOM     47  C   UNL A   1      41.399  30.134  32.824  1.00  0.00     0.074 A 
ATOM     48  C   UNL A   1      40.281  31.054  32.832  1.00  0.00     0.031 C 
ATOM     49  C   UNL A   1      40.123  26.383  27.757  1.00  0.00     0.029 A 
ATOM     50  C   UNL A   1      41.290  26.326  28.631  1.00  0.00     0.049 A 
ATOM     51  H   UNL A   1      41.672  27.506  30.306  1.00  0.00     0.167 HD
ATOM     52  C   UNL A   1      42.413  30.148  33.726  1.00  0.00     0.034 A 
ATOM     53  C   UNL A   1      42.330  25.480  28.487  1.00  0.00     0.034 A 
ATOM     54  C   UNL A   1      43.519  29.219  33.709  1.00  0.00     0.049 A 
ATOM     55  C   UNL A   1      43.470  25.548  29.473  1.00  0.00     0.074 A 
ATOM     56  C   UNL A   1      44.568  29.112  34.606  1.00  0.00     0.029 A 
ATOM     57  N   UNL A   1      43.729  28.246  32.739  1.00  0.00    -0.354 N 
ATOM     58  N   UNL A   1      43.621  26.343  30.507  1.00  0.00    -0.248 NA
ATOM     59  C   UNL A   1      44.573  24.600  29.277  1.00  0.00     0.031 C 
ATOM     60  C   UNL A   1      45.453  28.138  34.134  1.00  0.00     0.029 A 
ATOM     61  C   UNL A   1      44.912  27.566  32.994  1.00  0.00     0.049 A 
ATOM     62  H   UNL A   1      43.127  28.065  31.982  1.00  0.00     0.167 HD
ATOM     63  C   UNL A   1      44.821  25.962  31.104  1.00  0.00     0.074 A 
ATOM     64  C   UNL A   1      45.342  24.861  30.324  1.00  0.00     0.031 C 
ATOM     65  C   UNL A   1      45.432  26.475  32.204  1.00  0.00     0.034 A 
BRANCH  52  66
ATOM     66  C   UNL A   1      42.391  31.226  34.785  1.00  0.00     0.023 A 
ATOM     67  C   UNL A   1      42.975  32.488  34.573  1.00  0.00     0.031 A 
ATOM     68  C   UNL A   1      41.791  30.985  36.035  1.00  0.00     0.131 A 
ATOM     69  C   UNL A   1      43.013  33.428  35.614  1.00  0.00     0.055 A 
ATOM     70  C   UNL A   1      41.754  31.957  37.036  1.00  0.00     0.041 A 
ATOM     71  F   UNL A   1      41.235  29.794  36.307  1.00  0.00    -0.206 F 
ATOM     72  C   UNL A   1      42.382  33.182  36.835  1.00  0.00     0.022 A 
BRANCH  69  73
ATOM     73  S   UNL A   1      44.029  34.916  35.401  1.00  0.00     0.124 S 
ATOM     74  O   UNL A   1      43.785  35.620  36.658  1.00  0.00    -0.237 OA
ATOM     75  O   UNL A   1      45.366  34.363  35.227  1.00  0.00    -0.237 OA
ATOM     76  O   UNL A   1      43.457  35.555  34.217  1.00  0.00    -0.744 OA
ENDBRANCH  69  73
ENDBRANCH  52  66
BRANCH  53  77
ATOM     77  C   UNL A   1      42.359  24.499  27.361  1.00  0.00     0.023 A 
ATOM     78  C   UNL A   1      41.547  23.354  27.378  1.00  0.00     0.031 A 
ATOM     79  C   UNL A   1      43.241  24.664  26.277  1.00  0.00     0.131 A 
ATOM     80  C   UNL A   1      41.669  22.393  26.362  1.00  0.00     0.055 A 
ATOM     81  C   UNL A   1      43.313  23.737  25.236  1.00  0.00     0.041 A 
ATOM     82  F   UNL A   1      44.041  25.739  26.208  1.00  0.00    -0.206 F 
ATOM     83  C   UNL A   1      42.535  22.584  25.282  1.00  0.00     0.022 A 
BRANCH  80  84
ATOM     84  S   UNL A   1      40.752  20.837  26.526  1.00  0.00     0.124 S 
ATOM     85  O   UNL A   1      41.499  19.959  25.634  1.00  0.00    -0.237 OA
ATOM     86  O   UNL A   1      40.876  20.561  27.953  1.00  0.00    -0.237 OA
ATOM     87  O   UNL A   1      39.406  21.187  26.075  1.00  0.00    -0.744 OA
ENDBRANCH  80  84
ENDBRANCH  53  77
BRANCH  65  88
ATOM     88  C   UNL A   1      46.711  25.809  32.656  1.00  0.00     0.023 A 
ATOM     89  C   UNL A   1      47.949  26.084  32.049  1.00  0.00     0.031 A 
ATOM     90  C   UNL A   1      46.686  24.874  33.708  1.00  0.00     0.131 A 
ATOM     91  C   UNL A   1      49.098  25.389  32.457  1.00  0.00     0.055 A 
ATOM     92  C   UNL A   1      47.844  24.238  34.155  1.00  0.00     0.041 A 
ATOM     93  F   UNL A   1      45.532  24.567  34.322  1.00  0.00    -0.206 F 
ATOM     94  C   UNL A   1      49.057  24.483  33.519  1.00  0.00     0.022 A 
BRANCH  91  95
ATOM     95  S   UNL A   1      50.630  25.608  31.511  1.00  0.00     0.124 S 
ATOM     96  O   UNL A   1      50.163  25.455  30.137  1.00  0.00    -0.237 OA
ATOM     97  O   UNL A   1      51.046  26.952  31.897  1.00  0.00    -0.237 OA
ATOM     98  O   UNL A   1      51.491  24.531  31.998  1.00  0.00    -0.744 OA
ENDBRANCH  91  95
ENDBRANCH  65  88
ENDBRANCH  39  40
ENDBRANCH  31  34
ENDBRANCH  29  30
ENDBRANCH  28  29
ENDBRANCH  27  28
ENDBRANCH  26  27
ENDBRANCH   3  26
TORSDOF 21
ENDMDL
