MODEL 1
REMARK VINA RESULT:     -12.0      0.000      0.000
REMARK SMILES O=C(NCCCCNC(=O)[C@@H]1C=C[C@@H]([NH+]2CC3(CC3)C2)C1)c1ccc(-c2c3nc(c(-c4cc(S(=O)(=O)[O-])ccc4F)c4ccc([nH]4)c(-c4cc(S(=O)(=O)[O-])ccc4F)c4nc(c(-c5cc(S(=O)(=O)[O-])ccc5F)c5ccc2[nH]5)C=C4)C=C3)cc1
REMARK SMILES IDX 4 1 3 2 1 3 2 4 22 6 23 7 84 8 24 9 83 10 25 11 26 12 27 13
REMARK SMILES IDX 77 14 28 15 82 16 76 17 78 18 29 19 81 20 75 21 74 22 30 24
REMARK SMILES IDX 62 25 42 26 61 27 43 28 46 29 60 30 79 31 44 32 45 33 59 35
REMARK SMILES IDX 80 36 47 37 31 38 32 39 40 40 33 41 39 42 41 43 38 44 34 45
REMARK SMILES IDX 35 46 36 47 37 48 63 49 64 50 72 51 65 52 71 53 73 54 70 55
REMARK SMILES IDX 66 56 67 57 68 58 69 59 48 60 49 61 57 62 50 63 56 64 58 65
REMARK SMILES IDX 55 66 51 67 52 68 53 69 54 70 5 71 6 72 7 73 8 74 9 75 10 77
REMARK SMILES IDX 11 78 12 79 21 80 13 81 14 82 15 83 16 84 20 85 17 87 18 88
REMARK SMILES IDX 19 89
REMARK H PARENT 3 5 78 23 46 34 8 76 15 86
REMARK Flexibility Score: inf
ROOT
ATOM      1  C   UNL A   1      32.804  29.608  25.911  1.00  0.00     0.116 C 
ENDROOT
BRANCH   1   2
ATOM      2  N   UNL A   1      32.463  30.957  26.342  1.00  0.00    -0.352 N 
ATOM      3  O   UNL A   1      32.654  32.860  27.539  1.00  0.00    -0.269 OA
ATOM      4  C   UNL A   1      33.147  31.788  27.198  1.00  0.00     0.251 C 
ATOM      5  H   UNL A   1      31.628  31.323  25.970  1.00  0.00     0.163 HD
BRANCH   4   6
ATOM      6  C   UNL A   1      34.462  31.366  27.731  1.00  0.00     0.039 A 
ATOM      7  C   UNL A   1      34.673  30.048  28.136  1.00  0.00     0.014 A 
ATOM      8  C   UNL A   1      35.480  32.315  27.862  1.00  0.00     0.014 A 
ATOM      9  C   UNL A   1      35.837  29.717  28.821  1.00  0.00     0.010 A 
ATOM     10  C   UNL A   1      36.684  31.957  28.477  1.00  0.00     0.010 A 
ATOM     11  C   UNL A   1      36.854  30.668  29.006  1.00  0.00    -0.014 A 
BRANCH  11  12
ATOM     12  C   UNL A   1      38.080  30.285  29.756  1.00  0.00     0.031 A 
ATOM     13  C   UNL A   1      38.299  30.755  31.171  1.00  0.00     0.074 A 
ATOM     14  C   UNL A   1      38.976  29.468  29.170  1.00  0.00     0.049 A 
ATOM     15  N   UNL A   1      39.286  30.484  31.988  1.00  0.00    -0.248 NA
ATOM     16  C   UNL A   1      37.285  31.655  31.736  1.00  0.00     0.031 C 
ATOM     17  C   UNL A   1      38.873  28.953  27.801  1.00  0.00     0.029 A 
ATOM     18  N   UNL A   1      40.130  28.905  29.650  1.00  0.00    -0.354 N 
ATOM     19  C   UNL A   1      39.027  31.198  33.154  1.00  0.00     0.074 A 
ATOM     20  C   UNL A   1      37.805  31.940  32.922  1.00  0.00     0.031 C 
ATOM     21  C   UNL A   1      39.889  28.109  27.573  1.00  0.00     0.029 A 
ATOM     22  C   UNL A   1      40.747  28.067  28.752  1.00  0.00     0.049 A 
ATOM     23  H   UNL A   1      40.482  29.084  30.551  1.00  0.00     0.167 HD
ATOM     24  C   UNL A   1      39.738  31.226  34.311  1.00  0.00     0.034 A 
ATOM     25  C   UNL A   1      41.881  27.348  28.861  1.00  0.00     0.034 A 
ATOM     26  C   UNL A   1      40.946  30.466  34.531  1.00  0.00     0.049 A 
ATOM     27  C   UNL A   1      42.655  27.403  30.149  1.00  0.00     0.074 A 
ATOM     28  C   UNL A   1      41.723  30.390  35.675  1.00  0.00     0.029 A 
ATOM     29  N   UNL A   1      41.560  29.652  33.586  1.00  0.00    -0.354 N 
ATOM     30  N   UNL A   1      42.385  28.069  31.247  1.00  0.00    -0.248 NA
ATOM     31  C   UNL A   1      43.882  26.601  30.213  1.00  0.00     0.031 C 
ATOM     32  C   UNL A   1      42.834  29.584  35.403  1.00  0.00     0.029 A 
ATOM     33  C   UNL A   1      42.717  29.095  34.112  1.00  0.00     0.049 A 
ATOM     34  H   UNL A   1      41.223  29.494  32.675  1.00  0.00     0.167 HD
ATOM     35  C   UNL A   1      43.400  27.746  32.143  1.00  0.00     0.074 A 
ATOM     36  C   UNL A   1      44.274  26.813  31.460  1.00  0.00     0.031 C 
ATOM     37  C   UNL A   1      43.589  28.178  33.416  1.00  0.00     0.034 A 
BRANCH  24  38
ATOM     38  C   UNL A   1      39.248  32.146  35.405  1.00  0.00     0.023 A 
ATOM     39  C   UNL A   1      39.661  33.488  35.493  1.00  0.00     0.031 A 
ATOM     40  C   UNL A   1      38.376  31.662  36.398  1.00  0.00     0.131 A 
ATOM     41  C   UNL A   1      39.266  34.273  36.587  1.00  0.00     0.055 A 
ATOM     42  C   UNL A   1      37.922  32.473  37.441  1.00  0.00     0.041 A 
ATOM     43  F   UNL A   1      37.962  30.385  36.380  1.00  0.00    -0.206 F 
ATOM     44  C   UNL A   1      38.380  33.783  37.549  1.00  0.00     0.022 A 
BRANCH  41  45
ATOM     45  S   UNL A   1      40.043  35.896  36.816  1.00  0.00     0.124 S 
ATOM     46  O   UNL A   1      39.744  36.550  35.544  1.00  0.00    -0.237 OA
ATOM     47  O   UNL A   1      39.343  36.419  37.984  1.00  0.00    -0.237 OA
ATOM     48  O   UNL A   1      41.453  35.575  37.025  1.00  0.00    -0.744 OA
ENDBRANCH  41  45
ENDBRANCH  24  38
BRANCH  25  49
ATOM     49  C   UNL A   1      42.357  26.525  27.714  1.00  0.00     0.023 A 
ATOM     50  C   UNL A   1      41.940  25.194  27.557  1.00  0.00     0.031 A 
ATOM     51  C   UNL A   1      43.251  27.056  26.767  1.00  0.00     0.131 A 
ATOM     52  C   UNL A   1      42.446  24.426  26.498  1.00  0.00     0.055 A 
ATOM     53  C   UNL A   1      43.713  26.303  25.688  1.00  0.00     0.041 A 
ATOM     54  F   UNL A   1      43.672  28.326  26.869  1.00  0.00    -0.206 F 
ATOM     55  C   UNL A   1      43.318  24.975  25.555  1.00  0.00     0.022 A 
BRANCH  52  56
ATOM     56  S   UNL A   1      41.993  22.673  26.405  1.00  0.00     0.124 S 
ATOM     57  O   UNL A   1      40.539  22.736  26.480  1.00  0.00    -0.237 OA
ATOM     58  O   UNL A   1      42.554  22.284  25.114  1.00  0.00    -0.237 OA
ATOM     59  O   UNL A   1      42.655  22.089  27.569  1.00  0.00    -0.744 OA
ENDBRANCH  52  56
ENDBRANCH  25  49
BRANCH  37  60
ATOM     60  C   UNL A   1      44.768  27.600  34.158  1.00  0.00     0.023 A 
ATOM     61  C   UNL A   1      44.655  26.432  34.934  1.00  0.00     0.031 A 
ATOM     62  C   UNL A   1      46.014  28.251  34.118  1.00  0.00     0.131 A 
ATOM     63  C   UNL A   1      45.749  25.988  35.690  1.00  0.00     0.055 A 
ATOM     64  C   UNL A   1      47.115  27.771  34.827  1.00  0.00     0.041 A 
ATOM     65  F   UNL A   1      46.176  29.370  33.395  1.00  0.00    -0.206 F 
ATOM     66  C   UNL A   1      46.983  26.643  35.631  1.00  0.00     0.022 A 
BRANCH  63  67
ATOM     67  S   UNL A   1      45.511  24.603  36.838  1.00  0.00     0.124 S 
ATOM     68  O   UNL A   1      45.427  23.465  35.929  1.00  0.00    -0.237 OA
ATOM     69  O   UNL A   1      46.714  24.673  37.662  1.00  0.00    -0.237 OA
ATOM     70  O   UNL A   1      44.267  24.939  37.527  1.00  0.00    -0.744 OA
ENDBRANCH  63  67
ENDBRANCH  37  60
ENDBRANCH  11  12
ENDBRANCH   4   6
ENDBRANCH   1   2
BRANCH   1  71
ATOM     71  C   UNL A   1      31.596  28.683  25.811  1.00  0.00     0.023 C 
BRANCH  71  72
ATOM     72  C   UNL A   1      31.725  27.348  26.545  1.00  0.00     0.023 C 
BRANCH  72  73
ATOM     73  C   UNL A   1      31.256  26.130  25.753  1.00  0.00     0.116 C 
BRANCH  73  74
ATOM     74  N   UNL A   1      30.685  25.111  26.614  1.00  0.00    -0.356 N 
ATOM     75  C   UNL A   1      31.044  23.802  26.767  1.00  0.00     0.227 C 
ATOM     76  H   UNL A   1      29.929  25.407  27.170  1.00  0.00     0.163 HD
ATOM     77  O   UNL A   1      30.372  23.101  27.523  1.00  0.00    -0.274 OA
BRANCH  75  78
ATOM     78  C   UNL A   1      32.260  23.276  26.005  1.00  0.00     0.107 C 
ATOM     79  C   UNL A   1      32.044  21.870  25.536  1.00  0.00    -0.012 C 
ATOM     80  C   UNL A   1      33.513  23.178  26.890  1.00  0.00     0.087 C 
ATOM     81  C   UNL A   1      32.997  21.040  25.965  1.00  0.00     0.033 C 
ATOM     82  C   UNL A   1      34.018  21.719  26.826  1.00  0.00     0.208 C 
BRANCH  82  83
ATOM     83  N   UNL A   1      35.382  21.428  26.365  1.00  0.00    -0.328 N 
ATOM     84  C   UNL A   1      35.465  20.875  25.008  1.00  0.00     0.275 C 
ATOM     85  C   UNL A   1      36.093  22.649  25.966  1.00  0.00     0.275 C 
ATOM     86  H   UNL A   1      35.722  20.855  27.137  1.00  0.00     0.348 HD
ATOM     87  C   UNL A   1      35.989  22.186  24.567  1.00  0.00     0.068 C 
ATOM     88  C   UNL A   1      35.524  22.991  23.390  1.00  0.00     0.020 C 
ATOM     89  C   UNL A   1      36.933  22.465  23.441  1.00  0.00     0.020 C 
ENDBRANCH  82  83
ENDBRANCH  75  78
ENDBRANCH  73  74
ENDBRANCH  72  73
ENDBRANCH  71  72
ENDBRANCH   1  71
TORSDOF 15
ENDMDL
MODEL 2
REMARK VINA RESULT:     -11.8      1.480      1.751
REMARK SMILES O=C(NCCCCNC(=O)[C@@H]1C=C[C@@H]([NH+]2CC3(CC3)C2)C1)c1ccc(-c2c3nc(c(-c4cc(S(=O)(=O)[O-])ccc4F)c4ccc([nH]4)c(-c4cc(S(=O)(=O)[O-])ccc4F)c4nc(c(-c5cc(S(=O)(=O)[O-])ccc5F)c5ccc2[nH]5)C=C4)C=C3)cc1
REMARK SMILES IDX 4 1 3 2 1 3 2 4 22 6 23 7 84 8 24 9 83 10 25 11 26 12 27 13
REMARK SMILES IDX 77 14 28 15 82 16 76 17 78 18 29 19 81 20 75 21 74 22 30 24
REMARK SMILES IDX 62 25 42 26 61 27 43 28 46 29 60 30 79 31 44 32 45 33 59 35
REMARK SMILES IDX 80 36 47 37 31 38 32 39 40 40 33 41 39 42 41 43 38 44 34 45
REMARK SMILES IDX 35 46 36 47 37 48 63 49 64 50 72 51 65 52 71 53 73 54 70 55
REMARK SMILES IDX 66 56 67 57 68 58 69 59 48 60 49 61 57 62 50 63 56 64 58 65
REMARK SMILES IDX 55 66 51 67 52 68 53 69 54 70 5 71 6 72 7 73 8 74 9 75 10 77
REMARK SMILES IDX 11 78 12 79 21 80 13 81 14 82 15 83 16 84 20 85 17 87 18 88
REMARK SMILES IDX 19 89
REMARK H PARENT 3 5 78 23 46 34 8 76 15 86
REMARK Flexibility Score: inf
ROOT
ATOM      1  C   UNL A   1      33.100  29.464  26.448  1.00  0.00     0.116 C 
ENDROOT
BRANCH   1   2
ATOM      2  N   UNL A   1      32.907  30.857  26.828  1.00  0.00    -0.352 N 
ATOM      3  O   UNL A   1      33.360  32.798  27.885  1.00  0.00    -0.269 OA
ATOM      4  C   UNL A   1      33.734  31.673  27.564  1.00  0.00     0.251 C 
ATOM      5  H   UNL A   1      32.070  31.271  26.514  1.00  0.00     0.163 HD
BRANCH   4   6
ATOM      6  C   UNL A   1      35.058  31.174  27.995  1.00  0.00     0.039 A 
ATOM      7  C   UNL A   1      35.215  29.853  28.418  1.00  0.00     0.014 A 
ATOM      8  C   UNL A   1      36.145  32.052  28.014  1.00  0.00     0.014 A 
ATOM      9  C   UNL A   1      36.409  29.457  29.011  1.00  0.00     0.010 A 
ATOM     10  C   UNL A   1      37.370  31.626  28.534  1.00  0.00     0.010 A 
ATOM     11  C   UNL A   1      37.500  30.340  29.083  1.00  0.00    -0.014 A 
BRANCH  11  12
ATOM     12  C   UNL A   1      38.758  29.890  29.737  1.00  0.00     0.031 A 
ATOM     13  C   UNL A   1      39.125  30.370  31.117  1.00  0.00     0.074 A 
ATOM     14  C   UNL A   1      39.546  29.005  29.097  1.00  0.00     0.049 A 
ATOM     15  N   UNL A   1      40.158  30.048  31.855  1.00  0.00    -0.248 NA
ATOM     16  C   UNL A   1      38.223  31.345  31.744  1.00  0.00     0.031 C 
ATOM     17  C   UNL A   1      39.295  28.475  27.754  1.00  0.00     0.029 A 
ATOM     18  N   UNL A   1      40.697  28.376  29.492  1.00  0.00    -0.354 N 
ATOM     19  C   UNL A   1      40.045  30.798  33.021  1.00  0.00     0.074 A 
ATOM     20  C   UNL A   1      38.858  31.615  32.875  1.00  0.00     0.031 C 
ATOM     21  C   UNL A   1      40.231  27.561  27.461  1.00  0.00     0.029 A 
ATOM     22  C   UNL A   1      41.181  27.483  28.565  1.00  0.00     0.049 A 
ATOM     23  H   UNL A   1      41.136  28.547  30.357  1.00  0.00     0.167 HD
ATOM     24  C   UNL A   1      40.852  30.799  34.115  1.00  0.00     0.034 A 
ATOM     25  C   UNL A   1      42.271  26.693  28.596  1.00  0.00     0.034 A 
ATOM     26  C   UNL A   1      42.023  29.965  34.251  1.00  0.00     0.049 A 
ATOM     27  C   UNL A   1      43.154  26.718  29.814  1.00  0.00     0.074 A 
ATOM     28  C   UNL A   1      42.887  29.858  35.328  1.00  0.00     0.029 A 
ATOM     29  N   UNL A   1      42.501  29.096  33.277  1.00  0.00    -0.354 N 
ATOM     30  N   UNL A   1      43.021  27.421  30.914  1.00  0.00    -0.248 NA
ATOM     31  C   UNL A   1      44.327  25.838  29.794  1.00  0.00     0.031 C 
ATOM     32  C   UNL A   1      43.917  28.975  34.983  1.00  0.00     0.029 A 
ATOM     33  C   UNL A   1      43.660  28.473  33.717  1.00  0.00     0.049 A 
ATOM     34  H   UNL A   1      42.078  28.944  32.401  1.00  0.00     0.167 HD
ATOM     35  C   UNL A   1      44.085  27.047  31.730  1.00  0.00     0.074 A 
ATOM     36  C   UNL A   1      44.836  26.046  30.999  1.00  0.00     0.031 C 
ATOM     37  C   UNL A   1      44.409  27.487  32.973  1.00  0.00     0.034 A 
BRANCH  24  38
ATOM     38  C   UNL A   1      40.517  31.769  35.224  1.00  0.00     0.023 A 
ATOM     39  C   UNL A   1      39.496  31.512  36.157  1.00  0.00     0.031 A 
ATOM     40  C   UNL A   1      41.212  32.987  35.332  1.00  0.00     0.131 A 
ATOM     41  C   UNL A   1      39.148  32.489  37.103  1.00  0.00     0.055 A 
ATOM     42  C   UNL A   1      40.915  33.921  36.327  1.00  0.00     0.041 A 
ATOM     43  F   UNL A   1      42.184  33.298  34.460  1.00  0.00    -0.206 F 
ATOM     44  C   UNL A   1      39.867  33.683  37.210  1.00  0.00     0.022 A 
BRANCH  41  45
ATOM     45  S   UNL A   1      37.649  32.243  38.094  1.00  0.00     0.124 S 
ATOM     46  O   UNL A   1      38.095  32.668  39.419  1.00  0.00    -0.237 OA
ATOM     47  O   UNL A   1      36.687  33.118  37.433  1.00  0.00    -0.237 OA
ATOM     48  O   UNL A   1      37.383  30.812  37.965  1.00  0.00    -0.744 OA
ENDBRANCH  41  45
ENDBRANCH  24  38
BRANCH  25  49
ATOM     49  C   UNL A   1      42.594  25.820  27.433  1.00  0.00     0.023 A 
ATOM     50  C   UNL A   1      42.154  24.489  27.384  1.00  0.00     0.031 A 
ATOM     51  C   UNL A   1      43.365  26.304  26.361  1.00  0.00     0.131 A 
ATOM     52  C   UNL A   1      42.517  23.674  26.302  1.00  0.00     0.055 A 
ATOM     53  C   UNL A   1      43.684  25.503  25.263  1.00  0.00     0.041 A 
ATOM     54  F   UNL A   1      43.803  27.572  26.357  1.00  0.00    -0.206 F 
ATOM     55  C   UNL A   1      43.268  24.176  25.235  1.00  0.00     0.022 A 
BRANCH  52  56
ATOM     56  S   UNL A   1      42.047  21.923  26.337  1.00  0.00     0.124 S 
ATOM     57  O   UNL A   1      42.404  21.546  27.698  1.00  0.00    -0.237 OA
ATOM     58  O   UNL A   1      40.619  21.987  26.041  1.00  0.00    -0.237 OA
ATOM     59  O   UNL A   1      42.871  21.328  25.287  1.00  0.00    -0.744 OA
ENDBRANCH  52  56
ENDBRANCH  25  49
BRANCH  37  60
ATOM     60  C   UNL A   1      45.606  26.846  33.627  1.00  0.00     0.023 A 
ATOM     61  C   UNL A   1      45.486  25.696  34.429  1.00  0.00     0.031 A 
ATOM     62  C   UNL A   1      46.882  27.418  33.477  1.00  0.00     0.131 A 
ATOM     63  C   UNL A   1      46.608  25.193  35.101  1.00  0.00     0.055 A 
ATOM     64  C   UNL A   1      48.006  26.879  34.104  1.00  0.00     0.041 A 
ATOM     65  F   UNL A   1      47.053  28.517  32.726  1.00  0.00    -0.206 F 
ATOM     66  C   UNL A   1      47.871  25.770  34.933  1.00  0.00     0.022 A 
BRANCH  63  67
ATOM     67  S   UNL A   1      46.380  23.838  36.286  1.00  0.00     0.124 S 
ATOM     68  O   UNL A   1      47.645  23.119  36.174  1.00  0.00    -0.237 OA
ATOM     69  O   UNL A   1      46.163  24.554  37.539  1.00  0.00    -0.237 OA
ATOM     70  O   UNL A   1      45.214  23.124  35.770  1.00  0.00    -0.744 OA
ENDBRANCH  63  67
ENDBRANCH  37  60
ENDBRANCH  11  12
ENDBRANCH   4   6
ENDBRANCH   1   2
BRANCH   1  71
ATOM     71  C   UNL A   1      31.801  28.667  26.399  1.00  0.00     0.023 C 
BRANCH  71  72
ATOM     72  C   UNL A   1      31.939  27.167  26.663  1.00  0.00     0.023 C 
BRANCH  72  73
ATOM     73  C   UNL A   1      31.010  26.281  25.838  1.00  0.00     0.116 C 
BRANCH  73  74
ATOM     74  N   UNL A   1      30.443  25.204  26.629  1.00  0.00    -0.356 N 
ATOM     75  C   UNL A   1      30.841  23.901  26.734  1.00  0.00     0.227 C 
ATOM     76  H   UNL A   1      29.658  25.448  27.168  1.00  0.00     0.163 HD
ATOM     77  O   UNL A   1      30.167  23.143  27.431  1.00  0.00    -0.274 OA
BRANCH  75  78
ATOM     78  C   UNL A   1      32.101  23.452  25.994  1.00  0.00     0.107 C 
ATOM     79  C   UNL A   1      31.955  22.059  25.464  1.00  0.00    -0.012 C 
ATOM     80  C   UNL A   1      33.327  23.365  26.918  1.00  0.00     0.087 C 
ATOM     81  C   UNL A   1      32.925  21.248  25.893  1.00  0.00     0.033 C 
ATOM     82  C   UNL A   1      33.890  21.929  26.815  1.00  0.00     0.208 C 
BRANCH  82  83
ATOM     83  N   UNL A   1      35.278  21.708  26.390  1.00  0.00    -0.328 N 
ATOM     84  C   UNL A   1      35.423  21.081  25.070  1.00  0.00     0.275 C 
ATOM     85  C   UNL A   1      35.909  22.949  25.925  1.00  0.00     0.275 C 
ATOM     86  H   UNL A   1      35.644  21.209  27.200  1.00  0.00     0.348 HD
ATOM     87  C   UNL A   1      35.862  22.396  24.556  1.00  0.00     0.068 C 
ATOM     88  C   UNL A   1      35.362  23.093  23.326  1.00  0.00     0.020 C 
ATOM     89  C   UNL A   1      36.803  22.672  23.427  1.00  0.00     0.020 C 
ENDBRANCH  82  83
ENDBRANCH  75  78
ENDBRANCH  73  74
ENDBRANCH  72  73
ENDBRANCH  71  72
ENDBRANCH   1  71
TORSDOF 15
ENDMDL
MODEL 3
REMARK VINA RESULT:     -11.8      4.961     10.208
REMARK SMILES O=C(NCCCCNC(=O)[C@@H]1C=C[C@@H]([NH+]2CC3(CC3)C2)C1)c1ccc(-c2c3nc(c(-c4cc(S(=O)(=O)[O-])ccc4F)c4ccc([nH]4)c(-c4cc(S(=O)(=O)[O-])ccc4F)c4nc(c(-c5cc(S(=O)(=O)[O-])ccc5F)c5ccc2[nH]5)C=C4)C=C3)cc1
REMARK SMILES IDX 4 1 3 2 1 3 2 4 22 6 23 7 84 8 24 9 83 10 25 11 26 12 27 13
REMARK SMILES IDX 77 14 28 15 82 16 76 17 78 18 29 19 81 20 75 21 74 22 30 24
REMARK SMILES IDX 62 25 42 26 61 27 43 28 46 29 60 30 79 31 44 32 45 33 59 35
REMARK SMILES IDX 80 36 47 37 31 38 32 39 40 40 33 41 39 42 41 43 38 44 34 45
REMARK SMILES IDX 35 46 36 47 37 48 63 49 64 50 72 51 65 52 71 53 73 54 70 55
REMARK SMILES IDX 66 56 67 57 68 58 69 59 48 60 49 61 57 62 50 63 56 64 58 65
REMARK SMILES IDX 55 66 51 67 52 68 53 69 54 70 5 71 6 72 7 73 8 74 9 75 10 77
REMARK SMILES IDX 11 78 12 79 21 80 13 81 14 82 15 83 16 84 20 85 17 87 18 88
REMARK SMILES IDX 19 89
REMARK H PARENT 3 5 78 23 46 34 8 76 15 86
REMARK Flexibility Score: inf
ROOT
ATOM      1  C   UNL A   1      36.829  22.006  25.505  1.00  0.00     0.116 C 
ENDROOT
BRANCH   1   2
ATOM      2  N   UNL A   1      37.841  20.966  25.627  1.00  0.00    -0.352 N 
ATOM      3  O   UNL A   1      39.891  20.104  26.010  1.00  0.00    -0.269 OA
ATOM      4  C   UNL A   1      39.136  21.071  26.078  1.00  0.00     0.251 C 
ATOM      5  H   UNL A   1      37.559  20.064  25.348  1.00  0.00     0.163 HD
BRANCH   4   6
ATOM      6  C   UNL A   1      39.621  22.362  26.613  1.00  0.00     0.039 A 
ATOM      7  C   UNL A   1      39.111  23.567  26.127  1.00  0.00     0.014 A 
ATOM      8  C   UNL A   1      40.627  22.364  27.582  1.00  0.00     0.014 A 
ATOM      9  C   UNL A   1      39.717  24.766  26.487  1.00  0.00     0.010 A 
ATOM     10  C   UNL A   1      41.179  23.577  28.005  1.00  0.00     0.010 A 
ATOM     11  C   UNL A   1      40.763  24.786  27.425  1.00  0.00    -0.014 A 
BRANCH  11  12
ATOM     12  C   UNL A   1      41.400  26.083  27.776  1.00  0.00     0.031 A 
ATOM     13  C   UNL A   1      42.765  26.442  27.250  1.00  0.00     0.074 A 
ATOM     14  C   UNL A   1      40.717  26.962  28.536  1.00  0.00     0.049 A 
ATOM     15  N   UNL A   1      43.452  27.544  27.418  1.00  0.00    -0.248 NA
ATOM     16  C   UNL A   1      43.452  25.426  26.440  1.00  0.00     0.031 C 
ATOM     17  C   UNL A   1      39.389  26.722  29.108  1.00  0.00     0.029 A 
ATOM     18  N   UNL A   1      41.026  28.235  28.937  1.00  0.00    -0.354 N 
ATOM     19  C   UNL A   1      44.661  27.347  26.758  1.00  0.00     0.074 A 
ATOM     20  C   UNL A   1      44.624  26.005  26.215  1.00  0.00     0.031 C 
ATOM     21  C   UNL A   1      38.976  27.832  29.737  1.00  0.00     0.029 A 
ATOM     22  C   UNL A   1      40.029  28.838  29.667  1.00  0.00     0.049 A 
ATOM     23  H   UNL A   1      41.880  28.676  28.723  1.00  0.00     0.167 HD
ATOM     24  C   UNL A   1      45.702  28.209  26.613  1.00  0.00     0.034 A 
ATOM     25  C   UNL A   1      39.970  30.063  30.224  1.00  0.00     0.034 A 
ATOM     26  C   UNL A   1      45.716  29.550  27.147  1.00  0.00     0.049 A 
ATOM     27  C   UNL A   1      41.138  30.995  30.057  1.00  0.00     0.074 A 
ATOM     28  C   UNL A   1      46.700  30.519  27.026  1.00  0.00     0.029 A 
ATOM     29  N   UNL A   1      44.701  30.116  27.910  1.00  0.00    -0.354 N 
ATOM     30  N   UNL A   1      42.266  30.798  29.414  1.00  0.00    -0.248 NA
ATOM     31  C   UNL A   1      41.020  32.316  30.683  1.00  0.00     0.031 C 
ATOM     32  C   UNL A   1      46.307  31.642  27.764  1.00  0.00     0.029 A 
ATOM     33  C   UNL A   1      45.047  31.405  28.288  1.00  0.00     0.049 A 
ATOM     34  H   UNL A   1      43.858  29.667  28.147  1.00  0.00     0.167 HD
ATOM     35  C   UNL A   1      42.983  31.985  29.540  1.00  0.00     0.074 A 
ATOM     36  C   UNL A   1      42.151  32.893  30.305  1.00  0.00     0.031 C 
ATOM     37  C   UNL A   1      44.215  32.296  29.063  1.00  0.00     0.034 A 
BRANCH  24  38
ATOM     38  C   UNL A   1      46.927  27.702  25.888  1.00  0.00     0.023 A 
ATOM     39  C   UNL A   1      47.178  28.012  24.539  1.00  0.00     0.031 A 
ATOM     40  C   UNL A   1      47.846  26.868  26.550  1.00  0.00     0.131 A 
ATOM     41  C   UNL A   1      48.271  27.431  23.877  1.00  0.00     0.055 A 
ATOM     42  C   UNL A   1      48.977  26.357  25.907  1.00  0.00     0.041 A 
ATOM     43  F   UNL A   1      47.652  26.520  27.832  1.00  0.00    -0.206 F 
ATOM     44  C   UNL A   1      49.186  26.625  24.558  1.00  0.00     0.022 A 
BRANCH  41  45
ATOM     45  S   UNL A   1      48.398  27.624  22.078  1.00  0.00     0.124 S 
ATOM     46  O   UNL A   1      48.605  26.244  21.645  1.00  0.00    -0.237 OA
ATOM     47  O   UNL A   1      47.110  28.215  21.733  1.00  0.00    -0.237 OA
ATOM     48  O   UNL A   1      49.553  28.502  21.907  1.00  0.00    -0.744 OA
ENDBRANCH  41  45
ENDBRANCH  24  38
BRANCH  25  49
ATOM     49  C   UNL A   1      38.766  30.473  31.000  1.00  0.00     0.023 A 
ATOM     50  C   UNL A   1      37.702  31.146  30.381  1.00  0.00     0.031 A 
ATOM     51  C   UNL A   1      38.674  30.212  32.378  1.00  0.00     0.131 A 
ATOM     52  C   UNL A   1      36.605  31.568  31.146  1.00  0.00     0.055 A 
ATOM     53  C   UNL A   1      37.558  30.590  33.126  1.00  0.00     0.041 A 
ATOM     54  F   UNL A   1      39.662  29.564  33.014  1.00  0.00    -0.206 F 
ATOM     55  C   UNL A   1      36.520  31.282  32.511  1.00  0.00     0.022 A 
BRANCH  52  56
ATOM     56  S   UNL A   1      35.312  32.553  30.342  1.00  0.00     0.124 S 
ATOM     57  O   UNL A   1      36.027  33.786  30.034  1.00  0.00    -0.237 OA
ATOM     58  O   UNL A   1      34.957  31.714  29.201  1.00  0.00    -0.237 OA
ATOM     59  O   UNL A   1      34.282  32.668  31.372  1.00  0.00    -0.744 OA
ENDBRANCH  52  56
ENDBRANCH  25  49
BRANCH  37  60
ATOM     60  C   UNL A   1      44.706  33.698  29.324  1.00  0.00     0.023 A 
ATOM     61  C   UNL A   1      44.400  34.763  28.458  1.00  0.00     0.031 A 
ATOM     62  C   UNL A   1      45.526  33.962  30.435  1.00  0.00     0.131 A 
ATOM     63  C   UNL A   1      44.962  36.028  28.681  1.00  0.00     0.055 A 
ATOM     64  C   UNL A   1      46.037  35.237  30.684  1.00  0.00     0.041 A 
ATOM     65  F   UNL A   1      45.852  32.981  31.291  1.00  0.00    -0.206 F 
ATOM     66  C   UNL A   1      45.768  36.275  29.797  1.00  0.00     0.022 A 
BRANCH  63  67
ATOM     67  S   UNL A   1      44.715  37.325  27.436  1.00  0.00     0.124 S 
ATOM     68  O   UNL A   1      43.406  36.979  26.892  1.00  0.00    -0.237 OA
ATOM     69  O   UNL A   1      44.771  38.542  28.240  1.00  0.00    -0.237 OA
ATOM     70  O   UNL A   1      45.836  37.137  26.518  1.00  0.00    -0.744 OA
ENDBRANCH  63  67
ENDBRANCH  37  60
ENDBRANCH  11  12
ENDBRANCH   4   6
ENDBRANCH   1   2
BRANCH   1  71
ATOM     71  C   UNL A   1      35.666  21.613  24.600  1.00  0.00     0.023 C 
BRANCH  71  72
ATOM     72  C   UNL A   1      34.927  20.334  24.995  1.00  0.00     0.023 C 
BRANCH  72  73
ATOM     73  C   UNL A   1      33.451  20.523  25.338  1.00  0.00     0.116 C 
BRANCH  73  74
ATOM     74  N   UNL A   1      33.269  21.034  26.684  1.00  0.00    -0.356 N 
ATOM     75  C   UNL A   1      32.912  22.286  27.097  1.00  0.00     0.227 C 
ATOM     76  H   UNL A   1      33.424  20.382  27.404  1.00  0.00     0.163 HD
ATOM     77  O   UNL A   1      32.873  22.509  28.307  1.00  0.00    -0.274 OA
BRANCH  75  78
ATOM     78  C   UNL A   1      32.571  23.341  26.046  1.00  0.00     0.107 C 
ATOM     79  C   UNL A   1      33.672  24.346  25.904  1.00  0.00    -0.012 C 
ATOM     80  C   UNL A   1      31.349  24.190  26.436  1.00  0.00     0.087 C 
ATOM     81  C   UNL A   1      33.245  25.598  26.091  1.00  0.00     0.033 C 
ATOM     82  C   UNL A   1      31.786  25.672  26.422  1.00  0.00     0.208 C 
BRANCH  82  83
ATOM     83  N   UNL A   1      31.093  26.639  25.561  1.00  0.00    -0.328 N 
ATOM     84  C   UNL A   1      31.955  27.317  24.585  1.00  0.00     0.275 C 
ATOM     85  C   UNL A   1      30.330  25.971  24.499  1.00  0.00     0.275 C 
ATOM     86  H   UNL A   1      30.621  27.210  26.262  1.00  0.00     0.348 HD
ATOM     87  C   UNL A   1      31.325  26.487  23.536  1.00  0.00     0.068 C 
ATOM     88  C   UNL A   1      32.028  25.701  22.469  1.00  0.00     0.020 C 
ATOM     89  C   UNL A   1      31.109  26.834  22.097  1.00  0.00     0.020 C 
ENDBRANCH  82  83
ENDBRANCH  75  78
ENDBRANCH  73  74
ENDBRANCH  72  73
ENDBRANCH  71  72
ENDBRANCH   1  71
TORSDOF 15
ENDMDL
