MODEL 1
REMARK VINA RESULT:     -12.2      0.000      0.000
REMARK SMILES COc1ccc(/C=C/C(=O)NCCCCNC(=O)c2ccc(-c3c4nc(c(-c5cc(S(=O)(=O)[O-])ccc5F)c5ccc([nH]5)c(-c5cc(S(=O)(=O)[O-])ccc5F)c5nc(c(-c6cc(S(=O)(=O)[O-])ccc6F)c6ccc3[nH]6)C=C5)C=C4)cc2)cc1S(=O)(=O)Nc1ccc(F)cc1F
REMARK SMILES IDX 13 1 12 2 11 3 9 4 10 5 8 7 7 8 6 9 3 10 4 11 83 12 5 13
REMARK SMILES IDX 82 14 2 15 1 16 84 17 85 18 86 19 87 20 88 22 89 23 94 24
REMARK SMILES IDX 90 25 93 26 95 27 91 28 92 29 14 30 15 31 16 32 17 33 18 35
REMARK SMILES IDX 19 36 20 37 81 38 21 39 80 40 22 41 23 42 24 43 74 44 25 45
REMARK SMILES IDX 79 46 73 47 75 48 26 49 78 50 72 51 71 52 27 54 59 55 39 56
REMARK SMILES IDX 58 57 40 58 43 59 57 60 76 61 41 62 42 63 56 65 77 66 44 67
REMARK SMILES IDX 28 68 29 69 37 70 30 71 36 72 38 73 35 74 31 75 32 76 33 77
REMARK SMILES IDX 34 78 60 79 61 80 69 81 62 82 68 83 70 84 67 85 63 86 64 87
REMARK SMILES IDX 65 88 66 89 45 90 46 91 54 92 47 93 53 94 55 95 52 96 48 97
REMARK SMILES IDX 49 98 50 99 51 100
REMARK H PARENT 11 6 87 21 16 34 75 53 43 64
REMARK Flexibility Score: inf
ROOT
ATOM      1  C   UNL A   1      31.664  30.571  26.736  1.00  0.00     0.023 C 
ENDROOT
BRANCH   1   2
ATOM      2  C   UNL A   1      32.258  30.059  25.426  1.00  0.00     0.116 C 
BRANCH   2   3
ATOM      3  N   UNL A   1      31.210  29.558  24.554  1.00  0.00    -0.353 N 
ATOM      4  C   UNL A   1      31.097  28.356  23.930  1.00  0.00     0.243 C 
ATOM      5  O   UNL A   1      30.110  28.093  23.251  1.00  0.00    -0.270 OA
ATOM      6  H   UNL A   1      30.469  30.185  24.391  1.00  0.00     0.163 HD
BRANCH   4   7
ATOM      7  C   UNL A   1      32.100  27.305  24.194  1.00  0.00     0.072 C 
ATOM      8  C   UNL A   1      31.946  26.285  25.055  1.00  0.00     0.014 C 
BRANCH   8   9
ATOM      9  C   UNL A   1      32.960  25.224  25.183  1.00  0.00    -0.024 A 
ATOM     10  C   UNL A   1      34.838  23.140  25.015  1.00  0.00     0.139 A 
ATOM     11  C   UNL A   1      35.260  24.469  25.013  1.00  0.00     0.048 A 
ATOM     12  C   UNL A   1      33.507  22.844  25.295  1.00  0.00     0.130 A 
ATOM     13  C   UNL A   1      34.330  25.502  25.114  1.00  0.00     0.012 A 
ATOM     14  C   UNL A   1      32.562  23.890  25.347  1.00  0.00     0.034 A 
BRANCH  10  15
ATOM     15  O   UNL A   1      35.813  22.218  24.774  1.00  0.00    -0.495 OA
ATOM     16  C   UNL A   1      36.981  22.816  24.211  1.00  0.00     0.278 C 
ENDBRANCH  10  15
BRANCH  12  17
ATOM     17  S   UNL A   1      32.909  21.215  25.667  1.00  0.00     0.265 S 
ATOM     18  O   UNL A   1      33.376  20.864  26.991  1.00  0.00    -0.201 OA
ATOM     19  O   UNL A   1      31.487  21.239  25.377  1.00  0.00    -0.201 OA
BRANCH  17  20
ATOM     20  N   UNL A   1      33.537  20.079  24.593  1.00  0.00    -0.277 N 
ATOM     21  H   UNL A   1      33.850  20.396  23.716  1.00  0.00     0.180 HD
BRANCH  20  22
ATOM     22  C   UNL A   1      33.639  18.684  24.881  1.00  0.00     0.085 A 
ATOM     23  C   UNL A   1      32.475  18.067  25.365  1.00  0.00     0.033 A 
ATOM     24  C   UNL A   1      34.781  17.903  24.670  1.00  0.00     0.150 A 
ATOM     25  C   UNL A   1      32.421  16.680  25.504  1.00  0.00     0.041 A 
ATOM     26  C   UNL A   1      34.732  16.519  24.812  1.00  0.00     0.080 A 
ATOM     27  F   UNL A   1      35.929  18.456  24.258  1.00  0.00    -0.205 F 
ATOM     28  C   UNL A   1      33.544  15.918  25.205  1.00  0.00     0.126 A 
ATOM     29  F   UNL A   1      33.472  14.584  25.289  1.00  0.00    -0.207 F 
ENDBRANCH  20  22
ENDBRANCH  17  20
ENDBRANCH  12  17
ENDBRANCH   8   9
ENDBRANCH   4   7
ENDBRANCH   2   3
ENDBRANCH   1   2
BRANCH   1  30
ATOM     30  C   UNL A   1      31.484  32.093  26.790  1.00  0.00     0.023 C 
BRANCH  30  31
ATOM     31  C   UNL A   1      32.764  32.893  27.027  1.00  0.00     0.116 C 
BRANCH  31  32
ATOM     32  N   UNL A   1      32.531  34.142  27.733  1.00  0.00    -0.352 N 
ATOM     33  C   UNL A   1      33.179  34.641  28.837  1.00  0.00     0.251 C 
ATOM     34  H   UNL A   1      31.810  34.707  27.371  1.00  0.00     0.163 HD
ATOM     35  O   UNL A   1      32.771  35.667  29.373  1.00  0.00    -0.269 OA
BRANCH  33  36
ATOM     36  C   UNL A   1      34.339  33.914  29.395  1.00  0.00     0.039 A 
ATOM     37  C   UNL A   1      35.625  34.319  29.028  1.00  0.00     0.014 A 
ATOM     38  C   UNL A   1      34.161  32.853  30.287  1.00  0.00     0.014 A 
ATOM     39  C   UNL A   1      36.735  33.706  29.611  1.00  0.00     0.010 A 
ATOM     40  C   UNL A   1      35.269  32.280  30.909  1.00  0.00     0.010 A 
ATOM     41  C   UNL A   1      36.566  32.707  30.583  1.00  0.00    -0.014 A 
BRANCH  41  42
ATOM     42  C   UNL A   1      37.732  32.105  31.278  1.00  0.00     0.031 A 
ATOM     43  C   UNL A   1      38.495  30.980  30.635  1.00  0.00     0.074 A 
ATOM     44  C   UNL A   1      38.061  32.530  32.514  1.00  0.00     0.049 A 
ATOM     45  N   UNL A   1      39.481  30.269  31.116  1.00  0.00    -0.248 NA
ATOM     46  C   UNL A   1      38.071  30.587  29.283  1.00  0.00     0.031 C 
ATOM     47  C   UNL A   1      37.374  33.593  33.252  1.00  0.00     0.029 A 
ATOM     48  N   UNL A   1      39.050  32.118  33.370  1.00  0.00    -0.354 N 
ATOM     49  C   UNL A   1      39.788  29.332  30.135  1.00  0.00     0.074 A 
ATOM     50  C   UNL A   1      38.847  29.538  29.052  1.00  0.00     0.031 C 
ATOM     51  C   UNL A   1      37.980  33.766  34.438  1.00  0.00     0.029 A 
ATOM     52  C   UNL A   1      39.067  32.801  34.565  1.00  0.00     0.049 A 
ATOM     53  H   UNL A   1      39.687  31.401  33.151  1.00  0.00     0.167 HD
ATOM     54  C   UNL A   1      40.772  28.399  30.132  1.00  0.00     0.034 A 
ATOM     55  C   UNL A   1      39.864  32.660  35.641  1.00  0.00     0.034 A 
ATOM     56  C   UNL A   1      41.714  28.219  31.210  1.00  0.00     0.049 A 
ATOM     57  C   UNL A   1      40.944  31.610  35.616  1.00  0.00     0.074 A 
ATOM     58  C   UNL A   1      42.780  27.339  31.286  1.00  0.00     0.029 A 
ATOM     59  N   UNL A   1      41.701  28.931  32.403  1.00  0.00    -0.354 N 
ATOM     60  N   UNL A   1      41.239  30.751  34.669  1.00  0.00    -0.248 NA
ATOM     61  C   UNL A   1      41.803  31.517  36.804  1.00  0.00     0.031 C 
ATOM     62  C   UNL A   1      43.376  27.480  32.544  1.00  0.00     0.029 A 
ATOM     63  C   UNL A   1      42.726  28.494  33.229  1.00  0.00     0.049 A 
ATOM     64  H   UNL A   1      41.059  29.642  32.628  1.00  0.00     0.167 HD
ATOM     65  C   UNL A   1      42.338  30.035  35.136  1.00  0.00     0.074 A 
ATOM     66  C   UNL A   1      42.658  30.570  36.443  1.00  0.00     0.031 C 
ATOM     67  C   UNL A   1      43.026  29.031  34.534  1.00  0.00     0.034 A 
BRANCH  54  68
ATOM     68  C   UNL A   1      40.859  27.488  28.931  1.00  0.00     0.023 A 
ATOM     69  C   UNL A   1      41.826  27.676  27.928  1.00  0.00     0.031 A 
ATOM     70  C   UNL A   1      39.947  26.428  28.776  1.00  0.00     0.131 A 
ATOM     71  C   UNL A   1      41.816  26.865  26.785  1.00  0.00     0.055 A 
ATOM     72  C   UNL A   1      39.990  25.575  27.672  1.00  0.00     0.041 A 
ATOM     73  F   UNL A   1      38.989  26.211  29.691  1.00  0.00    -0.206 F 
ATOM     74  C   UNL A   1      40.919  25.799  26.660  1.00  0.00     0.022 A 
BRANCH  71  75
ATOM     75  S   UNL A   1      42.906  27.300  25.402  1.00  0.00     0.124 S 
ATOM     76  O   UNL A   1      44.123  27.704  26.105  1.00  0.00    -0.237 OA
ATOM     77  O   UNL A   1      42.985  26.050  24.657  1.00  0.00    -0.237 OA
ATOM     78  O   UNL A   1      42.194  28.384  24.730  1.00  0.00    -0.744 OA
ENDBRANCH  71  75
ENDBRANCH  54  68
BRANCH  55  79
ATOM     79  C   UNL A   1      39.681  33.532  36.836  1.00  0.00     0.023 A 
ATOM     80  C   UNL A   1      39.213  32.998  38.047  1.00  0.00     0.031 A 
ATOM     81  C   UNL A   1      39.934  34.912  36.774  1.00  0.00     0.131 A 
ATOM     82  C   UNL A   1      38.973  33.847  39.138  1.00  0.00     0.055 A 
ATOM     83  C   UNL A   1      39.737  35.747  37.877  1.00  0.00     0.041 A 
ATOM     84  F   UNL A   1      40.391  35.469  35.642  1.00  0.00    -0.206 F 
ATOM     85  C   UNL A   1      39.242  35.215  39.064  1.00  0.00     0.022 A 
BRANCH  82  86
ATOM     86  S   UNL A   1      38.234  33.143  40.638  1.00  0.00     0.124 S 
ATOM     87  O   UNL A   1      37.781  31.842  40.163  1.00  0.00    -0.237 OA
ATOM     88  O   UNL A   1      39.368  33.134  41.557  1.00  0.00    -0.237 OA
ATOM     89  O   UNL A   1      37.174  34.092  40.971  1.00  0.00    -0.744 OA
ENDBRANCH  82  86
ENDBRANCH  55  79
BRANCH  67  90
ATOM     90  C   UNL A   1      44.220  28.484  35.274  1.00  0.00     0.023 A 
ATOM     91  C   UNL A   1      44.094  27.466  36.234  1.00  0.00     0.031 A 
ATOM     92  C   UNL A   1      45.503  29.003  35.020  1.00  0.00     0.131 A 
ATOM     93  C   UNL A   1      45.224  27.033  36.944  1.00  0.00     0.055 A 
ATOM     94  C   UNL A   1      46.631  28.530  35.691  1.00  0.00     0.041 A 
ATOM     95  F   UNL A   1      45.678  29.978  34.113  1.00  0.00    -0.206 F 
ATOM     96  C   UNL A   1      46.493  27.549  36.667  1.00  0.00     0.022 A 
BRANCH  93  97
ATOM     97  S   UNL A   1      45.001  25.842  38.294  1.00  0.00     0.124 S 
ATOM     98  O   UNL A   1      44.011  26.512  39.130  1.00  0.00    -0.237 OA
ATOM     99  O   UNL A   1      44.538  24.652  37.586  1.00  0.00    -0.237 OA
ATOM    100  O   UNL A   1      46.336  25.733  38.879  1.00  0.00    -0.744 OA
ENDBRANCH  93  97
ENDBRANCH  67  90
ENDBRANCH  41  42
ENDBRANCH  33  36
ENDBRANCH  31  32
ENDBRANCH  30  31
ENDBRANCH   1  30
TORSDOF 19
ENDMDL
MODEL 2
REMARK VINA RESULT:     -12.2      1.595      2.280
REMARK SMILES COc1ccc(/C=C/C(=O)NCCCCNC(=O)c2ccc(-c3c4nc(c(-c5cc(S(=O)(=O)[O-])ccc5F)c5ccc([nH]5)c(-c5cc(S(=O)(=O)[O-])ccc5F)c5nc(c(-c6cc(S(=O)(=O)[O-])ccc6F)c6ccc3[nH]6)C=C5)C=C4)cc2)cc1S(=O)(=O)Nc1ccc(F)cc1F
REMARK SMILES IDX 13 1 12 2 11 3 9 4 10 5 8 7 7 8 6 9 3 10 4 11 83 12 5 13
REMARK SMILES IDX 82 14 2 15 1 16 84 17 85 18 86 19 87 20 88 22 89 23 94 24
REMARK SMILES IDX 90 25 93 26 95 27 91 28 92 29 14 30 15 31 16 32 17 33 18 35
REMARK SMILES IDX 19 36 20 37 81 38 21 39 80 40 22 41 23 42 24 43 74 44 25 45
REMARK SMILES IDX 79 46 73 47 75 48 26 49 78 50 72 51 71 52 27 54 59 55 39 56
REMARK SMILES IDX 58 57 40 58 43 59 57 60 76 61 41 62 42 63 56 65 77 66 44 67
REMARK SMILES IDX 28 68 29 69 37 70 30 71 36 72 38 73 35 74 31 75 32 76 33 77
REMARK SMILES IDX 34 78 60 79 61 80 69 81 62 82 68 83 70 84 67 85 63 86 64 87
REMARK SMILES IDX 65 88 66 89 45 90 46 91 54 92 47 93 53 94 55 95 52 96 48 97
REMARK SMILES IDX 49 98 50 99 51 100
REMARK H PARENT 11 6 87 21 16 34 75 53 43 64
REMARK Flexibility Score: inf
ROOT
ATOM      1  C   UNL A   1      31.248  31.021  25.806  1.00  0.00     0.023 C 
ENDROOT
BRANCH   1   2
ATOM      2  C   UNL A   1      31.234  29.740  24.975  1.00  0.00     0.116 C 
BRANCH   2   3
ATOM      3  N   UNL A   1      30.628  29.982  23.678  1.00  0.00    -0.353 N 
ATOM      4  C   UNL A   1      30.414  29.126  22.644  1.00  0.00     0.243 C 
ATOM      5  O   UNL A   1      29.848  29.505  21.623  1.00  0.00    -0.270 OA
ATOM      6  H   UNL A   1      30.324  30.906  23.525  1.00  0.00     0.163 HD
BRANCH   4   7
ATOM      7  C   UNL A   1      30.734  27.694  22.809  1.00  0.00     0.072 C 
ATOM      8  C   UNL A   1      31.972  27.182  22.902  1.00  0.00     0.014 C 
BRANCH   8   9
ATOM      9  C   UNL A   1      32.197  25.750  23.166  1.00  0.00    -0.024 A 
ATOM     10  C   UNL A   1      32.228  22.966  23.548  1.00  0.00     0.139 A 
ATOM     11  C   UNL A   1      32.758  23.522  22.384  1.00  0.00     0.048 A 
ATOM     12  C   UNL A   1      31.863  23.800  24.600  1.00  0.00     0.130 A 
ATOM     13  C   UNL A   1      32.758  24.904  22.202  1.00  0.00     0.012 A 
ATOM     14  C   UNL A   1      31.818  25.194  24.395  1.00  0.00     0.034 A 
BRANCH  10  15
ATOM     15  O   UNL A   1      32.153  21.605  23.562  1.00  0.00    -0.495 OA
ATOM     16  C   UNL A   1      31.795  21.080  22.283  1.00  0.00     0.278 C 
ENDBRANCH  10  15
BRANCH  12  17
ATOM     17  S   UNL A   1      31.504  23.227  26.242  1.00  0.00     0.265 S 
ATOM     18  O   UNL A   1      31.484  24.380  27.117  1.00  0.00    -0.201 OA
ATOM     19  O   UNL A   1      30.329  22.384  26.119  1.00  0.00    -0.201 OA
BRANCH  17  20
ATOM     20  N   UNL A   1      32.709  22.191  26.799  1.00  0.00    -0.277 N 
ATOM     21  H   UNL A   1      32.482  21.566  27.525  1.00  0.00     0.180 HD
BRANCH  20  22
ATOM     22  C   UNL A   1      34.041  22.168  26.282  1.00  0.00     0.085 A 
ATOM     23  C   UNL A   1      34.783  23.349  26.437  1.00  0.00     0.033 A 
ATOM     24  C   UNL A   1      34.653  21.056  25.692  1.00  0.00     0.150 A 
ATOM     25  C   UNL A   1      36.143  23.369  26.130  1.00  0.00     0.041 A 
ATOM     26  C   UNL A   1      36.009  21.074  25.381  1.00  0.00     0.080 A 
ATOM     27  F   UNL A   1      33.969  19.925  25.478  1.00  0.00    -0.205 F 
ATOM     28  C   UNL A   1      36.747  22.224  25.625  1.00  0.00     0.126 A 
ATOM     29  F   UNL A   1      38.063  22.231  25.381  1.00  0.00    -0.207 F 
ENDBRANCH  20  22
ENDBRANCH  17  20
ENDBRANCH  12  17
ENDBRANCH   8   9
ENDBRANCH   4   7
ENDBRANCH   2   3
ENDBRANCH   1   2
BRANCH   1  30
ATOM     30  C   UNL A   1      32.140  30.951  27.051  1.00  0.00     0.023 C 
BRANCH  30  31
ATOM     31  C   UNL A   1      33.275  31.973  27.098  1.00  0.00     0.116 C 
BRANCH  31  32
ATOM     32  N   UNL A   1      32.824  33.309  27.449  1.00  0.00    -0.352 N 
ATOM     33  C   UNL A   1      33.270  34.132  28.456  1.00  0.00     0.251 C 
ATOM     34  H   UNL A   1      32.099  33.674  26.891  1.00  0.00     0.163 HD
ATOM     35  O   UNL A   1      32.691  35.190  28.681  1.00  0.00    -0.269 OA
BRANCH  33  36
ATOM     36  C   UNL A   1      34.420  33.714  29.286  1.00  0.00     0.039 A 
ATOM     37  C   UNL A   1      34.190  32.869  30.375  1.00  0.00     0.014 A 
ATOM     38  C   UNL A   1      35.717  34.139  28.984  1.00  0.00     0.014 A 
ATOM     39  C   UNL A   1      35.270  32.391  31.119  1.00  0.00     0.010 A 
ATOM     40  C   UNL A   1      36.797  33.616  29.692  1.00  0.00     0.010 A 
ATOM     41  C   UNL A   1      36.584  32.731  30.761  1.00  0.00    -0.014 A 
BRANCH  41  42
ATOM     42  C   UNL A   1      37.749  32.163  31.485  1.00  0.00     0.031 A 
ATOM     43  C   UNL A   1      38.566  31.066  30.859  1.00  0.00     0.074 A 
ATOM     44  C   UNL A   1      38.031  32.592  32.732  1.00  0.00     0.049 A 
ATOM     45  N   UNL A   1      39.561  30.385  31.363  1.00  0.00    -0.248 NA
ATOM     46  C   UNL A   1      38.191  30.667  29.494  1.00  0.00     0.031 C 
ATOM     47  C   UNL A   1      37.291  33.628  33.455  1.00  0.00     0.029 A 
ATOM     48  N   UNL A   1      39.009  32.207  33.613  1.00  0.00    -0.354 N 
ATOM     49  C   UNL A   1      39.924  29.463  30.386  1.00  0.00     0.074 A 
ATOM     50  C   UNL A   1      39.006  29.644  29.280  1.00  0.00     0.031 C 
ATOM     51  C   UNL A   1      37.858  33.814  34.658  1.00  0.00     0.029 A 
ATOM     52  C   UNL A   1      38.972  32.884  34.810  1.00  0.00     0.049 A 
ATOM     53  H   UNL A   1      39.674  31.512  33.408  1.00  0.00     0.167 HD
ATOM     54  C   UNL A   1      40.937  28.562  30.406  1.00  0.00     0.034 A 
ATOM     55  C   UNL A   1      39.744  32.764  35.907  1.00  0.00     0.034 A 
ATOM     56  C   UNL A   1      41.855  28.407  31.509  1.00  0.00     0.049 A 
ATOM     57  C   UNL A   1      40.857  31.748  35.907  1.00  0.00     0.074 A 
ATOM     58  C   UNL A   1      42.946  27.561  31.611  1.00  0.00     0.029 A 
ATOM     59  N   UNL A   1      41.787  29.112  32.704  1.00  0.00    -0.354 N 
ATOM     60  N   UNL A   1      41.205  30.904  34.965  1.00  0.00    -0.248 NA
ATOM     61  C   UNL A   1      41.687  31.676  37.118  1.00  0.00     0.031 C 
ATOM     62  C   UNL A   1      43.503  27.714  32.885  1.00  0.00     0.029 A 
ATOM     63  C   UNL A   1      42.802  28.704  33.556  1.00  0.00     0.049 A 
ATOM     64  H   UNL A   1      41.116  29.800  32.915  1.00  0.00     0.167 HD
ATOM     65  C   UNL A   1      42.314  30.221  35.458  1.00  0.00     0.074 A 
ATOM     66  C   UNL A   1      42.581  30.760  36.776  1.00  0.00     0.031 C 
ATOM     67  C   UNL A   1      43.049  29.243  34.871  1.00  0.00     0.034 A 
BRANCH  54  68
ATOM     68  C   UNL A   1      41.085  27.660  29.205  1.00  0.00     0.023 A 
ATOM     69  C   UNL A   1      42.069  27.888  28.226  1.00  0.00     0.031 A 
ATOM     70  C   UNL A   1      40.216  26.569  29.024  1.00  0.00     0.131 A 
ATOM     71  C   UNL A   1      42.115  27.083  27.079  1.00  0.00     0.055 A 
ATOM     72  C   UNL A   1      40.317  25.724  27.917  1.00  0.00     0.041 A 
ATOM     73  F   UNL A   1      39.245  26.314  29.914  1.00  0.00    -0.206 F 
ATOM     74  C   UNL A   1      41.262  25.986  26.929  1.00  0.00     0.022 A 
BRANCH  71  75
ATOM     75  S   UNL A   1      43.222  27.563  25.726  1.00  0.00     0.124 S 
ATOM     76  O   UNL A   1      43.905  28.721  26.301  1.00  0.00    -0.237 OA
ATOM     77  O   UNL A   1      44.036  26.368  25.544  1.00  0.00    -0.237 OA
ATOM     78  O   UNL A   1      42.309  27.871  24.627  1.00  0.00    -0.744 OA
ENDBRANCH  71  75
ENDBRANCH  54  68
BRANCH  55  79
ATOM     79  C   UNL A   1      39.501  33.622  37.100  1.00  0.00     0.023 A 
ATOM     80  C   UNL A   1      38.809  33.122  38.214  1.00  0.00     0.031 A 
ATOM     81  C   UNL A   1      39.922  34.962  37.130  1.00  0.00     0.131 A 
ATOM     82  C   UNL A   1      38.521  33.968  39.296  1.00  0.00     0.055 A 
ATOM     83  C   UNL A   1      39.673  35.788  38.228  1.00  0.00     0.041 A 
ATOM     84  F   UNL A   1      40.595  35.486  36.093  1.00  0.00    -0.206 F 
ATOM     85  C   UNL A   1      38.958  35.294  39.314  1.00  0.00     0.022 A 
BRANCH  82  86
ATOM     86  S   UNL A   1      37.502  33.325  40.652  1.00  0.00     0.124 S 
ATOM     87  O   UNL A   1      36.452  32.621  39.927  1.00  0.00    -0.237 OA
ATOM     88  O   UNL A   1      38.455  32.490  41.376  1.00  0.00    -0.237 OA
ATOM     89  O   UNL A   1      37.075  34.532  41.357  1.00  0.00    -0.744 OA
ENDBRANCH  82  86
ENDBRANCH  55  79
BRANCH  67  90
ATOM     90  C   UNL A   1      44.240  28.731  35.641  1.00  0.00     0.023 A 
ATOM     91  C   UNL A   1      44.134  27.656  36.540  1.00  0.00     0.031 A 
ATOM     92  C   UNL A   1      45.498  29.341  35.479  1.00  0.00     0.131 A 
ATOM     93  C   UNL A   1      45.255  27.255  37.282  1.00  0.00     0.055 A 
ATOM     94  C   UNL A   1      46.621  28.902  36.180  1.00  0.00     0.041 A 
ATOM     95  F   UNL A   1      45.653  30.372  34.633  1.00  0.00    -0.206 F 
ATOM     96  C   UNL A   1      46.501  27.862  37.096  1.00  0.00     0.022 A 
BRANCH  93  97
ATOM     97  S   UNL A   1      45.046  25.981  38.555  1.00  0.00     0.124 S 
ATOM     98  O   UNL A   1      46.424  25.727  38.961  1.00  0.00    -0.237 OA
ATOM     99  O   UNL A   1      44.206  26.657  39.539  1.00  0.00    -0.237 OA
ATOM    100  O   UNL A   1      44.398  24.883  37.839  1.00  0.00    -0.744 OA
ENDBRANCH  93  97
ENDBRANCH  67  90
ENDBRANCH  41  42
ENDBRANCH  33  36
ENDBRANCH  31  32
ENDBRANCH  30  31
ENDBRANCH   1  30
TORSDOF 19
ENDMDL
MODEL 3
REMARK VINA RESULT:     -11.8      2.079      7.896
REMARK SMILES COc1ccc(/C=C/C(=O)NCCCCNC(=O)c2ccc(-c3c4nc(c(-c5cc(S(=O)(=O)[O-])ccc5F)c5ccc([nH]5)c(-c5cc(S(=O)(=O)[O-])ccc5F)c5nc(c(-c6cc(S(=O)(=O)[O-])ccc6F)c6ccc3[nH]6)C=C5)C=C4)cc2)cc1S(=O)(=O)Nc1ccc(F)cc1F
REMARK SMILES IDX 13 1 12 2 11 3 9 4 10 5 8 7 7 8 6 9 3 10 4 11 83 12 5 13
REMARK SMILES IDX 82 14 2 15 1 16 84 17 85 18 86 19 87 20 88 22 89 23 94 24
REMARK SMILES IDX 90 25 93 26 95 27 91 28 92 29 14 30 15 31 16 32 17 33 18 35
REMARK SMILES IDX 19 36 20 37 81 38 21 39 80 40 22 41 23 42 24 43 74 44 25 45
REMARK SMILES IDX 79 46 73 47 75 48 26 49 78 50 72 51 71 52 27 54 59 55 39 56
REMARK SMILES IDX 58 57 40 58 43 59 57 60 76 61 41 62 42 63 56 65 77 66 44 67
REMARK SMILES IDX 28 68 29 69 37 70 30 71 36 72 38 73 35 74 31 75 32 76 33 77
REMARK SMILES IDX 34 78 60 79 61 80 69 81 62 82 68 83 70 84 67 85 63 86 64 87
REMARK SMILES IDX 65 88 66 89 45 90 46 91 54 92 47 93 53 94 55 95 52 96 48 97
REMARK SMILES IDX 49 98 50 99 51 100
REMARK H PARENT 11 6 87 21 16 34 75 53 43 64
REMARK Flexibility Score: inf
ROOT
ATOM      1  C   UNL A   1      31.052  31.696  25.916  1.00  0.00     0.023 C 
ENDROOT
BRANCH   1   2
ATOM      2  C   UNL A   1      31.375  30.286  25.425  1.00  0.00     0.116 C 
BRANCH   2   3
ATOM      3  N   UNL A   1      30.735  30.034  24.146  1.00  0.00    -0.353 N 
ATOM      4  C   UNL A   1      30.603  28.873  23.453  1.00  0.00     0.243 C 
ATOM      5  O   UNL A   1      29.991  28.843  22.389  1.00  0.00    -0.270 OA
ATOM      6  H   UNL A   1      30.335  30.824  23.717  1.00  0.00     0.163 HD
BRANCH   4   7
ATOM      7  C   UNL A   1      31.072  27.610  24.057  1.00  0.00     0.072 C 
ATOM      8  C   UNL A   1      30.292  26.558  24.359  1.00  0.00     0.014 C 
BRANCH   8   9
ATOM      9  C   UNL A   1      30.859  25.298  24.869  1.00  0.00    -0.024 A 
ATOM     10  C   UNL A   1      32.282  23.120  25.933  1.00  0.00     0.139 A 
ATOM     11  C   UNL A   1      31.333  23.787  26.708  1.00  0.00     0.048 A 
ATOM     12  C   UNL A   1      32.383  23.410  24.576  1.00  0.00     0.130 A 
ATOM     13  C   UNL A   1      30.615  24.856  26.175  1.00  0.00     0.012 A 
ATOM     14  C   UNL A   1      31.692  24.522  24.052  1.00  0.00     0.034 A 
BRANCH  10  15
ATOM     15  O   UNL A   1      33.021  22.184  26.593  1.00  0.00    -0.495 OA
ATOM     16  C   UNL A   1      33.543  22.691  27.822  1.00  0.00     0.278 C 
ENDBRANCH  10  15
BRANCH  12  17
ATOM     17  S   UNL A   1      33.287  22.417  23.414  1.00  0.00     0.265 S 
ATOM     18  O   UNL A   1      33.373  21.076  23.952  1.00  0.00    -0.201 OA
ATOM     19  O   UNL A   1      32.661  22.648  22.125  1.00  0.00    -0.201 OA
BRANCH  17  20
ATOM     20  N   UNL A   1      34.860  22.987  23.225  1.00  0.00    -0.277 N 
ATOM     21  H   UNL A   1      35.102  23.401  22.365  1.00  0.00     0.180 HD
BRANCH  20  22
ATOM     22  C   UNL A   1      35.864  22.904  24.238  1.00  0.00     0.085 A 
ATOM     23  C   UNL A   1      36.733  21.805  24.156  1.00  0.00     0.033 A 
ATOM     24  C   UNL A   1      36.062  23.850  25.251  1.00  0.00     0.150 A 
ATOM     25  C   UNL A   1      37.852  21.731  24.985  1.00  0.00     0.041 A 
ATOM     26  C   UNL A   1      37.175  23.776  26.083  1.00  0.00     0.080 A 
ATOM     27  F   UNL A   1      35.229  24.887  25.399  1.00  0.00    -0.205 F 
ATOM     28  C   UNL A   1      38.073  22.729  25.926  1.00  0.00     0.126 A 
ATOM     29  F   UNL A   1      39.175  22.681  26.685  1.00  0.00    -0.207 F 
ENDBRANCH  20  22
ENDBRANCH  17  20
ENDBRANCH  12  17
ENDBRANCH   8   9
ENDBRANCH   4   7
ENDBRANCH   2   3
ENDBRANCH   1   2
BRANCH   1  30
ATOM     30  C   UNL A   1      31.748  32.077  27.228  1.00  0.00     0.023 C 
BRANCH  30  31
ATOM     31  C   UNL A   1      32.914  33.053  27.088  1.00  0.00     0.116 C 
BRANCH  31  32
ATOM     32  N   UNL A   1      32.745  34.260  27.881  1.00  0.00    -0.352 N 
ATOM     33  C   UNL A   1      33.416  34.645  29.016  1.00  0.00     0.251 C 
ATOM     34  H   UNL A   1      32.055  34.885  27.561  1.00  0.00     0.163 HD
ATOM     35  O   UNL A   1      33.060  35.650  29.624  1.00  0.00    -0.269 OA
BRANCH  33  36
ATOM     36  C   UNL A   1      34.536  33.822  29.519  1.00  0.00     0.039 A 
ATOM     37  C   UNL A   1      35.838  34.154  29.136  1.00  0.00     0.014 A 
ATOM     38  C   UNL A   1      34.307  32.742  30.375  1.00  0.00     0.014 A 
ATOM     39  C   UNL A   1      36.917  33.447  29.668  1.00  0.00     0.010 A 
ATOM     40  C   UNL A   1      35.387  32.074  30.949  1.00  0.00     0.010 A 
ATOM     41  C   UNL A   1      36.703  32.426  30.607  1.00  0.00    -0.014 A 
BRANCH  41  42
ATOM     42  C   UNL A   1      37.840  31.722  31.251  1.00  0.00     0.031 A 
ATOM     43  C   UNL A   1      38.289  32.116  32.631  1.00  0.00     0.074 A 
ATOM     44  C   UNL A   1      38.506  30.771  30.566  1.00  0.00     0.049 A 
ATOM     45  N   UNL A   1      39.310  31.684  33.324  1.00  0.00    -0.248 NA
ATOM     46  C   UNL A   1      37.499  33.157  33.305  1.00  0.00     0.031 C 
ATOM     47  C   UNL A   1      38.183  30.325  29.209  1.00  0.00     0.029 A 
ATOM     48  N   UNL A   1      39.596  30.013  30.913  1.00  0.00    -0.354 N 
ATOM     49  C   UNL A   1      39.297  32.410  34.511  1.00  0.00     0.074 A 
ATOM     50  C   UNL A   1      38.194  33.344  34.418  1.00  0.00     0.031 C 
ATOM     51  C   UNL A   1      39.039  29.353  28.850  1.00  0.00     0.029 A 
ATOM     52  C   UNL A   1      39.996  29.138  29.930  1.00  0.00     0.049 A 
ATOM     53  H   UNL A   1      40.049  30.089  31.783  1.00  0.00     0.167 HD
ATOM     54  C   UNL A   1      40.120  32.294  35.583  1.00  0.00     0.034 A 
ATOM     55  C   UNL A   1      41.022  28.266  29.900  1.00  0.00     0.034 A 
ATOM     56  C   UNL A   1      41.203  31.345  35.668  1.00  0.00     0.049 A 
ATOM     57  C   UNL A   1      41.928  28.164  31.100  1.00  0.00     0.074 A 
ATOM     58  C   UNL A   1      42.064  31.111  36.727  1.00  0.00     0.029 A 
ATOM     59  N   UNL A   1      41.577  30.473  34.653  1.00  0.00    -0.354 N 
ATOM     60  N   UNL A   1      41.885  28.837  32.226  1.00  0.00    -0.248 NA
ATOM     61  C   UNL A   1      43.015  27.178  31.027  1.00  0.00     0.031 C 
ATOM     62  C   UNL A   1      42.991  30.139  36.333  1.00  0.00     0.029 A 
ATOM     63  C   UNL A   1      42.669  29.717  35.052  1.00  0.00     0.049 A 
ATOM     64  H   UNL A   1      41.132  30.403  33.778  1.00  0.00     0.167 HD
ATOM     65  C   UNL A   1      42.922  28.334  33.007  1.00  0.00     0.074 A 
ATOM     66  C   UNL A   1      43.564  27.296  32.227  1.00  0.00     0.031 C 
ATOM     67  C   UNL A   1      43.304  28.693  34.259  1.00  0.00     0.034 A 
BRANCH  54  68
ATOM     68  C   UNL A   1      39.890  33.239  36.737  1.00  0.00     0.023 A 
ATOM     69  C   UNL A   1      39.288  32.812  37.934  1.00  0.00     0.031 A 
ATOM     70  C   UNL A   1      40.257  34.593  36.632  1.00  0.00     0.131 A 
ATOM     71  C   UNL A   1      39.007  33.739  38.947  1.00  0.00     0.055 A 
ATOM     72  C   UNL A   1      40.045  35.497  37.675  1.00  0.00     0.041 A 
ATOM     73  F   UNL A   1      40.817  35.064  35.507  1.00  0.00    -0.206 F 
ATOM     74  C   UNL A   1      39.404  35.075  38.837  1.00  0.00     0.022 A 
BRANCH  71  75
ATOM     75  S   UNL A   1      38.003  33.205  40.359  1.00  0.00     0.124 S 
ATOM     76  O   UNL A   1      38.206  34.308  41.297  1.00  0.00    -0.237 OA
ATOM     77  O   UNL A   1      36.671  33.099  39.778  1.00  0.00    -0.237 OA
ATOM     78  O   UNL A   1      38.614  31.938  40.757  1.00  0.00    -0.744 OA
ENDBRANCH  71  75
ENDBRANCH  54  68
BRANCH  55  79
ATOM     79  C   UNL A   1      41.256  27.415  28.700  1.00  0.00     0.023 A 
ATOM     80  C   UNL A   1      42.278  27.726  27.789  1.00  0.00     0.031 A 
ATOM     81  C   UNL A   1      40.441  26.304  28.426  1.00  0.00     0.131 A 
ATOM     82  C   UNL A   1      42.433  26.959  26.624  1.00  0.00     0.055 A 
ATOM     83  C   UNL A   1      40.628  25.516  27.288  1.00  0.00     0.041 A 
ATOM     84  F   UNL A   1      39.455  25.961  29.270  1.00  0.00    -0.206 F 
ATOM     85  C   UNL A   1      41.622  25.850  26.374  1.00  0.00     0.022 A 
BRANCH  82  86
ATOM     86  S   UNL A   1      43.671  27.477  25.403  1.00  0.00     0.124 S 
ATOM     87  O   UNL A   1      42.858  27.633  24.204  1.00  0.00    -0.237 OA
ATOM     88  O   UNL A   1      44.184  28.707  25.997  1.00  0.00    -0.237 OA
ATOM     89  O   UNL A   1      44.613  26.360  25.380  1.00  0.00    -0.744 OA
ENDBRANCH  82  86
ENDBRANCH  55  79
BRANCH  67  90
ATOM     90  C   UNL A   1      44.442  27.918  34.873  1.00  0.00     0.023 A 
ATOM     91  C   UNL A   1      44.221  26.770  35.654  1.00  0.00     0.031 A 
ATOM     92  C   UNL A   1      45.769  28.346  34.682  1.00  0.00     0.131 A 
ATOM     93  C   UNL A   1      45.306  26.118  36.258  1.00  0.00     0.055 A 
ATOM     94  C   UNL A   1      46.848  27.662  35.242  1.00  0.00     0.041 A 
ATOM     95  F   UNL A   1      46.035  29.437  33.946  1.00  0.00    -0.206 F 
ATOM     96  C   UNL A   1      46.619  26.549  36.045  1.00  0.00     0.022 A 
BRANCH  93  97
ATOM     97  S   UNL A   1      44.973  24.745  37.396  1.00  0.00     0.124 S 
ATOM     98  O   UNL A   1      46.136  24.791  38.276  1.00  0.00    -0.237 OA
ATOM     99  O   UNL A   1      43.702  25.139  37.996  1.00  0.00    -0.237 OA
ATOM    100  O   UNL A   1      44.907  23.579  36.517  1.00  0.00    -0.744 OA
ENDBRANCH  93  97
ENDBRANCH  67  90
ENDBRANCH  41  42
ENDBRANCH  33  36
ENDBRANCH  31  32
ENDBRANCH  30  31
ENDBRANCH   1  30
TORSDOF 19
ENDMDL
