MODEL 1
REMARK VINA RESULT:     -10.6      0.000      0.000
REMARK SMILES COCCS(=O)(=O)Cc1ccc(C(=O)NCCCCNC(=O)c2ccc(-c3c4nc(c(-c5cc(S(=O)(=O)[O-])ccc5F)c5ccc([nH]5)c(-c5cc(S(=O)(=O)[O-])ccc5F)c5nc(c(-c6cc(S(=O)(=O)[O-])ccc6F)c6ccc3[nH]6)C=C5)C=C4)cc2)cn1
REMARK SMILES IDX 16 1 15 2 13 3 14 4 12 6 9 7 10 8 87 9 11 10 86 11 8 12 5 13
REMARK SMILES IDX 6 14 7 15 4 16 3 17 2 18 1 19 17 20 18 21 19 22 20 23 21 24
REMARK SMILES IDX 22 26 23 27 24 28 85 29 25 30 84 31 26 32 27 33 28 34 78 35
REMARK SMILES IDX 29 36 83 37 77 38 79 39 30 40 82 41 76 42 75 43 31 45 63 46
REMARK SMILES IDX 43 47 62 48 44 49 47 50 61 51 80 52 45 53 46 54 60 56 81 57
REMARK SMILES IDX 48 58 32 59 33 60 41 61 34 62 40 63 42 64 39 65 35 66 36 67
REMARK SMILES IDX 37 68 38 69 64 70 65 71 73 72 66 73 72 74 74 75 71 76 67 77
REMARK SMILES IDX 68 78 69 79 70 80 49 81 50 82 58 83 51 84 57 85 59 86 56 87
REMARK SMILES IDX 52 88 53 89 54 90 55 91
REMARK H PARENT 15 5 20 25 79 44 47 55
REMARK Flexibility Score: inf
ROOT
ATOM      1  C   UNL A   1      35.627  20.773  24.985  1.00  0.00     0.116 C 
ENDROOT
BRANCH   1   2
ATOM      2  N   UNL A   1      34.914  21.046  26.216  1.00  0.00    -0.352 N 
ATOM      3  C   UNL A   1      34.130  22.088  26.637  1.00  0.00     0.252 C 
ATOM      4  O   UNL A   1      33.630  21.995  27.759  1.00  0.00    -0.269 OA
ATOM      5  H   UNL A   1      35.014  20.336  26.892  1.00  0.00     0.163 HD
BRANCH   3   6
ATOM      6  C   UNL A   1      33.821  23.296  25.828  1.00  0.00     0.058 A 
ATOM      7  C   UNL A   1      33.133  25.705  24.607  1.00  0.00     0.055 A 
ATOM      8  C   UNL A   1      33.702  24.682  23.850  1.00  0.00     0.026 A 
ATOM      9  N   UNL A   1      32.946  25.573  25.935  1.00  0.00    -0.259 NA
ATOM     10  C   UNL A   1      34.059  23.479  24.470  1.00  0.00     0.017 A 
ATOM     11  C   UNL A   1      33.283  24.385  26.509  1.00  0.00     0.125 A 
BRANCH   7  12
ATOM     12  C   UNL A   1      32.833  27.027  23.974  1.00  0.00     0.193 C 
BRANCH  12  13
ATOM     13  S   UNL A   1      31.284  27.728  24.520  1.00  0.00     0.158 S 
ATOM     14  O   UNL A   1      31.592  28.498  25.718  1.00  0.00    -0.228 OA
ATOM     15  O   UNL A   1      30.320  26.647  24.638  1.00  0.00    -0.228 OA
BRANCH  13  16
ATOM     16  C   UNL A   1      30.655  28.866  23.286  1.00  0.00     0.165 C 
BRANCH  16  17
ATOM     17  C   UNL A   1      29.294  28.487  22.733  1.00  0.00     0.176 C 
BRANCH  17  18
ATOM     18  O   UNL A   1      28.884  29.375  21.692  1.00  0.00    -0.384 OA
ATOM     19  C   UNL A   1      29.192  30.735  21.947  1.00  0.00     0.194 C 
ENDBRANCH  17  18
ENDBRANCH  16  17
ENDBRANCH  13  16
ENDBRANCH  12  13
ENDBRANCH   7  12
ENDBRANCH   3   6
ENDBRANCH   1   2
BRANCH   1  20
ATOM     20  C   UNL A   1      37.064  21.290  25.057  1.00  0.00     0.023 C 
BRANCH  20  21
ATOM     21  C   UNL A   1      38.135  20.191  25.043  1.00  0.00     0.023 C 
BRANCH  21  22
ATOM     22  C   UNL A   1      39.388  20.486  25.866  1.00  0.00     0.116 C 
BRANCH  22  23
ATOM     23  N   UNL A   1      40.318  19.369  25.917  1.00  0.00    -0.352 N 
ATOM     24  C   UNL A   1      41.678  19.394  26.122  1.00  0.00     0.251 C 
ATOM     25  H   UNL A   1      39.921  18.478  25.788  1.00  0.00     0.163 HD
ATOM     26  O   UNL A   1      42.327  18.361  26.023  1.00  0.00    -0.269 OA
BRANCH  24  27
ATOM     27  C   UNL A   1      42.346  20.681  26.413  1.00  0.00     0.039 A 
ATOM     28  C   UNL A   1      42.840  21.437  25.347  1.00  0.00     0.014 A 
ATOM     29  C   UNL A   1      42.455  21.153  27.723  1.00  0.00     0.014 A 
ATOM     30  C   UNL A   1      43.379  22.702  25.590  1.00  0.00     0.010 A 
ATOM     31  C   UNL A   1      42.937  22.439  27.956  1.00  0.00     0.010 A 
ATOM     32  C   UNL A   1      43.397  23.229  26.892  1.00  0.00    -0.014 A 
BRANCH  32  33
ATOM     33  C   UNL A   1      43.885  24.607  27.159  1.00  0.00     0.031 A 
ATOM     34  C   UNL A   1      42.940  25.652  27.685  1.00  0.00     0.074 A 
ATOM     35  C   UNL A   1      45.159  24.932  26.860  1.00  0.00     0.049 A 
ATOM     36  N   UNL A   1      43.149  26.925  27.901  1.00  0.00    -0.248 NA
ATOM     37  C   UNL A   1      41.568  25.209  27.975  1.00  0.00     0.031 C 
ATOM     38  C   UNL A   1      46.156  24.014  26.304  1.00  0.00     0.029 A 
ATOM     39  N   UNL A   1      45.830  26.123  26.969  1.00  0.00    -0.354 N 
ATOM     40  C   UNL A   1      41.933  27.440  28.337  1.00  0.00     0.074 A 
ATOM     41  C   UNL A   1      40.980  26.351  28.298  1.00  0.00     0.031 C 
ATOM     42  C   UNL A   1      47.316  24.672  26.141  1.00  0.00     0.029 A 
ATOM     43  C   UNL A   1      47.136  26.065  26.538  1.00  0.00     0.049 A 
ATOM     44  H   UNL A   1      45.417  26.944  27.322  1.00  0.00     0.167 HD
ATOM     45  C   UNL A   1      41.646  28.699  28.753  1.00  0.00     0.034 A 
ATOM     46  C   UNL A   1      48.077  27.027  26.461  1.00  0.00     0.034 A 
ATOM     47  C   UNL A   1      42.613  29.768  28.800  1.00  0.00     0.049 A 
ATOM     48  C   UNL A   1      47.731  28.421  26.916  1.00  0.00     0.074 A 
ATOM     49  C   UNL A   1      42.447  31.064  29.259  1.00  0.00     0.029 A 
ATOM     50  N   UNL A   1      43.929  29.670  28.365  1.00  0.00    -0.354 N 
ATOM     51  N   UNL A   1      46.590  28.881  27.377  1.00  0.00    -0.248 NA
ATOM     52  C   UNL A   1      48.802  29.424  26.850  1.00  0.00     0.031 C 
ATOM     53  C   UNL A   1      43.640  31.764  29.044  1.00  0.00     0.029 A 
ATOM     54  C   UNL A   1      44.576  30.888  28.518  1.00  0.00     0.049 A 
ATOM     55  H   UNL A   1      44.343  28.854  28.001  1.00  0.00     0.167 HD
ATOM     56  C   UNL A   1      46.818  30.219  27.687  1.00  0.00     0.074 A 
ATOM     57  C   UNL A   1      48.206  30.487  27.372  1.00  0.00     0.031 C 
ATOM     58  C   UNL A   1      45.959  31.142  28.190  1.00  0.00     0.034 A 
BRANCH  45  59
ATOM     59  C   UNL A   1      40.221  28.986  29.163  1.00  0.00     0.023 A 
ATOM     60  C   UNL A   1      39.831  29.004  30.514  1.00  0.00     0.031 A 
ATOM     61  C   UNL A   1      39.230  29.211  28.192  1.00  0.00     0.131 A 
ATOM     62  C   UNL A   1      38.479  29.161  30.853  1.00  0.00     0.055 A 
ATOM     63  C   UNL A   1      37.899  29.451  28.539  1.00  0.00     0.041 A 
ATOM     64  F   UNL A   1      39.536  29.187  26.884  1.00  0.00    -0.206 F 
ATOM     65  C   UNL A   1      37.513  29.411  29.876  1.00  0.00     0.022 A 
BRANCH  62  66
ATOM     66  S   UNL A   1      37.981  28.886  32.574  1.00  0.00     0.124 S 
ATOM     67  O   UNL A   1      36.606  29.380  32.566  1.00  0.00    -0.237 OA
ATOM     68  O   UNL A   1      38.142  27.445  32.723  1.00  0.00    -0.237 OA
ATOM     69  O   UNL A   1      38.923  29.702  33.339  1.00  0.00    -0.744 OA
ENDBRANCH  62  66
ENDBRANCH  45  59
BRANCH  46  70
ATOM     70  C   UNL A   1      49.434  26.716  25.930  1.00  0.00     0.023 A 
ATOM     71  C   UNL A   1      49.816  27.121  24.641  1.00  0.00     0.031 A 
ATOM     72  C   UNL A   1      50.356  25.970  26.687  1.00  0.00     0.131 A 
ATOM     73  C   UNL A   1      51.065  26.739  24.129  1.00  0.00     0.055 A 
ATOM     74  C   UNL A   1      51.617  25.636  26.191  1.00  0.00     0.041 A 
ATOM     75  F   UNL A   1      50.045  25.564  27.928  1.00  0.00    -0.206 F 
ATOM     76  C   UNL A   1      51.973  26.010  24.900  1.00  0.00     0.022 A 
BRANCH  73  77
ATOM     77  S   UNL A   1      51.455  27.143  22.404  1.00  0.00     0.124 S 
ATOM     78  O   UNL A   1      51.584  28.595  22.460  1.00  0.00    -0.237 OA
ATOM     79  O   UNL A   1      52.689  26.397  22.190  1.00  0.00    -0.237 OA
ATOM     80  O   UNL A   1      50.293  26.647  21.668  1.00  0.00    -0.744 OA
ENDBRANCH  73  77
ENDBRANCH  46  70
BRANCH  58  81
ATOM     81  C   UNL A   1      46.519  32.514  28.474  1.00  0.00     0.023 A 
ATOM     82  C   UNL A   1      46.728  33.455  27.451  1.00  0.00     0.031 A 
ATOM     83  C   UNL A   1      46.861  32.877  29.789  1.00  0.00     0.131 A 
ATOM     84  C   UNL A   1      47.314  34.694  27.751  1.00  0.00     0.055 A 
ATOM     85  C   UNL A   1      47.390  34.133  30.090  1.00  0.00     0.041 A 
ATOM     86  F   UNL A   1      46.685  32.016  30.804  1.00  0.00    -0.206 F 
ATOM     87  C   UNL A   1      47.631  35.044  29.066  1.00  0.00     0.022 A 
BRANCH  84  88
ATOM     88  S   UNL A   1      47.739  35.810  26.387  1.00  0.00     0.124 S 
ATOM     89  O   UNL A   1      46.428  36.306  25.980  1.00  0.00    -0.237 OA
ATOM     90  O   UNL A   1      48.612  36.780  27.038  1.00  0.00    -0.237 OA
ATOM     91  O   UNL A   1      48.398  34.935  25.419  1.00  0.00    -0.744 OA
ENDBRANCH  84  88
ENDBRANCH  58  81
ENDBRANCH  32  33
ENDBRANCH  24  27
ENDBRANCH  22  23
ENDBRANCH  21  22
ENDBRANCH  20  21
ENDBRANCH   1  20
TORSDOF 19
ENDMDL
MODEL 2
REMARK VINA RESULT:     -10.4      2.578      8.060
REMARK SMILES COCCS(=O)(=O)Cc1ccc(C(=O)NCCCCNC(=O)c2ccc(-c3c4nc(c(-c5cc(S(=O)(=O)[O-])ccc5F)c5ccc([nH]5)c(-c5cc(S(=O)(=O)[O-])ccc5F)c5nc(c(-c6cc(S(=O)(=O)[O-])ccc6F)c6ccc3[nH]6)C=C5)C=C4)cc2)cn1
REMARK SMILES IDX 16 1 15 2 13 3 14 4 12 6 9 7 10 8 87 9 11 10 86 11 8 12 5 13
REMARK SMILES IDX 6 14 7 15 4 16 3 17 2 18 1 19 17 20 18 21 19 22 20 23 21 24
REMARK SMILES IDX 22 26 23 27 24 28 85 29 25 30 84 31 26 32 27 33 28 34 78 35
REMARK SMILES IDX 29 36 83 37 77 38 79 39 30 40 82 41 76 42 75 43 31 45 63 46
REMARK SMILES IDX 43 47 62 48 44 49 47 50 61 51 80 52 45 53 46 54 60 56 81 57
REMARK SMILES IDX 48 58 32 59 33 60 41 61 34 62 40 63 42 64 39 65 35 66 36 67
REMARK SMILES IDX 37 68 38 69 64 70 65 71 73 72 66 73 72 74 74 75 71 76 67 77
REMARK SMILES IDX 68 78 69 79 70 80 49 81 50 82 58 83 51 84 57 85 59 86 56 87
REMARK SMILES IDX 52 88 53 89 54 90 55 91
REMARK H PARENT 15 5 20 25 79 44 47 55
REMARK Flexibility Score: inf
ROOT
ATOM      1  C   UNL A   1      33.686  20.554  24.328  1.00  0.00     0.116 C 
ENDROOT
BRANCH   1   2
ATOM      2  N   UNL A   1      32.449  20.832  25.031  1.00  0.00    -0.352 N 
ATOM      3  C   UNL A   1      31.788  21.991  25.345  1.00  0.00     0.252 C 
ATOM      4  O   UNL A   1      30.713  21.879  25.935  1.00  0.00    -0.269 OA
ATOM      5  H   UNL A   1      31.990  20.022  25.349  1.00  0.00     0.163 HD
BRANCH   3   6
ATOM      6  C   UNL A   1      32.260  23.356  24.998  1.00  0.00     0.058 A 
ATOM      7  C   UNL A   1      33.012  25.861  24.035  1.00  0.00     0.055 A 
ATOM      8  C   UNL A   1      33.277  25.521  25.361  1.00  0.00     0.026 A 
ATOM      9  N   UNL A   1      32.356  25.019  23.213  1.00  0.00    -0.259 NA
ATOM     10  C   UNL A   1      32.885  24.267  25.844  1.00  0.00     0.017 A 
ATOM     11  C   UNL A   1      32.005  23.798  23.703  1.00  0.00     0.125 A 
BRANCH   7  12
ATOM     12  C   UNL A   1      33.343  27.232  23.533  1.00  0.00     0.193 C 
BRANCH  12  13
ATOM     13  S   UNL A   1      32.073  28.434  23.893  1.00  0.00     0.158 S 
ATOM     14  O   UNL A   1      30.980  27.693  24.507  1.00  0.00    -0.228 OA
ATOM     15  O   UNL A   1      31.790  29.167  22.669  1.00  0.00    -0.228 OA
BRANCH  13  16
ATOM     16  C   UNL A   1      32.672  29.622  25.094  1.00  0.00     0.165 C 
BRANCH  16  17
ATOM     17  C   UNL A   1      32.723  29.091  26.515  1.00  0.00     0.176 C 
BRANCH  17  18
ATOM     18  O   UNL A   1      32.714  30.151  27.472  1.00  0.00    -0.384 OA
ATOM     19  C   UNL A   1      33.892  30.940  27.462  1.00  0.00     0.194 C 
ENDBRANCH  17  18
ENDBRANCH  16  17
ENDBRANCH  13  16
ENDBRANCH  12  13
ENDBRANCH   7  12
ENDBRANCH   3   6
ENDBRANCH   1   2
BRANCH   1  20
ATOM     20  C   UNL A   1      34.838  20.342  25.311  1.00  0.00     0.023 C 
BRANCH  20  21
ATOM     21  C   UNL A   1      35.583  21.625  25.703  1.00  0.00     0.023 C 
BRANCH  21  22
ATOM     22  C   UNL A   1      36.957  21.808  25.062  1.00  0.00     0.116 C 
BRANCH  22  23
ATOM     23  N   UNL A   1      37.885  20.733  25.375  1.00  0.00    -0.352 N 
ATOM     24  C   UNL A   1      39.121  20.812  25.973  1.00  0.00     0.251 C 
ATOM     25  H   UNL A   1      37.589  19.828  25.124  1.00  0.00     0.163 HD
ATOM     26  O   UNL A   1      39.820  19.813  26.061  1.00  0.00    -0.269 OA
BRANCH  24  27
ATOM     27  C   UNL A   1      39.608  22.121  26.462  1.00  0.00     0.039 A 
ATOM     28  C   UNL A   1      40.656  22.146  27.384  1.00  0.00     0.014 A 
ATOM     29  C   UNL A   1      39.055  23.314  25.990  1.00  0.00     0.014 A 
ATOM     30  C   UNL A   1      41.200  23.370  27.779  1.00  0.00     0.010 A 
ATOM     31  C   UNL A   1      39.638  24.530  26.337  1.00  0.00     0.010 A 
ATOM     32  C   UNL A   1      40.721  24.570  27.229  1.00  0.00    -0.014 A 
BRANCH  32  33
ATOM     33  C   UNL A   1      41.344  25.876  27.568  1.00  0.00     0.031 A 
ATOM     34  C   UNL A   1      42.759  26.166  27.153  1.00  0.00     0.074 A 
ATOM     35  C   UNL A   1      40.657  26.768  28.310  1.00  0.00     0.049 A 
ATOM     36  N   UNL A   1      43.506  27.205  27.424  1.00  0.00    -0.248 NA
ATOM     37  C   UNL A   1      43.433  25.132  26.353  1.00  0.00     0.031 C 
ATOM     38  C   UNL A   1      39.292  26.581  28.808  1.00  0.00     0.029 A 
ATOM     39  N   UNL A   1      41.015  28.005  28.785  1.00  0.00    -0.354 N 
ATOM     40  C   UNL A   1      44.742  26.945  26.843  1.00  0.00     0.074 A 
ATOM     41  C   UNL A   1      44.659  25.624  26.255  1.00  0.00     0.031 C 
ATOM     42  C   UNL A   1      38.923  27.671  29.500  1.00  0.00     0.029 A 
ATOM     43  C   UNL A   1      40.035  28.616  29.533  1.00  0.00     0.049 A 
ATOM     44  H   UNL A   1      41.892  28.417  28.608  1.00  0.00     0.167 HD
ATOM     45  C   UNL A   1      45.838  27.744  26.785  1.00  0.00     0.034 A 
ATOM     46  C   UNL A   1      40.036  29.798  30.181  1.00  0.00     0.034 A 
ATOM     47  C   UNL A   1      45.898  29.065  27.363  1.00  0.00     0.049 A 
ATOM     48  C   UNL A   1      41.269  30.663  30.114  1.00  0.00     0.074 A 
ATOM     49  C   UNL A   1      46.932  29.983  27.313  1.00  0.00     0.029 A 
ATOM     50  N   UNL A   1      44.882  29.655  28.104  1.00  0.00    -0.354 N 
ATOM     51  N   UNL A   1      42.413  30.426  29.514  1.00  0.00    -0.248 NA
ATOM     52  C   UNL A   1      41.206  31.958  30.803  1.00  0.00     0.031 C 
ATOM     53  C   UNL A   1      46.568  31.099  28.075  1.00  0.00     0.029 A 
ATOM     54  C   UNL A   1      45.277  30.911  28.541  1.00  0.00     0.049 A 
ATOM     55  H   UNL A   1      44.009  29.242  28.293  1.00  0.00     0.167 HD
ATOM     56  C   UNL A   1      43.194  31.558  29.727  1.00  0.00     0.074 A 
ATOM     57  C   UNL A   1      42.385  32.481  30.498  1.00  0.00     0.031 C 
ATOM     58  C   UNL A   1      44.462  31.816  29.318  1.00  0.00     0.034 A 
BRANCH  45  59
ATOM     59  C   UNL A   1      47.062  27.194  26.094  1.00  0.00     0.023 A 
ATOM     60  C   UNL A   1      48.036  26.457  26.793  1.00  0.00     0.031 A 
ATOM     61  C   UNL A   1      47.279  27.434  24.726  1.00  0.00     0.131 A 
ATOM     62  C   UNL A   1      49.214  26.059  26.144  1.00  0.00     0.055 A 
ATOM     63  C   UNL A   1      48.415  26.963  24.065  1.00  0.00     0.041 A 
ATOM     64  F   UNL A   1      46.395  28.148  24.009  1.00  0.00    -0.206 F 
ATOM     65  C   UNL A   1      49.399  26.284  24.778  1.00  0.00     0.022 A 
BRANCH  62  66
ATOM     66  S   UNL A   1      50.563  25.376  27.144  1.00  0.00     0.124 S 
ATOM     67  O   UNL A   1      50.953  26.536  27.944  1.00  0.00    -0.237 OA
ATOM     68  O   UNL A   1      49.905  24.294  27.866  1.00  0.00    -0.237 OA
ATOM     69  O   UNL A   1      51.549  24.955  26.150  1.00  0.00    -0.744 OA
ENDBRANCH  62  66
ENDBRANCH  45  59
BRANCH  46  70
ATOM     70  C   UNL A   1      38.840  30.238  30.954  1.00  0.00     0.023 A 
ATOM     71  C   UNL A   1      37.935  31.167  30.416  1.00  0.00     0.031 A 
ATOM     72  C   UNL A   1      38.606  29.769  32.259  1.00  0.00     0.131 A 
ATOM     73  C   UNL A   1      36.866  31.635  31.196  1.00  0.00     0.055 A 
ATOM     74  C   UNL A   1      37.512  30.199  33.011  1.00  0.00     0.041 A 
ATOM     75  F   UNL A   1      39.436  28.874  32.817  1.00  0.00    -0.206 F 
ATOM     76  C   UNL A   1      36.642  31.148  32.485  1.00  0.00     0.022 A 
BRANCH  73  77
ATOM     77  S   UNL A   1      35.816  32.954  30.525  1.00  0.00     0.124 S 
ATOM     78  O   UNL A   1      36.380  33.134  29.193  1.00  0.00    -0.237 OA
ATOM     79  O   UNL A   1      34.492  32.345  30.585  1.00  0.00    -0.237 OA
ATOM     80  O   UNL A   1      36.032  34.064  31.452  1.00  0.00    -0.744 OA
ENDBRANCH  73  77
ENDBRANCH  46  70
BRANCH  58  81
ATOM     81  C   UNL A   1      45.029  33.171  29.661  1.00  0.00     0.023 A 
ATOM     82  C   UNL A   1      44.943  34.258  28.774  1.00  0.00     0.031 A 
ATOM     83  C   UNL A   1      45.679  33.372  30.893  1.00  0.00     0.131 A 
ATOM     84  C   UNL A   1      45.543  35.481  29.107  1.00  0.00     0.055 A 
ATOM     85  C   UNL A   1      46.224  34.607  31.244  1.00  0.00     0.041 A 
ATOM     86  F   UNL A   1      45.793  32.367  31.777  1.00  0.00    -0.206 F 
ATOM     87  C   UNL A   1      46.169  35.667  30.343  1.00  0.00     0.022 A 
BRANCH  84  88
ATOM     88  S   UNL A   1      45.574  36.803  27.866  1.00  0.00     0.124 S 
ATOM     89  O   UNL A   1      44.160  37.141  27.747  1.00  0.00    -0.237 OA
ATOM     90  O   UNL A   1      46.418  37.809  28.503  1.00  0.00    -0.237 OA
ATOM     91  O   UNL A   1      46.159  36.158  26.692  1.00  0.00    -0.744 OA
ENDBRANCH  84  88
ENDBRANCH  58  81
ENDBRANCH  32  33
ENDBRANCH  24  27
ENDBRANCH  22  23
ENDBRANCH  21  22
ENDBRANCH  20  21
ENDBRANCH   1  20
TORSDOF 19
ENDMDL
MODEL 3
REMARK VINA RESULT:     -10.3      2.331      8.090
REMARK SMILES COCCS(=O)(=O)Cc1ccc(C(=O)NCCCCNC(=O)c2ccc(-c3c4nc(c(-c5cc(S(=O)(=O)[O-])ccc5F)c5ccc([nH]5)c(-c5cc(S(=O)(=O)[O-])ccc5F)c5nc(c(-c6cc(S(=O)(=O)[O-])ccc6F)c6ccc3[nH]6)C=C5)C=C4)cc2)cn1
REMARK SMILES IDX 16 1 15 2 13 3 14 4 12 6 9 7 10 8 87 9 11 10 86 11 8 12 5 13
REMARK SMILES IDX 6 14 7 15 4 16 3 17 2 18 1 19 17 20 18 21 19 22 20 23 21 24
REMARK SMILES IDX 22 26 23 27 24 28 85 29 25 30 84 31 26 32 27 33 28 34 78 35
REMARK SMILES IDX 29 36 83 37 77 38 79 39 30 40 82 41 76 42 75 43 31 45 63 46
REMARK SMILES IDX 43 47 62 48 44 49 47 50 61 51 80 52 45 53 46 54 60 56 81 57
REMARK SMILES IDX 48 58 32 59 33 60 41 61 34 62 40 63 42 64 39 65 35 66 36 67
REMARK SMILES IDX 37 68 38 69 64 70 65 71 73 72 66 73 72 74 74 75 71 76 67 77
REMARK SMILES IDX 68 78 69 79 70 80 49 81 50 82 58 83 51 84 57 85 59 86 56 87
REMARK SMILES IDX 52 88 53 89 54 90 55 91
REMARK H PARENT 15 5 20 25 79 44 47 55
REMARK Flexibility Score: inf
ROOT
ATOM      1  C   UNL A   1      36.442  20.700  24.958  1.00  0.00     0.116 C 
ENDROOT
BRANCH   1   2
ATOM      2  N   UNL A   1      35.220  19.953  25.178  1.00  0.00    -0.352 N 
ATOM      3  C   UNL A   1      33.922  20.323  25.410  1.00  0.00     0.252 C 
ATOM      4  O   UNL A   1      33.093  19.419  25.522  1.00  0.00    -0.269 OA
ATOM      5  H   UNL A   1      35.350  18.977  25.158  1.00  0.00     0.163 HD
BRANCH   3   6
ATOM      6  C   UNL A   1      33.445  21.727  25.504  1.00  0.00     0.058 A 
ATOM      7  C   UNL A   1      32.244  24.242  25.574  1.00  0.00     0.055 A 
ATOM      8  C   UNL A   1      33.572  24.098  25.969  1.00  0.00     0.026 A 
ATOM      9  N   UNL A   1      31.505  23.179  25.198  1.00  0.00    -0.259 NA
ATOM     10  C   UNL A   1      34.168  22.831  25.946  1.00  0.00     0.017 A 
ATOM     11  C   UNL A   1      32.115  21.962  25.164  1.00  0.00     0.125 A 
BRANCH   7  12
ATOM     12  C   UNL A   1      31.570  25.574  25.682  1.00  0.00     0.193 C 
BRANCH  12  13
ATOM     13  S   UNL A   1      31.696  26.545  24.189  1.00  0.00     0.158 S 
ATOM     14  O   UNL A   1      33.057  27.065  24.162  1.00  0.00    -0.228 OA
ATOM     15  O   UNL A   1      30.604  27.505  24.185  1.00  0.00    -0.228 OA
BRANCH  13  16
ATOM     16  C   UNL A   1      31.483  25.495  22.752  1.00  0.00     0.165 C 
BRANCH  16  17
ATOM     17  C   UNL A   1      32.608  25.598  21.739  1.00  0.00     0.176 C 
BRANCH  17  18
ATOM     18  O   UNL A   1      33.665  24.684  22.034  1.00  0.00    -0.384 OA
ATOM     19  C   UNL A   1      33.265  23.324  22.021  1.00  0.00     0.194 C 
ENDBRANCH  17  18
ENDBRANCH  16  17
ENDBRANCH  13  16
ENDBRANCH  12  13
ENDBRANCH   7  12
ENDBRANCH   3   6
ENDBRANCH   1   2
BRANCH   1  20
ATOM     20  C   UNL A   1      37.661  19.777  24.982  1.00  0.00     0.023 C 
BRANCH  20  21
ATOM     21  C   UNL A   1      38.988  20.485  25.283  1.00  0.00     0.023 C 
BRANCH  21  22
ATOM     22  C   UNL A   1      39.744  19.969  26.506  1.00  0.00     0.116 C 
BRANCH  22  23
ATOM     23  N   UNL A   1      41.061  19.442  26.187  1.00  0.00    -0.352 N 
ATOM     24  C   UNL A   1      42.263  20.110  26.132  1.00  0.00     0.251 C 
ATOM     25  H   UNL A   1      41.097  18.480  25.983  1.00  0.00     0.163 HD
ATOM     26  O   UNL A   1      43.264  19.529  25.737  1.00  0.00    -0.269 OA
BRANCH  24  27
ATOM     27  C   UNL A   1      42.317  21.539  26.509  1.00  0.00     0.039 A 
ATOM     28  C   UNL A   1      42.415  21.874  27.862  1.00  0.00     0.014 A 
ATOM     29  C   UNL A   1      42.303  22.540  25.534  1.00  0.00     0.014 A 
ATOM     30  C   UNL A   1      42.573  23.211  28.232  1.00  0.00     0.010 A 
ATOM     31  C   UNL A   1      42.522  23.864  25.902  1.00  0.00     0.010 A 
ATOM     32  C   UNL A   1      42.665  24.213  27.253  1.00  0.00    -0.014 A 
BRANCH  32  33
ATOM     33  C   UNL A   1      42.922  25.630  27.622  1.00  0.00     0.031 A 
ATOM     34  C   UNL A   1      44.308  26.199  27.507  1.00  0.00     0.074 A 
ATOM     35  C   UNL A   1      41.920  26.377  28.127  1.00  0.00     0.049 A 
ATOM     36  N   UNL A   1      44.751  27.379  27.858  1.00  0.00    -0.248 NA
ATOM     37  C   UNL A   1      45.340  25.308  26.955  1.00  0.00     0.031 C 
ATOM     38  C   UNL A   1      40.542  25.921  28.325  1.00  0.00     0.029 A 
ATOM     39  N   UNL A   1      41.906  27.674  28.575  1.00  0.00    -0.354 N 
ATOM     40  C   UNL A   1      46.114  27.369  27.583  1.00  0.00     0.074 A 
ATOM     41  C   UNL A   1      46.432  26.044  27.092  1.00  0.00     0.031 C 
ATOM     42  C   UNL A   1      39.815  26.928  28.836  1.00  0.00     0.029 A 
ATOM     43  C   UNL A   1      40.679  28.086  29.042  1.00  0.00     0.049 A 
ATOM     44  H   UNL A   1      42.700  28.256  28.564  1.00  0.00     0.167 HD
ATOM     45  C   UNL A   1      47.013  28.378  27.708  1.00  0.00     0.034 A 
ATOM     46  C   UNL A   1      40.296  29.259  29.584  1.00  0.00     0.034 A 
ATOM     47  C   UNL A   1      46.675  29.697  28.185  1.00  0.00     0.049 A 
ATOM     48  C   UNL A   1      41.314  30.362  29.725  1.00  0.00     0.074 A 
ATOM     49  C   UNL A   1      47.490  30.811  28.294  1.00  0.00     0.029 A 
ATOM     50  N   UNL A   1      45.419  30.081  28.639  1.00  0.00    -0.354 N 
ATOM     51  N   UNL A   1      42.589  30.354  29.411  1.00  0.00    -0.248 NA
ATOM     52  C   UNL A   1      40.839  31.634  30.285  1.00  0.00     0.031 C 
ATOM     53  C   UNL A   1      46.746  31.846  28.873  1.00  0.00     0.029 A 
ATOM     54  C   UNL A   1      45.446  31.404  29.057  1.00  0.00     0.049 A 
ATOM     55  H   UNL A   1      44.626  29.499  28.662  1.00  0.00     0.167 HD
ATOM     56  C   UNL A   1      43.059  31.631  29.704  1.00  0.00     0.074 A 
ATOM     57  C   UNL A   1      41.929  32.384  30.209  1.00  0.00     0.031 C 
ATOM     58  C   UNL A   1      44.311  32.138  29.566  1.00  0.00     0.034 A 
BRANCH  45  59
ATOM     59  C   UNL A   1      48.448  28.079  27.345  1.00  0.00     0.023 A 
ATOM     60  C   UNL A   1      48.938  28.281  26.043  1.00  0.00     0.031 A 
ATOM     61  C   UNL A   1      49.331  27.553  28.304  1.00  0.00     0.131 A 
ATOM     62  C   UNL A   1      50.243  27.886  25.714  1.00  0.00     0.055 A 
ATOM     63  C   UNL A   1      50.656  27.240  27.992  1.00  0.00     0.041 A 
ATOM     64  F   UNL A   1      48.917  27.319  29.560  1.00  0.00    -0.206 F 
ATOM     65  C   UNL A   1      51.115  27.391  26.687  1.00  0.00     0.022 A 
BRANCH  62  66
ATOM     66  S   UNL A   1      50.735  27.891  23.970  1.00  0.00     0.124 S 
ATOM     67  O   UNL A   1      51.439  29.167  23.865  1.00  0.00    -0.237 OA
ATOM     68  O   UNL A   1      51.563  26.695  23.872  1.00  0.00    -0.237 OA
ATOM     69  O   UNL A   1      49.462  27.829  23.253  1.00  0.00    -0.744 OA
ENDBRANCH  62  66
ENDBRANCH  45  59
BRANCH  46  70
ATOM     70  C   UNL A   1      38.892  29.459  30.040  1.00  0.00     0.023 A 
ATOM     71  C   UNL A   1      37.944  30.080  29.211  1.00  0.00     0.031 A 
ATOM     72  C   UNL A   1      38.485  29.071  31.330  1.00  0.00     0.131 A 
ATOM     73  C   UNL A   1      36.652  30.339  29.694  1.00  0.00     0.055 A 
ATOM     74  C   UNL A   1      37.184  29.285  31.787  1.00  0.00     0.041 A 
ATOM     75  F   UNL A   1      39.348  28.467  32.161  1.00  0.00    -0.206 F 
ATOM     76  C   UNL A   1      36.262  29.934  30.972  1.00  0.00     0.022 A 
BRANCH  73  77
ATOM     77  S   UNL A   1      35.511  31.287  28.651  1.00  0.00     0.124 S 
ATOM     78  O   UNL A   1      36.433  32.032  27.802  1.00  0.00    -0.237 OA
ATOM     79  O   UNL A   1      34.749  30.228  27.997  1.00  0.00    -0.237 OA
ATOM     80  O   UNL A   1      34.758  32.089  29.614  1.00  0.00    -0.744 OA
ENDBRANCH  73  77
ENDBRANCH  46  70
BRANCH  58  81
ATOM     81  C   UNL A   1      44.503  33.591  29.923  1.00  0.00     0.023 A 
ATOM     82  C   UNL A   1      44.185  34.624  29.025  1.00  0.00     0.031 A 
ATOM     83  C   UNL A   1      45.028  33.944  31.180  1.00  0.00     0.131 A 
ATOM     84  C   UNL A   1      44.443  35.958  29.375  1.00  0.00     0.055 A 
ATOM     85  C   UNL A   1      45.228  35.275  31.545  1.00  0.00     0.041 A 
ATOM     86  F   UNL A   1      45.352  32.997  32.076  1.00  0.00    -0.206 F 
ATOM     87  C   UNL A   1      44.948  36.291  30.635  1.00  0.00     0.022 A 
BRANCH  84  88
ATOM     88  S   UNL A   1      44.194  37.250  28.127  1.00  0.00     0.124 S 
ATOM     89  O   UNL A   1      44.532  36.549  26.892  1.00  0.00    -0.237 OA
ATOM     90  O   UNL A   1      42.785  37.586  28.303  1.00  0.00    -0.237 OA
ATOM     91  O   UNL A   1      45.134  38.296  28.523  1.00  0.00    -0.744 OA
ENDBRANCH  84  88
ENDBRANCH  58  81
ENDBRANCH  32  33
ENDBRANCH  24  27
ENDBRANCH  22  23
ENDBRANCH  21  22
ENDBRANCH  20  21
ENDBRANCH   1  20
TORSDOF 19
ENDMDL
