MODEL 1
REMARK VINA RESULT:      -8.3      0.000      0.000
REMARK SMILES CC/C=C/C/C=C/C/C=C/C/C=C/CC/C=C/COCC(=O)NCCCCNC(=O)c1ccc(-c2c3nc(c(-c4cc(S(=O)(=O)[O-])ccc4F)c4ccc([nH]4)c(-c4cc(S(=O)(=O)[O-])ccc4F)c4nc(c(-c5cc(S(=O)(=O)[O-])ccc5F)c5ccc2[nH]5)C=C4)C=C3)cc1
REMARK SMILES IDX 18 1 17 2 16 3 15 4 14 5 13 6 12 7 11 8 10 9 9 10 8 11 7 12
REMARK SMILES IDX 6 13 5 14 4 15 3 16 2 17 1 18 19 19 20 20 21 21 22 22 23 23
REMARK SMILES IDX 24 25 25 26 26 27 27 28 28 29 29 30 30 32 31 33 32 34 93 35
REMARK SMILES IDX 33 36 92 37 34 38 35 39 36 40 86 41 37 42 91 43 85 44 87 45
REMARK SMILES IDX 38 46 90 47 84 48 83 49 39 51 71 52 51 53 70 54 52 55 55 56
REMARK SMILES IDX 69 57 88 58 53 59 54 60 68 62 89 63 56 64 40 65 41 66 49 67
REMARK SMILES IDX 42 68 48 69 50 70 47 71 43 72 44 73 45 74 46 75 72 76 73 77
REMARK SMILES IDX 81 78 74 79 80 80 82 81 79 82 75 83 76 84 77 85 78 86 57 87
REMARK SMILES IDX 58 88 66 89 59 90 65 91 67 92 64 93 60 94 61 95 62 96 63 97
REMARK H PARENT 23 24 28 31 87 50 55 61
REMARK Flexibility Score: inf
ROOT
ATOM      1  C   UNL A   1      46.839  41.735  23.250  1.00  0.00     0.188 C 
ENDROOT
BRANCH   1   2
ATOM      2  C   UNL A   1      46.652  42.959  22.409  1.00  0.00    -0.003 C 
ATOM      3  C   UNL A   1      45.747  43.031  21.422  1.00  0.00    -0.029 C 
BRANCH   3   4
ATOM      4  C   UNL A   1      45.641  44.168  20.444  1.00  0.00     0.031 C 
BRANCH   4   5
ATOM      5  C   UNL A   1      45.486  45.528  21.145  1.00  0.00     0.031 C 
BRANCH   5   6
ATOM      6  C   UNL A   1      45.246  46.661  20.184  1.00  0.00    -0.031 C 
ATOM      7  C   UNL A   1      45.573  47.940  20.422  1.00  0.00    -0.027 C 
BRANCH   7   8
ATOM      8  C   UNL A   1      45.274  49.067  19.474  1.00  0.00     0.054 C 
BRANCH   8   9
ATOM      9  C   UNL A   1      43.926  48.870  18.840  1.00  0.00    -0.027 C 
ATOM     10  C   UNL A   1      43.744  48.470  17.571  1.00  0.00    -0.027 C 
BRANCH  10  11
ATOM     11  C   UNL A   1      42.399  48.312  16.923  1.00  0.00     0.054 C 
BRANCH  11  12
ATOM     12  C   UNL A   1      42.031  46.858  16.824  1.00  0.00    -0.027 C 
ATOM     13  C   UNL A   1      41.929  46.034  17.879  1.00  0.00    -0.027 C 
BRANCH  13  14
ATOM     14  C   UNL A   1      41.590  44.574  17.779  1.00  0.00     0.054 C 
BRANCH  14  15
ATOM     15  C   UNL A   1      41.383  43.981  19.143  1.00  0.00    -0.027 C 
ATOM     16  C   UNL A   1      42.263  43.173  19.756  1.00  0.00    -0.031 C 
BRANCH  16  17
ATOM     17  C   UNL A   1      42.041  42.569  21.112  1.00  0.00     0.023 C 
ATOM     18  C   UNL A   1      42.066  43.634  22.199  1.00  0.00     0.008 C 
ENDBRANCH  16  17
ENDBRANCH  14  15
ENDBRANCH  13  14
ENDBRANCH  11  12
ENDBRANCH  10  11
ENDBRANCH   8   9
ENDBRANCH   7   8
ENDBRANCH   5   6
ENDBRANCH   4   5
ENDBRANCH   3   4
ENDBRANCH   1   2
BRANCH   1  19
ATOM     19  O   UNL A   1      46.535  42.031  24.614  1.00  0.00    -0.368 OA
BRANCH  19  20
ATOM     20  C   UNL A   1      45.259  41.561  25.035  1.00  0.00     0.260 C 
BRANCH  20  21
ATOM     21  C   UNL A   1      44.197  42.617  25.360  1.00  0.00     0.246 C 
ATOM     22  O   UNL A   1      44.456  43.822  25.379  1.00  0.00    -0.272 OA
ATOM     23  N   UNL A   1      42.919  42.206  25.618  1.00  0.00    -0.354 N 
ATOM     24  H   UNL A   1      42.257  42.919  25.774  1.00  0.00     0.163 HD
BRANCH  23  25
ATOM     25  C   UNL A   1      42.422  40.847  25.689  1.00  0.00     0.116 C 
BRANCH  25  26
ATOM     26  C   UNL A   1      42.591  40.253  27.086  1.00  0.00     0.023 C 
BRANCH  26  27
ATOM     27  C   UNL A   1      41.777  38.981  27.342  1.00  0.00     0.023 C 
BRANCH  27  28
ATOM     28  C   UNL A   1      42.543  37.673  27.180  1.00  0.00     0.116 C 
BRANCH  28  29
ATOM     29  N   UNL A   1      43.868  37.864  26.617  1.00  0.00    -0.352 N 
ATOM     30  C   UNL A   1      45.017  37.144  26.839  1.00  0.00     0.251 C 
ATOM     31  H   UNL A   1      43.955  38.614  25.987  1.00  0.00     0.163 HD
ATOM     32  O   UNL A   1      46.083  37.563  26.388  1.00  0.00    -0.269 OA
BRANCH  30  33
ATOM     33  C   UNL A   1      44.982  35.897  27.637  1.00  0.00     0.039 A 
ATOM     34  C   UNL A   1      44.534  34.723  27.026  1.00  0.00     0.014 A 
ATOM     35  C   UNL A   1      45.365  35.878  28.981  1.00  0.00     0.014 A 
ATOM     36  C   UNL A   1      44.507  33.528  27.750  1.00  0.00     0.010 A 
ATOM     37  C   UNL A   1      45.420  34.671  29.675  1.00  0.00     0.010 A 
ATOM     38  C   UNL A   1      44.971  33.485  29.076  1.00  0.00    -0.014 A 
BRANCH  38  39
ATOM     39  C   UNL A   1      44.943  32.217  29.854  1.00  0.00     0.031 A 
ATOM     40  C   UNL A   1      43.744  31.879  30.702  1.00  0.00     0.074 A 
ATOM     41  C   UNL A   1      46.001  31.382  29.818  1.00  0.00     0.049 A 
ATOM     42  N   UNL A   1      43.534  30.834  31.464  1.00  0.00    -0.248 NA
ATOM     43  C   UNL A   1      42.648  32.859  30.719  1.00  0.00     0.031 C 
ATOM     44  C   UNL A   1      47.238  31.618  29.068  1.00  0.00     0.029 A 
ATOM     45  N   UNL A   1      46.207  30.165  30.419  1.00  0.00    -0.354 N 
ATOM     46  C   UNL A   1      42.290  31.038  32.053  1.00  0.00     0.074 A 
ATOM     47  C   UNL A   1      41.831  32.339  31.621  1.00  0.00     0.031 C 
ATOM     48  C   UNL A   1      48.054  30.563  29.224  1.00  0.00     0.029 A 
ATOM     49  C   UNL A   1      47.423  29.595  30.116  1.00  0.00     0.049 A 
ATOM     50  H   UNL A   1      45.546  29.740  31.012  1.00  0.00     0.167 HD
ATOM     51  C   UNL A   1      41.580  30.203  32.854  1.00  0.00     0.034 A 
ATOM     52  C   UNL A   1      47.967  28.429  30.515  1.00  0.00     0.034 A 
ATOM     53  C   UNL A   1      42.046  28.902  33.267  1.00  0.00     0.049 A 
ATOM     54  C   UNL A   1      47.169  27.529  31.427  1.00  0.00     0.074 A 
ATOM     55  C   UNL A   1      41.393  27.957  34.040  1.00  0.00     0.029 A 
ATOM     56  N   UNL A   1      43.288  28.363  32.951  1.00  0.00    -0.354 N 
ATOM     57  N   UNL A   1      45.969  27.712  31.928  1.00  0.00    -0.248 NA
ATOM     58  C   UNL A   1      47.794  26.257  31.808  1.00  0.00     0.031 C 
ATOM     59  C   UNL A   1      42.265  26.883  34.251  1.00  0.00     0.029 A 
ATOM     60  C   UNL A   1      43.430  27.114  33.538  1.00  0.00     0.049 A 
ATOM     61  H   UNL A   1      43.966  28.804  32.390  1.00  0.00     0.167 HD
ATOM     62  C   UNL A   1      45.685  26.560  32.660  1.00  0.00     0.074 A 
ATOM     63  C   UNL A   1      46.827  25.683  32.507  1.00  0.00     0.031 C 
ATOM     64  C   UNL A   1      44.582  26.255  33.392  1.00  0.00     0.034 A 
BRANCH  51  65
ATOM     65  C   UNL A   1      40.236  30.691  33.347  1.00  0.00     0.023 A 
ATOM     66  C   UNL A   1      40.080  31.264  34.622  1.00  0.00     0.031 A 
ATOM     67  C   UNL A   1      39.089  30.555  32.546  1.00  0.00     0.131 A 
ATOM     68  C   UNL A   1      38.801  31.600  35.090  1.00  0.00     0.055 A 
ATOM     69  C   UNL A   1      37.830  30.975  32.983  1.00  0.00     0.041 A 
ATOM     70  F   UNL A   1      39.166  29.995  31.328  1.00  0.00    -0.206 F 
ATOM     71  C   UNL A   1      37.678  31.485  34.269  1.00  0.00     0.022 A 
BRANCH  68  72
ATOM     72  S   UNL A   1      38.606  32.036  36.840  1.00  0.00     0.124 S 
ATOM     73  O   UNL A   1      37.765  30.944  37.324  1.00  0.00    -0.237 OA
ATOM     74  O   UNL A   1      39.983  32.042  37.319  1.00  0.00    -0.237 OA
ATOM     75  O   UNL A   1      37.953  33.343  36.797  1.00  0.00    -0.744 OA
ENDBRANCH  68  72
ENDBRANCH  51  65
BRANCH  52  76
ATOM     76  C   UNL A   1      49.334  28.033  30.065  1.00  0.00     0.023 A 
ATOM     77  C   UNL A   1      49.522  27.252  28.914  1.00  0.00     0.031 A 
ATOM     78  C   UNL A   1      50.472  28.380  30.816  1.00  0.00     0.131 A 
ATOM     79  C   UNL A   1      50.806  26.796  28.577  1.00  0.00     0.055 A 
ATOM     80  C   UNL A   1      51.756  27.975  30.444  1.00  0.00     0.041 A 
ATOM     81  F   UNL A   1      50.353  29.127  31.926  1.00  0.00    -0.206 F 
ATOM     82  C   UNL A   1      51.926  27.164  29.326  1.00  0.00     0.022 A 
BRANCH  79  83
ATOM     83  S   UNL A   1      50.980  25.627  27.200  1.00  0.00     0.124 S 
ATOM     84  O   UNL A   1      50.350  26.359  26.109  1.00  0.00    -0.237 OA
ATOM     85  O   UNL A   1      52.428  25.471  27.117  1.00  0.00    -0.237 OA
ATOM     86  O   UNL A   1      50.253  24.447  27.663  1.00  0.00    -0.744 OA
ENDBRANCH  79  83
ENDBRANCH  52  76
BRANCH  64  87
ATOM     87  C   UNL A   1      44.554  24.892  34.047  1.00  0.00     0.023 A 
ATOM     88  C   UNL A   1      44.984  24.698  35.371  1.00  0.00     0.031 A 
ATOM     89  C   UNL A   1      44.130  23.764  33.321  1.00  0.00     0.131 A 
ATOM     90  C   UNL A   1      45.061  23.401  35.899  1.00  0.00     0.055 A 
ATOM     91  C   UNL A   1      44.134  22.485  33.879  1.00  0.00     0.041 A 
ATOM     92  F   UNL A   1      43.709  23.886  32.052  1.00  0.00    -0.206 F 
ATOM     93  C   UNL A   1      44.621  22.295  35.169  1.00  0.00     0.022 A 
BRANCH  90  94
ATOM     94  S   UNL A   1      45.877  23.164  37.503  1.00  0.00     0.124 S 
ATOM     95  O   UNL A   1      47.216  23.684  37.241  1.00  0.00    -0.237 OA
ATOM     96  O   UNL A   1      45.047  23.965  38.395  1.00  0.00    -0.237 OA
ATOM     97  O   UNL A   1      45.802  21.720  37.715  1.00  0.00    -0.744 OA
ENDBRANCH  90  94
ENDBRANCH  64  87
ENDBRANCH  38  39
ENDBRANCH  30  33
ENDBRANCH  28  29
ENDBRANCH  27  28
ENDBRANCH  26  27
ENDBRANCH  25  26
ENDBRANCH  23  25
ENDBRANCH  20  21
ENDBRANCH  19  20
ENDBRANCH   1  19
TORSDOF 27
ENDMDL
MODEL 2
REMARK VINA RESULT:      -8.0      7.535      9.849
REMARK SMILES CC/C=C/C/C=C/C/C=C/C/C=C/CC/C=C/COCC(=O)NCCCCNC(=O)c1ccc(-c2c3nc(c(-c4cc(S(=O)(=O)[O-])ccc4F)c4ccc([nH]4)c(-c4cc(S(=O)(=O)[O-])ccc4F)c4nc(c(-c5cc(S(=O)(=O)[O-])ccc5F)c5ccc2[nH]5)C=C4)C=C3)cc1
REMARK SMILES IDX 18 1 17 2 16 3 15 4 14 5 13 6 12 7 11 8 10 9 9 10 8 11 7 12
REMARK SMILES IDX 6 13 5 14 4 15 3 16 2 17 1 18 19 19 20 20 21 21 22 22 23 23
REMARK SMILES IDX 24 25 25 26 26 27 27 28 28 29 29 30 30 32 31 33 32 34 93 35
REMARK SMILES IDX 33 36 92 37 34 38 35 39 36 40 86 41 37 42 91 43 85 44 87 45
REMARK SMILES IDX 38 46 90 47 84 48 83 49 39 51 71 52 51 53 70 54 52 55 55 56
REMARK SMILES IDX 69 57 88 58 53 59 54 60 68 62 89 63 56 64 40 65 41 66 49 67
REMARK SMILES IDX 42 68 48 69 50 70 47 71 43 72 44 73 45 74 46 75 72 76 73 77
REMARK SMILES IDX 81 78 74 79 80 80 82 81 79 82 75 83 76 84 77 85 78 86 57 87
REMARK SMILES IDX 58 88 66 89 59 90 65 91 67 92 64 93 60 94 61 95 62 96 63 97
REMARK H PARENT 23 24 28 31 87 50 55 61
REMARK Flexibility Score: inf
ROOT
ATOM      1  C   UNL A   1      48.795  37.820  31.115  1.00  0.00     0.188 C 
ENDROOT
BRANCH   1   2
ATOM      2  C   UNL A   1      47.752  38.688  30.482  1.00  0.00    -0.003 C 
ATOM      3  C   UNL A   1      46.515  38.818  30.982  1.00  0.00    -0.029 C 
BRANCH   3   4
ATOM      4  C   UNL A   1      45.388  39.535  30.292  1.00  0.00     0.031 C 
BRANCH   4   5
ATOM      5  C   UNL A   1      44.009  39.085  30.802  1.00  0.00     0.031 C 
BRANCH   5   6
ATOM      6  C   UNL A   1      43.148  40.231  31.257  1.00  0.00    -0.031 C 
ATOM      7  C   UNL A   1      43.196  40.776  32.483  1.00  0.00    -0.027 C 
BRANCH   7   8
ATOM      8  C   UNL A   1      42.288  41.883  32.938  1.00  0.00     0.054 C 
BRANCH   8   9
ATOM      9  C   UNL A   1      42.587  43.146  32.180  1.00  0.00    -0.027 C 
ATOM     10  C   UNL A   1      43.825  43.565  31.877  1.00  0.00    -0.027 C 
BRANCH  10  11
ATOM     11  C   UNL A   1      44.128  44.846  31.155  1.00  0.00     0.054 C 
BRANCH  11  12
ATOM     12  C   UNL A   1      44.527  44.568  29.734  1.00  0.00    -0.027 C 
ATOM     13  C   UNL A   1      44.650  43.336  29.214  1.00  0.00    -0.027 C 
BRANCH  13  14
ATOM     14  C   UNL A   1      45.078  43.056  27.802  1.00  0.00     0.054 C 
BRANCH  14  15
ATOM     15  C   UNL A   1      44.853  41.612  27.454  1.00  0.00    -0.027 C 
ATOM     16  C   UNL A   1      43.643  41.038  27.363  1.00  0.00    -0.031 C 
BRANCH  16  17
ATOM     17  C   UNL A   1      43.426  39.590  27.031  1.00  0.00     0.023 C 
ATOM     18  C   UNL A   1      41.994  39.166  27.323  1.00  0.00     0.008 C 
ENDBRANCH  16  17
ENDBRANCH  14  15
ENDBRANCH  13  14
ENDBRANCH  11  12
ENDBRANCH  10  11
ENDBRANCH   8   9
ENDBRANCH   7   8
ENDBRANCH   5   6
ENDBRANCH   4   5
ENDBRANCH   3   4
ENDBRANCH   1   2
BRANCH   1  19
ATOM     19  O   UNL A   1      49.573  37.178  30.104  1.00  0.00    -0.368 OA
BRANCH  19  20
ATOM     20  C   UNL A   1      50.473  38.050  29.428  1.00  0.00     0.260 C 
BRANCH  20  21
ATOM     21  C   UNL A   1      50.127  38.432  27.985  1.00  0.00     0.246 C 
ATOM     22  O   UNL A   1      50.311  39.569  27.547  1.00  0.00    -0.272 OA
ATOM     23  N   UNL A   1      49.615  37.473  27.156  1.00  0.00    -0.354 N 
ATOM     24  H   UNL A   1      49.452  37.747  26.224  1.00  0.00     0.163 HD
BRANCH  23  25
ATOM     25  C   UNL A   1      49.285  36.100  27.485  1.00  0.00     0.116 C 
BRANCH  25  26
ATOM     26  C   UNL A   1      49.614  35.148  26.338  1.00  0.00     0.023 C 
BRANCH  26  27
ATOM     27  C   UNL A   1      48.484  34.960  25.320  1.00  0.00     0.023 C 
BRANCH  27  28
ATOM     28  C   UNL A   1      47.096  35.365  25.803  1.00  0.00     0.116 C 
BRANCH  28  29
ATOM     29  N   UNL A   1      46.038  34.909  24.919  1.00  0.00    -0.352 N 
ATOM     30  C   UNL A   1      44.780  34.454  25.234  1.00  0.00     0.251 C 
ATOM     31  H   UNL A   1      46.251  34.930  23.959  1.00  0.00     0.163 HD
ATOM     32  O   UNL A   1      44.083  33.960  24.348  1.00  0.00    -0.269 OA
BRANCH  30  33
ATOM     33  C   UNL A   1      44.280  34.527  26.626  1.00  0.00     0.039 A 
ATOM     34  C   UNL A   1      43.700  35.718  27.068  1.00  0.00     0.014 A 
ATOM     35  C   UNL A   1      44.395  33.443  27.501  1.00  0.00     0.014 A 
ATOM     36  C   UNL A   1      43.204  35.809  28.371  1.00  0.00     0.010 A 
ATOM     37  C   UNL A   1      43.823  33.506  28.770  1.00  0.00     0.010 A 
ATOM     38  C   UNL A   1      43.239  34.696  29.229  1.00  0.00    -0.014 A 
BRANCH  38  39
ATOM     39  C   UNL A   1      42.715  34.786  30.618  1.00  0.00     0.031 A 
ATOM     40  C   UNL A   1      41.270  34.462  30.903  1.00  0.00     0.074 A 
ATOM     41  C   UNL A   1      43.529  35.177  31.620  1.00  0.00     0.049 A 
ATOM     42  N   UNL A   1      40.621  34.496  32.040  1.00  0.00    -0.248 NA
ATOM     43  C   UNL A   1      40.439  34.082  29.752  1.00  0.00     0.031 C 
ATOM     44  C   UNL A   1      44.935  35.557  31.466  1.00  0.00     0.029 A 
ATOM     45  N   UNL A   1      43.296  35.316  32.965  1.00  0.00    -0.354 N 
ATOM     46  C   UNL A   1      39.308  34.148  31.737  1.00  0.00     0.074 A 
ATOM     47  C   UNL A   1      39.239  33.986  30.301  1.00  0.00     0.031 C 
ATOM     48  C   UNL A   1      45.447  35.847  32.673  1.00  0.00     0.029 A 
ATOM     49  C   UNL A   1      44.400  35.718  33.682  1.00  0.00     0.049 A 
ATOM     50  H   UNL A   1      42.419  35.144  33.379  1.00  0.00     0.167 HD
ATOM     51  C   UNL A   1      38.263  33.949  32.580  1.00  0.00     0.034 A 
ATOM     52  C   UNL A   1      44.550  35.958  34.999  1.00  0.00     0.034 A 
ATOM     53  C   UNL A   1      38.350  34.103  34.012  1.00  0.00     0.049 A 
ATOM     54  C   UNL A   1      43.367  35.755  35.914  1.00  0.00     0.074 A 
ATOM     55  C   UNL A   1      37.369  33.886  34.964  1.00  0.00     0.029 A 
ATOM     56  N   UNL A   1      39.483  34.523  34.700  1.00  0.00    -0.354 N 
ATOM     57  N   UNL A   1      42.147  35.369  35.617  1.00  0.00    -0.248 NA
ATOM     58  C   UNL A   1      43.590  36.001  37.343  1.00  0.00     0.031 C 
ATOM     59  C   UNL A   1      37.884  34.244  36.216  1.00  0.00     0.029 A 
ATOM     60  C   UNL A   1      39.214  34.600  36.060  1.00  0.00     0.049 A 
ATOM     61  H   UNL A   1      40.349  34.734  34.284  1.00  0.00     0.167 HD
ATOM     62  C   UNL A   1      41.467  35.298  36.832  1.00  0.00     0.074 A 
ATOM     63  C   UNL A   1      42.424  35.652  37.860  1.00  0.00     0.031 C 
ATOM     64  C   UNL A   1      40.172  34.971  37.076  1.00  0.00     0.034 A 
BRANCH  51  65
ATOM     65  C   UNL A   1      36.937  33.565  31.964  1.00  0.00     0.023 A 
ATOM     66  C   UNL A   1      35.905  34.504  31.786  1.00  0.00     0.031 A 
ATOM     67  C   UNL A   1      36.687  32.237  31.576  1.00  0.00     0.131 A 
ATOM     68  C   UNL A   1      34.650  34.089  31.317  1.00  0.00     0.055 A 
ATOM     69  C   UNL A   1      35.463  31.847  31.025  1.00  0.00     0.041 A 
ATOM     70  F   UNL A   1      37.622  31.288  31.740  1.00  0.00    -0.206 F 
ATOM     71  C   UNL A   1      34.430  32.772  30.909  1.00  0.00     0.022 A 
BRANCH  68  72
ATOM     72  S   UNL A   1      33.264  35.257  31.401  1.00  0.00     0.124 S 
ATOM     73  O   UNL A   1      33.962  36.528  31.586  1.00  0.00    -0.237 OA
ATOM     74  O   UNL A   1      32.613  35.068  30.110  1.00  0.00    -0.237 OA
ATOM     75  O   UNL A   1      32.500  34.801  32.560  1.00  0.00    -0.744 OA
ENDBRANCH  68  72
ENDBRANCH  51  65
BRANCH  52  76
ATOM     76  C   UNL A   1      45.862  36.417  35.545  1.00  0.00     0.023 A 
ATOM     77  C   UNL A   1      46.243  37.767  35.478  1.00  0.00     0.031 A 
ATOM     78  C   UNL A   1      46.780  35.501  36.088  1.00  0.00     0.131 A 
ATOM     79  C   UNL A   1      47.528  38.154  35.891  1.00  0.00     0.055 A 
ATOM     80  C   UNL A   1      48.035  35.900  36.554  1.00  0.00     0.041 A 
ATOM     81  F   UNL A   1      46.469  34.199  36.178  1.00  0.00    -0.206 F 
ATOM     82  C   UNL A   1      48.421  37.233  36.443  1.00  0.00     0.022 A 
BRANCH  79  83
ATOM     83  S   UNL A   1      48.054  39.867  35.603  1.00  0.00     0.124 S 
ATOM     84  O   UNL A   1      46.802  40.594  35.775  1.00  0.00    -0.237 OA
ATOM     85  O   UNL A   1      49.054  40.055  36.648  1.00  0.00    -0.237 OA
ATOM     86  O   UNL A   1      48.577  39.837  34.240  1.00  0.00    -0.744 OA
ENDBRANCH  79  83
ENDBRANCH  52  76
BRANCH  64  87
ATOM     87  C   UNL A   1      39.735  34.945  38.523  1.00  0.00     0.023 A 
ATOM     88  C   UNL A   1      39.660  33.745  39.252  1.00  0.00     0.031 A 
ATOM     89  C   UNL A   1      39.348  36.132  39.170  1.00  0.00     0.131 A 
ATOM     90  C   UNL A   1      39.130  33.747  40.551  1.00  0.00     0.055 A 
ATOM     91  C   UNL A   1      38.897  36.138  40.490  1.00  0.00     0.041 A 
ATOM     92  F   UNL A   1      39.397  37.310  38.526  1.00  0.00    -0.206 F 
ATOM     93  C   UNL A   1      38.766  34.938  41.182  1.00  0.00     0.022 A 
BRANCH  90  94
ATOM     94  S   UNL A   1      38.793  32.154  41.353  1.00  0.00     0.124 S 
ATOM     95  O   UNL A   1      37.960  31.485  40.358  1.00  0.00    -0.237 OA
ATOM     96  O   UNL A   1      40.133  31.606  41.532  1.00  0.00    -0.237 OA
ATOM     97  O   UNL A   1      38.106  32.530  42.586  1.00  0.00    -0.744 OA
ENDBRANCH  90  94
ENDBRANCH  64  87
ENDBRANCH  38  39
ENDBRANCH  30  33
ENDBRANCH  28  29
ENDBRANCH  27  28
ENDBRANCH  26  27
ENDBRANCH  25  26
ENDBRANCH  23  25
ENDBRANCH  20  21
ENDBRANCH  19  20
ENDBRANCH   1  19
TORSDOF 27
ENDMDL
MODEL 3
REMARK VINA RESULT:      -7.9      7.209     10.141
REMARK SMILES CC/C=C/C/C=C/C/C=C/C/C=C/CC/C=C/COCC(=O)NCCCCNC(=O)c1ccc(-c2c3nc(c(-c4cc(S(=O)(=O)[O-])ccc4F)c4ccc([nH]4)c(-c4cc(S(=O)(=O)[O-])ccc4F)c4nc(c(-c5cc(S(=O)(=O)[O-])ccc5F)c5ccc2[nH]5)C=C4)C=C3)cc1
REMARK SMILES IDX 18 1 17 2 16 3 15 4 14 5 13 6 12 7 11 8 10 9 9 10 8 11 7 12
REMARK SMILES IDX 6 13 5 14 4 15 3 16 2 17 1 18 19 19 20 20 21 21 22 22 23 23
REMARK SMILES IDX 24 25 25 26 26 27 27 28 28 29 29 30 30 32 31 33 32 34 93 35
REMARK SMILES IDX 33 36 92 37 34 38 35 39 36 40 86 41 37 42 91 43 85 44 87 45
REMARK SMILES IDX 38 46 90 47 84 48 83 49 39 51 71 52 51 53 70 54 52 55 55 56
REMARK SMILES IDX 69 57 88 58 53 59 54 60 68 62 89 63 56 64 40 65 41 66 49 67
REMARK SMILES IDX 42 68 48 69 50 70 47 71 43 72 44 73 45 74 46 75 72 76 73 77
REMARK SMILES IDX 81 78 74 79 80 80 82 81 79 82 75 83 76 84 77 85 78 86 57 87
REMARK SMILES IDX 58 88 66 89 59 90 65 91 67 92 64 93 60 94 61 95 62 96 63 97
REMARK H PARENT 23 24 28 31 87 50 55 61
REMARK Flexibility Score: inf
ROOT
ATOM      1  C   UNL A   1      46.523  42.165  22.985  1.00  0.00     0.188 C 
ENDROOT
BRANCH   1   2
ATOM      2  C   UNL A   1      46.434  43.477  22.270  1.00  0.00    -0.003 C 
ATOM      3  C   UNL A   1      46.188  43.573  20.956  1.00  0.00    -0.029 C 
BRANCH   3   4
ATOM      4  C   UNL A   1      46.260  44.850  20.167  1.00  0.00     0.031 C 
BRANCH   4   5
ATOM      5  C   UNL A   1      45.388  45.962  20.774  1.00  0.00     0.031 C 
BRANCH   5   6
ATOM      6  C   UNL A   1      45.112  47.085  19.811  1.00  0.00    -0.031 C 
ATOM      7  C   UNL A   1      45.249  48.387  20.105  1.00  0.00    -0.027 C 
BRANCH   7   8
ATOM      8  C   UNL A   1      44.914  49.496  19.149  1.00  0.00     0.054 C 
BRANCH   8   9
ATOM      9  C   UNL A   1      43.650  49.175  18.402  1.00  0.00    -0.027 C 
ATOM     10  C   UNL A   1      43.616  48.765  17.124  1.00  0.00    -0.027 C 
BRANCH  10  11
ATOM     11  C   UNL A   1      42.353  48.482  16.363  1.00  0.00     0.054 C 
BRANCH  11  12
ATOM     12  C   UNL A   1      41.949  47.045  16.530  1.00  0.00    -0.027 C 
ATOM     13  C   UNL A   1      42.112  46.343  17.663  1.00  0.00    -0.027 C 
BRANCH  13  14
ATOM     14  C   UNL A   1      41.736  44.898  17.821  1.00  0.00     0.054 C 
BRANCH  14  15
ATOM     15  C   UNL A   1      42.418  44.299  19.018  1.00  0.00    -0.027 C 
ATOM     16  C   UNL A   1      41.836  43.431  19.861  1.00  0.00    -0.031 C 
BRANCH  16  17
ATOM     17  C   UNL A   1      42.518  42.849  21.066  1.00  0.00     0.023 C 
ATOM     18  C   UNL A   1      41.541  42.671  22.219  1.00  0.00     0.008 C 
ENDBRANCH  16  17
ENDBRANCH  14  15
ENDBRANCH  13  14
ENDBRANCH  11  12
ENDBRANCH  10  11
ENDBRANCH   8   9
ENDBRANCH   7   8
ENDBRANCH   5   6
ENDBRANCH   4   5
ENDBRANCH   3   4
ENDBRANCH   1   2
BRANCH   1  19
ATOM     19  O   UNL A   1      46.747  42.384  24.379  1.00  0.00    -0.368 OA
BRANCH  19  20
ATOM     20  C   UNL A   1      45.758  41.800  25.220  1.00  0.00     0.260 C 
BRANCH  20  21
ATOM     21  C   UNL A   1      44.807  42.755  25.950  1.00  0.00     0.246 C 
ATOM     22  O   UNL A   1      44.854  43.975  25.788  1.00  0.00    -0.272 OA
ATOM     23  N   UNL A   1      43.868  42.229  26.793  1.00  0.00    -0.354 N 
ATOM     24  H   UNL A   1      43.246  42.873  27.204  1.00  0.00     0.163 HD
BRANCH  23  25
ATOM     25  C   UNL A   1      43.677  40.838  27.152  1.00  0.00     0.116 C 
BRANCH  25  26
ATOM     26  C   UNL A   1      43.671  40.640  28.667  1.00  0.00     0.023 C 
BRANCH  26  27
ATOM     27  C   UNL A   1      43.030  39.330  29.136  1.00  0.00     0.023 C 
BRANCH  27  28
ATOM     28  C   UNL A   1      43.985  38.150  29.275  1.00  0.00     0.116 C 
BRANCH  28  29
ATOM     29  N   UNL A   1      45.287  38.538  29.790  1.00  0.00    -0.352 N 
ATOM     30  C   UNL A   1      45.723  38.592  31.092  1.00  0.00     0.251 C 
ATOM     31  H   UNL A   1      45.950  38.797  29.112  1.00  0.00     0.163 HD
ATOM     32  O   UNL A   1      46.817  39.102  31.336  1.00  0.00    -0.269 OA
BRANCH  30  33
ATOM     33  C   UNL A   1      44.878  38.073  32.192  1.00  0.00     0.039 A 
ATOM     34  C   UNL A   1      45.129  36.789  32.682  1.00  0.00     0.014 A 
ATOM     35  C   UNL A   1      43.832  38.829  32.728  1.00  0.00     0.014 A 
ATOM     36  C   UNL A   1      44.359  36.282  33.731  1.00  0.00     0.010 A 
ATOM     37  C   UNL A   1      43.122  38.357  33.830  1.00  0.00     0.010 A 
ATOM     38  C   UNL A   1      43.362  37.069  34.332  1.00  0.00    -0.014 A 
BRANCH  38  39
ATOM     39  C   UNL A   1      42.535  36.535  35.447  1.00  0.00     0.031 A 
ATOM     40  C   UNL A   1      41.368  35.627  35.154  1.00  0.00     0.074 A 
ATOM     41  C   UNL A   1      42.817  36.881  36.719  1.00  0.00     0.049 A 
ATOM     42  N   UNL A   1      40.520  35.072  35.984  1.00  0.00    -0.248 NA
ATOM     43  C   UNL A   1      41.102  35.328  33.740  1.00  0.00     0.031 C 
ATOM     44  C   UNL A   1      43.895  37.786  37.129  1.00  0.00     0.029 A 
ATOM     45  N   UNL A   1      42.229  36.512  37.903  1.00  0.00    -0.354 N 
ATOM     46  C   UNL A   1      39.619  34.368  35.190  1.00  0.00     0.074 A 
ATOM     47  C   UNL A   1      39.980  34.630  33.814  1.00  0.00     0.031 C 
ATOM     48  C   UNL A   1      43.913  37.870  38.469  1.00  0.00     0.029 A 
ATOM     49  C   UNL A   1      42.826  37.063  39.015  1.00  0.00     0.049 A 
ATOM     50  H   UNL A   1      41.452  35.910  37.953  1.00  0.00     0.167 HD
ATOM     51  C   UNL A   1      38.606  33.550  35.572  1.00  0.00     0.034 A 
ATOM     52  C   UNL A   1      42.529  36.934  40.323  1.00  0.00     0.034 A 
ATOM     53  C   UNL A   1      38.265  33.288  36.949  1.00  0.00     0.049 A 
ATOM     54  C   UNL A   1      41.381  36.039  40.723  1.00  0.00     0.074 A 
ATOM     55  C   UNL A   1      37.288  32.445  37.451  1.00  0.00     0.029 A 
ATOM     56  N   UNL A   1      38.884  33.873  38.048  1.00  0.00    -0.354 N 
ATOM     57  N   UNL A   1      40.575  35.335  39.961  1.00  0.00    -0.248 NA
ATOM     58  C   UNL A   1      41.116  35.910  42.160  1.00  0.00     0.031 C 
ATOM     59  C   UNL A   1      37.267  32.576  38.845  1.00  0.00     0.029 A 
ATOM     60  C   UNL A   1      38.289  33.432  39.222  1.00  0.00     0.049 A 
ATOM     61  H   UNL A   1      39.636  34.506  38.000  1.00  0.00     0.167 HD
ATOM     62  C   UNL A   1      39.728  34.654  40.834  1.00  0.00     0.074 A 
ATOM     63  C   UNL A   1      40.144  35.013  42.174  1.00  0.00     0.031 C 
ATOM     64  C   UNL A   1      38.701  33.810  40.554  1.00  0.00     0.034 A 
BRANCH  51  65
ATOM     65  C   UNL A   1      37.785  32.903  34.479  1.00  0.00     0.023 A 
ATOM     66  C   UNL A   1      36.724  33.581  33.851  1.00  0.00     0.031 A 
ATOM     67  C   UNL A   1      38.046  31.581  34.078  1.00  0.00     0.131 A 
ATOM     68  C   UNL A   1      35.914  32.910  32.923  1.00  0.00     0.055 A 
ATOM     69  C   UNL A   1      37.291  30.948  33.086  1.00  0.00     0.041 A 
ATOM     70  F   UNL A   1      39.030  30.872  34.653  1.00  0.00    -0.206 F 
ATOM     71  C   UNL A   1      36.207  31.608  32.515  1.00  0.00     0.022 A 
BRANCH  68  72
ATOM     72  S   UNL A   1      34.379  33.710  32.378  1.00  0.00     0.124 S 
ATOM     73  O   UNL A   1      33.411  33.171  33.331  1.00  0.00    -0.237 OA
ATOM     74  O   UNL A   1      34.693  35.127  32.519  1.00  0.00    -0.237 OA
ATOM     75  O   UNL A   1      34.217  33.239  31.003  1.00  0.00    -0.744 OA
ENDBRANCH  68  72
ENDBRANCH  51  65
BRANCH  52  76
ATOM     76  C   UNL A   1      43.319  37.663  41.359  1.00  0.00     0.023 A 
ATOM     77  C   UNL A   1      42.972  38.965  41.754  1.00  0.00     0.031 A 
ATOM     78  C   UNL A   1      44.471  37.089  41.926  1.00  0.00     0.131 A 
ATOM     79  C   UNL A   1      43.798  39.672  42.642  1.00  0.00     0.055 A 
ATOM     80  C   UNL A   1      45.256  37.774  42.857  1.00  0.00     0.041 A 
ATOM     81  F   UNL A   1      44.850  35.847  41.587  1.00  0.00    -0.206 F 
ATOM     82  C   UNL A   1      44.929  39.080  43.208  1.00  0.00     0.022 A 
BRANCH  79  83
ATOM     83  S   UNL A   1      43.427  41.418  42.971  1.00  0.00     0.124 S 
ATOM     84  O   UNL A   1      42.571  41.322  44.147  1.00  0.00    -0.237 OA
ATOM     85  O   UNL A   1      44.758  41.973  43.190  1.00  0.00    -0.237 OA
ATOM     86  O   UNL A   1      42.762  41.860  41.748  1.00  0.00    -0.744 OA
ENDBRANCH  79  83
ENDBRANCH  52  76
BRANCH  64  87
ATOM     87  C   UNL A   1      37.988  33.190  41.734  1.00  0.00     0.023 A 
ATOM     88  C   UNL A   1      38.467  32.026  42.360  1.00  0.00     0.031 A 
ATOM     89  C   UNL A   1      36.788  33.747  42.211  1.00  0.00     0.131 A 
ATOM     90  C   UNL A   1      37.709  31.411  43.368  1.00  0.00     0.055 A 
ATOM     91  C   UNL A   1      36.079  33.175  43.268  1.00  0.00     0.041 A 
ATOM     92  F   UNL A   1      36.279  34.858  41.653  1.00  0.00    -0.206 F 
ATOM     93  C   UNL A   1      36.528  31.988  43.840  1.00  0.00     0.022 A 
BRANCH  90  94
ATOM     94  S   UNL A   1      38.218  29.771  43.958  1.00  0.00     0.124 S 
ATOM     95  O   UNL A   1      37.184  29.470  44.943  1.00  0.00    -0.237 OA
ATOM     96  O   UNL A   1      38.182  28.977  42.735  1.00  0.00    -0.237 OA
ATOM     97  O   UNL A   1      39.551  30.004  44.508  1.00  0.00    -0.744 OA
ENDBRANCH  90  94
ENDBRANCH  64  87
ENDBRANCH  38  39
ENDBRANCH  30  33
ENDBRANCH  28  29
ENDBRANCH  27  28
ENDBRANCH  26  27
ENDBRANCH  25  26
ENDBRANCH  23  25
ENDBRANCH  20  21
ENDBRANCH  19  20
ENDBRANCH   1  19
TORSDOF 27
ENDMDL
