MODEL 1
REMARK VINA RESULT:     -11.9      0.000      0.000
REMARK SMILES O=C(NCCCCNC(=O)[C@H]1CCC[C@@H]1C[NH2+][C@@H]1CCOC2(CCC2)C1)c1ccc(-c2c3nc(c(-c4cc(S(=O)(=O)[O-])ccc4F)c4ccc([nH]4)c(-c4cc(S(=O)(=O)[O-])ccc4F)c4nc(c(-c5cc(S(=O)(=O)[O-])ccc5F)c5ccc2[nH]5)C=C4)C=C3)cc1
REMARK SMILES IDX 5 1 4 2 3 3 1 4 2 5 27 7 28 8 89 9 29 10 88 11 30 12 31 13
REMARK SMILES IDX 32 14 82 15 33 16 87 17 81 18 83 19 34 20 86 21 80 22 79 23
REMARK SMILES IDX 35 25 67 26 47 27 66 28 48 29 51 30 65 31 84 32 49 33 50 34
REMARK SMILES IDX 64 36 85 37 52 38 36 39 37 40 45 41 38 42 44 43 46 44 43 45
REMARK SMILES IDX 39 46 40 47 41 48 42 49 68 50 69 51 77 52 70 53 76 54 78 55
REMARK SMILES IDX 75 56 71 57 72 58 73 59 74 60 53 61 54 62 62 63 55 64 61 65
REMARK SMILES IDX 63 66 60 67 56 68 57 69 58 70 59 71 6 72 7 73 8 74 9 75
REMARK SMILES IDX 10 77 11 78 12 79 15 80 13 81 14 82 16 83 17 84 18 87 19 88
REMARK SMILES IDX 26 89 20 90 22 91 21 92 23 93 25 94 24 95
REMARK H PARENT 3 6 83 24 51 35 8 76 17 85 17 86
REMARK Flexibility Score: inf
ROOT
ATOM      1  C   UNL A   1      31.514  31.829  26.843  1.00  0.00     0.023 C 
ENDROOT
BRANCH   1   2
ATOM      2  C   UNL A   1      32.804  32.517  27.275  1.00  0.00     0.116 C 
BRANCH   2   3
ATOM      3  N   UNL A   1      32.618  33.915  27.638  1.00  0.00    -0.352 N 
ATOM      4  O   UNL A   1      32.873  35.792  28.862  1.00  0.00    -0.269 OA
ATOM      5  C   UNL A   1      33.251  34.649  28.616  1.00  0.00     0.251 C 
ATOM      6  H   UNL A   1      31.944  34.403  27.111  1.00  0.00     0.163 HD
BRANCH   5   7
ATOM      7  C   UNL A   1      34.366  34.052  29.386  1.00  0.00     0.039 A 
ATOM      8  C   UNL A   1      35.690  34.398  29.109  1.00  0.00     0.014 A 
ATOM      9  C   UNL A   1      34.082  33.126  30.395  1.00  0.00     0.014 A 
ATOM     10  C   UNL A   1      36.728  33.712  29.731  1.00  0.00     0.010 A 
ATOM     11  C   UNL A   1      35.129  32.497  31.078  1.00  0.00     0.010 A 
ATOM     12  C   UNL A   1      36.462  32.759  30.727  1.00  0.00    -0.014 A 
BRANCH  12  13
ATOM     13  C   UNL A   1      37.598  32.085  31.412  1.00  0.00     0.031 A 
ATOM     14  C   UNL A   1      38.368  30.982  30.738  1.00  0.00     0.074 A 
ATOM     15  C   UNL A   1      37.958  32.511  32.639  1.00  0.00     0.049 A 
ATOM     16  N   UNL A   1      39.393  30.300  31.184  1.00  0.00    -0.248 NA
ATOM     17  C   UNL A   1      37.924  30.586  29.394  1.00  0.00     0.031 C 
ATOM     18  C   UNL A   1      37.283  33.573  33.390  1.00  0.00     0.029 A 
ATOM     19  N   UNL A   1      38.982  32.122  33.464  1.00  0.00    -0.354 N 
ATOM     20  C   UNL A   1      39.715  29.390  30.182  1.00  0.00     0.074 A 
ATOM     21  C   UNL A   1      38.747  29.584  29.121  1.00  0.00     0.031 C 
ATOM     22  C   UNL A   1      37.939  33.782  34.541  1.00  0.00     0.029 A 
ATOM     23  C   UNL A   1      39.036  32.827  34.643  1.00  0.00     0.049 A 
ATOM     24  H   UNL A   1      39.619  31.408  33.232  1.00  0.00     0.167 HD
ATOM     25  C   UNL A   1      40.728  28.487  30.147  1.00  0.00     0.034 A 
ATOM     26  C   UNL A   1      39.860  32.705  35.701  1.00  0.00     0.034 A 
ATOM     27  C   UNL A   1      41.683  28.306  31.217  1.00  0.00     0.049 A 
ATOM     28  C   UNL A   1      40.945  31.665  35.658  1.00  0.00     0.074 A 
ATOM     29  C   UNL A   1      42.755  27.432  31.280  1.00  0.00     0.029 A 
ATOM     30  N   UNL A   1      41.677  29.007  32.417  1.00  0.00    -0.354 N 
ATOM     31  N   UNL A   1      41.237  30.817  34.697  1.00  0.00    -0.248 NA
ATOM     32  C   UNL A   1      41.814  31.567  36.837  1.00  0.00     0.031 C 
ATOM     33  C   UNL A   1      43.359  27.560  32.536  1.00  0.00     0.029 A 
ATOM     34  C   UNL A   1      42.708  28.564  33.235  1.00  0.00     0.049 A 
ATOM     35  H   UNL A   1      41.035  29.715  32.654  1.00  0.00     0.167 HD
ATOM     36  C   UNL A   1      42.336  30.097  35.153  1.00  0.00     0.074 A 
ATOM     37  C   UNL A   1      42.667  30.626  36.461  1.00  0.00     0.031 C 
ATOM     38  C   UNL A   1      43.012  29.088  34.546  1.00  0.00     0.034 A 
BRANCH  25  39
ATOM     39  C   UNL A   1      40.828  27.598  28.929  1.00  0.00     0.023 A 
ATOM     40  C   UNL A   1      41.793  27.816  27.929  1.00  0.00     0.031 A 
ATOM     41  C   UNL A   1      39.934  26.526  28.756  1.00  0.00     0.131 A 
ATOM     42  C   UNL A   1      41.800  27.018  26.775  1.00  0.00     0.055 A 
ATOM     43  C   UNL A   1      39.995  25.689  27.640  1.00  0.00     0.041 A 
ATOM     44  F   UNL A   1      38.979  26.280  29.665  1.00  0.00    -0.206 F 
ATOM     45  C   UNL A   1      40.922  25.941  26.634  1.00  0.00     0.022 A 
BRANCH  42  46
ATOM     46  S   UNL A   1      42.884  27.490  25.399  1.00  0.00     0.124 S 
ATOM     47  O   UNL A   1      43.060  26.215  24.708  1.00  0.00    -0.237 OA
ATOM     48  O   UNL A   1      42.089  28.491  24.699  1.00  0.00    -0.237 OA
ATOM     49  O   UNL A   1      44.082  27.999  26.065  1.00  0.00    -0.744 OA
ENDBRANCH  42  46
ENDBRANCH  25  39
BRANCH  26  50
ATOM     50  C   UNL A   1      39.668  33.565  36.903  1.00  0.00     0.023 A 
ATOM     51  C   UNL A   1      39.067  33.062  38.067  1.00  0.00     0.031 A 
ATOM     52  C   UNL A   1      40.061  34.916  36.893  1.00  0.00     0.131 A 
ATOM     53  C   UNL A   1      38.841  33.914  39.158  1.00  0.00     0.055 A 
ATOM     54  C   UNL A   1      39.882  35.745  38.000  1.00  0.00     0.041 A 
ATOM     55  F   UNL A   1      40.644  35.445  35.804  1.00  0.00    -0.206 F 
ATOM     56  C   UNL A   1      39.257  35.248  39.139  1.00  0.00     0.022 A 
BRANCH  53  57
ATOM     57  S   UNL A   1      37.915  33.276  40.581  1.00  0.00     0.124 S 
ATOM     58  O   UNL A   1      36.609  33.005  39.991  1.00  0.00    -0.237 OA
ATOM     59  O   UNL A   1      38.704  32.107  40.954  1.00  0.00    -0.237 OA
ATOM     60  O   UNL A   1      37.952  34.382  41.536  1.00  0.00    -0.744 OA
ENDBRANCH  53  57
ENDBRANCH  26  50
BRANCH  38  61
ATOM     61  C   UNL A   1      44.196  28.524  35.292  1.00  0.00     0.023 A 
ATOM     62  C   UNL A   1      44.048  27.498  36.241  1.00  0.00     0.031 A 
ATOM     63  C   UNL A   1      45.482  29.048  35.074  1.00  0.00     0.131 A 
ATOM     64  C   UNL A   1      45.159  27.068  36.983  1.00  0.00     0.055 A 
ATOM     65  C   UNL A   1      46.593  28.576  35.775  1.00  0.00     0.041 A 
ATOM     66  F   UNL A   1      45.679  30.031  34.182  1.00  0.00    -0.206 F 
ATOM     67  C   UNL A   1      46.433  27.591  36.746  1.00  0.00     0.022 A 
BRANCH  64  68
ATOM     68  S   UNL A   1      44.900  25.882  38.330  1.00  0.00     0.124 S 
ATOM     69  O   UNL A   1      44.639  24.645  37.599  1.00  0.00    -0.237 OA
ATOM     70  O   UNL A   1      46.167  25.943  39.049  1.00  0.00    -0.237 OA
ATOM     71  O   UNL A   1      43.752  26.428  39.052  1.00  0.00    -0.744 OA
ENDBRANCH  64  68
ENDBRANCH  38  61
ENDBRANCH  12  13
ENDBRANCH   5   7
ENDBRANCH   2   3
ENDBRANCH   1   2
BRANCH   1  72
ATOM     72  C   UNL A   1      31.658  30.369  26.421  1.00  0.00     0.023 C 
BRANCH  72  73
ATOM     73  C   UNL A   1      33.090  29.851  26.321  1.00  0.00     0.116 C 
BRANCH  73  74
ATOM     74  N   UNL A   1      33.538  29.679  24.952  1.00  0.00    -0.356 N 
ATOM     75  C   UNL A   1      33.018  28.876  23.978  1.00  0.00     0.223 C 
ATOM     76  H   UNL A   1      34.323  30.214  24.692  1.00  0.00     0.163 HD
ATOM     77  O   UNL A   1      33.467  28.980  22.836  1.00  0.00    -0.275 OA
BRANCH  75  78
ATOM     78  C   UNL A   1      31.943  27.854  24.344  1.00  0.00     0.087 C 
ATOM     79  C   UNL A   1      30.548  28.294  23.893  1.00  0.00     0.014 C 
ATOM     80  C   UNL A   1      32.179  26.535  23.586  1.00  0.00     0.056 C 
ATOM     81  C   UNL A   1      30.354  27.734  22.486  1.00  0.00     0.001 C 
ATOM     82  C   UNL A   1      31.531  26.800  22.221  1.00  0.00     0.010 C 
BRANCH  80  83
ATOM     83  C   UNL A   1      31.547  25.310  24.274  1.00  0.00     0.265 C 
BRANCH  83  84
ATOM     84  N   UNL A   1      32.588  24.332  24.606  1.00  0.00    -0.343 N 
ATOM     85  H   UNL A   1      32.355  23.901  25.501  1.00  0.00     0.346 HD
ATOM     86  H   UNL A   1      33.475  24.834  24.643  1.00  0.00     0.346 HD
BRANCH  84  87
ATOM     87  C   UNL A   1      32.726  23.269  23.596  1.00  0.00     0.187 C 
ATOM     88  C   UNL A   1      32.464  21.866  24.165  1.00  0.00     0.093 C 
ATOM     89  C   UNL A   1      34.134  23.324  22.973  1.00  0.00     0.100 C 
ATOM     90  C   UNL A   1      33.588  21.391  25.075  1.00  0.00     0.167 C 
ATOM     91  C   UNL A   1      35.198  22.821  23.950  1.00  0.00     0.074 C 
ATOM     92  O   UNL A   1      34.842  21.488  24.397  1.00  0.00    -0.375 OA
ATOM     93  C   UNL A   1      36.646  22.946  23.381  1.00  0.00     0.036 C 
ATOM     94  C   UNL A   1      35.664  23.809  25.061  1.00  0.00     0.036 C 
ATOM     95  C   UNL A   1      37.106  23.359  24.790  1.00  0.00     0.006 C 
ENDBRANCH  84  87
ENDBRANCH  83  84
ENDBRANCH  80  83
ENDBRANCH  75  78
ENDBRANCH  73  74
ENDBRANCH  72  73
ENDBRANCH   1  72
TORSDOF 17
ENDMDL
MODEL 2
REMARK VINA RESULT:     -11.8      1.585      7.758
REMARK SMILES O=C(NCCCCNC(=O)[C@H]1CCC[C@@H]1C[NH2+][C@@H]1CCOC2(CCC2)C1)c1ccc(-c2c3nc(c(-c4cc(S(=O)(=O)[O-])ccc4F)c4ccc([nH]4)c(-c4cc(S(=O)(=O)[O-])ccc4F)c4nc(c(-c5cc(S(=O)(=O)[O-])ccc5F)c5ccc2[nH]5)C=C4)C=C3)cc1
REMARK SMILES IDX 5 1 4 2 3 3 1 4 2 5 27 7 28 8 89 9 29 10 88 11 30 12 31 13
REMARK SMILES IDX 32 14 82 15 33 16 87 17 81 18 83 19 34 20 86 21 80 22 79 23
REMARK SMILES IDX 35 25 67 26 47 27 66 28 48 29 51 30 65 31 84 32 49 33 50 34
REMARK SMILES IDX 64 36 85 37 52 38 36 39 37 40 45 41 38 42 44 43 46 44 43 45
REMARK SMILES IDX 39 46 40 47 41 48 42 49 68 50 69 51 77 52 70 53 76 54 78 55
REMARK SMILES IDX 75 56 71 57 72 58 73 59 74 60 53 61 54 62 62 63 55 64 61 65
REMARK SMILES IDX 63 66 60 67 56 68 57 69 58 70 59 71 6 72 7 73 8 74 9 75
REMARK SMILES IDX 10 77 11 78 12 79 15 80 13 81 14 82 16 83 17 84 18 87 19 88
REMARK SMILES IDX 26 89 20 90 22 91 21 92 23 93 25 94 24 95
REMARK H PARENT 3 6 83 24 51 35 8 76 17 85 17 86
REMARK Flexibility Score: inf
ROOT
ATOM      1  C   UNL A   1      31.259  32.033  26.494  1.00  0.00     0.023 C 
ENDROOT
BRANCH   1   2
ATOM      2  C   UNL A   1      32.584  32.442  27.126  1.00  0.00     0.116 C 
BRANCH   2   3
ATOM      3  N   UNL A   1      32.595  33.817  27.604  1.00  0.00    -0.352 N 
ATOM      4  O   UNL A   1      33.232  35.566  28.879  1.00  0.00    -0.269 OA
ATOM      5  C   UNL A   1      33.453  34.418  28.499  1.00  0.00     0.251 C 
ATOM      6  H   UNL A   1      31.892  34.399  27.236  1.00  0.00     0.163 HD
BRANCH   5   7
ATOM      7  C   UNL A   1      34.621  33.673  29.021  1.00  0.00     0.039 A 
ATOM      8  C   UNL A   1      34.446  32.538  29.816  1.00  0.00     0.014 A 
ATOM      9  C   UNL A   1      35.911  34.120  28.716  1.00  0.00     0.014 A 
ATOM     10  C   UNL A   1      35.545  31.946  30.427  1.00  0.00     0.010 A 
ATOM     11  C   UNL A   1      37.021  33.470  29.266  1.00  0.00     0.010 A 
ATOM     12  C   UNL A   1      36.846  32.399  30.155  1.00  0.00    -0.014 A 
BRANCH  12  13
ATOM     13  C   UNL A   1      38.004  31.705  30.781  1.00  0.00     0.031 A 
ATOM     14  C   UNL A   1      38.412  31.998  32.200  1.00  0.00     0.074 A 
ATOM     15  C   UNL A   1      38.662  30.770  30.067  1.00  0.00     0.049 A 
ATOM     16  N   UNL A   1      39.384  31.474  32.904  1.00  0.00    -0.248 NA
ATOM     17  C   UNL A   1      37.635  33.018  32.918  1.00  0.00     0.031 C 
ATOM     18  C   UNL A   1      38.355  30.403  28.682  1.00  0.00     0.029 A 
ATOM     19  N   UNL A   1      39.706  29.948  30.403  1.00  0.00    -0.354 N 
ATOM     20  C   UNL A   1      39.341  32.103  34.144  1.00  0.00     0.074 A 
ATOM     21  C   UNL A   1      38.270  33.076  34.079  1.00  0.00     0.031 C 
ATOM     22  C   UNL A   1      39.161  29.399  28.304  1.00  0.00     0.029 A 
ATOM     23  C   UNL A   1      40.085  29.098  29.391  1.00  0.00     0.049 A 
ATOM     24  H   UNL A   1      40.143  29.965  31.286  1.00  0.00     0.167 HD
ATOM     25  C   UNL A   1      40.117  31.879  35.237  1.00  0.00     0.034 A 
ATOM     26  C   UNL A   1      41.078  28.190  29.333  1.00  0.00     0.034 A 
ATOM     27  C   UNL A   1      41.183  30.905  35.283  1.00  0.00     0.049 A 
ATOM     28  C   UNL A   1      41.953  27.996  30.541  1.00  0.00     0.074 A 
ATOM     29  C   UNL A   1      42.019  30.589  36.340  1.00  0.00     0.029 A 
ATOM     30  N   UNL A   1      41.567  30.094  34.221  1.00  0.00    -0.354 N 
ATOM     31  N   UNL A   1      41.893  28.596  31.708  1.00  0.00    -0.248 NA
ATOM     32  C   UNL A   1      43.025  27.000  30.426  1.00  0.00     0.031 C 
ATOM     33  C   UNL A   1      42.944  29.634  35.903  1.00  0.00     0.029 A 
ATOM     34  C   UNL A   1      42.645  29.300  34.592  1.00  0.00     0.049 A 
ATOM     35  H   UNL A   1      41.138  30.083  33.336  1.00  0.00     0.167 HD
ATOM     36  C   UNL A   1      42.912  28.036  32.471  1.00  0.00     0.074 A 
ATOM     37  C   UNL A   1      43.552  27.035  31.641  1.00  0.00     0.031 C 
ATOM     38  C   UNL A   1      43.286  28.322  33.745  1.00  0.00     0.034 A 
BRANCH  25  39
ATOM     39  C   UNL A   1      39.864  32.736  36.456  1.00  0.00     0.023 A 
ATOM     40  C   UNL A   1      38.999  32.322  37.486  1.00  0.00     0.031 A 
ATOM     41  C   UNL A   1      40.485  33.991  36.585  1.00  0.00     0.131 A 
ATOM     42  C   UNL A   1      38.728  33.182  38.562  1.00  0.00     0.055 A 
ATOM     43  C   UNL A   1      40.269  34.810  37.696  1.00  0.00     0.041 A 
ATOM     44  F   UNL A   1      41.305  34.449  35.627  1.00  0.00    -0.206 F 
ATOM     45  C   UNL A   1      39.376  34.413  38.686  1.00  0.00     0.022 A 
BRANCH  42  46
ATOM     46  S   UNL A   1      37.417  32.725  39.729  1.00  0.00     0.124 S 
ATOM     47  O   UNL A   1      37.480  33.823  40.692  1.00  0.00    -0.237 OA
ATOM     48  O   UNL A   1      36.234  32.690  38.877  1.00  0.00    -0.237 OA
ATOM     49  O   UNL A   1      37.852  31.429  40.245  1.00  0.00    -0.744 OA
ENDBRANCH  42  46
ENDBRANCH  25  39
BRANCH  26  50
ATOM     50  C   UNL A   1      41.321  27.425  28.077  1.00  0.00     0.023 A 
ATOM     51  C   UNL A   1      41.012  26.060  27.988  1.00  0.00     0.031 A 
ATOM     52  C   UNL A   1      41.894  28.048  26.954  1.00  0.00     0.131 A 
ATOM     53  C   UNL A   1      41.314  25.352  26.814  1.00  0.00     0.055 A 
ATOM     54  C   UNL A   1      42.143  27.353  25.771  1.00  0.00     0.041 A 
ATOM     55  F   UNL A   1      42.205  29.355  26.987  1.00  0.00    -0.206 F 
ATOM     56  C   UNL A   1      41.864  25.993  25.700  1.00  0.00     0.022 A 
BRANCH  53  57
ATOM     57  S   UNL A   1      41.056  23.558  26.791  1.00  0.00     0.124 S 
ATOM     58  O   UNL A   1      39.622  23.466  26.541  1.00  0.00    -0.237 OA
ATOM     59  O   UNL A   1      41.925  23.142  25.695  1.00  0.00    -0.237 OA
ATOM     60  O   UNL A   1      41.487  23.134  28.121  1.00  0.00    -0.744 OA
ENDBRANCH  53  57
ENDBRANCH  26  50
BRANCH  38  61
ATOM     61  C   UNL A   1      44.421  27.509  34.313  1.00  0.00     0.023 A 
ATOM     62  C   UNL A   1      44.212  26.228  34.855  1.00  0.00     0.031 A 
ATOM     63  C   UNL A   1      45.723  28.038  34.345  1.00  0.00     0.131 A 
ATOM     64  C   UNL A   1      45.276  25.544  35.462  1.00  0.00     0.055 A 
ATOM     65  C   UNL A   1      46.790  27.329  34.899  1.00  0.00     0.041 A 
ATOM     66  F   UNL A   1      45.978  29.257  33.845  1.00  0.00    -0.206 F 
ATOM     67  C   UNL A   1      46.567  26.081  35.474  1.00  0.00     0.022 A 
BRANCH  64  68
ATOM     68  S   UNL A   1      44.933  23.984  36.319  1.00  0.00     0.124 S 
ATOM     69  O   UNL A   1      46.064  23.156  35.910  1.00  0.00    -0.237 OA
ATOM     70  O   UNL A   1      44.915  24.393  37.719  1.00  0.00    -0.237 OA
ATOM     71  O   UNL A   1      43.638  23.573  35.778  1.00  0.00    -0.744 OA
ENDBRANCH  64  68
ENDBRANCH  38  61
ENDBRANCH  12  13
ENDBRANCH   5   7
ENDBRANCH   2   3
ENDBRANCH   1   2
BRANCH   1  72
ATOM     72  C   UNL A   1      31.280  30.723  25.711  1.00  0.00     0.023 C 
BRANCH  72  73
ATOM     73  C   UNL A   1      32.570  29.913  25.820  1.00  0.00     0.116 C 
BRANCH  73  74
ATOM     74  N   UNL A   1      33.226  29.717  24.542  1.00  0.00    -0.356 N 
ATOM     75  C   UNL A   1      32.929  28.820  23.556  1.00  0.00     0.223 C 
ATOM     76  H   UNL A   1      33.990  30.312  24.362  1.00  0.00     0.163 HD
ATOM     77  O   UNL A   1      33.529  28.910  22.486  1.00  0.00    -0.275 OA
BRANCH  75  78
ATOM     78  C   UNL A   1      31.906  27.718  23.831  1.00  0.00     0.087 C 
ATOM     79  C   UNL A   1      31.136  27.315  22.571  1.00  0.00     0.014 C 
ATOM     80  C   UNL A   1      32.620  26.422  24.260  1.00  0.00     0.056 C 
ATOM     81  C   UNL A   1      31.928  26.180  21.927  1.00  0.00     0.001 C 
ATOM     82  C   UNL A   1      33.017  25.788  22.921  1.00  0.00     0.010 C 
BRANCH  80  83
ATOM     83  C   UNL A   1      31.726  25.474  25.082  1.00  0.00     0.265 C 
BRANCH  83  84
ATOM     84  N   UNL A   1      32.541  24.747  26.061  1.00  0.00    -0.343 N 
ATOM     85  H   UNL A   1      32.266  25.045  26.998  1.00  0.00     0.346 HD
ATOM     86  H   UNL A   1      33.518  24.961  25.863  1.00  0.00     0.346 HD
BRANCH  84  87
ATOM     87  C   UNL A   1      32.385  23.284  25.971  1.00  0.00     0.187 C 
ATOM     88  C   UNL A   1      32.700  22.567  27.292  1.00  0.00     0.093 C 
ATOM     89  C   UNL A   1      33.288  22.734  24.850  1.00  0.00     0.100 C 
ATOM     90  C   UNL A   1      34.189  22.565  27.610  1.00  0.00     0.167 C 
ATOM     91  C   UNL A   1      34.763  22.761  25.257  1.00  0.00     0.074 C 
ATOM     92  O   UNL A   1      34.925  22.039  26.505  1.00  0.00    -0.375 OA
ATOM     93  C   UNL A   1      35.712  22.292  24.111  1.00  0.00     0.036 C 
ATOM     94  C   UNL A   1      35.500  24.130  25.163  1.00  0.00     0.036 C 
ATOM     95  C   UNL A   1      36.697  23.390  24.551  1.00  0.00     0.006 C 
ENDBRANCH  84  87
ENDBRANCH  83  84
ENDBRANCH  80  83
ENDBRANCH  75  78
ENDBRANCH  73  74
ENDBRANCH  72  73
ENDBRANCH   1  72
TORSDOF 17
ENDMDL
MODEL 3
REMARK VINA RESULT:     -11.8      1.529      3.545
REMARK SMILES O=C(NCCCCNC(=O)[C@H]1CCC[C@@H]1C[NH2+][C@@H]1CCOC2(CCC2)C1)c1ccc(-c2c3nc(c(-c4cc(S(=O)(=O)[O-])ccc4F)c4ccc([nH]4)c(-c4cc(S(=O)(=O)[O-])ccc4F)c4nc(c(-c5cc(S(=O)(=O)[O-])ccc5F)c5ccc2[nH]5)C=C4)C=C3)cc1
REMARK SMILES IDX 5 1 4 2 3 3 1 4 2 5 27 7 28 8 89 9 29 10 88 11 30 12 31 13
REMARK SMILES IDX 32 14 82 15 33 16 87 17 81 18 83 19 34 20 86 21 80 22 79 23
REMARK SMILES IDX 35 25 67 26 47 27 66 28 48 29 51 30 65 31 84 32 49 33 50 34
REMARK SMILES IDX 64 36 85 37 52 38 36 39 37 40 45 41 38 42 44 43 46 44 43 45
REMARK SMILES IDX 39 46 40 47 41 48 42 49 68 50 69 51 77 52 70 53 76 54 78 55
REMARK SMILES IDX 75 56 71 57 72 58 73 59 74 60 53 61 54 62 62 63 55 64 61 65
REMARK SMILES IDX 63 66 60 67 56 68 57 69 58 70 59 71 6 72 7 73 8 74 9 75
REMARK SMILES IDX 10 77 11 78 12 79 15 80 13 81 14 82 16 83 17 84 18 87 19 88
REMARK SMILES IDX 26 89 20 90 22 91 21 92 23 93 25 94 24 95
REMARK H PARENT 3 6 83 24 51 35 8 76 17 85 17 86
REMARK Flexibility Score: inf
ROOT
ATOM      1  C   UNL A   1      31.681  31.766  26.553  1.00  0.00     0.023 C 
ENDROOT
BRANCH   1   2
ATOM      2  C   UNL A   1      32.876  32.416  27.239  1.00  0.00     0.116 C 
BRANCH   2   3
ATOM      3  N   UNL A   1      32.644  33.805  27.608  1.00  0.00    -0.352 N 
ATOM      4  O   UNL A   1      32.827  35.682  28.846  1.00  0.00    -0.269 OA
ATOM      5  C   UNL A   1      33.243  34.553  28.598  1.00  0.00     0.251 C 
ATOM      6  H   UNL A   1      31.964  34.277  27.075  1.00  0.00     0.163 HD
BRANCH   5   7
ATOM      7  C   UNL A   1      34.364  33.984  29.380  1.00  0.00     0.039 A 
ATOM      8  C   UNL A   1      35.687  34.301  29.064  1.00  0.00     0.014 A 
ATOM      9  C   UNL A   1      34.088  33.115  30.441  1.00  0.00     0.014 A 
ATOM     10  C   UNL A   1      36.729  33.637  29.703  1.00  0.00     0.010 A 
ATOM     11  C   UNL A   1      35.140  32.511  31.138  1.00  0.00     0.010 A 
ATOM     12  C   UNL A   1      36.470  32.740  30.752  1.00  0.00    -0.014 A 
BRANCH  12  13
ATOM     13  C   UNL A   1      37.610  32.090  31.452  1.00  0.00     0.031 A 
ATOM     14  C   UNL A   1      38.412  31.002  30.789  1.00  0.00     0.074 A 
ATOM     15  C   UNL A   1      37.946  32.524  32.683  1.00  0.00     0.049 A 
ATOM     16  N   UNL A   1      39.445  30.342  31.249  1.00  0.00    -0.248 NA
ATOM     17  C   UNL A   1      37.994  30.596  29.440  1.00  0.00     0.031 C 
ATOM     18  C   UNL A   1      37.240  33.573  33.424  1.00  0.00     0.029 A 
ATOM     19  N   UNL A   1      38.967  32.157  33.521  1.00  0.00    -0.354 N 
ATOM     20  C   UNL A   1      39.798  29.439  30.252  1.00  0.00     0.074 A 
ATOM     21  C   UNL A   1      38.841  29.611  29.178  1.00  0.00     0.031 C 
ATOM     22  C   UNL A   1      37.876  33.796  34.584  1.00  0.00     0.029 A 
ATOM     23  C   UNL A   1      38.990  32.863  34.701  1.00  0.00     0.049 A 
ATOM     24  H   UNL A   1      39.621  31.456  33.299  1.00  0.00     0.167 HD
ATOM     25  C   UNL A   1      40.831  28.557  30.231  1.00  0.00     0.034 A 
ATOM     26  C   UNL A   1      39.803  32.760  35.769  1.00  0.00     0.034 A 
ATOM     27  C   UNL A   1      41.775  28.396  31.313  1.00  0.00     0.049 A 
ATOM     28  C   UNL A   1      40.910  31.742  35.741  1.00  0.00     0.074 A 
ATOM     29  C   UNL A   1      42.864  27.545  31.391  1.00  0.00     0.029 A 
ATOM     30  N   UNL A   1      41.739  29.097  32.513  1.00  0.00    -0.354 N 
ATOM     31  N   UNL A   1      41.232  30.900  34.785  1.00  0.00    -0.248 NA
ATOM     32  C   UNL A   1      41.765  31.663  36.931  1.00  0.00     0.031 C 
ATOM     33  C   UNL A   1      43.448  27.686  32.655  1.00  0.00     0.029 A 
ATOM     34  C   UNL A   1      42.768  28.677  33.345  1.00  0.00     0.049 A 
ATOM     35  H   UNL A   1      41.080  29.792  32.741  1.00  0.00     0.167 HD
ATOM     36  C   UNL A   1      42.340  30.202  35.256  1.00  0.00     0.074 A 
ATOM     37  C   UNL A   1      42.643  30.740  36.568  1.00  0.00     0.031 C 
ATOM     38  C   UNL A   1      43.044  29.208  34.659  1.00  0.00     0.034 A 
BRANCH  25  39
ATOM     39  C   UNL A   1      40.964  27.669  29.016  1.00  0.00     0.023 A 
ATOM     40  C   UNL A   1      41.940  27.904  28.030  1.00  0.00     0.031 A 
ATOM     41  C   UNL A   1      40.093  26.581  28.830  1.00  0.00     0.131 A 
ATOM     42  C   UNL A   1      41.978  27.106  26.876  1.00  0.00     0.055 A 
ATOM     43  C   UNL A   1      40.186  25.744  27.716  1.00  0.00     0.041 A 
ATOM     44  F   UNL A   1      39.130  26.317  29.726  1.00  0.00    -0.206 F 
ATOM     45  C   UNL A   1      41.123  26.012  26.723  1.00  0.00     0.022 A 
BRANCH  42  46
ATOM     46  S   UNL A   1      43.073  27.598  25.516  1.00  0.00     0.124 S 
ATOM     47  O   UNL A   1      43.566  26.304  25.048  1.00  0.00    -0.237 OA
ATOM     48  O   UNL A   1      42.165  28.297  24.616  1.00  0.00    -0.237 OA
ATOM     49  O   UNL A   1      44.075  28.437  26.168  1.00  0.00    -0.744 OA
ENDBRANCH  42  46
ENDBRANCH  25  39
BRANCH  26  50
ATOM     50  C   UNL A   1      39.578  33.616  36.968  1.00  0.00     0.023 A 
ATOM     51  C   UNL A   1      38.965  33.104  38.121  1.00  0.00     0.031 A 
ATOM     52  C   UNL A   1      39.951  34.972  36.965  1.00  0.00     0.131 A 
ATOM     53  C   UNL A   1      38.707  33.952  39.209  1.00  0.00     0.055 A 
ATOM     54  C   UNL A   1      39.742  35.799  38.069  1.00  0.00     0.041 A 
ATOM     55  F   UNL A   1      40.545  35.510  35.887  1.00  0.00    -0.206 F 
ATOM     56  C   UNL A   1      39.104  35.292  39.196  1.00  0.00     0.022 A 
BRANCH  53  57
ATOM     57  S   UNL A   1      37.766  33.300  40.615  1.00  0.00     0.124 S 
ATOM     58  O   UNL A   1      38.779  32.522  41.318  1.00  0.00    -0.237 OA
ATOM     59  O   UNL A   1      37.325  34.524  41.276  1.00  0.00    -0.237 OA
ATOM     60  O   UNL A   1      36.705  32.518  39.983  1.00  0.00    -0.744 OA
ENDBRANCH  53  57
ENDBRANCH  26  50
BRANCH  38  61
ATOM     61  C   UNL A   1      44.229  28.669  35.420  1.00  0.00     0.023 A 
ATOM     62  C   UNL A   1      44.095  27.622  36.349  1.00  0.00     0.031 A 
ATOM     63  C   UNL A   1      45.503  29.237  35.239  1.00  0.00     0.131 A 
ATOM     64  C   UNL A   1      45.203  27.215  37.108  1.00  0.00     0.055 A 
ATOM     65  C   UNL A   1      46.614  28.788  35.956  1.00  0.00     0.041 A 
ATOM     66  F   UNL A   1      45.687  30.240  34.368  1.00  0.00    -0.206 F 
ATOM     67  C   UNL A   1      46.464  27.782  36.907  1.00  0.00     0.022 A 
BRANCH  64  68
ATOM     68  S   UNL A   1      44.954  25.999  38.429  1.00  0.00     0.124 S 
ATOM     69  O   UNL A   1      46.326  25.686  38.817  1.00  0.00    -0.237 OA
ATOM     70  O   UNL A   1      44.171  26.751  39.403  1.00  0.00    -0.237 OA
ATOM     71  O   UNL A   1      44.236  24.913  37.764  1.00  0.00    -0.744 OA
ENDBRANCH  64  68
ENDBRANCH  38  61
ENDBRANCH  12  13
ENDBRANCH   5   7
ENDBRANCH   2   3
ENDBRANCH   1   2
BRANCH   1  72
ATOM     72  C   UNL A   1      31.764  30.251  26.383  1.00  0.00     0.023 C 
BRANCH  72  73
ATOM     73  C   UNL A   1      33.173  29.684  26.221  1.00  0.00     0.116 C 
BRANCH  73  74
ATOM     74  N   UNL A   1      33.259  28.276  26.554  1.00  0.00    -0.356 N 
ATOM     75  C   UNL A   1      33.464  27.212  25.722  1.00  0.00     0.223 C 
ATOM     76  H   UNL A   1      33.156  28.058  27.509  1.00  0.00     0.163 HD
ATOM     77  O   UNL A   1      33.641  26.103  26.226  1.00  0.00    -0.275 OA
BRANCH  75  78
ATOM     78  C   UNL A   1      33.418  27.425  24.209  1.00  0.00     0.087 C 
ATOM     79  C   UNL A   1      34.048  26.260  23.442  1.00  0.00     0.014 C 
ATOM     80  C   UNL A   1      31.959  27.448  23.717  1.00  0.00     0.056 C 
ATOM     81  C   UNL A   1      32.920  25.270  23.161  1.00  0.00     0.001 C 
ATOM     82  C   UNL A   1      31.622  25.960  23.567  1.00  0.00     0.010 C 
BRANCH  80  83
ATOM     83  C   UNL A   1      31.774  28.198  22.384  1.00  0.00     0.265 C 
BRANCH  83  84
ATOM     84  N   UNL A   1      30.370  28.591  22.224  1.00  0.00    -0.343 N 
ATOM     85  H   UNL A   1      29.870  27.829  21.764  1.00  0.00     0.346 HD
ATOM     86  H   UNL A   1      30.355  29.448  21.672  1.00  0.00     0.346 HD
BRANCH  84  87
ATOM     87  C   UNL A   1      29.702  28.882  23.505  1.00  0.00     0.187 C 
ATOM     88  C   UNL A   1      28.336  28.191  23.637  1.00  0.00     0.093 C 
ATOM     89  C   UNL A   1      29.535  30.406  23.668  1.00  0.00     0.100 C 
ATOM     90  C   UNL A   1      27.279  28.821  22.740  1.00  0.00     0.167 C 
ATOM     91  C   UNL A   1      28.449  30.951  22.738  1.00  0.00     0.074 C 
ATOM     92  O   UNL A   1      27.213  30.229  22.974  1.00  0.00    -0.375 OA
ATOM     93  C   UNL A   1      28.315  32.504  22.816  1.00  0.00     0.036 C 
ATOM     94  C   UNL A   1      28.836  31.166  21.245  1.00  0.00     0.036 C 
ATOM     95  C   UNL A   1      28.091  32.506  21.293  1.00  0.00     0.006 C 
ENDBRANCH  84  87
ENDBRANCH  83  84
ENDBRANCH  80  83
ENDBRANCH  75  78
ENDBRANCH  73  74
ENDBRANCH  72  73
ENDBRANCH   1  72
TORSDOF 17
ENDMDL
