MODEL 1
REMARK VINA RESULT:     -12.9      0.000      0.000
REMARK SMILES C[C@@H]1CN(c2cc(C(=O)NCCCCNC(=O)c3ccc(-c4c5nc(c(-c6cc(S(=O)(=O)[O-])ccc6F)c6ccc([nH]6)c(-c6cc(S(=O)(=O)[O-])ccc6F)c6nc(c(-c7cc(S(=O)(=O)[O-])ccc7F)c7ccc4[nH]7)C=C6)C=C5)cc3)c(F)cc2F)S(=O)(=O)C1
REMARK SMILES IDX 13 1 12 2 11 3 10 4 8 5 9 6 7 8 5 9 6 10 84 11 83 12 85 13
REMARK SMILES IDX 81 14 82 15 4 16 1 17 2 18 3 19 89 20 86 21 87 22 88 23
REMARK SMILES IDX 14 24 15 25 16 26 17 28 18 29 19 30 80 31 20 32 79 33 21 34
REMARK SMILES IDX 22 35 23 36 73 37 24 38 78 39 72 40 74 41 25 42 77 43 71 44
REMARK SMILES IDX 70 45 26 47 58 48 38 49 57 50 39 51 42 52 56 53 75 54 40 55
REMARK SMILES IDX 41 56 55 58 76 59 43 60 27 61 28 62 36 63 29 64 35 65 37 66
REMARK SMILES IDX 34 67 30 68 31 69 32 70 33 71 59 72 60 73 68 74 61 75 67 76
REMARK SMILES IDX 69 77 66 78 62 79 63 80 64 81 65 82 44 83 45 84 53 85 46 86
REMARK SMILES IDX 52 87 54 88 51 89 47 90 48 91 49 92 50 93
REMARK H PARENT 10 7 15 27 74 46 42 57
REMARK Flexibility Score: inf
ROOT
ATOM      1  C   UNL A   1      35.608  21.750  25.641  1.00  0.00     0.023 C 
ENDROOT
BRANCH   1   2
ATOM      2  C   UNL A   1      35.055  22.524  26.830  1.00  0.00     0.023 C 
BRANCH   2   3
ATOM      3  C   UNL A   1      34.046  21.793  27.704  1.00  0.00     0.116 C 
BRANCH   3   4
ATOM      4  N   UNL A   1      32.746  22.429  27.758  1.00  0.00    -0.352 N 
ATOM      5  C   UNL A   1      31.815  22.744  26.803  1.00  0.00     0.254 C 
ATOM      6  O   UNL A   1      30.782  23.284  27.207  1.00  0.00    -0.269 OA
ATOM      7  H   UNL A   1      32.474  22.686  28.669  1.00  0.00     0.163 HD
BRANCH   5   8
ATOM      8  C   UNL A   1      31.985  22.580  25.330  1.00  0.00     0.077 A 
ATOM      9  C   UNL A   1      32.092  23.754  23.189  1.00  0.00     0.088 A 
ATOM     10  C   UNL A   1      31.923  23.768  24.574  1.00  0.00     0.047 A 
ATOM     11  C   UNL A   1      32.516  22.580  22.570  1.00  0.00     0.150 A 
ATOM     12  C   UNL A   1      32.500  21.385  23.271  1.00  0.00     0.081 A 
ATOM     13  F   UNL A   1      32.901  22.580  21.286  1.00  0.00    -0.205 F 
ATOM     14  C   UNL A   1      32.147  21.387  24.623  1.00  0.00     0.139 A 
ATOM     15  F   UNL A   1      31.887  20.193  25.167  1.00  0.00    -0.206 F 
BRANCH   9  16
ATOM     16  N   UNL A   1      31.836  24.975  22.490  1.00  0.00    -0.267 N 
ATOM     17  C   UNL A   1      30.237  28.330  23.138  1.00  0.00     0.011 C 
ATOM     18  C   UNL A   1      31.034  27.253  22.424  1.00  0.00     0.023 C 
ATOM     19  C   UNL A   1      30.725  25.841  22.944  1.00  0.00     0.140 C 
ATOM     20  C   UNL A   1      32.541  27.425  22.586  1.00  0.00     0.165 C 
ATOM     21  S   UNL A   1      33.190  25.893  21.953  1.00  0.00     0.235 S 
ATOM     22  O   UNL A   1      34.400  25.550  22.668  1.00  0.00    -0.206 OA
ATOM     23  O   UNL A   1      33.145  25.949  20.510  1.00  0.00    -0.206 OA
ENDBRANCH   9  16
ENDBRANCH   5   8
ENDBRANCH   3   4
ENDBRANCH   2   3
ENDBRANCH   1   2
BRANCH   1  24
ATOM     24  C   UNL A   1      37.018  22.124  25.203  1.00  0.00     0.116 C 
BRANCH  24  25
ATOM     25  N   UNL A   1      38.016  21.108  25.506  1.00  0.00    -0.352 N 
ATOM     26  C   UNL A   1      39.241  21.250  26.118  1.00  0.00     0.251 C 
ATOM     27  H   UNL A   1      37.782  20.191  25.234  1.00  0.00     0.163 HD
ATOM     28  O   UNL A   1      40.004  20.292  26.191  1.00  0.00    -0.269 OA
BRANCH  26  29
ATOM     29  C   UNL A   1      39.640  22.573  26.639  1.00  0.00     0.039 A 
ATOM     30  C   UNL A   1      40.639  22.646  27.611  1.00  0.00     0.014 A 
ATOM     31  C   UNL A   1      39.068  23.742  26.128  1.00  0.00     0.014 A 
ATOM     32  C   UNL A   1      41.120  23.895  28.010  1.00  0.00     0.010 A 
ATOM     33  C   UNL A   1      39.615  24.977  26.455  1.00  0.00     0.010 A 
ATOM     34  C   UNL A   1      40.644  25.069  27.403  1.00  0.00    -0.014 A 
BRANCH  34  35
ATOM     35  C   UNL A   1      41.209  26.398  27.756  1.00  0.00     0.031 A 
ATOM     36  C   UNL A   1      42.629  26.735  27.386  1.00  0.00     0.074 A 
ATOM     37  C   UNL A   1      40.460  27.282  28.446  1.00  0.00     0.049 A 
ATOM     38  N   UNL A   1      43.312  27.823  27.635  1.00  0.00    -0.248 NA
ATOM     39  C   UNL A   1      43.391  25.700  26.671  1.00  0.00     0.031 C 
ATOM     40  C   UNL A   1      39.086  27.050  28.902  1.00  0.00     0.029 A 
ATOM     41  N   UNL A   1      40.741  28.551  28.884  1.00  0.00    -0.354 N 
ATOM     42  C   UNL A   1      44.582  27.601  27.112  1.00  0.00     0.074 A 
ATOM     43  C   UNL A   1      44.594  26.246  26.605  1.00  0.00     0.031 C 
ATOM     44  C   UNL A   1      38.632  28.155  29.515  1.00  0.00     0.029 A 
ATOM     45  C   UNL A   1      39.695  29.155  29.545  1.00  0.00     0.049 A 
ATOM     46  H   UNL A   1      41.609  28.991  28.739  1.00  0.00     0.167 HD
ATOM     47  C   UNL A   1      45.631  28.456  27.033  1.00  0.00     0.034 A 
ATOM     48  C   UNL A   1      39.605  30.372  30.117  1.00  0.00     0.034 A 
ATOM     49  C   UNL A   1      45.598  29.807  27.540  1.00  0.00     0.049 A 
ATOM     50  C   UNL A   1      40.797  31.295  30.049  1.00  0.00     0.074 A 
ATOM     51  C   UNL A   1      46.585  30.776  27.475  1.00  0.00     0.029 A 
ATOM     52  N   UNL A   1      44.527  30.379  28.216  1.00  0.00    -0.354 N 
ATOM     53  N   UNL A   1      41.973  31.089  29.501  1.00  0.00    -0.248 NA
ATOM     54  C   UNL A   1      40.644  32.619  30.665  1.00  0.00     0.031 C 
ATOM     55  C   UNL A   1      46.143  31.900  28.181  1.00  0.00     0.029 A 
ATOM     56  C   UNL A   1      44.844  31.673  28.604  1.00  0.00     0.049 A 
ATOM     57  H   UNL A   1      43.669  29.931  28.395  1.00  0.00     0.167 HD
ATOM     58  C   UNL A   1      42.686  32.272  29.675  1.00  0.00     0.074 A 
ATOM     59  C   UNL A   1      41.799  33.190  30.361  1.00  0.00     0.031 C 
ATOM     60  C   UNL A   1      43.955  32.575  29.299  1.00  0.00     0.034 A 
BRANCH  47  61
ATOM     61  C   UNL A   1      46.902  27.943  26.397  1.00  0.00     0.023 A 
ATOM     62  C   UNL A   1      47.161  28.112  25.025  1.00  0.00     0.031 A 
ATOM     63  C   UNL A   1      47.856  27.254  27.166  1.00  0.00     0.131 A 
ATOM     64  C   UNL A   1      48.302  27.530  24.450  1.00  0.00     0.055 A 
ATOM     65  C   UNL A   1      49.034  26.756  26.604  1.00  0.00     0.041 A 
ATOM     66  F   UNL A   1      47.655  27.040  28.475  1.00  0.00    -0.206 F 
ATOM     67  C   UNL A   1      49.255  26.877  25.235  1.00  0.00     0.022 A 
BRANCH  64  68
ATOM     68  S   UNL A   1      48.441  27.502  22.643  1.00  0.00     0.124 S 
ATOM     69  O   UNL A   1      48.484  26.067  22.371  1.00  0.00    -0.237 OA
ATOM     70  O   UNL A   1      47.229  28.195  22.222  1.00  0.00    -0.237 OA
ATOM     71  O   UNL A   1      49.690  28.215  22.383  1.00  0.00    -0.744 OA
ENDBRANCH  64  68
ENDBRANCH  47  61
BRANCH  48  72
ATOM     72  C   UNL A   1      38.352  30.797  30.808  1.00  0.00     0.023 A 
ATOM     73  C   UNL A   1      37.320  31.444  30.109  1.00  0.00     0.031 A 
ATOM     74  C   UNL A   1      38.188  30.609  32.193  1.00  0.00     0.131 A 
ATOM     75  C   UNL A   1      36.199  31.927  30.801  1.00  0.00     0.055 A 
ATOM     76  C   UNL A   1      37.042  31.035  32.866  1.00  0.00     0.041 A 
ATOM     77  F   UNL A   1      39.141  29.995  32.913  1.00  0.00    -0.206 F 
ATOM     78  C   UNL A   1      36.045  31.713  32.172  1.00  0.00     0.022 A 
BRANCH  75  79
ATOM     79  S   UNL A   1      34.987  32.934  29.900  1.00  0.00     0.124 S 
ATOM     80  O   UNL A   1      34.395  31.951  29.000  1.00  0.00    -0.237 OA
ATOM     81  O   UNL A   1      34.132  33.415  30.979  1.00  0.00    -0.237 OA
ATOM     82  O   UNL A   1      35.809  33.957  29.256  1.00  0.00    -0.744 OA
ENDBRANCH  75  79
ENDBRANCH  48  72
BRANCH  60  83
ATOM     83  C   UNL A   1      44.438  33.979  29.581  1.00  0.00     0.023 A 
ATOM     84  C   UNL A   1      44.239  35.031  28.670  1.00  0.00     0.031 A 
ATOM     85  C   UNL A   1      45.129  34.263  30.774  1.00  0.00     0.131 A 
ATOM     86  C   UNL A   1      44.786  36.295  28.931  1.00  0.00     0.055 A 
ATOM     87  C   UNL A   1      45.604  35.542  31.063  1.00  0.00     0.041 A 
ATOM     88  F   UNL A   1      45.354  33.297  31.680  1.00  0.00    -0.206 F 
ATOM     89  C   UNL A   1      45.449  36.564  30.132  1.00  0.00     0.022 A 
BRANCH  86  90
ATOM     90  S   UNL A   1      44.726  37.556  27.627  1.00  0.00     0.124 S 
ATOM     91  O   UNL A   1      43.463  37.245  26.965  1.00  0.00    -0.237 OA
ATOM     92  O   UNL A   1      44.756  38.798  28.392  1.00  0.00    -0.237 OA
ATOM     93  O   UNL A   1      45.924  37.287  26.834  1.00  0.00    -0.744 OA
ENDBRANCH  86  90
ENDBRANCH  60  83
ENDBRANCH  34  35
ENDBRANCH  26  29
ENDBRANCH  24  25
ENDBRANCH   1  24
TORSDOF 15
ENDMDL
MODEL 2
REMARK VINA RESULT:     -12.6      5.796      8.704
REMARK SMILES C[C@@H]1CN(c2cc(C(=O)NCCCCNC(=O)c3ccc(-c4c5nc(c(-c6cc(S(=O)(=O)[O-])ccc6F)c6ccc([nH]6)c(-c6cc(S(=O)(=O)[O-])ccc6F)c6nc(c(-c7cc(S(=O)(=O)[O-])ccc7F)c7ccc4[nH]7)C=C6)C=C5)cc3)c(F)cc2F)S(=O)(=O)C1
REMARK SMILES IDX 13 1 12 2 11 3 10 4 8 5 9 6 7 8 5 9 6 10 84 11 83 12 85 13
REMARK SMILES IDX 81 14 82 15 4 16 1 17 2 18 3 19 89 20 86 21 87 22 88 23
REMARK SMILES IDX 14 24 15 25 16 26 17 28 18 29 19 30 80 31 20 32 79 33 21 34
REMARK SMILES IDX 22 35 23 36 73 37 24 38 78 39 72 40 74 41 25 42 77 43 71 44
REMARK SMILES IDX 70 45 26 47 58 48 38 49 57 50 39 51 42 52 56 53 75 54 40 55
REMARK SMILES IDX 41 56 55 58 76 59 43 60 27 61 28 62 36 63 29 64 35 65 37 66
REMARK SMILES IDX 34 67 30 68 31 69 32 70 33 71 59 72 60 73 68 74 61 75 67 76
REMARK SMILES IDX 69 77 66 78 62 79 63 80 64 81 65 82 44 83 45 84 53 85 46 86
REMARK SMILES IDX 52 87 54 88 51 89 47 90 48 91 49 92 50 93
REMARK H PARENT 10 7 15 27 74 46 42 57
REMARK Flexibility Score: inf
ROOT
ATOM      1  C   UNL A   1      31.369  32.197  26.500  1.00  0.00     0.023 C 
ENDROOT
BRANCH   1   2
ATOM      2  C   UNL A   1      31.398  30.847  25.795  1.00  0.00     0.023 C 
BRANCH   2   3
ATOM      3  C   UNL A   1      32.702  30.067  25.880  1.00  0.00     0.116 C 
BRANCH   3   4
ATOM      4  N   UNL A   1      33.251  29.696  24.593  1.00  0.00    -0.352 N 
ATOM      5  C   UNL A   1      32.760  28.975  23.536  1.00  0.00     0.254 C 
ATOM      6  O   UNL A   1      33.507  28.858  22.561  1.00  0.00    -0.269 OA
ATOM      7  H   UNL A   1      34.166  30.031  24.446  1.00  0.00     0.163 HD
BRANCH   5   8
ATOM      8  C   UNL A   1      31.455  28.252  23.502  1.00  0.00     0.077 A 
ATOM      9  C   UNL A   1      30.288  26.207  24.157  1.00  0.00     0.088 A 
ATOM     10  C   UNL A   1      31.451  26.976  24.099  1.00  0.00     0.047 A 
ATOM     11  C   UNL A   1      29.075  26.787  23.792  1.00  0.00     0.150 A 
ATOM     12  C   UNL A   1      29.062  28.001  23.126  1.00  0.00     0.081 A 
ATOM     13  F   UNL A   1      27.913  26.164  24.039  1.00  0.00    -0.205 F 
ATOM     14  C   UNL A   1      30.265  28.678  22.910  1.00  0.00     0.139 A 
ATOM     15  F   UNL A   1      30.223  29.691  22.036  1.00  0.00    -0.206 F 
BRANCH   9  16
ATOM     16  N   UNL A   1      30.421  24.859  24.616  1.00  0.00    -0.267 N 
ATOM     17  C   UNL A   1      32.610  21.853  23.985  1.00  0.00     0.011 C 
ATOM     18  C   UNL A   1      31.569  22.734  24.652  1.00  0.00     0.023 C 
ATOM     19  C   UNL A   1      31.072  23.863  23.736  1.00  0.00     0.140 C 
ATOM     20  C   UNL A   1      32.095  23.428  25.905  1.00  0.00     0.165 C 
ATOM     21  S   UNL A   1      30.816  24.611  26.273  1.00  0.00     0.235 S 
ATOM     22  O   UNL A   1      31.405  25.786  26.876  1.00  0.00    -0.206 OA
ATOM     23  O   UNL A   1      29.717  23.905  26.891  1.00  0.00    -0.206 OA
ENDBRANCH   9  16
ENDBRANCH   5   8
ENDBRANCH   3   4
ENDBRANCH   2   3
ENDBRANCH   1   2
BRANCH   1  24
ATOM     24  C   UNL A   1      32.679  32.639  27.139  1.00  0.00     0.116 C 
BRANCH  24  25
ATOM     25  N   UNL A   1      32.653  34.002  27.649  1.00  0.00    -0.352 N 
ATOM     26  C   UNL A   1      33.458  34.588  28.600  1.00  0.00     0.251 C 
ATOM     27  H   UNL A   1      31.963  34.587  27.260  1.00  0.00     0.163 HD
ATOM     28  O   UNL A   1      33.218  35.727  28.988  1.00  0.00    -0.269 OA
BRANCH  26  29
ATOM     29  C   UNL A   1      34.577  33.815  29.177  1.00  0.00     0.039 A 
ATOM     30  C   UNL A   1      35.887  34.224  28.920  1.00  0.00     0.014 A 
ATOM     31  C   UNL A   1      34.331  32.723  30.013  1.00  0.00     0.014 A 
ATOM     32  C   UNL A   1      36.945  33.586  29.570  1.00  0.00     0.010 A 
ATOM     33  C   UNL A   1      35.377  32.155  30.731  1.00  0.00     0.010 A 
ATOM     34  C   UNL A   1      36.697  32.576  30.515  1.00  0.00    -0.014 A 
BRANCH  34  35
ATOM     35  C   UNL A   1      37.809  31.949  31.278  1.00  0.00     0.031 A 
ATOM     36  C   UNL A   1      38.624  30.849  30.652  1.00  0.00     0.074 A 
ATOM     37  C   UNL A   1      38.055  32.339  32.545  1.00  0.00     0.049 A 
ATOM     38  N   UNL A   1      39.609  30.156  31.164  1.00  0.00    -0.248 NA
ATOM     39  C   UNL A   1      38.264  30.455  29.282  1.00  0.00     0.031 C 
ATOM     40  C   UNL A   1      37.301  33.362  33.276  1.00  0.00     0.029 A 
ATOM     41  N   UNL A   1      39.005  31.927  33.445  1.00  0.00    -0.354 N 
ATOM     42  C   UNL A   1      39.981  29.244  30.182  1.00  0.00     0.074 A 
ATOM     43  C   UNL A   1      39.064  29.421  29.078  1.00  0.00     0.031 C 
ATOM     44  C   UNL A   1      37.845  33.527  34.491  1.00  0.00     0.029 A 
ATOM     45  C   UNL A   1      38.951  32.588  34.651  1.00  0.00     0.049 A 
ATOM     46  H   UNL A   1      39.665  31.225  33.246  1.00  0.00     0.167 HD
ATOM     47  C   UNL A   1      41.010  28.362  30.187  1.00  0.00     0.034 A 
ATOM     48  C   UNL A   1      39.701  32.448  35.762  1.00  0.00     0.034 A 
ATOM     49  C   UNL A   1      41.919  28.203  31.297  1.00  0.00     0.049 A 
ATOM     50  C   UNL A   1      40.819  31.435  35.758  1.00  0.00     0.074 A 
ATOM     51  C   UNL A   1      43.023  27.373  31.395  1.00  0.00     0.029 A 
ATOM     52  N   UNL A   1      41.824  28.878  32.508  1.00  0.00    -0.354 N 
ATOM     53  N   UNL A   1      41.193  30.618  34.800  1.00  0.00    -0.248 NA
ATOM     54  C   UNL A   1      41.625  31.334  36.982  1.00  0.00     0.031 C 
ATOM     55  C   UNL A   1      43.544  27.486  32.688  1.00  0.00     0.029 A 
ATOM     56  C   UNL A   1      42.827  28.457  33.369  1.00  0.00     0.049 A 
ATOM     57  H   UNL A   1      41.144  29.556  32.723  1.00  0.00     0.167 HD
ATOM     58  C   UNL A   1      42.300  29.934  35.294  1.00  0.00     0.074 A 
ATOM     59  C   UNL A   1      42.542  30.449  36.626  1.00  0.00     0.031 C 
ATOM     60  C   UNL A   1      43.052  28.970  34.701  1.00  0.00     0.034 A 
BRANCH  47  61
ATOM     61  C   UNL A   1      41.187  27.490  28.966  1.00  0.00     0.023 A 
ATOM     62  C   UNL A   1      42.202  27.736  28.023  1.00  0.00     0.031 A 
ATOM     63  C   UNL A   1      40.314  26.415  28.724  1.00  0.00     0.131 A 
ATOM     64  C   UNL A   1      42.269  26.971  26.848  1.00  0.00     0.055 A 
ATOM     65  C   UNL A   1      40.443  25.600  27.597  1.00  0.00     0.041 A 
ATOM     66  F   UNL A   1      39.311  26.144  29.573  1.00  0.00    -0.206 F 
ATOM     67  C   UNL A   1      41.414  25.886  26.642  1.00  0.00     0.022 A 
BRANCH  64  68
ATOM     68  S   UNL A   1      43.384  27.513  25.526  1.00  0.00     0.124 S 
ATOM     69  O   UNL A   1      44.165  28.546  26.204  1.00  0.00    -0.237 OA
ATOM     70  O   UNL A   1      44.100  26.287  25.194  1.00  0.00    -0.237 OA
ATOM     71  O   UNL A   1      42.478  28.007  24.492  1.00  0.00    -0.744 OA
ENDBRANCH  64  68
ENDBRANCH  47  61
BRANCH  48  72
ATOM     72  C   UNL A   1      39.429  33.277  36.974  1.00  0.00     0.023 A 
ATOM     73  C   UNL A   1      40.101  34.491  37.190  1.00  0.00     0.031 A 
ATOM     74  C   UNL A   1      38.528  32.841  37.962  1.00  0.00     0.131 A 
ATOM     75  C   UNL A   1      39.904  35.198  38.386  1.00  0.00     0.055 A 
ATOM     76  C   UNL A   1      38.289  33.579  39.122  1.00  0.00     0.041 A 
ATOM     77  F   UNL A   1      37.856  31.688  37.809  1.00  0.00    -0.206 F 
ATOM     78  C   UNL A   1      38.991  34.759  39.347  1.00  0.00     0.022 A 
BRANCH  75  79
ATOM     79  S   UNL A   1      40.940  36.651  38.717  1.00  0.00     0.124 S 
ATOM     80  O   UNL A   1      41.680  36.779  37.467  1.00  0.00    -0.237 OA
ATOM     81  O   UNL A   1      39.940  37.680  38.981  1.00  0.00    -0.237 OA
ATOM     82  O   UNL A   1      41.734  36.245  39.875  1.00  0.00    -0.744 OA
ENDBRANCH  75  79
ENDBRANCH  48  72
BRANCH  60  83
ATOM     83  C   UNL A   1      44.240  28.450  35.477  1.00  0.00     0.023 A 
ATOM     84  C   UNL A   1      44.116  27.419  36.424  1.00  0.00     0.031 A 
ATOM     85  C   UNL A   1      45.514  29.013  35.279  1.00  0.00     0.131 A 
ATOM     86  C   UNL A   1      45.228  27.033  37.187  1.00  0.00     0.055 A 
ATOM     87  C   UNL A   1      46.632  28.572  35.986  1.00  0.00     0.041 A 
ATOM     88  F   UNL A   1      45.693  30.006  34.391  1.00  0.00    -0.206 F 
ATOM     89  C   UNL A   1      46.490  27.588  36.959  1.00  0.00     0.022 A 
BRANCH  86  90
ATOM     90  S   UNL A   1      44.979  25.880  38.566  1.00  0.00     0.124 S 
ATOM     91  O   UNL A   1      46.157  26.135  39.388  1.00  0.00    -0.237 OA
ATOM     92  O   UNL A   1      43.705  26.328  39.121  1.00  0.00    -0.237 OA
ATOM     93  O   UNL A   1      44.946  24.571  37.917  1.00  0.00    -0.744 OA
ENDBRANCH  86  90
ENDBRANCH  60  83
ENDBRANCH  34  35
ENDBRANCH  26  29
ENDBRANCH  24  25
ENDBRANCH   1  24
TORSDOF 15
ENDMDL
MODEL 3
REMARK VINA RESULT:     -12.6      5.752      8.648
REMARK SMILES C[C@@H]1CN(c2cc(C(=O)NCCCCNC(=O)c3ccc(-c4c5nc(c(-c6cc(S(=O)(=O)[O-])ccc6F)c6ccc([nH]6)c(-c6cc(S(=O)(=O)[O-])ccc6F)c6nc(c(-c7cc(S(=O)(=O)[O-])ccc7F)c7ccc4[nH]7)C=C6)C=C5)cc3)c(F)cc2F)S(=O)(=O)C1
REMARK SMILES IDX 13 1 12 2 11 3 10 4 8 5 9 6 7 8 5 9 6 10 84 11 83 12 85 13
REMARK SMILES IDX 81 14 82 15 4 16 1 17 2 18 3 19 89 20 86 21 87 22 88 23
REMARK SMILES IDX 14 24 15 25 16 26 17 28 18 29 19 30 80 31 20 32 79 33 21 34
REMARK SMILES IDX 22 35 23 36 73 37 24 38 78 39 72 40 74 41 25 42 77 43 71 44
REMARK SMILES IDX 70 45 26 47 58 48 38 49 57 50 39 51 42 52 56 53 75 54 40 55
REMARK SMILES IDX 41 56 55 58 76 59 43 60 27 61 28 62 36 63 29 64 35 65 37 66
REMARK SMILES IDX 34 67 30 68 31 69 32 70 33 71 59 72 60 73 68 74 61 75 67 76
REMARK SMILES IDX 69 77 66 78 62 79 63 80 64 81 65 82 44 83 45 84 53 85 46 86
REMARK SMILES IDX 52 87 54 88 51 89 47 90 48 91 49 92 50 93
REMARK H PARENT 10 7 15 27 74 46 42 57
REMARK Flexibility Score: inf
ROOT
ATOM      1  C   UNL A   1      31.399  32.213  26.537  1.00  0.00     0.023 C 
ENDROOT
BRANCH   1   2
ATOM      2  C   UNL A   1      31.421  30.849  25.860  1.00  0.00     0.023 C 
BRANCH   2   3
ATOM      3  C   UNL A   1      32.719  30.062  25.965  1.00  0.00     0.116 C 
BRANCH   3   4
ATOM      4  N   UNL A   1      33.299  29.709  24.686  1.00  0.00    -0.352 N 
ATOM      5  C   UNL A   1      32.834  29.002  23.608  1.00  0.00     0.254 C 
ATOM      6  O   UNL A   1      33.605  28.899  22.651  1.00  0.00    -0.269 OA
ATOM      7  H   UNL A   1      34.217  30.046  24.566  1.00  0.00     0.163 HD
BRANCH   5   8
ATOM      8  C   UNL A   1      31.531  28.278  23.534  1.00  0.00     0.077 A 
ATOM      9  C   UNL A   1      30.350  26.225  24.137  1.00  0.00     0.088 A 
ATOM     10  C   UNL A   1      31.514  26.996  24.118  1.00  0.00     0.047 A 
ATOM     11  C   UNL A   1      29.146  26.808  23.747  1.00  0.00     0.150 A 
ATOM     12  C   UNL A   1      29.150  28.028  23.092  1.00  0.00     0.081 A 
ATOM     13  F   UNL A   1      27.979  26.181  23.957  1.00  0.00    -0.205 F 
ATOM     14  C   UNL A   1      30.357  28.708  22.914  1.00  0.00     0.139 A 
ATOM     15  F   UNL A   1      30.337  29.729  22.049  1.00  0.00    -0.206 F 
BRANCH   9  16
ATOM     16  N   UNL A   1      30.473  24.874  24.587  1.00  0.00    -0.267 N 
ATOM     17  C   UNL A   1      32.661  21.866  23.962  1.00  0.00     0.011 C 
ATOM     18  C   UNL A   1      31.613  22.744  24.621  1.00  0.00     0.023 C 
ATOM     19  C   UNL A   1      31.133  23.883  23.708  1.00  0.00     0.140 C 
ATOM     20  C   UNL A   1      32.124  23.427  25.887  1.00  0.00     0.165 C 
ATOM     21  S   UNL A   1      30.844  24.610  26.248  1.00  0.00     0.235 S 
ATOM     22  O   UNL A   1      31.429  25.779  26.868  1.00  0.00    -0.206 OA
ATOM     23  O   UNL A   1      29.735  23.903  26.845  1.00  0.00    -0.206 OA
ENDBRANCH   9  16
ENDBRANCH   5   8
ENDBRANCH   3   4
ENDBRANCH   2   3
ENDBRANCH   1   2
BRANCH   1  24
ATOM     24  C   UNL A   1      32.698  32.639  27.210  1.00  0.00     0.116 C 
BRANCH  24  25
ATOM     25  N   UNL A   1      32.674  34.002  27.723  1.00  0.00    -0.352 N 
ATOM     26  C   UNL A   1      33.490  34.589  28.663  1.00  0.00     0.251 C 
ATOM     27  H   UNL A   1      31.976  34.584  27.345  1.00  0.00     0.163 HD
ATOM     28  O   UNL A   1      33.251  35.726  29.057  1.00  0.00    -0.269 OA
BRANCH  26  29
ATOM     29  C   UNL A   1      34.620  33.819  29.222  1.00  0.00     0.039 A 
ATOM     30  C   UNL A   1      35.924  34.230  28.941  1.00  0.00     0.014 A 
ATOM     31  C   UNL A   1      34.391  32.729  30.066  1.00  0.00     0.014 A 
ATOM     32  C   UNL A   1      36.996  33.595  29.574  1.00  0.00     0.010 A 
ATOM     33  C   UNL A   1      35.451  32.165  30.767  1.00  0.00     0.010 A 
ATOM     34  C   UNL A   1      36.766  32.588  30.526  1.00  0.00    -0.014 A 
BRANCH  34  35
ATOM     35  C   UNL A   1      37.892  31.965  31.270  1.00  0.00     0.031 A 
ATOM     36  C   UNL A   1      38.698  30.864  30.633  1.00  0.00     0.074 A 
ATOM     37  C   UNL A   1      38.160  32.359  32.532  1.00  0.00     0.049 A 
ATOM     38  N   UNL A   1      39.692  30.174  31.130  1.00  0.00    -0.248 NA
ATOM     39  C   UNL A   1      38.314  30.465  29.271  1.00  0.00     0.031 C 
ATOM     40  C   UNL A   1      37.419  33.383  33.272  1.00  0.00     0.029 A 
ATOM     41  N   UNL A   1      39.127  31.951  33.415  1.00  0.00    -0.354 N 
ATOM     42  C   UNL A   1      40.048  29.259  30.144  1.00  0.00     0.074 A 
ATOM     43  C   UNL A   1      39.110  29.431  29.056  1.00  0.00     0.031 C 
ATOM     44  C   UNL A   1      37.984  33.553  34.477  1.00  0.00     0.029 A 
ATOM     45  C   UNL A   1      39.094  32.616  34.620  1.00  0.00     0.049 A 
ATOM     46  H   UNL A   1      39.785  31.249  33.207  1.00  0.00     0.167 HD
ATOM     47  C   UNL A   1      41.078  28.378  30.134  1.00  0.00     0.034 A 
ATOM     48  C   UNL A   1      39.865  32.481  35.718  1.00  0.00     0.034 A 
ATOM     49  C   UNL A   1      42.007  28.224  31.227  1.00  0.00     0.049 A 
ATOM     50  C   UNL A   1      40.984  31.469  35.697  1.00  0.00     0.074 A 
ATOM     51  C   UNL A   1      43.114  27.396  31.307  1.00  0.00     0.029 A 
ATOM     52  N   UNL A   1      41.933  28.903  32.437  1.00  0.00    -0.354 N 
ATOM     53  N   UNL A   1      41.341  30.650  34.735  1.00  0.00    -0.248 NA
ATOM     54  C   UNL A   1      41.812  31.374  36.906  1.00  0.00     0.031 C 
ATOM     55  C   UNL A   1      43.658  27.514  32.591  1.00  0.00     0.029 A 
ATOM     56  C   UNL A   1      42.952  28.487  33.281  1.00  0.00     0.049 A 
ATOM     57  H   UNL A   1      41.256  29.581  32.663  1.00  0.00     0.167 HD
ATOM     58  C   UNL A   1      42.458  29.968  35.211  1.00  0.00     0.074 A 
ATOM     59  C   UNL A   1      42.724  30.489  36.537  1.00  0.00     0.031 C 
ATOM     60  C   UNL A   1      43.200  29.004  34.607  1.00  0.00     0.034 A 
BRANCH  47  61
ATOM     61  C   UNL A   1      41.234  27.503  28.912  1.00  0.00     0.023 A 
ATOM     62  C   UNL A   1      42.244  27.735  27.961  1.00  0.00     0.031 A 
ATOM     63  C   UNL A   1      40.346  26.438  28.679  1.00  0.00     0.131 A 
ATOM     64  C   UNL A   1      42.292  26.967  26.786  1.00  0.00     0.055 A 
ATOM     65  C   UNL A   1      40.456  25.620  27.552  1.00  0.00     0.041 A 
ATOM     66  F   UNL A   1      39.347  26.181  29.537  1.00  0.00    -0.206 F 
ATOM     67  C   UNL A   1      41.423  25.893  26.589  1.00  0.00     0.022 A 
BRANCH  64  68
ATOM     68  S   UNL A   1      43.403  27.494  25.454  1.00  0.00     0.124 S 
ATOM     69  O   UNL A   1      44.089  28.627  26.072  1.00  0.00    -0.237 OA
ATOM     70  O   UNL A   1      44.213  26.303  25.228  1.00  0.00    -0.237 OA
ATOM     71  O   UNL A   1      42.493  27.846  24.366  1.00  0.00    -0.744 OA
ENDBRANCH  64  68
ENDBRANCH  47  61
BRANCH  48  72
ATOM     72  C   UNL A   1      39.613  33.313  36.932  1.00  0.00     0.023 A 
ATOM     73  C   UNL A   1      38.891  32.804  38.024  1.00  0.00     0.031 A 
ATOM     74  C   UNL A   1      40.045  34.650  36.997  1.00  0.00     0.131 A 
ATOM     75  C   UNL A   1      38.578  33.639  39.107  1.00  0.00     0.055 A 
ATOM     76  C   UNL A   1      39.785  35.458  38.105  1.00  0.00     0.041 A 
ATOM     77  F   UNL A   1      40.740  35.190  35.983  1.00  0.00    -0.206 F 
ATOM     78  C   UNL A   1      39.032  34.958  39.163  1.00  0.00     0.022 A 
BRANCH  75  79
ATOM     79  S   UNL A   1      37.474  33.006  40.401  1.00  0.00     0.124 S 
ATOM     80  O   UNL A   1      36.295  32.631  39.629  1.00  0.00    -0.237 OA
ATOM     81  O   UNL A   1      38.256  31.906  40.955  1.00  0.00    -0.237 OA
ATOM     82  O   UNL A   1      37.300  34.153  41.290  1.00  0.00    -0.744 OA
ENDBRANCH  75  79
ENDBRANCH  48  72
BRANCH  60  83
ATOM     83  C   UNL A   1      44.403  28.488  35.363  1.00  0.00     0.023 A 
ATOM     84  C   UNL A   1      44.296  27.469  36.325  1.00  0.00     0.031 A 
ATOM     85  C   UNL A   1      45.675  29.044  35.131  1.00  0.00     0.131 A 
ATOM     86  C   UNL A   1      45.422  27.087  37.068  1.00  0.00     0.055 A 
ATOM     87  C   UNL A   1      46.806  28.606  35.819  1.00  0.00     0.041 A 
ATOM     88  F   UNL A   1      45.838  30.025  34.228  1.00  0.00    -0.206 F 
ATOM     89  C   UNL A   1      46.682  27.634  36.807  1.00  0.00     0.022 A 
BRANCH  86  90
ATOM     90  S   UNL A   1      45.199  25.952  38.466  1.00  0.00     0.124 S 
ATOM     91  O   UNL A   1      46.465  26.097  39.177  1.00  0.00    -0.237 OA
ATOM     92  O   UNL A   1      44.026  26.506  39.133  1.00  0.00    -0.237 OA
ATOM     93  O   UNL A   1      44.993  24.655  37.825  1.00  0.00    -0.744 OA
ENDBRANCH  86  90
ENDBRANCH  60  83
ENDBRANCH  34  35
ENDBRANCH  26  29
ENDBRANCH  24  25
ENDBRANCH   1  24
TORSDOF 15
ENDMDL
