MODEL 1
REMARK VINA RESULT:     -12.7      0.000      0.000
REMARK SMILES C[C@H](C(=O)NCCCCNC(=O)c1ccc(-c2c3nc(c(-c4cc(S(=O)(=O)[O-])ccc4F)c4ccc([nH]4)c(-c4cc(S(=O)(=O)[O-])ccc4F)c4nc(c(-c5cc(S(=O)(=O)[O-])ccc5F)c5ccc2[nH]5)C=C4)C=C3)cc1)c1cccc(C(=O)c2ccccc2)c1
REMARK SMILES IDX 7 1 6 2 5 3 3 4 4 5 2 7 1 8 76 9 77 10 89 11 78 12 80 13
REMARK SMILES IDX 79 14 81 15 82 16 83 17 84 18 88 19 85 20 87 21 86 22 8 23
REMARK SMILES IDX 9 24 10 25 11 26 12 28 13 29 14 30 75 31 15 32 74 33 16 34
REMARK SMILES IDX 17 35 18 36 68 37 19 38 73 39 67 40 69 41 20 42 72 43 66 44
REMARK SMILES IDX 65 45 21 47 53 48 33 49 52 50 34 51 37 52 51 53 70 54 35 55
REMARK SMILES IDX 36 56 50 58 71 59 38 60 22 61 23 62 31 63 24 64 30 65 32 66
REMARK SMILES IDX 29 67 25 68 26 69 27 70 28 71 54 72 55 73 63 74 56 75 62 76
REMARK SMILES IDX 64 77 61 78 57 79 58 80 59 81 60 82 39 83 40 84 48 85 41 86
REMARK SMILES IDX 47 87 49 88 46 89 42 90 43 91 44 92 45 93
REMARK H PARENT 5 6 10 27 69 46 37 57
REMARK Flexibility Score: inf
ROOT
ATOM      1  C   UNL A   1      35.253  23.706  23.953  1.00  0.00     0.023 C 
ENDROOT
BRANCH   1   2
ATOM      2  C   UNL A   1      34.185  24.794  23.958  1.00  0.00     0.116 C 
BRANCH   2   3
ATOM      3  N   UNL A   1      34.027  25.363  22.637  1.00  0.00    -0.356 N 
ATOM      4  C   UNL A   1      33.301  26.447  22.233  1.00  0.00     0.227 C 
ATOM      5  O   UNL A   1      33.209  26.649  21.019  1.00  0.00    -0.274 OA
ATOM      6  H   UNL A   1      34.517  24.899  21.922  1.00  0.00     0.163 HD
BRANCH   4   7
ATOM      7  C   UNL A   1      32.651  27.385  23.265  1.00  0.00     0.105 C 
ATOM      8  C   UNL A   1      32.906  28.829  22.801  1.00  0.00     0.023 C 
BRANCH   7   9
ATOM      9  C   UNL A   1      31.177  27.051  23.496  1.00  0.00    -0.035 A 
ATOM     10  C   UNL A   1      30.768  25.899  24.179  1.00  0.00     0.004 A 
ATOM     11  C   UNL A   1      30.178  27.947  23.057  1.00  0.00     0.016 A 
ATOM     12  C   UNL A   1      29.415  25.652  24.420  1.00  0.00     0.001 A 
ATOM     13  C   UNL A   1      28.822  27.747  23.357  1.00  0.00     0.023 A 
ATOM     14  C   UNL A   1      28.451  26.577  24.026  1.00  0.00     0.012 A 
BRANCH  13  15
ATOM     15  C   UNL A   1      27.752  28.756  23.083  1.00  0.00     0.193 C 
ATOM     16  O   UNL A   1      26.576  28.478  23.312  1.00  0.00    -0.289 OA
BRANCH  15  17
ATOM     17  C   UNL A   1      28.038  30.126  22.608  1.00  0.00     0.022 A 
ATOM     18  C   UNL A   1      28.243  31.133  23.561  1.00  0.00     0.012 A 
ATOM     19  C   UNL A   1      28.021  30.440  21.245  1.00  0.00     0.012 A 
ATOM     20  C   UNL A   1      28.461  32.448  23.148  1.00  0.00     0.001 A 
ATOM     21  C   UNL A   1      28.239  31.759  20.838  1.00  0.00     0.001 A 
ATOM     22  C   UNL A   1      28.457  32.759  21.789  1.00  0.00     0.000 A 
ENDBRANCH  15  17
ENDBRANCH  13  15
ENDBRANCH   7   9
ENDBRANCH   4   7
ENDBRANCH   2   3
ENDBRANCH   1   2
BRANCH   1  23
ATOM     23  C   UNL A   1      35.000  22.542  24.897  1.00  0.00     0.023 C 
BRANCH  23  24
ATOM     24  C   UNL A   1      36.080  22.335  25.948  1.00  0.00     0.116 C 
BRANCH  24  25
ATOM     25  N   UNL A   1      37.003  21.251  25.631  1.00  0.00    -0.352 N 
ATOM     26  C   UNL A   1      38.373  21.217  25.760  1.00  0.00     0.251 C 
ATOM     27  H   UNL A   1      36.589  20.432  25.274  1.00  0.00     0.163 HD
ATOM     28  O   UNL A   1      39.012  20.256  25.351  1.00  0.00    -0.269 OA
BRANCH  26  29
ATOM     29  C   UNL A   1      39.056  22.379  26.357  1.00  0.00     0.039 A 
ATOM     30  C   UNL A   1      40.146  22.169  27.204  1.00  0.00     0.014 A 
ATOM     31  C   UNL A   1      38.660  23.672  26.009  1.00  0.00     0.014 A 
ATOM     32  C   UNL A   1      40.890  23.265  27.645  1.00  0.00     0.010 A 
ATOM     33  C   UNL A   1      39.460  24.747  26.364  1.00  0.00     0.010 A 
ATOM     34  C   UNL A   1      40.576  24.556  27.195  1.00  0.00    -0.014 A 
BRANCH  34  35
ATOM     35  C   UNL A   1      41.352  25.749  27.612  1.00  0.00     0.031 A 
ATOM     36  C   UNL A   1      40.671  26.797  28.451  1.00  0.00     0.074 A 
ATOM     37  C   UNL A   1      42.605  25.938  27.160  1.00  0.00     0.049 A 
ATOM     38  N   UNL A   1      41.071  28.000  28.766  1.00  0.00    -0.248 NA
ATOM     39  C   UNL A   1      39.330  26.455  28.954  1.00  0.00     0.031 C 
ATOM     40  C   UNL A   1      43.351  25.006  26.309  1.00  0.00     0.029 A 
ATOM     41  N   UNL A   1      43.470  26.990  27.334  1.00  0.00    -0.354 N 
ATOM     42  C   UNL A   1      40.015  28.573  29.468  1.00  0.00     0.074 A 
ATOM     43  C   UNL A   1      38.936  27.608  29.469  1.00  0.00     0.031 C 
ATOM     44  C   UNL A   1      44.565  25.520  26.052  1.00  0.00     0.029 A 
ATOM     45  C   UNL A   1      44.667  26.837  26.673  1.00  0.00     0.049 A 
ATOM     46  H   UNL A   1      43.252  27.778  27.880  1.00  0.00     0.167 HD
ATOM     47  C   UNL A   1      39.961  29.784  30.076  1.00  0.00     0.034 A 
ATOM     48  C   UNL A   1      45.716  27.676  26.569  1.00  0.00     0.034 A 
ATOM     49  C   UNL A   1      41.066  30.709  30.092  1.00  0.00     0.049 A 
ATOM     50  C   UNL A   1      45.642  29.013  27.263  1.00  0.00     0.074 A 
ATOM     51  C   UNL A   1      41.158  31.935  30.725  1.00  0.00     0.029 A 
ATOM     52  N   UNL A   1      42.279  30.504  29.444  1.00  0.00    -0.354 N 
ATOM     53  N   UNL A   1      44.651  29.532  27.952  1.00  0.00    -0.248 NA
ATOM     54  C   UNL A   1      46.828  29.873  27.170  1.00  0.00     0.031 C 
ATOM     55  C   UNL A   1      42.402  32.495  30.415  1.00  0.00     0.029 A 
ATOM     56  C   UNL A   1      43.116  31.589  29.646  1.00  0.00     0.049 A 
ATOM     57  H   UNL A   1      42.509  29.704  28.919  1.00  0.00     0.167 HD
ATOM     58  C   UNL A   1      45.107  30.768  28.399  1.00  0.00     0.074 A 
ATOM     59  C   UNL A   1      46.465  30.908  27.914  1.00  0.00     0.031 C 
ATOM     60  C   UNL A   1      44.465  31.706  29.144  1.00  0.00     0.034 A 
BRANCH  47  61
ATOM     61  C   UNL A   1      38.661  30.166  30.743  1.00  0.00     0.023 A 
ATOM     62  C   UNL A   1      37.645  30.847  30.048  1.00  0.00     0.031 A 
ATOM     63  C   UNL A   1      38.454  29.899  32.108  1.00  0.00     0.131 A 
ATOM     64  C   UNL A   1      36.520  31.323  30.738  1.00  0.00     0.055 A 
ATOM     65  C   UNL A   1      37.288  30.294  32.768  1.00  0.00     0.041 A 
ATOM     66  F   UNL A   1      39.394  29.273  32.832  1.00  0.00    -0.206 F 
ATOM     67  C   UNL A   1      36.320  31.027  32.087  1.00  0.00     0.022 A 
BRANCH  64  68
ATOM     68  S   UNL A   1      35.407  32.473  29.884  1.00  0.00     0.124 S 
ATOM     69  O   UNL A   1      36.278  33.630  29.686  1.00  0.00    -0.237 OA
ATOM     70  O   UNL A   1      35.046  31.732  28.682  1.00  0.00    -0.237 OA
ATOM     71  O   UNL A   1      34.322  32.677  30.843  1.00  0.00    -0.744 OA
ENDBRANCH  64  68
ENDBRANCH  47  61
BRANCH  48  72
ATOM     72  C   UNL A   1      46.921  27.289  25.780  1.00  0.00     0.023 A 
ATOM     73  C   UNL A   1      47.097  27.743  24.463  1.00  0.00     0.031 A 
ATOM     74  C   UNL A   1      47.900  26.433  26.317  1.00  0.00     0.131 A 
ATOM     75  C   UNL A   1      48.199  27.308  23.712  1.00  0.00     0.055 A 
ATOM     76  C   UNL A   1      49.021  26.042  25.582  1.00  0.00     0.041 A 
ATOM     77  F   UNL A   1      47.785  25.975  27.573  1.00  0.00    -0.206 F 
ATOM     78  C   UNL A   1      49.168  26.469  24.266  1.00  0.00     0.022 A 
BRANCH  75  79
ATOM     79  S   UNL A   1      48.308  27.795  21.968  1.00  0.00     0.124 S 
ATOM     80  O   UNL A   1      47.082  28.567  21.797  1.00  0.00    -0.237 OA
ATOM     81  O   UNL A   1      49.552  28.555  21.944  1.00  0.00    -0.237 OA
ATOM     82  O   UNL A   1      48.346  26.518  21.259  1.00  0.00    -0.744 OA
ENDBRANCH  75  79
ENDBRANCH  48  72
BRANCH  60  83
ATOM     83  C   UNL A   1      45.252  32.938  29.511  1.00  0.00     0.023 A 
ATOM     84  C   UNL A   1      45.230  34.092  28.710  1.00  0.00     0.031 A 
ATOM     85  C   UNL A   1      46.041  32.950  30.674  1.00  0.00     0.131 A 
ATOM     86  C   UNL A   1      46.027  35.194  29.055  1.00  0.00     0.055 A 
ATOM     87  C   UNL A   1      46.784  34.071  31.045  1.00  0.00     0.041 A 
ATOM     88  F   UNL A   1      46.096  31.873  31.475  1.00  0.00    -0.206 F 
ATOM     89  C   UNL A   1      46.791  35.197  30.226  1.00  0.00     0.022 A 
BRANCH  86  90
ATOM     90  S   UNL A   1      46.121  36.593  27.905  1.00  0.00     0.124 S 
ATOM     91  O   UNL A   1      45.973  35.933  26.612  1.00  0.00    -0.237 OA
ATOM     92  O   UNL A   1      44.997  37.422  28.330  1.00  0.00    -0.237 OA
ATOM     93  O   UNL A   1      47.442  37.162  28.164  1.00  0.00    -0.744 OA
ENDBRANCH  86  90
ENDBRANCH  60  83
ENDBRANCH  34  35
ENDBRANCH  26  29
ENDBRANCH  24  25
ENDBRANCH  23  24
ENDBRANCH   1  23
TORSDOF 17
ENDMDL
MODEL 2
REMARK VINA RESULT:     -12.4      4.930     11.293
REMARK SMILES C[C@H](C(=O)NCCCCNC(=O)c1ccc(-c2c3nc(c(-c4cc(S(=O)(=O)[O-])ccc4F)c4ccc([nH]4)c(-c4cc(S(=O)(=O)[O-])ccc4F)c4nc(c(-c5cc(S(=O)(=O)[O-])ccc5F)c5ccc2[nH]5)C=C4)C=C3)cc1)c1cccc(C(=O)c2ccccc2)c1
REMARK SMILES IDX 7 1 6 2 5 3 3 4 4 5 2 7 1 8 76 9 77 10 89 11 78 12 80 13
REMARK SMILES IDX 79 14 81 15 82 16 83 17 84 18 88 19 85 20 87 21 86 22 8 23
REMARK SMILES IDX 9 24 10 25 11 26 12 28 13 29 14 30 75 31 15 32 74 33 16 34
REMARK SMILES IDX 17 35 18 36 68 37 19 38 73 39 67 40 69 41 20 42 72 43 66 44
REMARK SMILES IDX 65 45 21 47 53 48 33 49 52 50 34 51 37 52 51 53 70 54 35 55
REMARK SMILES IDX 36 56 50 58 71 59 38 60 22 61 23 62 31 63 24 64 30 65 32 66
REMARK SMILES IDX 29 67 25 68 26 69 27 70 28 71 54 72 55 73 63 74 56 75 62 76
REMARK SMILES IDX 64 77 61 78 57 79 58 80 59 81 60 82 39 83 40 84 48 85 41 86
REMARK SMILES IDX 47 87 49 88 46 89 42 90 43 91 44 92 45 93
REMARK H PARENT 5 6 10 27 69 46 37 57
REMARK Flexibility Score: inf
ROOT
ATOM      1  C   UNL A   1      41.881  19.372  26.436  1.00  0.00     0.023 C 
ENDROOT
BRANCH   1   2
ATOM      2  C   UNL A   1      43.239  18.718  26.204  1.00  0.00     0.116 C 
BRANCH   2   3
ATOM      3  N   UNL A   1      43.600  18.772  24.803  1.00  0.00    -0.356 N 
ATOM      4  C   UNL A   1      44.576  19.495  24.180  1.00  0.00     0.227 C 
ATOM      5  O   UNL A   1      44.594  19.479  22.946  1.00  0.00    -0.274 OA
ATOM      6  H   UNL A   1      43.060  18.200  24.212  1.00  0.00     0.163 HD
BRANCH   4   7
ATOM      7  C   UNL A   1      45.622  20.270  24.998  1.00  0.00     0.105 C 
ATOM      8  C   UNL A   1      46.987  20.065  24.319  1.00  0.00     0.023 C 
BRANCH   7   9
ATOM      9  C   UNL A   1      45.231  21.736  25.187  1.00  0.00    -0.035 A 
ATOM     10  C   UNL A   1      44.218  22.344  24.435  1.00  0.00     0.004 A 
ATOM     11  C   UNL A   1      45.865  22.509  26.185  1.00  0.00     0.016 A 
ATOM     12  C   UNL A   1      43.849  23.670  24.670  1.00  0.00     0.001 A 
ATOM     13  C   UNL A   1      45.454  23.817  26.480  1.00  0.00     0.023 A 
ATOM     14  C   UNL A   1      44.451  24.395  25.696  1.00  0.00     0.012 A 
BRANCH  13  15
ATOM     15  C   UNL A   1      45.961  24.605  27.646  1.00  0.00     0.193 C 
ATOM     16  O   UNL A   1      46.810  25.478  27.471  1.00  0.00    -0.289 OA
BRANCH  15  17
ATOM     17  C   UNL A   1      45.439  24.441  29.020  1.00  0.00     0.022 A 
ATOM     18  C   UNL A   1      44.461  23.464  29.248  1.00  0.00     0.012 A 
ATOM     19  C   UNL A   1      45.840  25.292  30.054  1.00  0.00     0.012 A 
ATOM     20  C   UNL A   1      43.907  23.318  30.521  1.00  0.00     0.001 A 
ATOM     21  C   UNL A   1      45.281  25.141  31.326  1.00  0.00     0.001 A 
ATOM     22  C   UNL A   1      44.316  24.158  31.557  1.00  0.00     0.000 A 
ENDBRANCH  15  17
ENDBRANCH  13  15
ENDBRANCH   7   9
ENDBRANCH   4   7
ENDBRANCH   2   3
ENDBRANCH   1   2
BRANCH   1  23
ATOM     23  C   UNL A   1      41.908  20.882  26.616  1.00  0.00     0.023 C 
BRANCH  23  24
ATOM     24  C   UNL A   1      40.758  21.441  27.439  1.00  0.00     0.116 C 
BRANCH  24  25
ATOM     25  N   UNL A   1      39.538  21.653  26.668  1.00  0.00    -0.352 N 
ATOM     26  C   UNL A   1      38.870  22.830  26.413  1.00  0.00     0.251 C 
ATOM     27  H   UNL A   1      39.137  20.843  26.278  1.00  0.00     0.163 HD
ATOM     28  O   UNL A   1      37.797  22.820  25.826  1.00  0.00    -0.269 OA
BRANCH  26  29
ATOM     29  C   UNL A   1      39.453  24.094  26.902  1.00  0.00     0.039 A 
ATOM     30  C   UNL A   1      40.100  24.940  26.001  1.00  0.00     0.014 A 
ATOM     31  C   UNL A   1      39.282  24.466  28.237  1.00  0.00     0.014 A 
ATOM     32  C   UNL A   1      40.512  26.205  26.426  1.00  0.00     0.010 A 
ATOM     33  C   UNL A   1      39.600  25.757  28.628  1.00  0.00     0.010 A 
ATOM     34  C   UNL A   1      40.230  26.636  27.730  1.00  0.00    -0.014 A 
BRANCH  34  35
ATOM     35  C   UNL A   1      40.623  27.978  28.222  1.00  0.00     0.031 A 
ATOM     36  C   UNL A   1      42.087  28.294  28.368  1.00  0.00     0.074 A 
ATOM     37  C   UNL A   1      39.686  28.855  28.628  1.00  0.00     0.049 A 
ATOM     38  N   UNL A   1      42.665  29.307  28.956  1.00  0.00    -0.248 NA
ATOM     39  C   UNL A   1      43.023  27.297  27.824  1.00  0.00     0.031 C 
ATOM     40  C   UNL A   1      38.238  28.640  28.568  1.00  0.00     0.029 A 
ATOM     41  N   UNL A   1      39.812  30.099  29.195  1.00  0.00    -0.354 N 
ATOM     42  C   UNL A   1      44.031  29.049  28.888  1.00  0.00     0.074 A 
ATOM     43  C   UNL A   1      44.184  27.752  28.264  1.00  0.00     0.031 C 
ATOM     44  C   UNL A   1      37.612  29.722  29.059  1.00  0.00     0.029 A 
ATOM     45  C   UNL A   1      38.609  30.684  29.517  1.00  0.00     0.049 A 
ATOM     46  H   UNL A   1      40.681  30.531  29.354  1.00  0.00     0.167 HD
ATOM     47  C   UNL A   1      45.061  29.834  29.289  1.00  0.00     0.034 A 
ATOM     48  C   UNL A   1      38.347  31.855  30.130  1.00  0.00     0.034 A 
ATOM     49  C   UNL A   1      44.879  31.140  29.871  1.00  0.00     0.049 A 
ATOM     50  C   UNL A   1      39.507  32.720  30.556  1.00  0.00     0.074 A 
ATOM     51  C   UNL A   1      45.840  32.056  30.258  1.00  0.00     0.029 A 
ATOM     52  N   UNL A   1      43.644  31.717  30.148  1.00  0.00    -0.354 N 
ATOM     53  N   UNL A   1      40.795  32.481  30.457  1.00  0.00    -0.248 NA
ATOM     54  C   UNL A   1      39.178  34.013  31.169  1.00  0.00     0.031 C 
ATOM     55  C   UNL A   1      45.190  33.161  30.818  1.00  0.00     0.029 A 
ATOM     56  C   UNL A   1      43.822  32.967  30.718  1.00  0.00     0.049 A 
ATOM     57  H   UNL A   1      42.773  31.299  29.965  1.00  0.00     0.167 HD
ATOM     58  C   UNL A   1      41.430  33.609  30.970  1.00  0.00     0.074 A 
ATOM     59  C   UNL A   1      40.383  34.530  31.362  1.00  0.00     0.031 C 
ATOM     60  C   UNL A   1      42.758  33.863  31.107  1.00  0.00     0.034 A 
BRANCH  47  61
ATOM     61  C   UNL A   1      46.458  29.282  29.124  1.00  0.00     0.023 A 
ATOM     62  C   UNL A   1      47.107  29.270  27.877  1.00  0.00     0.031 A 
ATOM     63  C   UNL A   1      47.130  28.705  30.217  1.00  0.00     0.131 A 
ATOM     64  C   UNL A   1      48.336  28.611  27.731  1.00  0.00     0.055 A 
ATOM     65  C   UNL A   1      48.396  28.132  30.084  1.00  0.00     0.041 A 
ATOM     66  F   UNL A   1      46.555  28.664  31.429  1.00  0.00    -0.206 F 
ATOM     67  C   UNL A   1      49.000  28.066  28.831  1.00  0.00     0.022 A 
BRANCH  64  68
ATOM     68  S   UNL A   1      48.972  28.332  26.054  1.00  0.00     0.124 S 
ATOM     69  O   UNL A   1      49.472  26.962  26.156  1.00  0.00    -0.237 OA
ATOM     70  O   UNL A   1      47.784  28.519  25.230  1.00  0.00    -0.237 OA
ATOM     71  O   UNL A   1      50.006  29.354  25.905  1.00  0.00    -0.744 OA
ENDBRANCH  64  68
ENDBRANCH  47  61
BRANCH  48  72
ATOM     72  C   UNL A   1      36.941  32.282  30.383  1.00  0.00     0.023 A 
ATOM     73  C   UNL A   1      36.129  32.746  29.336  1.00  0.00     0.031 A 
ATOM     74  C   UNL A   1      36.396  32.263  31.680  1.00  0.00     0.131 A 
ATOM     75  C   UNL A   1      34.834  33.213  29.606  1.00  0.00     0.055 A 
ATOM     76  C   UNL A   1      35.090  32.683  31.937  1.00  0.00     0.041 A 
ATOM     77  F   UNL A   1      37.126  31.822  32.716  1.00  0.00    -0.206 F 
ATOM     78  C   UNL A   1      34.305  33.174  30.898  1.00  0.00     0.022 A 
BRANCH  75  79
ATOM     79  S   UNL A   1      33.875  33.946  28.252  1.00  0.00     0.124 S 
ATOM     80  O   UNL A   1      33.298  32.763  27.622  1.00  0.00    -0.237 OA
ATOM     81  O   UNL A   1      32.945  34.807  28.973  1.00  0.00    -0.237 OA
ATOM     82  O   UNL A   1      34.884  34.646  27.460  1.00  0.00    -0.744 OA
ENDBRANCH  75  79
ENDBRANCH  48  72
BRANCH  60  83
ATOM     83  C   UNL A   1      43.137  35.212  31.662  1.00  0.00     0.023 A 
ATOM     84  C   UNL A   1      43.459  36.292  30.822  1.00  0.00     0.031 A 
ATOM     85  C   UNL A   1      43.184  35.415  33.052  1.00  0.00     0.131 A 
ATOM     86  C   UNL A   1      43.868  37.512  31.380  1.00  0.00     0.055 A 
ATOM     87  C   UNL A   1      43.533  36.649  33.602  1.00  0.00     0.041 A 
ATOM     88  F   UNL A   1      42.885  34.417  33.899  1.00  0.00    -0.206 F 
ATOM     89  C   UNL A   1      43.891  37.702  32.765  1.00  0.00     0.022 A 
BRANCH  86  90
ATOM     90  S   UNL A   1      44.455  38.822  30.273  1.00  0.00     0.124 S 
ATOM     91  O   UNL A   1      44.529  39.969  31.173  1.00  0.00    -0.237 OA
ATOM     92  O   UNL A   1      45.733  38.290  29.810  1.00  0.00    -0.237 OA
ATOM     93  O   UNL A   1      43.411  38.901  29.252  1.00  0.00    -0.744 OA
ENDBRANCH  86  90
ENDBRANCH  60  83
ENDBRANCH  34  35
ENDBRANCH  26  29
ENDBRANCH  24  25
ENDBRANCH  23  24
ENDBRANCH   1  23
TORSDOF 17
ENDMDL
MODEL 3
REMARK VINA RESULT:     -12.4      5.104      9.745
REMARK SMILES C[C@H](C(=O)NCCCCNC(=O)c1ccc(-c2c3nc(c(-c4cc(S(=O)(=O)[O-])ccc4F)c4ccc([nH]4)c(-c4cc(S(=O)(=O)[O-])ccc4F)c4nc(c(-c5cc(S(=O)(=O)[O-])ccc5F)c5ccc2[nH]5)C=C4)C=C3)cc1)c1cccc(C(=O)c2ccccc2)c1
REMARK SMILES IDX 7 1 6 2 5 3 3 4 4 5 2 7 1 8 76 9 77 10 89 11 78 12 80 13
REMARK SMILES IDX 79 14 81 15 82 16 83 17 84 18 88 19 85 20 87 21 86 22 8 23
REMARK SMILES IDX 9 24 10 25 11 26 12 28 13 29 14 30 75 31 15 32 74 33 16 34
REMARK SMILES IDX 17 35 18 36 68 37 19 38 73 39 67 40 69 41 20 42 72 43 66 44
REMARK SMILES IDX 65 45 21 47 53 48 33 49 52 50 34 51 37 52 51 53 70 54 35 55
REMARK SMILES IDX 36 56 50 58 71 59 38 60 22 61 23 62 31 63 24 64 30 65 32 66
REMARK SMILES IDX 29 67 25 68 26 69 27 70 28 71 54 72 55 73 63 74 56 75 62 76
REMARK SMILES IDX 64 77 61 78 57 79 58 80 59 81 60 82 39 83 40 84 48 85 41 86
REMARK SMILES IDX 47 87 49 88 46 89 42 90 43 91 44 92 45 93
REMARK H PARENT 5 6 10 27 69 46 37 57
REMARK Flexibility Score: inf
ROOT
ATOM      1  C   UNL A   1      33.087  28.816  23.505  1.00  0.00     0.023 C 
ENDROOT
BRANCH   1   2
ATOM      2  C   UNL A   1      33.890  27.565  23.163  1.00  0.00     0.116 C 
BRANCH   2   3
ATOM      3  N   UNL A   1      33.454  27.007  21.901  1.00  0.00    -0.356 N 
ATOM      4  C   UNL A   1      33.105  25.725  21.586  1.00  0.00     0.227 C 
ATOM      5  O   UNL A   1      32.905  25.466  20.396  1.00  0.00    -0.274 OA
ATOM      6  H   UNL A   1      33.402  27.649  21.157  1.00  0.00     0.163 HD
BRANCH   4   7
ATOM      7  C   UNL A   1      32.944  24.663  22.687  1.00  0.00     0.105 C 
ATOM      8  C   UNL A   1      34.337  24.402  23.286  1.00  0.00     0.023 C 
BRANCH   7   9
ATOM      9  C   UNL A   1      31.884  25.059  23.715  1.00  0.00    -0.035 A 
ATOM     10  C   UNL A   1      32.068  24.873  25.091  1.00  0.00     0.004 A 
ATOM     11  C   UNL A   1      30.691  25.683  23.288  1.00  0.00     0.016 A 
ATOM     12  C   UNL A   1      31.103  25.295  26.006  1.00  0.00     0.001 A 
ATOM     13  C   UNL A   1      29.748  26.177  24.201  1.00  0.00     0.023 A 
ATOM     14  C   UNL A   1      29.959  25.957  25.565  1.00  0.00     0.012 A 
BRANCH  13  15
ATOM     15  C   UNL A   1      28.568  27.010  23.809  1.00  0.00     0.193 C 
ATOM     16  O   UNL A   1      27.433  26.644  24.113  1.00  0.00    -0.289 OA
BRANCH  15  17
ATOM     17  C   UNL A   1      28.692  28.312  23.121  1.00  0.00     0.022 A 
ATOM     18  C   UNL A   1      27.589  29.176  23.127  1.00  0.00     0.012 A 
ATOM     19  C   UNL A   1      29.846  28.648  22.407  1.00  0.00     0.012 A 
ATOM     20  C   UNL A   1      27.652  30.391  22.442  1.00  0.00     0.001 A 
ATOM     21  C   UNL A   1      29.903  29.866  21.722  1.00  0.00     0.001 A 
ATOM     22  C   UNL A   1      28.807  30.732  21.740  1.00  0.00     0.000 A 
ENDBRANCH  15  17
ENDBRANCH  13  15
ENDBRANCH   7   9
ENDBRANCH   4   7
ENDBRANCH   2   3
ENDBRANCH   1   2
BRANCH   1  23
ATOM     23  C   UNL A   1      32.340  28.766  24.829  1.00  0.00     0.023 C 
BRANCH  23  24
ATOM     24  C   UNL A   1      33.104  29.348  26.008  1.00  0.00     0.116 C 
BRANCH  24  25
ATOM     25  N   UNL A   1      32.654  30.680  26.395  1.00  0.00    -0.352 N 
ATOM     26  C   UNL A   1      33.252  31.582  27.247  1.00  0.00     0.251 C 
ATOM     27  H   UNL A   1      31.805  30.975  25.993  1.00  0.00     0.163 HD
ATOM     28  O   UNL A   1      32.686  32.625  27.543  1.00  0.00    -0.269 OA
BRANCH  26  29
ATOM     29  C   UNL A   1      34.563  31.241  27.829  1.00  0.00     0.039 A 
ATOM     30  C   UNL A   1      35.529  32.240  27.964  1.00  0.00     0.014 A 
ATOM     31  C   UNL A   1      34.797  29.952  28.309  1.00  0.00     0.014 A 
ATOM     32  C   UNL A   1      36.710  31.960  28.656  1.00  0.00     0.010 A 
ATOM     33  C   UNL A   1      35.922  29.707  29.081  1.00  0.00     0.010 A 
ATOM     34  C   UNL A   1      36.895  30.704  29.252  1.00  0.00    -0.014 A 
BRANCH  34  35
ATOM     35  C   UNL A   1      38.119  30.366  30.019  1.00  0.00     0.031 A 
ATOM     36  C   UNL A   1      39.100  29.394  29.422  1.00  0.00     0.074 A 
ATOM     37  C   UNL A   1      38.292  30.840  31.266  1.00  0.00     0.049 A 
ATOM     38  N   UNL A   1      40.123  28.799  29.975  1.00  0.00    -0.248 NA
ATOM     39  C   UNL A   1      38.854  28.998  28.026  1.00  0.00     0.031 C 
ATOM     40  C   UNL A   1      37.386  31.760  31.960  1.00  0.00     0.029 A 
ATOM     41  N   UNL A   1      39.281  30.596  32.186  1.00  0.00    -0.354 N 
ATOM     42  C   UNL A   1      40.617  27.929  29.008  1.00  0.00     0.074 A 
ATOM     43  C   UNL A   1      39.738  28.028  27.863  1.00  0.00     0.031 C 
ATOM     44  C   UNL A   1      37.871  32.015  33.186  1.00  0.00     0.029 A 
ATOM     45  C   UNL A   1      39.092  31.241  33.387  1.00  0.00     0.049 A 
ATOM     46  H   UNL A   1      40.054  30.015  32.002  1.00  0.00     0.167 HD
ATOM     47  C   UNL A   1      41.718  27.139  29.063  1.00  0.00     0.034 A 
ATOM     48  C   UNL A   1      39.813  31.193  34.523  1.00  0.00     0.034 A 
ATOM     49  C   UNL A   1      42.599  27.092  30.203  1.00  0.00     0.049 A 
ATOM     50  C   UNL A   1      41.042  30.319  34.561  1.00  0.00     0.074 A 
ATOM     51  C   UNL A   1      43.776  26.383  30.357  1.00  0.00     0.029 A 
ATOM     52  N   UNL A   1      42.396  27.788  31.390  1.00  0.00    -0.354 N 
ATOM     53  N   UNL A   1      41.519  29.525  33.629  1.00  0.00    -0.248 NA
ATOM     54  C   UNL A   1      41.831  30.339  35.799  1.00  0.00     0.031 C 
ATOM     55  C   UNL A   1      44.256  26.607  31.652  1.00  0.00     0.029 A 
ATOM     56  C   UNL A   1      43.416  27.510  32.285  1.00  0.00     0.049 A 
ATOM     57  H   UNL A   1      41.639  28.391  31.567  1.00  0.00     0.167 HD
ATOM     58  C   UNL A   1      42.682  28.973  34.159  1.00  0.00     0.074 A 
ATOM     59  C   UNL A   1      42.839  29.537  35.485  1.00  0.00     0.031 C 
ATOM     60  C   UNL A   1      43.544  28.082  33.605  1.00  0.00     0.034 A 
BRANCH  47  61
ATOM     61  C   UNL A   1      42.001  26.261  27.867  1.00  0.00     0.023 A 
ATOM     62  C   UNL A   1      41.494  24.952  27.773  1.00  0.00     0.031 A 
ATOM     63  C   UNL A   1      42.837  26.715  26.831  1.00  0.00     0.131 A 
ATOM     64  C   UNL A   1      41.904  24.114  26.726  1.00  0.00     0.055 A 
ATOM     65  C   UNL A   1      43.166  25.905  25.742  1.00  0.00     0.041 A 
ATOM     66  F   UNL A   1      43.371  27.945  26.873  1.00  0.00    -0.206 F 
ATOM     67  C   UNL A   1      42.714  24.589  25.694  1.00  0.00     0.022 A 
BRANCH  64  68
ATOM     68  S   UNL A   1      41.496  22.349  26.824  1.00  0.00     0.124 S 
ATOM     69  O   UNL A   1      40.046  22.393  26.997  1.00  0.00    -0.237 OA
ATOM     70  O   UNL A   1      41.972  21.842  25.543  1.00  0.00    -0.237 OA
ATOM     71  O   UNL A   1      42.241  21.889  27.995  1.00  0.00    -0.744 OA
ENDBRANCH  64  68
ENDBRANCH  47  61
BRANCH  48  72
ATOM     72  C   UNL A   1      39.402  31.985  35.718  1.00  0.00     0.023 A 
ATOM     73  C   UNL A   1      38.609  31.412  36.724  1.00  0.00     0.031 A 
ATOM     74  C   UNL A   1      39.767  33.337  35.857  1.00  0.00     0.131 A 
ATOM     75  C   UNL A   1      38.169  32.195  37.802  1.00  0.00     0.055 A 
ATOM     76  C   UNL A   1      39.368  34.099  36.957  1.00  0.00     0.041 A 
ATOM     77  F   UNL A   1      40.530  33.932  34.928  1.00  0.00    -0.206 F 
ATOM     78  C   UNL A   1      38.553  33.532  37.931  1.00  0.00     0.022 A 
BRANCH  75  79
ATOM     79  S   UNL A   1      37.022  31.459  38.999  1.00  0.00     0.124 S 
ATOM     80  O   UNL A   1      37.778  31.567  40.242  1.00  0.00    -0.237 OA
ATOM     81  O   UNL A   1      35.859  32.331  38.878  1.00  0.00    -0.237 OA
ATOM     82  O   UNL A   1      36.834  30.099  38.499  1.00  0.00    -0.744 OA
ENDBRANCH  75  79
ENDBRANCH  48  72
BRANCH  60  83
ATOM     83  C   UNL A   1      44.753  27.707  34.423  1.00  0.00     0.023 A 
ATOM     84  C   UNL A   1      44.744  26.601  35.289  1.00  0.00     0.031 A 
ATOM     85  C   UNL A   1      45.928  28.475  34.339  1.00  0.00     0.131 A 
ATOM     86  C   UNL A   1      45.869  26.325  36.080  1.00  0.00     0.055 A 
ATOM     87  C   UNL A   1      47.065  28.161  35.082  1.00  0.00     0.041 A 
ATOM     88  F   UNL A   1      45.990  29.542  33.526  1.00  0.00    -0.206 F 
ATOM     89  C   UNL A   1      47.036  27.088  35.970  1.00  0.00     0.022 A 
BRANCH  86  90
ATOM     90  S   UNL A   1      45.759  25.007  37.320  1.00  0.00     0.124 S 
ATOM     91  O   UNL A   1      46.421  23.897  36.642  1.00  0.00    -0.237 OA
ATOM     92  O   UNL A   1      46.479  25.583  38.452  1.00  0.00    -0.237 OA
ATOM     93  O   UNL A   1      44.320  24.844  37.521  1.00  0.00    -0.744 OA
ENDBRANCH  86  90
ENDBRANCH  60  83
ENDBRANCH  34  35
ENDBRANCH  26  29
ENDBRANCH  24  25
ENDBRANCH  23  24
ENDBRANCH   1  23
TORSDOF 17
ENDMDL
