MODEL 1
REMARK VINA RESULT:     -11.1      0.000      0.000
REMARK SMILES C[C@@H](C(=O)[C@H](C)[C@@H](C)C(=O)NCCCCNC(=O)c1ccc(-c2c3nc(c(-c4cc(S(=O)(=O)[O-])ccc4F)c4ccc([nH]4)c(-c4cc(S(=O)(=O)[O-])ccc4F)c4nc(c(-c5cc(S(=O)(=O)[O-])ccc5F)c5ccc2[nH]5)C=C4)C=C3)cc1)c1ccccc1
REMARK SMILES IDX 13 1 12 2 11 3 9 4 10 5 7 7 8 8 5 9 6 10 3 11 4 12 2 13 1 14
REMARK SMILES IDX 82 15 83 16 87 17 84 18 86 19 85 20 14 21 15 22 16 23 17 24
REMARK SMILES IDX 18 26 19 27 20 28 81 29 21 30 80 31 22 32 23 33 24 34 74 35
REMARK SMILES IDX 25 36 79 37 73 38 75 39 26 40 78 41 72 42 71 43 27 45 59 46
REMARK SMILES IDX 39 47 58 48 40 49 43 50 57 51 76 52 41 53 42 54 56 56 77 57
REMARK SMILES IDX 44 58 28 59 29 60 37 61 30 62 36 63 38 64 35 65 31 66 32 67
REMARK SMILES IDX 33 68 34 69 60 70 61 71 69 72 62 73 68 74 70 75 67 76 63 77
REMARK SMILES IDX 64 78 65 79 66 80 45 81 46 82 54 83 47 84 53 85 55 86 52 87
REMARK SMILES IDX 48 88 49 89 50 90 51 91
REMARK H PARENT 11 6 16 25 75 44 43 55
REMARK Flexibility Score: inf
ROOT
ATOM      1  C   UNL A   1      35.564  21.744  26.524  1.00  0.00     0.023 C 
ENDROOT
BRANCH   1   2
ATOM      2  C   UNL A   1      34.229  21.611  27.252  1.00  0.00     0.116 C 
BRANCH   2   3
ATOM      3  N   UNL A   1      33.315  20.724  26.559  1.00  0.00    -0.356 N 
ATOM      4  C   UNL A   1      32.536  20.906  25.464  1.00  0.00     0.223 C 
ATOM      5  O   UNL A   1      31.886  19.938  25.062  1.00  0.00    -0.275 OA
ATOM      6  H   UNL A   1      33.247  19.825  26.955  1.00  0.00     0.163 HD
BRANCH   4   7
ATOM      7  C   UNL A   1      32.447  22.238  24.725  1.00  0.00     0.085 C 
ATOM      8  C   UNL A   1      30.996  22.742  24.807  1.00  0.00     0.019 C 
BRANCH   7   9
ATOM      9  C   UNL A   1      33.095  22.221  23.322  1.00  0.00     0.066 C 
ATOM     10  C   UNL A   1      32.108  21.652  22.281  1.00  0.00     0.017 C 
BRANCH   9  11
ATOM     11  C   UNL A   1      33.657  23.550  22.742  1.00  0.00     0.143 C 
ATOM     12  O   UNL A   1      34.867  23.585  22.469  1.00  0.00    -0.299 OA
BRANCH  11  13
ATOM     13  C   UNL A   1      32.789  24.817  22.593  1.00  0.00     0.083 C 
ATOM     14  C   UNL A   1      32.786  25.343  21.155  1.00  0.00     0.021 C 
BRANCH  13  15
ATOM     15  C   UNL A   1      33.251  25.975  23.492  1.00  0.00    -0.038 A 
ATOM     16  C   UNL A   1      33.278  25.823  24.887  1.00  0.00     0.004 A 
ATOM     17  C   UNL A   1      33.568  27.234  22.953  1.00  0.00     0.004 A 
ATOM     18  C   UNL A   1      33.605  26.903  25.714  1.00  0.00     0.000 A 
ATOM     19  C   UNL A   1      33.898  28.309  23.778  1.00  0.00     0.000 A 
ATOM     20  C   UNL A   1      33.910  28.145  25.159  1.00  0.00     0.000 A 
ENDBRANCH  13  15
ENDBRANCH  11  13
ENDBRANCH   9  11
ENDBRANCH   7   9
ENDBRANCH   4   7
ENDBRANCH   2   3
ENDBRANCH   1   2
BRANCH   1  21
ATOM     21  C   UNL A   1      35.830  23.112  25.895  1.00  0.00     0.023 C 
BRANCH  21  22
ATOM     22  C   UNL A   1      37.154  23.251  25.152  1.00  0.00     0.116 C 
BRANCH  22  23
ATOM     23  N   UNL A   1      38.185  22.349  25.640  1.00  0.00    -0.352 N 
ATOM     24  C   UNL A   1      39.310  22.640  26.374  1.00  0.00     0.251 C 
ATOM     25  H   UNL A   1      38.060  21.399  25.413  1.00  0.00     0.163 HD
ATOM     26  O   UNL A   1      40.125  21.755  26.618  1.00  0.00    -0.269 OA
BRANCH  24  27
ATOM     27  C   UNL A   1      39.549  24.028  26.822  1.00  0.00     0.039 A 
ATOM     28  C   UNL A   1      39.294  24.356  28.156  1.00  0.00     0.014 A 
ATOM     29  C   UNL A   1      40.058  24.988  25.943  1.00  0.00     0.014 A 
ATOM     30  C   UNL A   1      39.622  25.629  28.628  1.00  0.00     0.010 A 
ATOM     31  C   UNL A   1      40.449  26.232  26.431  1.00  0.00     0.010 A 
ATOM     32  C   UNL A   1      40.240  26.563  27.779  1.00  0.00    -0.014 A 
BRANCH  32  33
ATOM     33  C   UNL A   1      40.676  27.891  28.283  1.00  0.00     0.031 A 
ATOM     34  C   UNL A   1      42.141  28.223  28.356  1.00  0.00     0.074 A 
ATOM     35  C   UNL A   1      39.758  28.766  28.740  1.00  0.00     0.049 A 
ATOM     36  N   UNL A   1      42.727  29.284  28.848  1.00  0.00    -0.248 NA
ATOM     37  C   UNL A   1      43.069  27.209  27.836  1.00  0.00     0.031 C 
ATOM     38  C   UNL A   1      38.311  28.538  28.762  1.00  0.00     0.029 A 
ATOM     39  N   UNL A   1      39.903  30.016  29.286  1.00  0.00    -0.354 N 
ATOM     40  C   UNL A   1      44.092  29.061  28.708  1.00  0.00     0.074 A 
ATOM     41  C   UNL A   1      44.244  27.736  28.145  1.00  0.00     0.031 C 
ATOM     42  C   UNL A   1      37.703  29.619  29.276  1.00  0.00     0.029 A 
ATOM     43  C   UNL A   1      38.715  30.599  29.660  1.00  0.00     0.049 A 
ATOM     44  H   UNL A   1      40.778  30.455  29.399  1.00  0.00     0.167 HD
ATOM     45  C   UNL A   1      45.123  29.893  29.001  1.00  0.00     0.034 A 
ATOM     46  C   UNL A   1      38.470  31.782  30.257  1.00  0.00     0.034 A 
ATOM     47  C   UNL A   1      44.952  31.216  29.551  1.00  0.00     0.049 A 
ATOM     48  C   UNL A   1      39.630  32.686  30.586  1.00  0.00     0.074 A 
ATOM     49  C   UNL A   1      45.920  32.163  29.838  1.00  0.00     0.029 A 
ATOM     50  N   UNL A   1      43.732  31.779  29.904  1.00  0.00    -0.354 N 
ATOM     51  N   UNL A   1      40.914  32.480  30.404  1.00  0.00    -0.248 NA
ATOM     52  C   UNL A   1      39.306  33.986  31.187  1.00  0.00     0.031 C 
ATOM     53  C   UNL A   1      45.293  33.271  30.419  1.00  0.00     0.029 A 
ATOM     54  C   UNL A   1      43.925  33.048  30.429  1.00  0.00     0.049 A 
ATOM     55  H   UNL A   1      42.857  31.341  29.797  1.00  0.00     0.167 HD
ATOM     56  C   UNL A   1      41.549  33.638  30.844  1.00  0.00     0.074 A 
ATOM     57  C   UNL A   1      40.506  34.542  31.284  1.00  0.00     0.031 C 
ATOM     58  C   UNL A   1      42.874  33.932  30.875  1.00  0.00     0.034 A 
BRANCH  45  59
ATOM     59  C   UNL A   1      46.520  29.378  28.750  1.00  0.00     0.023 A 
ATOM     60  C   UNL A   1      46.998  29.148  27.448  1.00  0.00     0.031 A 
ATOM     61  C   UNL A   1      47.375  29.076  29.825  1.00  0.00     0.131 A 
ATOM     62  C   UNL A   1      48.254  28.555  27.255  1.00  0.00     0.055 A 
ATOM     63  C   UNL A   1      48.659  28.564  29.624  1.00  0.00     0.041 A 
ATOM     64  F   UNL A   1      46.969  29.254  31.092  1.00  0.00    -0.206 F 
ATOM     65  C   UNL A   1      49.099  28.285  28.333  1.00  0.00     0.022 A 
BRANCH  62  66
ATOM     66  S   UNL A   1      48.702  28.000  25.588  1.00  0.00     0.124 S 
ATOM     67  O   UNL A   1      47.613  28.559  24.789  1.00  0.00    -0.237 OA
ATOM     68  O   UNL A   1      50.013  28.609  25.394  1.00  0.00    -0.237 OA
ATOM     69  O   UNL A   1      48.699  26.543  25.698  1.00  0.00    -0.744 OA
ENDBRANCH  62  66
ENDBRANCH  45  59
BRANCH  46  70
ATOM     70  C   UNL A   1      37.073  32.182  30.594  1.00  0.00     0.023 A 
ATOM     71  C   UNL A   1      36.232  32.753  29.627  1.00  0.00     0.031 A 
ATOM     72  C   UNL A   1      36.572  32.033  31.900  1.00  0.00     0.131 A 
ATOM     73  C   UNL A   1      34.949  33.197  29.989  1.00  0.00     0.055 A 
ATOM     74  C   UNL A   1      35.279  32.429  32.243  1.00  0.00     0.041 A 
ATOM     75  F   UNL A   1      37.334  31.484  32.860  1.00  0.00    -0.206 F 
ATOM     76  C   UNL A   1      34.464  33.028  31.287  1.00  0.00     0.022 A 
BRANCH  73  77
ATOM     77  S   UNL A   1      33.952  34.071  28.752  1.00  0.00     0.124 S 
ATOM     78  O   UNL A   1      32.879  34.623  29.571  1.00  0.00    -0.237 OA
ATOM     79  O   UNL A   1      34.910  35.032  28.216  1.00  0.00    -0.237 OA
ATOM     80  O   UNL A   1      33.553  33.012  27.828  1.00  0.00    -0.744 OA
ENDBRANCH  73  77
ENDBRANCH  46  70
BRANCH  58  81
ATOM     81  C   UNL A   1      43.257  35.306  31.366  1.00  0.00     0.023 A 
ATOM     82  C   UNL A   1      43.330  35.610  32.736  1.00  0.00     0.031 A 
ATOM     83  C   UNL A   1      43.542  36.329  30.443  1.00  0.00     0.131 A 
ATOM     84  C   UNL A   1      43.626  36.919  33.146  1.00  0.00     0.055 A 
ATOM     85  C   UNL A   1      43.892  37.615  30.858  1.00  0.00     0.041 A 
ATOM     86  F   UNL A   1      43.486  36.093  29.123  1.00  0.00    -0.206 F 
ATOM     87  C   UNL A   1      43.924  37.919  32.216  1.00  0.00     0.022 A 
BRANCH  84  88
ATOM     88  S   UNL A   1      43.534  37.321  34.913  1.00  0.00     0.124 S 
ATOM     89  O   UNL A   1      43.955  38.718  34.927  1.00  0.00    -0.237 OA
ATOM     90  O   UNL A   1      42.128  37.075  35.216  1.00  0.00    -0.237 OA
ATOM     91  O   UNL A   1      44.473  36.383  35.527  1.00  0.00    -0.744 OA
ENDBRANCH  84  88
ENDBRANCH  58  81
ENDBRANCH  32  33
ENDBRANCH  24  27
ENDBRANCH  22  23
ENDBRANCH  21  22
ENDBRANCH   1  21
TORSDOF 18
ENDMDL
MODEL 2
REMARK VINA RESULT:     -10.9      2.789      3.553
REMARK SMILES C[C@@H](C(=O)[C@H](C)[C@@H](C)C(=O)NCCCCNC(=O)c1ccc(-c2c3nc(c(-c4cc(S(=O)(=O)[O-])ccc4F)c4ccc([nH]4)c(-c4cc(S(=O)(=O)[O-])ccc4F)c4nc(c(-c5cc(S(=O)(=O)[O-])ccc5F)c5ccc2[nH]5)C=C4)C=C3)cc1)c1ccccc1
REMARK SMILES IDX 13 1 12 2 11 3 9 4 10 5 7 7 8 8 5 9 6 10 3 11 4 12 2 13 1 14
REMARK SMILES IDX 82 15 83 16 87 17 84 18 86 19 85 20 14 21 15 22 16 23 17 24
REMARK SMILES IDX 18 26 19 27 20 28 81 29 21 30 80 31 22 32 23 33 24 34 74 35
REMARK SMILES IDX 25 36 79 37 73 38 75 39 26 40 78 41 72 42 71 43 27 45 59 46
REMARK SMILES IDX 39 47 58 48 40 49 43 50 57 51 76 52 41 53 42 54 56 56 77 57
REMARK SMILES IDX 44 58 28 59 29 60 37 61 30 62 36 63 38 64 35 65 31 66 32 67
REMARK SMILES IDX 33 68 34 69 60 70 61 71 69 72 62 73 68 74 70 75 67 76 63 77
REMARK SMILES IDX 64 78 65 79 66 80 45 81 46 82 54 83 47 84 53 85 55 86 52 87
REMARK SMILES IDX 48 88 49 89 50 90 51 91
REMARK H PARENT 11 6 16 25 75 44 43 55
REMARK Flexibility Score: inf
ROOT
ATOM      1  C   UNL A   1      34.419  20.673  24.989  1.00  0.00     0.023 C 
ENDROOT
BRANCH   1   2
ATOM      2  C   UNL A   1      33.174  21.439  24.550  1.00  0.00     0.116 C 
BRANCH   2   3
ATOM      3  N   UNL A   1      32.622  22.245  25.622  1.00  0.00    -0.356 N 
ATOM      4  C   UNL A   1      32.641  23.582  25.847  1.00  0.00     0.223 C 
ATOM      5  O   UNL A   1      32.032  24.000  26.835  1.00  0.00    -0.275 OA
ATOM      6  H   UNL A   1      32.146  21.728  26.311  1.00  0.00     0.163 HD
BRANCH   4   7
ATOM      7  C   UNL A   1      33.367  24.565  24.934  1.00  0.00     0.085 C 
ATOM      8  C   UNL A   1      34.151  25.555  25.811  1.00  0.00     0.019 C 
BRANCH   7   9
ATOM      9  C   UNL A   1      32.472  25.175  23.831  1.00  0.00     0.066 C 
ATOM     10  C   UNL A   1      32.905  24.662  22.442  1.00  0.00     0.017 C 
BRANCH   9  11
ATOM     11  C   UNL A   1      30.931  24.986  23.929  1.00  0.00     0.143 C 
ATOM     12  O   UNL A   1      30.427  24.072  23.258  1.00  0.00    -0.299 OA
BRANCH  11  13
ATOM     13  C   UNL A   1      30.033  25.941  24.742  1.00  0.00     0.083 C 
ATOM     14  C   UNL A   1      28.838  26.439  23.923  1.00  0.00     0.021 C 
BRANCH  13  15
ATOM     15  C   UNL A   1      30.778  27.186  25.249  1.00  0.00    -0.038 A 
ATOM     16  C   UNL A   1      31.146  27.292  26.599  1.00  0.00     0.004 A 
ATOM     17  C   UNL A   1      31.025  28.282  24.404  1.00  0.00     0.004 A 
ATOM     18  C   UNL A   1      31.737  28.462  27.086  1.00  0.00     0.000 A 
ATOM     19  C   UNL A   1      31.618  29.447  24.889  1.00  0.00     0.000 A 
ATOM     20  C   UNL A   1      31.969  29.540  26.232  1.00  0.00     0.000 A 
ENDBRANCH  13  15
ENDBRANCH  11  13
ENDBRANCH   9  11
ENDBRANCH   7   9
ENDBRANCH   4   7
ENDBRANCH   2   3
ENDBRANCH   1   2
BRANCH   1  21
ATOM     21  C   UNL A   1      35.289  21.384  26.026  1.00  0.00     0.023 C 
BRANCH  21  22
ATOM     22  C   UNL A   1      36.644  21.873  25.527  1.00  0.00     0.116 C 
BRANCH  22  23
ATOM     23  N   UNL A   1      37.682  20.856  25.590  1.00  0.00    -0.352 N 
ATOM     24  C   UNL A   1      38.993  20.984  25.981  1.00  0.00     0.251 C 
ATOM     25  H   UNL A   1      37.407  19.951  25.315  1.00  0.00     0.163 HD
ATOM     26  O   UNL A   1      39.756  20.028  25.878  1.00  0.00    -0.269 OA
BRANCH  24  27
ATOM     27  C   UNL A   1      39.483  22.287  26.477  1.00  0.00     0.039 A 
ATOM     28  C   UNL A   1      40.501  22.303  27.433  1.00  0.00     0.014 A 
ATOM     29  C   UNL A   1      38.968  23.486  25.974  1.00  0.00     0.014 A 
ATOM     30  C   UNL A   1      41.057  23.521  27.828  1.00  0.00     0.010 A 
ATOM     31  C   UNL A   1      39.570  24.693  26.317  1.00  0.00     0.010 A 
ATOM     32  C   UNL A   1      40.624  24.722  27.244  1.00  0.00    -0.014 A 
BRANCH  32  33
ATOM     33  C   UNL A   1      41.261  26.020  27.586  1.00  0.00     0.031 A 
ATOM     34  C   UNL A   1      42.686  26.287  27.184  1.00  0.00     0.074 A 
ATOM     35  C   UNL A   1      40.582  26.924  28.320  1.00  0.00     0.049 A 
ATOM     36  N   UNL A   1      43.447  27.312  27.465  1.00  0.00    -0.248 NA
ATOM     37  C   UNL A   1      43.347  25.245  26.387  1.00  0.00     0.031 C 
ATOM     38  C   UNL A   1      39.210  26.759  28.806  1.00  0.00     0.029 A 
ATOM     39  N   UNL A   1      40.954  28.156  28.795  1.00  0.00    -0.354 N 
ATOM     40  C   UNL A   1      44.683  27.033  26.892  1.00  0.00     0.074 A 
ATOM     41  C   UNL A   1      44.583  25.714  26.303  1.00  0.00     0.031 C 
ATOM     42  C   UNL A   1      38.852  27.855  29.495  1.00  0.00     0.029 A 
ATOM     43  C   UNL A   1      39.979  28.782  29.536  1.00  0.00     0.049 A 
ATOM     44  H   UNL A   1      41.838  28.555  28.622  1.00  0.00     0.167 HD
ATOM     45  C   UNL A   1      45.791  27.814  26.840  1.00  0.00     0.034 A 
ATOM     46  C   UNL A   1      39.995  29.962  30.187  1.00  0.00     0.034 A 
ATOM     47  C   UNL A   1      45.870  29.132  27.422  1.00  0.00     0.049 A 
ATOM     48  C   UNL A   1      41.240  30.809  30.127  1.00  0.00     0.074 A 
ATOM     49  C   UNL A   1      46.922  30.031  27.387  1.00  0.00     0.029 A 
ATOM     50  N   UNL A   1      44.856  29.740  28.153  1.00  0.00    -0.354 N 
ATOM     51  N   UNL A   1      42.386  30.552  29.539  1.00  0.00    -0.248 NA
ATOM     52  C   UNL A   1      41.190  32.109  30.807  1.00  0.00     0.031 C 
ATOM     53  C   UNL A   1      46.568  31.153  28.144  1.00  0.00     0.029 A 
ATOM     54  C   UNL A   1      45.268  30.989  28.594  1.00  0.00     0.049 A 
ATOM     55  H   UNL A   1      43.974  29.342  28.332  1.00  0.00     0.167 HD
ATOM     56  C   UNL A   1      43.183  31.672  29.757  1.00  0.00     0.074 A 
ATOM     57  C   UNL A   1      42.381  32.611  30.515  1.00  0.00     0.031 C 
ATOM     58  C   UNL A   1      44.459  31.908  29.360  1.00  0.00     0.034 A 
BRANCH  45  59
ATOM     59  C   UNL A   1      47.007  27.244  26.149  1.00  0.00     0.023 A 
ATOM     60  C   UNL A   1      47.962  26.484  26.848  1.00  0.00     0.031 A 
ATOM     61  C   UNL A   1      47.238  27.494  24.785  1.00  0.00     0.131 A 
ATOM     62  C   UNL A   1      49.139  26.075  26.205  1.00  0.00     0.055 A 
ATOM     63  C   UNL A   1      48.372  27.010  24.128  1.00  0.00     0.041 A 
ATOM     64  F   UNL A   1      46.374  28.230  24.069  1.00  0.00    -0.206 F 
ATOM     65  C   UNL A   1      49.340  26.309  24.844  1.00  0.00     0.022 A 
BRANCH  62  66
ATOM     66  S   UNL A   1      50.472  25.366  27.212  1.00  0.00     0.124 S 
ATOM     67  O   UNL A   1      51.449  24.999  26.189  1.00  0.00    -0.237 OA
ATOM     68  O   UNL A   1      50.841  26.480  28.077  1.00  0.00    -0.237 OA
ATOM     69  O   UNL A   1      49.831  24.237  27.884  1.00  0.00    -0.744 OA
ENDBRANCH  62  66
ENDBRANCH  45  59
BRANCH  46  70
ATOM     70  C   UNL A   1      38.802  30.415  30.958  1.00  0.00     0.023 A 
ATOM     71  C   UNL A   1      37.741  31.080  30.324  1.00  0.00     0.031 A 
ATOM     72  C   UNL A   1      38.724  30.223  32.349  1.00  0.00     0.131 A 
ATOM     73  C   UNL A   1      36.667  31.569  31.086  1.00  0.00     0.055 A 
ATOM     74  C   UNL A   1      37.630  30.666  33.095  1.00  0.00     0.041 A 
ATOM     75  F   UNL A   1      39.709  29.585  33.002  1.00  0.00    -0.206 F 
ATOM     76  C   UNL A   1      36.600  31.356  32.464  1.00  0.00     0.022 A 
BRANCH  73  77
ATOM     77  S   UNL A   1      35.394  32.558  30.255  1.00  0.00     0.124 S 
ATOM     78  O   UNL A   1      36.145  33.749  29.873  1.00  0.00    -0.237 OA
ATOM     79  O   UNL A   1      34.989  31.677  29.165  1.00  0.00    -0.237 OA
ATOM     80  O   UNL A   1      34.388  32.761  31.296  1.00  0.00    -0.744 OA
ENDBRANCH  73  77
ENDBRANCH  46  70
BRANCH  58  81
ATOM     81  C   UNL A   1      45.045  33.254  29.707  1.00  0.00     0.023 A 
ATOM     82  C   UNL A   1      44.876  34.373  28.873  1.00  0.00     0.031 A 
ATOM     83  C   UNL A   1      45.795  33.414  30.887  1.00  0.00     0.131 A 
ATOM     84  C   UNL A   1      45.494  35.589  29.202  1.00  0.00     0.055 A 
ATOM     85  C   UNL A   1      46.359  34.641  31.238  1.00  0.00     0.041 A 
ATOM     86  F   UNL A   1      45.989  32.378  31.718  1.00  0.00    -0.206 F 
ATOM     87  C   UNL A   1      46.220  35.734  30.387  1.00  0.00     0.022 A 
BRANCH  84  88
ATOM     88  S   UNL A   1      45.407  36.960  28.017  1.00  0.00     0.124 S 
ATOM     89  O   UNL A   1      44.056  36.815  27.485  1.00  0.00    -0.237 OA
ATOM     90  O   UNL A   1      45.636  38.123  28.868  1.00  0.00    -0.237 OA
ATOM     91  O   UNL A   1      46.482  36.664  27.071  1.00  0.00    -0.744 OA
ENDBRANCH  84  88
ENDBRANCH  58  81
ENDBRANCH  32  33
ENDBRANCH  24  27
ENDBRANCH  22  23
ENDBRANCH  21  22
ENDBRANCH   1  21
TORSDOF 18
ENDMDL
MODEL 3
REMARK VINA RESULT:     -10.9      4.270      9.357
REMARK SMILES C[C@@H](C(=O)[C@H](C)[C@@H](C)C(=O)NCCCCNC(=O)c1ccc(-c2c3nc(c(-c4cc(S(=O)(=O)[O-])ccc4F)c4ccc([nH]4)c(-c4cc(S(=O)(=O)[O-])ccc4F)c4nc(c(-c5cc(S(=O)(=O)[O-])ccc5F)c5ccc2[nH]5)C=C4)C=C3)cc1)c1ccccc1
REMARK SMILES IDX 13 1 12 2 11 3 9 4 10 5 7 7 8 8 5 9 6 10 3 11 4 12 2 13 1 14
REMARK SMILES IDX 82 15 83 16 87 17 84 18 86 19 85 20 14 21 15 22 16 23 17 24
REMARK SMILES IDX 18 26 19 27 20 28 81 29 21 30 80 31 22 32 23 33 24 34 74 35
REMARK SMILES IDX 25 36 79 37 73 38 75 39 26 40 78 41 72 42 71 43 27 45 59 46
REMARK SMILES IDX 39 47 58 48 40 49 43 50 57 51 76 52 41 53 42 54 56 56 77 57
REMARK SMILES IDX 44 58 28 59 29 60 37 61 30 62 36 63 38 64 35 65 31 66 32 67
REMARK SMILES IDX 33 68 34 69 60 70 61 71 69 72 62 73 68 74 70 75 67 76 63 77
REMARK SMILES IDX 64 78 65 79 66 80 45 81 46 82 54 83 47 84 53 85 55 86 52 87
REMARK SMILES IDX 48 88 49 89 50 90 51 91
REMARK H PARENT 11 6 16 25 75 44 43 55
REMARK Flexibility Score: inf
ROOT
ATOM      1  C   UNL A   1      30.886  28.176  25.246  1.00  0.00     0.023 C 
ENDROOT
BRANCH   1   2
ATOM      2  C   UNL A   1      30.693  26.973  24.325  1.00  0.00     0.116 C 
BRANCH   2   3
ATOM      3  N   UNL A   1      31.900  26.649  23.590  1.00  0.00    -0.356 N 
ATOM      4  C   UNL A   1      32.975  25.888  23.911  1.00  0.00     0.223 C 
ATOM      5  O   UNL A   1      33.847  25.746  23.051  1.00  0.00    -0.275 OA
ATOM      6  H   UNL A   1      31.947  27.054  22.694  1.00  0.00     0.163 HD
BRANCH   4   7
ATOM      7  C   UNL A   1      33.133  25.210  25.268  1.00  0.00     0.085 C 
ATOM      8  C   UNL A   1      34.616  25.268  25.671  1.00  0.00     0.019 C 
BRANCH   7   9
ATOM      9  C   UNL A   1      32.443  23.830  25.364  1.00  0.00     0.066 C 
ATOM     10  C   UNL A   1      31.165  23.927  26.223  1.00  0.00     0.017 C 
BRANCH   9  11
ATOM     11  C   UNL A   1      32.056  23.095  24.049  1.00  0.00     0.143 C 
ATOM     12  O   UNL A   1      30.982  23.411  23.516  1.00  0.00    -0.299 OA
BRANCH  11  13
ATOM     13  C   UNL A   1      32.908  21.949  23.464  1.00  0.00     0.083 C 
ATOM     14  C   UNL A   1      32.382  20.572  23.884  1.00  0.00     0.021 C 
BRANCH  13  15
ATOM     15  C   UNL A   1      34.383  22.013  23.890  1.00  0.00    -0.038 A 
ATOM     16  C   UNL A   1      35.293  22.812  23.180  1.00  0.00     0.004 A 
ATOM     17  C   UNL A   1      34.875  21.211  24.935  1.00  0.00     0.004 A 
ATOM     18  C   UNL A   1      36.653  22.799  23.503  1.00  0.00     0.000 A 
ATOM     19  C   UNL A   1      36.232  21.202  25.259  1.00  0.00     0.000 A 
ATOM     20  C   UNL A   1      37.122  21.992  24.539  1.00  0.00     0.000 A 
ENDBRANCH  13  15
ENDBRANCH  11  13
ENDBRANCH   9  11
ENDBRANCH   7   9
ENDBRANCH   4   7
ENDBRANCH   2   3
ENDBRANCH   1   2
BRANCH   1  21
ATOM     21  C   UNL A   1      31.859  29.238  24.734  1.00  0.00     0.023 C 
BRANCH  21  22
ATOM     22  C   UNL A   1      32.875  29.746  25.750  1.00  0.00     0.116 C 
BRANCH  22  23
ATOM     23  N   UNL A   1      32.553  31.062  26.278  1.00  0.00    -0.352 N 
ATOM     24  C   UNL A   1      33.226  31.803  27.221  1.00  0.00     0.251 C 
ATOM     25  H   UNL A   1      31.742  31.481  25.910  1.00  0.00     0.163 HD
ATOM     26  O   UNL A   1      32.750  32.862  27.617  1.00  0.00    -0.269 OA
BRANCH  24  27
ATOM     27  C   UNL A   1      34.493  31.290  27.782  1.00  0.00     0.039 A 
ATOM     28  C   UNL A   1      35.543  32.186  28.000  1.00  0.00     0.014 A 
ATOM     29  C   UNL A   1      34.632  29.942  28.128  1.00  0.00     0.014 A 
ATOM     30  C   UNL A   1      36.705  31.745  28.636  1.00  0.00     0.010 A 
ATOM     31  C   UNL A   1      35.761  29.521  28.824  1.00  0.00     0.010 A 
ATOM     32  C   UNL A   1      36.807  30.420  29.090  1.00  0.00    -0.014 A 
BRANCH  32  33
ATOM     33  C   UNL A   1      37.998  29.953  29.845  1.00  0.00     0.031 A 
ATOM     34  C   UNL A   1      38.254  30.466  31.236  1.00  0.00     0.074 A 
ATOM     35  C   UNL A   1      38.883  29.127  29.252  1.00  0.00     0.049 A 
ATOM     36  N   UNL A   1      39.278  30.254  32.021  1.00  0.00    -0.248 NA
ATOM     37  C   UNL A   1      37.236  31.362  31.801  1.00  0.00     0.031 C 
ATOM     38  C   UNL A   1      38.765  28.599  27.891  1.00  0.00     0.029 A 
ATOM     39  N   UNL A   1      40.062  28.596  29.711  1.00  0.00    -0.354 N 
ATOM     40  C   UNL A   1      39.035  31.001  33.169  1.00  0.00     0.074 A 
ATOM     41  C   UNL A   1      37.798  31.719  32.946  1.00  0.00     0.031 C 
ATOM     42  C   UNL A   1      39.819  27.806  27.634  1.00  0.00     0.029 A 
ATOM     43  C   UNL A   1      40.708  27.803  28.792  1.00  0.00     0.049 A 
ATOM     44  H   UNL A   1      40.413  28.767  30.616  1.00  0.00     0.167 HD
ATOM     45  C   UNL A   1      39.763  31.063  34.312  1.00  0.00     0.034 A 
ATOM     46  C   UNL A   1      41.888  27.157  28.867  1.00  0.00     0.034 A 
ATOM     47  C   UNL A   1      40.989  30.330  34.522  1.00  0.00     0.049 A 
ATOM     48  C   UNL A   1      42.688  27.249  30.142  1.00  0.00     0.074 A 
ATOM     49  C   UNL A   1      41.780  30.278  35.655  1.00  0.00     0.029 A 
ATOM     50  N   UNL A   1      41.605  29.524  33.572  1.00  0.00    -0.354 N 
ATOM     51  N   UNL A   1      42.420  27.923  31.237  1.00  0.00    -0.248 NA
ATOM     52  C   UNL A   1      43.941  26.486  30.193  1.00  0.00     0.031 C 
ATOM     53  C   UNL A   1      42.903  29.492  35.372  1.00  0.00     0.029 A 
ATOM     54  C   UNL A   1      42.779  28.993  34.086  1.00  0.00     0.049 A 
ATOM     55  H   UNL A   1      41.259  29.355  32.666  1.00  0.00     0.167 HD
ATOM     56  C   UNL A   1      43.460  27.639  32.118  1.00  0.00     0.074 A 
ATOM     57  C   UNL A   1      44.349  26.724  31.432  1.00  0.00     0.031 C 
ATOM     58  C   UNL A   1      43.660  28.090  33.383  1.00  0.00     0.034 A 
BRANCH  45  59
ATOM     59  C   UNL A   1      39.258  31.974  35.405  1.00  0.00     0.023 A 
ATOM     60  C   UNL A   1      39.702  33.303  35.519  1.00  0.00     0.031 A 
ATOM     61  C   UNL A   1      38.350  31.500  36.369  1.00  0.00     0.131 A 
ATOM     62  C   UNL A   1      39.307  34.083  36.616  1.00  0.00     0.055 A 
ATOM     63  C   UNL A   1      37.893  32.310  37.412  1.00  0.00     0.041 A 
ATOM     64  F   UNL A   1      37.906  30.234  36.325  1.00  0.00    -0.206 F 
ATOM     65  C   UNL A   1      38.386  33.605  37.550  1.00  0.00     0.022 A 
BRANCH  62  66
ATOM     66  S   UNL A   1      40.134  35.674  36.888  1.00  0.00     0.124 S 
ATOM     67  O   UNL A   1      39.653  36.454  35.749  1.00  0.00    -0.237 OA
ATOM     68  O   UNL A   1      39.627  36.074  38.195  1.00  0.00    -0.237 OA
ATOM     69  O   UNL A   1      41.555  35.335  36.845  1.00  0.00    -0.744 OA
ENDBRANCH  62  66
ENDBRANCH  45  59
BRANCH  46  70
ATOM     70  C   UNL A   1      42.394  26.372  27.706  1.00  0.00     0.023 A 
ATOM     71  C   UNL A   1      42.005  25.038  27.508  1.00  0.00     0.031 A 
ATOM     72  C   UNL A   1      43.308  26.935  26.795  1.00  0.00     0.131 A 
ATOM     73  C   UNL A   1      42.560  24.296  26.453  1.00  0.00     0.055 A 
ATOM     74  C   UNL A   1      43.818  26.208  25.718  1.00  0.00     0.041 A 
ATOM     75  F   UNL A   1      43.706  28.210  26.935  1.00  0.00    -0.206 F 
ATOM     76  C   UNL A   1      43.454  24.875  25.551  1.00  0.00     0.022 A 
BRANCH  73  77
ATOM     77  S   UNL A   1      42.152  22.533  26.325  1.00  0.00     0.124 S 
ATOM     78  O   UNL A   1      42.894  21.974  27.449  1.00  0.00    -0.237 OA
ATOM     79  O   UNL A   1      40.700  22.548  26.458  1.00  0.00    -0.237 OA
ATOM     80  O   UNL A   1      42.651  22.165  25.001  1.00  0.00    -0.744 OA
ENDBRANCH  73  77
ENDBRANCH  46  70
BRANCH  58  81
ATOM     81  C   UNL A   1      44.868  27.558  34.115  1.00  0.00     0.023 A 
ATOM     82  C   UNL A   1      44.821  26.361  34.850  1.00  0.00     0.031 A 
ATOM     83  C   UNL A   1      46.080  28.271  34.084  1.00  0.00     0.131 A 
ATOM     84  C   UNL A   1      45.949  25.939  35.568  1.00  0.00     0.055 A 
ATOM     85  C   UNL A   1      47.216  27.816  34.755  1.00  0.00     0.041 A 
ATOM     86  F   UNL A   1      46.179  29.421  33.399  1.00  0.00    -0.206 F 
ATOM     87  C   UNL A   1      47.151  26.650  35.512  1.00  0.00     0.022 A 
BRANCH  84  88
ATOM     88  S   UNL A   1      45.802  24.490  36.650  1.00  0.00     0.124 S 
ATOM     89  O   UNL A   1      45.880  25.093  37.976  1.00  0.00    -0.237 OA
ATOM     90  O   UNL A   1      44.501  23.948  36.271  1.00  0.00    -0.237 OA
ATOM     91  O   UNL A   1      46.949  23.664  36.275  1.00  0.00    -0.744 OA
ENDBRANCH  84  88
ENDBRANCH  58  81
ENDBRANCH  32  33
ENDBRANCH  24  27
ENDBRANCH  22  23
ENDBRANCH  21  22
ENDBRANCH   1  21
TORSDOF 18
ENDMDL
