MODEL 1
REMARK VINA RESULT:     -10.2      0.000      0.000
REMARK SMILES C#CCN(CC(=O)NCCCCNC(=O)c1ccc(-c2c3nc(c(-c4cc(S(=O)(=O)[O-])ccc4F)c4ccc([nH]4)c(-c4cc(S(=O)(=O)[O-])ccc4F)c4nc(c(-c5cc(S(=O)(=O)[O-])ccc5F)c5ccc2[nH]5)C=C4)C=C3)cc1)C(=O)c1cccnc1C
REMARK SMILES IDX 10 1 9 2 8 3 6 4 7 5 5 7 4 8 3 9 2 10 1 11 79 12 80 13 81 14
REMARK SMILES IDX 82 15 86 16 83 17 85 18 87 19 84 20 11 21 12 22 13 23 14 24
REMARK SMILES IDX 15 26 16 27 17 28 78 29 18 30 77 31 19 32 20 33 21 34 71 35
REMARK SMILES IDX 22 36 76 37 70 38 72 39 23 40 75 41 69 42 68 43 24 45 56 46
REMARK SMILES IDX 36 47 55 48 37 49 40 50 54 51 73 52 38 53 39 54 53 56 74 57
REMARK SMILES IDX 41 58 25 59 26 60 34 61 27 62 33 63 35 64 32 65 28 66 29 67
REMARK SMILES IDX 30 68 31 69 57 70 58 71 66 72 59 73 65 74 67 75 64 76 60 77
REMARK SMILES IDX 61 78 62 79 63 80 42 81 43 82 51 83 44 84 50 85 52 86 49 87
REMARK SMILES IDX 45 88 46 89 47 90 48 91
REMARK H PARENT 8 6 13 25 72 44 40 55
REMARK Flexibility Score: inf
ROOT
ATOM      1  C   UNL A   1      31.877  28.559  27.440  1.00  0.00     0.023 C 
ENDROOT
BRANCH   1   2
ATOM      2  C   UNL A   1      31.263  27.645  26.380  1.00  0.00     0.116 C 
BRANCH   2   3
ATOM      3  N   UNL A   1      31.211  26.242  26.741  1.00  0.00    -0.355 N 
ATOM      4  C   UNL A   1      31.535  25.114  26.049  1.00  0.00     0.239 C 
ATOM      5  O   UNL A   1      31.739  24.097  26.723  1.00  0.00    -0.273 OA
ATOM      6  H   UNL A   1      30.881  26.073  27.653  1.00  0.00     0.163 HD
BRANCH   4   7
ATOM      7  C   UNL A   1      31.797  25.074  24.533  1.00  0.00     0.220 C 
BRANCH   7   8
ATOM      8  N   UNL A   1      33.189  25.111  24.088  1.00  0.00    -0.318 N 
BRANCH   8   9
ATOM      9  C   UNL A   1      34.012  26.231  24.543  1.00  0.00     0.210 C 
BRANCH   9  10
ATOM     10  C   UNL A   1      33.805  27.481  23.704  1.00  0.00    -0.085 C 
ATOM     11  C   UNL A   1      33.627  28.554  22.985  1.00  0.00     0.006 C 
ENDBRANCH   9  10
ENDBRANCH   8   9
BRANCH   8  12
ATOM     12  C   UNL A   1      33.777  24.134  23.274  1.00  0.00     0.256 C 
ATOM     13  O   UNL A   1      33.687  24.147  22.049  1.00  0.00    -0.269 OA
BRANCH  12  14
ATOM     14  C   UNL A   1      34.627  23.073  23.865  1.00  0.00     0.061 A 
ATOM     15  C   UNL A   1      36.013  23.219  23.720  1.00  0.00     0.017 A 
ATOM     16  C   UNL A   1      34.149  21.876  24.401  1.00  0.00     0.050 A 
ATOM     17  C   UNL A   1      36.868  22.211  24.163  1.00  0.00     0.021 A 
ATOM     18  N   UNL A   1      34.981  20.907  24.877  1.00  0.00    -0.261 NA
ATOM     19  C   UNL A   1      32.705  21.507  24.458  1.00  0.00     0.067 C 
ATOM     20  C   UNL A   1      36.309  21.091  24.747  1.00  0.00     0.111 A 
ENDBRANCH  12  14
ENDBRANCH   8  12
ENDBRANCH   7   8
ENDBRANCH   4   7
ENDBRANCH   2   3
ENDBRANCH   1   2
BRANCH   1  21
ATOM     21  C   UNL A   1      33.395  28.721  27.393  1.00  0.00     0.023 C 
BRANCH  21  22
ATOM     22  C   UNL A   1      33.898  29.983  26.714  1.00  0.00     0.116 C 
BRANCH  22  23
ATOM     23  N   UNL A   1      33.758  31.171  27.535  1.00  0.00    -0.352 N 
ATOM     24  C   UNL A   1      34.573  31.621  28.545  1.00  0.00     0.251 C 
ATOM     25  H   UNL A   1      32.973  31.732  27.341  1.00  0.00     0.163 HD
ATOM     26  O   UNL A   1      34.236  32.601  29.203  1.00  0.00    -0.269 OA
BRANCH  24  27
ATOM     27  C   UNL A   1      35.821  30.893  28.863  1.00  0.00     0.039 A 
ATOM     28  C   UNL A   1      37.011  31.311  28.261  1.00  0.00     0.014 A 
ATOM     29  C   UNL A   1      35.829  29.829  29.770  1.00  0.00     0.014 A 
ATOM     30  C   UNL A   1      38.217  30.707  28.622  1.00  0.00     0.010 A 
ATOM     31  C   UNL A   1      37.040  29.286  30.188  1.00  0.00     0.010 A 
ATOM     32  C   UNL A   1      38.246  29.717  29.617  1.00  0.00    -0.014 A 
BRANCH  32  33
ATOM     33  C   UNL A   1      39.528  29.125  30.078  1.00  0.00     0.031 A 
ATOM     34  C   UNL A   1      40.286  29.757  31.213  1.00  0.00     0.074 A 
ATOM     35  C   UNL A   1      40.046  28.068  29.422  1.00  0.00     0.049 A 
ATOM     36  N   UNL A   1      41.456  29.441  31.706  1.00  0.00    -0.248 NA
ATOM     37  C   UNL A   1      39.658  30.922  31.855  1.00  0.00     0.031 C 
ATOM     38  C   UNL A   1      39.430  27.405  28.270  1.00  0.00     0.029 A 
ATOM     39  N   UNL A   1      41.214  27.375  29.617  1.00  0.00    -0.354 N 
ATOM     40  C   UNL A   1      41.714  30.380  32.700  1.00  0.00     0.074 A 
ATOM     41  C   UNL A   1      40.604  31.308  32.696  1.00  0.00     0.031 C 
ATOM     42  C   UNL A   1      40.218  26.395  27.870  1.00  0.00     0.029 A 
ATOM     43  C   UNL A   1      41.415  26.364  28.705  1.00  0.00     0.049 A 
ATOM     44  H   UNL A   1      41.848  27.580  30.340  1.00  0.00     0.167 HD
ATOM     45  C   UNL A   1      42.769  30.445  33.549  1.00  0.00     0.034 A 
ATOM     46  C   UNL A   1      42.453  25.518  28.546  1.00  0.00     0.034 A 
ATOM     47  C   UNL A   1      43.858  29.497  33.546  1.00  0.00     0.049 A 
ATOM     48  C   UNL A   1      43.616  25.609  29.500  1.00  0.00     0.074 A 
ATOM     49  C   UNL A   1      44.933  29.417  34.414  1.00  0.00     0.029 A 
ATOM     50  N   UNL A   1      44.021  28.474  32.620  1.00  0.00    -0.354 N 
ATOM     51  N   UNL A   1      43.810  26.454  30.486  1.00  0.00    -0.248 NA
ATOM     52  C   UNL A   1      44.691  24.626  29.326  1.00  0.00     0.031 C 
ATOM     53  C   UNL A   1      45.782  28.397  33.969  1.00  0.00     0.029 A 
ATOM     54  C   UNL A   1      45.198  27.784  32.872  1.00  0.00     0.049 A 
ATOM     55  H   UNL A   1      43.392  28.269  31.891  1.00  0.00     0.167 HD
ATOM     56  C   UNL A   1      45.022  26.087  31.066  1.00  0.00     0.074 A 
ATOM     57  C   UNL A   1      45.502  24.936  30.328  1.00  0.00     0.031 C 
ATOM     58  C   UNL A   1      45.677  26.650  32.115  1.00  0.00     0.034 A 
BRANCH  45  59
ATOM     59  C   UNL A   1      42.806  31.599  34.525  1.00  0.00     0.023 A 
ATOM     60  C   UNL A   1      42.134  31.549  35.759  1.00  0.00     0.031 A 
ATOM     61  C   UNL A   1      43.492  32.783  34.202  1.00  0.00     0.131 A 
ATOM     62  C   UNL A   1      42.087  32.686  36.581  1.00  0.00     0.055 A 
ATOM     63  C   UNL A   1      43.516  33.881  35.064  1.00  0.00     0.041 A 
ATOM     64  F   UNL A   1      44.135  32.901  33.030  1.00  0.00    -0.206 F 
ATOM     65  C   UNL A   1      42.797  33.843  36.254  1.00  0.00     0.022 A 
BRANCH  62  66
ATOM     66  S   UNL A   1      40.956  32.684  37.999  1.00  0.00     0.124 S 
ATOM     67  O   UNL A   1      41.739  31.960  38.999  1.00  0.00    -0.237 OA
ATOM     68  O   UNL A   1      40.760  34.107  38.248  1.00  0.00    -0.237 OA
ATOM     69  O   UNL A   1      39.784  31.968  37.501  1.00  0.00    -0.744 OA
ENDBRANCH  62  66
ENDBRANCH  45  59
BRANCH  46  70
ATOM     70  C   UNL A   1      42.449  24.529  27.431  1.00  0.00     0.023 A 
ATOM     71  C   UNL A   1      41.716  23.336  27.519  1.00  0.00     0.031 A 
ATOM     72  C   UNL A   1      43.200  24.760  26.264  1.00  0.00     0.131 A 
ATOM     73  C   UNL A   1      41.779  22.399  26.475  1.00  0.00     0.055 A 
ATOM     74  C   UNL A   1      43.219  23.848  25.208  1.00  0.00     0.041 A 
ATOM     75  F   UNL A   1      43.912  25.889  26.127  1.00  0.00    -0.206 F 
ATOM     76  C   UNL A   1      42.514  22.653  25.315  1.00  0.00     0.022 A 
BRANCH  73  77
ATOM     77  S   UNL A   1      40.936  20.807  26.684  1.00  0.00     0.124 S 
ATOM     78  O   UNL A   1      39.650  21.066  26.046  1.00  0.00    -0.237 OA
ATOM     79  O   UNL A   1      41.830  19.895  25.978  1.00  0.00    -0.237 OA
ATOM     80  O   UNL A   1      40.890  20.633  28.134  1.00  0.00    -0.744 OA
ENDBRANCH  73  77
ENDBRANCH  46  70
BRANCH  58  81
ATOM     81  C   UNL A   1      46.969  25.997  32.545  1.00  0.00     0.023 A 
ATOM     82  C   UNL A   1      48.205  26.360  31.983  1.00  0.00     0.031 A 
ATOM     83  C   UNL A   1      46.959  24.990  33.526  1.00  0.00     0.131 A 
ATOM     84  C   UNL A   1      49.372  25.684  32.367  1.00  0.00     0.055 A 
ATOM     85  C   UNL A   1      48.132  24.364  33.948  1.00  0.00     0.041 A 
ATOM     86  F   UNL A   1      45.807  24.600  34.095  1.00  0.00    -0.206 F 
ATOM     87  C   UNL A   1      49.346  24.700  33.359  1.00  0.00     0.022 A 
BRANCH  84  88
ATOM     88  S   UNL A   1      50.917  26.041  31.485  1.00  0.00     0.124 S 
ATOM     89  O   UNL A   1      51.597  24.750  31.529  1.00  0.00    -0.237 OA
ATOM     90  O   UNL A   1      50.437  26.465  30.174  1.00  0.00    -0.237 OA
ATOM     91  O   UNL A   1      51.536  27.095  32.288  1.00  0.00    -0.744 OA
ENDBRANCH  84  88
ENDBRANCH  58  81
ENDBRANCH  32  33
ENDBRANCH  24  27
ENDBRANCH  22  23
ENDBRANCH  21  22
ENDBRANCH   1  21
TORSDOF 19
ENDMDL
MODEL 2
REMARK VINA RESULT:     -10.1      3.627      9.016
REMARK SMILES C#CCN(CC(=O)NCCCCNC(=O)c1ccc(-c2c3nc(c(-c4cc(S(=O)(=O)[O-])ccc4F)c4ccc([nH]4)c(-c4cc(S(=O)(=O)[O-])ccc4F)c4nc(c(-c5cc(S(=O)(=O)[O-])ccc5F)c5ccc2[nH]5)C=C4)C=C3)cc1)C(=O)c1cccnc1C
REMARK SMILES IDX 10 1 9 2 8 3 6 4 7 5 5 7 4 8 3 9 2 10 1 11 79 12 80 13 81 14
REMARK SMILES IDX 82 15 86 16 83 17 85 18 87 19 84 20 11 21 12 22 13 23 14 24
REMARK SMILES IDX 15 26 16 27 17 28 78 29 18 30 77 31 19 32 20 33 21 34 71 35
REMARK SMILES IDX 22 36 76 37 70 38 72 39 23 40 75 41 69 42 68 43 24 45 56 46
REMARK SMILES IDX 36 47 55 48 37 49 40 50 54 51 73 52 38 53 39 54 53 56 74 57
REMARK SMILES IDX 41 58 25 59 26 60 34 61 27 62 33 63 35 64 32 65 28 66 29 67
REMARK SMILES IDX 30 68 31 69 57 70 58 71 66 72 59 73 65 74 67 75 64 76 60 77
REMARK SMILES IDX 61 78 62 79 63 80 42 81 43 82 51 83 44 84 50 85 52 86 49 87
REMARK SMILES IDX 45 88 46 89 47 90 48 91
REMARK H PARENT 8 6 13 25 72 44 40 55
REMARK Flexibility Score: inf
ROOT
ATOM      1  C   UNL A   1      31.409  30.913  25.974  1.00  0.00     0.023 C 
ENDROOT
BRANCH   1   2
ATOM      2  C   UNL A   1      32.107  29.864  26.839  1.00  0.00     0.116 C 
BRANCH   2   3
ATOM      3  N   UNL A   1      31.441  28.578  26.894  1.00  0.00    -0.355 N 
ATOM      4  C   UNL A   1      31.652  27.415  26.216  1.00  0.00     0.239 C 
ATOM      5  O   UNL A   1      31.183  26.391  26.724  1.00  0.00    -0.273 OA
ATOM      6  H   UNL A   1      30.698  28.537  27.540  1.00  0.00     0.163 HD
BRANCH   4   7
ATOM      7  C   UNL A   1      32.543  27.293  24.966  1.00  0.00     0.220 C 
BRANCH   7   8
ATOM      8  N   UNL A   1      32.132  26.341  23.936  1.00  0.00    -0.318 N 
BRANCH   8   9
ATOM      9  C   UNL A   1      32.431  24.928  24.165  1.00  0.00     0.210 C 
BRANCH   9  10
ATOM     10  C   UNL A   1      33.812  24.718  24.764  1.00  0.00    -0.085 C 
ATOM     11  C   UNL A   1      34.997  24.537  25.278  1.00  0.00     0.006 C 
ENDBRANCH   9  10
ENDBRANCH   8   9
BRANCH   8  12
ATOM     12  C   UNL A   1      31.458  26.702  22.762  1.00  0.00     0.256 C 
ATOM     13  O   UNL A   1      31.654  26.146  21.684  1.00  0.00    -0.269 OA
BRANCH  12  14
ATOM     14  C   UNL A   1      30.390  27.731  22.792  1.00  0.00     0.061 A 
ATOM     15  C   UNL A   1      30.745  29.023  22.386  1.00  0.00     0.017 A 
ATOM     16  C   UNL A   1      29.120  27.545  23.342  1.00  0.00     0.050 A 
ATOM     17  C   UNL A   1      29.820  30.061  22.482  1.00  0.00     0.021 A 
ATOM     18  N   UNL A   1      28.196  28.545  23.396  1.00  0.00    -0.261 NA
ATOM     19  C   UNL A   1      28.664  26.272  23.972  1.00  0.00     0.067 C 
ATOM     20  C   UNL A   1      28.562  29.771  22.973  1.00  0.00     0.111 A 
ENDBRANCH  12  14
ENDBRANCH   8  12
ENDBRANCH   7   8
ENDBRANCH   4   7
ENDBRANCH   2   3
ENDBRANCH   1   2
BRANCH   1  21
ATOM     21  C   UNL A   1      31.388  32.336  26.527  1.00  0.00     0.023 C 
BRANCH  21  22
ATOM     22  C   UNL A   1      32.669  32.798  27.198  1.00  0.00     0.116 C 
BRANCH  22  23
ATOM     23  N   UNL A   1      32.576  34.135  27.754  1.00  0.00    -0.352 N 
ATOM     24  C   UNL A   1      33.350  34.721  28.726  1.00  0.00     0.251 C 
ATOM     25  H   UNL A   1      31.860  34.701  27.384  1.00  0.00     0.163 HD
ATOM     26  O   UNL A   1      33.054  35.836  29.145  1.00  0.00    -0.269 OA
BRANCH  24  27
ATOM     27  C   UNL A   1      34.502  33.984  29.291  1.00  0.00     0.039 A 
ATOM     28  C   UNL A   1      35.793  34.420  28.980  1.00  0.00     0.014 A 
ATOM     29  C   UNL A   1      34.317  32.894  30.146  1.00  0.00     0.014 A 
ATOM     30  C   UNL A   1      36.893  33.806  29.581  1.00  0.00     0.010 A 
ATOM     31  C   UNL A   1      35.408  32.339  30.806  1.00  0.00     0.010 A 
ATOM     32  C   UNL A   1      36.708  32.788  30.530  1.00  0.00    -0.014 A 
BRANCH  32  33
ATOM     33  C   UNL A   1      37.860  32.183  31.246  1.00  0.00     0.031 A 
ATOM     34  C   UNL A   1      38.625  31.049  30.622  1.00  0.00     0.074 A 
ATOM     35  C   UNL A   1      38.165  32.604  32.490  1.00  0.00     0.049 A 
ATOM     36  N   UNL A   1      39.603  30.337  31.120  1.00  0.00    -0.248 NA
ATOM     37  C   UNL A   1      38.209  30.638  29.273  1.00  0.00     0.031 C 
ATOM     38  C   UNL A   1      37.457  33.658  33.221  1.00  0.00     0.029 A 
ATOM     39  N   UNL A   1      39.135  32.188  33.367  1.00  0.00    -0.354 N 
ATOM     40  C   UNL A   1      39.906  29.382  30.154  1.00  0.00     0.074 A 
ATOM     41  C   UNL A   1      38.965  29.571  29.071  1.00  0.00     0.031 C 
ATOM     42  C   UNL A   1      38.025  33.814  34.428  1.00  0.00     0.029 A 
ATOM     43  C   UNL A   1      39.106  32.844  34.575  1.00  0.00     0.049 A 
ATOM     44  H   UNL A   1      39.790  31.486  33.151  1.00  0.00     0.167 HD
ATOM     45  C   UNL A   1      40.890  28.448  30.165  1.00  0.00     0.034 A 
ATOM     46  C   UNL A   1      39.853  32.674  35.685  1.00  0.00     0.034 A 
ATOM     47  C   UNL A   1      41.827  28.288  31.251  1.00  0.00     0.049 A 
ATOM     48  C   UNL A   1      40.940  31.631  35.676  1.00  0.00     0.074 A 
ATOM     49  C   UNL A   1      42.916  27.436  31.331  1.00  0.00     0.029 A 
ATOM     50  N   UNL A   1      41.781  28.983  32.452  1.00  0.00    -0.354 N 
ATOM     51  N   UNL A   1      41.265  30.786  34.724  1.00  0.00    -0.248 NA
ATOM     52  C   UNL A   1      41.767  31.528  36.884  1.00  0.00     0.031 C 
ATOM     53  C   UNL A   1      43.478  27.560  32.606  1.00  0.00     0.029 A 
ATOM     54  C   UNL A   1      42.795  28.551  33.295  1.00  0.00     0.049 A 
ATOM     55  H   UNL A   1      41.124  29.681  32.675  1.00  0.00     0.167 HD
ATOM     56  C   UNL A   1      42.352  30.065  35.213  1.00  0.00     0.074 A 
ATOM     57  C   UNL A   1      42.635  30.588  36.534  1.00  0.00     0.031 C 
ATOM     58  C   UNL A   1      43.054  29.065  34.620  1.00  0.00     0.034 A 
BRANCH  45  59
ATOM     59  C   UNL A   1      40.974  27.514  28.980  1.00  0.00     0.023 A 
ATOM     60  C   UNL A   1      41.973  27.646  27.999  1.00  0.00     0.031 A 
ATOM     61  C   UNL A   1      40.019  26.496  28.807  1.00  0.00     0.131 A 
ATOM     62  C   UNL A   1      41.943  26.840  26.851  1.00  0.00     0.055 A 
ATOM     63  C   UNL A   1      40.046  25.638  27.706  1.00  0.00     0.041 A 
ATOM     64  F   UNL A   1      39.028  26.331  29.696  1.00  0.00    -0.206 F 
ATOM     65  C   UNL A   1      41.001  25.818  26.710  1.00  0.00     0.022 A 
BRANCH  62  66
ATOM     66  S   UNL A   1      43.049  27.252  25.474  1.00  0.00     0.124 S 
ATOM     67  O   UNL A   1      43.253  25.942  24.858  1.00  0.00    -0.237 OA
ATOM     68  O   UNL A   1      42.255  28.203  24.705  1.00  0.00    -0.237 OA
ATOM     69  O   UNL A   1      44.226  27.810  26.135  1.00  0.00    -0.744 OA
ENDBRANCH  62  66
ENDBRANCH  45  59
BRANCH  46  70
ATOM     70  C   UNL A   1      39.585  33.495  36.901  1.00  0.00     0.023 A 
ATOM     71  C   UNL A   1      38.896  32.962  38.001  1.00  0.00     0.031 A 
ATOM     72  C   UNL A   1      40.002  34.836  36.968  1.00  0.00     0.131 A 
ATOM     73  C   UNL A   1      38.610  33.777  39.107  1.00  0.00     0.055 A 
ATOM     74  C   UNL A   1      39.758  35.628  38.091  1.00  0.00     0.041 A 
ATOM     75  F   UNL A   1      40.671  35.392  35.946  1.00  0.00    -0.206 F 
ATOM     76  C   UNL A   1      39.049  35.101  39.166  1.00  0.00     0.022 A 
BRANCH  73  77
ATOM     77  S   UNL A   1      37.595  33.097  40.448  1.00  0.00     0.124 S 
ATOM     78  O   UNL A   1      37.229  34.302  41.184  1.00  0.00    -0.237 OA
ATOM     79  O   UNL A   1      36.518  32.444  39.711  1.00  0.00    -0.237 OA
ATOM     80  O   UNL A   1      38.509  32.193  41.144  1.00  0.00    -0.744 OA
ENDBRANCH  73  77
ENDBRANCH  46  70
BRANCH  58  81
ATOM     81  C   UNL A   1      44.221  28.498  35.392  1.00  0.00     0.023 A 
ATOM     82  C   UNL A   1      44.050  27.500  36.367  1.00  0.00     0.031 A 
ATOM     83  C   UNL A   1      45.523  28.972  35.153  1.00  0.00     0.131 A 
ATOM     84  C   UNL A   1      45.154  27.047  37.105  1.00  0.00     0.055 A 
ATOM     85  C   UNL A   1      46.626  28.473  35.847  1.00  0.00     0.041 A 
ATOM     86  F   UNL A   1      45.746  29.927  34.236  1.00  0.00    -0.206 F 
ATOM     87  C   UNL A   1      46.443  27.515  36.838  1.00  0.00     0.022 A 
BRANCH  84  88
ATOM     88  S   UNL A   1      44.871  25.904  38.485  1.00  0.00     0.124 S 
ATOM     89  O   UNL A   1      43.986  26.681  39.346  1.00  0.00    -0.237 OA
ATOM     90  O   UNL A   1      44.267  24.755  37.820  1.00  0.00    -0.237 OA
ATOM     91  O   UNL A   1      46.213  25.675  39.021  1.00  0.00    -0.744 OA
ENDBRANCH  84  88
ENDBRANCH  58  81
ENDBRANCH  32  33
ENDBRANCH  24  27
ENDBRANCH  22  23
ENDBRANCH  21  22
ENDBRANCH   1  21
TORSDOF 19
ENDMDL
MODEL 3
REMARK VINA RESULT:     -10.1      3.549      8.742
REMARK SMILES C#CCN(CC(=O)NCCCCNC(=O)c1ccc(-c2c3nc(c(-c4cc(S(=O)(=O)[O-])ccc4F)c4ccc([nH]4)c(-c4cc(S(=O)(=O)[O-])ccc4F)c4nc(c(-c5cc(S(=O)(=O)[O-])ccc5F)c5ccc2[nH]5)C=C4)C=C3)cc1)C(=O)c1cccnc1C
REMARK SMILES IDX 10 1 9 2 8 3 6 4 7 5 5 7 4 8 3 9 2 10 1 11 79 12 80 13 81 14
REMARK SMILES IDX 82 15 86 16 83 17 85 18 87 19 84 20 11 21 12 22 13 23 14 24
REMARK SMILES IDX 15 26 16 27 17 28 78 29 18 30 77 31 19 32 20 33 21 34 71 35
REMARK SMILES IDX 22 36 76 37 70 38 72 39 23 40 75 41 69 42 68 43 24 45 56 46
REMARK SMILES IDX 36 47 55 48 37 49 40 50 54 51 73 52 38 53 39 54 53 56 74 57
REMARK SMILES IDX 41 58 25 59 26 60 34 61 27 62 33 63 35 64 32 65 28 66 29 67
REMARK SMILES IDX 30 68 31 69 57 70 58 71 66 72 59 73 65 74 67 75 64 76 60 77
REMARK SMILES IDX 61 78 62 79 63 80 42 81 43 82 51 83 44 84 50 85 52 86 49 87
REMARK SMILES IDX 45 88 46 89 47 90 48 91
REMARK H PARENT 8 6 13 25 72 44 40 55
REMARK Flexibility Score: inf
ROOT
ATOM      1  C   UNL A   1      31.299  31.141  25.543  1.00  0.00     0.023 C 
ENDROOT
BRANCH   1   2
ATOM      2  C   UNL A   1      32.231  29.970  25.856  1.00  0.00     0.116 C 
BRANCH   2   3
ATOM      3  N   UNL A   1      31.888  29.220  27.047  1.00  0.00    -0.355 N 
ATOM      4  C   UNL A   1      31.585  27.905  27.236  1.00  0.00     0.239 C 
ATOM      5  O   UNL A   1      31.697  27.477  28.391  1.00  0.00    -0.273 OA
ATOM      6  H   UNL A   1      31.871  29.759  27.871  1.00  0.00     0.163 HD
BRANCH   4   7
ATOM      7  C   UNL A   1      31.264  26.918  26.099  1.00  0.00     0.220 C 
BRANCH   7   8
ATOM      8  N   UNL A   1      32.129  25.749  25.956  1.00  0.00    -0.318 N 
BRANCH   8   9
ATOM      9  C   UNL A   1      33.509  25.980  25.530  1.00  0.00     0.210 C 
BRANCH   9  10
ATOM     10  C   UNL A   1      33.594  26.864  24.297  1.00  0.00    -0.085 C 
ATOM     11  C   UNL A   1      33.667  27.623  23.239  1.00  0.00     0.006 C 
ENDBRANCH   9  10
ENDBRANCH   8   9
BRANCH   8  12
ATOM     12  C   UNL A   1      31.719  24.436  26.220  1.00  0.00     0.256 C 
ATOM     13  O   UNL A   1      31.066  24.129  27.215  1.00  0.00    -0.269 OA
BRANCH  12  14
ATOM     14  C   UNL A   1      31.983  23.353  25.242  1.00  0.00     0.061 A 
ATOM     15  C   UNL A   1      32.951  22.404  25.595  1.00  0.00     0.017 A 
ATOM     16  C   UNL A   1      31.463  23.306  23.947  1.00  0.00     0.050 A 
ATOM     17  C   UNL A   1      33.321  21.416  24.684  1.00  0.00     0.021 A 
ATOM     18  N   UNL A   1      31.787  22.316  23.068  1.00  0.00    -0.261 NA
ATOM     19  C   UNL A   1      30.560  24.345  23.374  1.00  0.00     0.067 C 
ATOM     20  C   UNL A   1      32.702  21.403  23.448  1.00  0.00     0.111 A 
ENDBRANCH  12  14
ENDBRANCH   8  12
ENDBRANCH   7   8
ENDBRANCH   4   7
ENDBRANCH   2   3
ENDBRANCH   1   2
BRANCH   1  21
ATOM     21  C   UNL A   1      31.189  32.220  26.616  1.00  0.00     0.023 C 
BRANCH  21  22
ATOM     22  C   UNL A   1      32.506  32.707  27.194  1.00  0.00     0.116 C 
BRANCH  22  23
ATOM     23  N   UNL A   1      32.450  34.076  27.675  1.00  0.00    -0.352 N 
ATOM     24  C   UNL A   1      33.261  34.701  28.590  1.00  0.00     0.251 C 
ATOM     25  H   UNL A   1      31.733  34.632  27.293  1.00  0.00     0.163 HD
ATOM     26  O   UNL A   1      32.995  35.844  28.953  1.00  0.00    -0.269 OA
BRANCH  24  27
ATOM     27  C   UNL A   1      34.417  33.978  29.164  1.00  0.00     0.039 A 
ATOM     28  C   UNL A   1      35.704  34.359  28.776  1.00  0.00     0.014 A 
ATOM     29  C   UNL A   1      34.239  32.955  30.101  1.00  0.00     0.014 A 
ATOM     30  C   UNL A   1      36.813  33.761  29.380  1.00  0.00     0.010 A 
ATOM     31  C   UNL A   1      35.343  32.421  30.759  1.00  0.00     0.010 A 
ATOM     32  C   UNL A   1      36.640  32.816  30.404  1.00  0.00    -0.014 A 
BRANCH  32  33
ATOM     33  C   UNL A   1      37.805  32.235  31.120  1.00  0.00     0.031 A 
ATOM     34  C   UNL A   1      38.572  31.094  30.510  1.00  0.00     0.074 A 
ATOM     35  C   UNL A   1      38.120  32.683  32.351  1.00  0.00     0.049 A 
ATOM     36  N   UNL A   1      39.561  30.399  31.011  1.00  0.00    -0.248 NA
ATOM     37  C   UNL A   1      38.144  30.653  29.174  1.00  0.00     0.031 C 
ATOM     38  C   UNL A   1      37.412  33.746  33.069  1.00  0.00     0.029 A 
ATOM     39  N   UNL A   1      39.103  32.292  33.225  1.00  0.00    -0.354 N 
ATOM     40  C   UNL A   1      39.860  29.427  30.061  1.00  0.00     0.074 A 
ATOM     41  C   UNL A   1      38.906  29.588  28.985  1.00  0.00     0.031 C 
ATOM     42  C   UNL A   1      37.993  33.931  34.266  1.00  0.00     0.029 A 
ATOM     43  C   UNL A   1      39.083  32.972  34.421  1.00  0.00     0.049 A 
ATOM     44  H   UNL A   1      39.761  31.590  33.017  1.00  0.00     0.167 HD
ATOM     45  C   UNL A   1      40.851  28.502  30.079  1.00  0.00     0.034 A 
ATOM     46  C   UNL A   1      39.843  32.830  35.525  1.00  0.00     0.034 A 
ATOM     47  C   UNL A   1      41.802  28.370  31.158  1.00  0.00     0.049 A 
ATOM     48  C   UNL A   1      40.937  31.795  35.525  1.00  0.00     0.074 A 
ATOM     49  C   UNL A   1      42.897  27.528  31.243  1.00  0.00     0.029 A 
ATOM     50  N   UNL A   1      41.763  29.089  32.346  1.00  0.00    -0.354 N 
ATOM     51  N   UNL A   1      41.258  30.933  34.587  1.00  0.00    -0.248 NA
ATOM     52  C   UNL A   1      41.779  31.722  36.725  1.00  0.00     0.031 C 
ATOM     53  C   UNL A   1      43.473  27.682  32.509  1.00  0.00     0.029 A 
ATOM     54  C   UNL A   1      42.790  28.681  33.186  1.00  0.00     0.049 A 
ATOM     55  H   UNL A   1      41.104  29.787  32.562  1.00  0.00     0.167 HD
ATOM     56  C   UNL A   1      42.356  30.231  35.077  1.00  0.00     0.074 A 
ATOM     57  C   UNL A   1      42.649  30.782  36.384  1.00  0.00     0.031 C 
ATOM     58  C   UNL A   1      43.060  29.224  34.497  1.00  0.00     0.034 A 
BRANCH  45  59
ATOM     59  C   UNL A   1      40.930  27.544  28.912  1.00  0.00     0.023 A 
ATOM     60  C   UNL A   1      41.908  27.673  27.911  1.00  0.00     0.031 A 
ATOM     61  C   UNL A   1      39.989  26.508  28.779  1.00  0.00     0.131 A 
ATOM     62  C   UNL A   1      41.870  26.842  26.780  1.00  0.00     0.055 A 
ATOM     63  C   UNL A   1      40.010  25.627  27.695  1.00  0.00     0.041 A 
ATOM     64  F   UNL A   1      39.017  26.345  29.690  1.00  0.00    -0.206 F 
ATOM     65  C   UNL A   1      40.944  25.802  26.679  1.00  0.00     0.022 A 
BRANCH  62  66
ATOM     66  S   UNL A   1      42.944  27.243  25.375  1.00  0.00     0.124 S 
ATOM     67  O   UNL A   1      43.000  25.963  24.672  1.00  0.00    -0.237 OA
ATOM     68  O   UNL A   1      42.204  28.307  24.706  1.00  0.00    -0.237 OA
ATOM     69  O   UNL A   1      44.196  27.653  26.006  1.00  0.00    -0.744 OA
ENDBRANCH  62  66
ENDBRANCH  45  59
BRANCH  46  70
ATOM     70  C   UNL A   1      39.582  33.673  36.727  1.00  0.00     0.023 A 
ATOM     71  C   UNL A   1      38.966  33.140  37.870  1.00  0.00     0.031 A 
ATOM     72  C   UNL A   1      39.932  35.035  36.739  1.00  0.00     0.131 A 
ATOM     73  C   UNL A   1      38.683  33.973  38.963  1.00  0.00     0.055 A 
ATOM     74  C   UNL A   1      39.693  35.847  37.849  1.00  0.00     0.041 A 
ATOM     75  F   UNL A   1      40.531  35.592  35.675  1.00  0.00    -0.206 F 
ATOM     76  C   UNL A   1      39.055  35.319  38.966  1.00  0.00     0.022 A 
BRANCH  73  77
ATOM     77  S   UNL A   1      37.758  33.284  40.364  1.00  0.00     0.124 S 
ATOM     78  O   UNL A   1      38.587  32.144  40.736  1.00  0.00    -0.237 OA
ATOM     79  O   UNL A   1      37.748  34.404  41.300  1.00  0.00    -0.237 OA
ATOM     80  O   UNL A   1      36.459  32.949  39.783  1.00  0.00    -0.744 OA
ENDBRANCH  73  77
ENDBRANCH  46  70
BRANCH  58  81
ATOM     81  C   UNL A   1      44.239  28.681  35.267  1.00  0.00     0.023 A 
ATOM     82  C   UNL A   1      44.082  27.729  36.289  1.00  0.00     0.031 A 
ATOM     83  C   UNL A   1      45.540  29.134  34.979  1.00  0.00     0.131 A 
ATOM     84  C   UNL A   1      45.200  27.299  37.021  1.00  0.00     0.055 A 
ATOM     85  C   UNL A   1      46.654  28.656  35.669  1.00  0.00     0.041 A 
ATOM     86  F   UNL A   1      45.748  30.046  34.016  1.00  0.00    -0.206 F 
ATOM     87  C   UNL A   1      46.486  27.744  36.706  1.00  0.00     0.022 A 
BRANCH  84  88
ATOM     88  S   UNL A   1      44.939  26.219  38.455  1.00  0.00     0.124 S 
ATOM     89  O   UNL A   1      43.508  26.368  38.692  1.00  0.00    -0.237 OA
ATOM     90  O   UNL A   1      45.371  24.920  37.951  1.00  0.00    -0.237 OA
ATOM     91  O   UNL A   1      45.801  26.801  39.484  1.00  0.00    -0.744 OA
ENDBRANCH  84  88
ENDBRANCH  58  81
ENDBRANCH  32  33
ENDBRANCH  24  27
ENDBRANCH  22  23
ENDBRANCH  21  22
ENDBRANCH   1  21
TORSDOF 19
ENDMDL
