MODEL 1
REMARK VINA RESULT:     -12.0      0.000      0.000
REMARK SMILES O=C(NCCCCNC(=O)[C@@H]1CCC(=O)N1C(=O)/C=C/c1ccccc1)c1ccc(-c2c3nc(c(-c4cc(S(=O)(=O)[O-])ccc4F)c4ccc([nH]4)c(-c4cc(S(=O)(=O)[O-])ccc4F)c4nc(c(-c5cc(S(=O)(=O)[O-])ccc5F)c5ccc2[nH]5)C=C4)C=C3)cc1
REMARK SMILES IDX 5 1 4 2 3 3 1 4 2 5 27 7 28 8 89 9 29 10 88 11 30 12 31 13
REMARK SMILES IDX 32 14 82 15 33 16 87 17 81 18 83 19 34 20 86 21 80 22 79 23
REMARK SMILES IDX 35 25 67 26 47 27 66 28 48 29 51 30 65 31 84 32 49 33 50 34
REMARK SMILES IDX 64 36 85 37 52 38 36 39 37 40 45 41 38 42 44 43 46 44 43 45
REMARK SMILES IDX 39 46 40 47 41 48 42 49 68 50 69 51 77 52 70 53 76 54 78 55
REMARK SMILES IDX 75 56 71 57 72 58 73 59 74 60 53 61 54 62 62 63 55 64 61 65
REMARK SMILES IDX 63 66 60 67 56 68 57 69 58 70 59 71 6 72 7 73 8 74 9 75
REMARK SMILES IDX 10 77 11 78 12 79 16 80 13 81 14 82 15 83 17 84 18 85 19 86
REMARK SMILES IDX 20 87 21 88 22 89 26 90 23 91 25 92 24 93
REMARK H PARENT 3 6 83 24 51 35 8 76
REMARK Flexibility Score: inf
ROOT
ATOM      1  C   UNL A   1      31.785  31.630  26.645  1.00  0.00     0.023 C 
ENDROOT
BRANCH   1   2
ATOM      2  C   UNL A   1      32.959  32.366  27.274  1.00  0.00     0.116 C 
BRANCH   2   3
ATOM      3  N   UNL A   1      32.652  33.746  27.627  1.00  0.00    -0.352 N 
ATOM      4  O   UNL A   1      32.773  35.625  28.882  1.00  0.00    -0.269 OA
ATOM      5  C   UNL A   1      33.216  34.511  28.622  1.00  0.00     0.251 C 
ATOM      6  H   UNL A   1      31.954  34.185  27.088  1.00  0.00     0.163 HD
BRANCH   5   7
ATOM      7  C   UNL A   1      34.346  33.950  29.387  1.00  0.00     0.039 A 
ATOM      8  C   UNL A   1      35.656  34.257  29.015  1.00  0.00     0.014 A 
ATOM      9  C   UNL A   1      34.094  33.060  30.434  1.00  0.00     0.014 A 
ATOM     10  C   UNL A   1      36.711  33.559  29.585  1.00  0.00     0.010 A 
ATOM     11  C   UNL A   1      35.166  32.434  31.075  1.00  0.00     0.010 A 
ATOM     12  C   UNL A   1      36.480  32.656  30.635  1.00  0.00    -0.014 A 
BRANCH  12  13
ATOM     13  C   UNL A   1      37.644  32.018  31.303  1.00  0.00     0.031 A 
ATOM     14  C   UNL A   1      38.423  30.919  30.638  1.00  0.00     0.074 A 
ATOM     15  C   UNL A   1      38.002  32.468  32.522  1.00  0.00     0.049 A 
ATOM     16  N   UNL A   1      39.453  30.251  31.091  1.00  0.00    -0.248 NA
ATOM     17  C   UNL A   1      37.984  30.509  29.296  1.00  0.00     0.031 C 
ATOM     18  C   UNL A   1      37.311  33.530  33.260  1.00  0.00     0.029 A 
ATOM     19  N   UNL A   1      39.032  32.109  33.351  1.00  0.00    -0.354 N 
ATOM     20  C   UNL A   1      39.778  29.329  30.101  1.00  0.00     0.074 A 
ATOM     21  C   UNL A   1      38.810  29.504  29.038  1.00  0.00     0.031 C 
ATOM     22  C   UNL A   1      37.963  33.767  34.406  1.00  0.00     0.029 A 
ATOM     23  C   UNL A   1      39.061  32.817  34.528  1.00  0.00     0.049 A 
ATOM     24  H   UNL A   1      39.689  31.410  33.123  1.00  0.00     0.167 HD
ATOM     25  C   UNL A   1      40.792  28.428  30.086  1.00  0.00     0.034 A 
ATOM     26  C   UNL A   1      39.856  32.696  35.606  1.00  0.00     0.034 A 
ATOM     27  C   UNL A   1      41.743  28.272  31.164  1.00  0.00     0.049 A 
ATOM     28  C   UNL A   1      40.939  31.653  35.585  1.00  0.00     0.074 A 
ATOM     29  C   UNL A   1      42.830  27.417  31.240  1.00  0.00     0.029 A 
ATOM     30  N   UNL A   1      41.715  28.976  32.363  1.00  0.00    -0.354 N 
ATOM     31  N   UNL A   1      41.246  30.803  34.633  1.00  0.00    -0.248 NA
ATOM     32  C   UNL A   1      41.783  31.555  36.780  1.00  0.00     0.031 C 
ATOM     33  C   UNL A   1      43.406  27.546  32.508  1.00  0.00     0.029 A 
ATOM     34  C   UNL A   1      42.738  28.546  33.197  1.00  0.00     0.049 A 
ATOM     35  H   UNL A   1      41.063  29.679  32.589  1.00  0.00     0.167 HD
ATOM     36  C   UNL A   1      42.336  30.081  35.109  1.00  0.00     0.074 A 
ATOM     37  C   UNL A   1      42.643  30.614  36.421  1.00  0.00     0.031 C 
ATOM     38  C   UNL A   1      43.021  29.071  34.514  1.00  0.00     0.034 A 
BRANCH  25  39
ATOM     39  C   UNL A   1      40.893  27.506  28.892  1.00  0.00     0.023 A 
ATOM     40  C   UNL A   1      41.873  27.677  27.898  1.00  0.00     0.031 A 
ATOM     41  C   UNL A   1      39.982  26.444  28.736  1.00  0.00     0.131 A 
ATOM     42  C   UNL A   1      41.874  26.850  26.763  1.00  0.00     0.055 A 
ATOM     43  C   UNL A   1      40.041  25.573  27.646  1.00  0.00     0.041 A 
ATOM     44  F   UNL A   1      39.010  26.239  29.640  1.00  0.00    -0.206 F 
ATOM     45  C   UNL A   1      40.981  25.783  26.643  1.00  0.00     0.022 A 
BRANCH  42  46
ATOM     46  S   UNL A   1      42.962  27.282  25.376  1.00  0.00     0.124 S 
ATOM     47  O   UNL A   1      43.072  26.004  24.677  1.00  0.00    -0.237 OA
ATOM     48  O   UNL A   1      42.202  28.321  24.691  1.00  0.00    -0.237 OA
ATOM     49  O   UNL A   1      44.188  27.734  26.030  1.00  0.00    -0.744 OA
ENDBRANCH  42  46
ENDBRANCH  25  39
BRANCH  26  50
ATOM     50  C   UNL A   1      39.625  33.551  36.804  1.00  0.00     0.023 A 
ATOM     51  C   UNL A   1      39.006  33.040  37.954  1.00  0.00     0.031 A 
ATOM     52  C   UNL A   1      40.010  34.905  36.808  1.00  0.00     0.131 A 
ATOM     53  C   UNL A   1      38.753  33.887  39.044  1.00  0.00     0.055 A 
ATOM     54  C   UNL A   1      39.811  35.727  37.917  1.00  0.00     0.041 A 
ATOM     55  F   UNL A   1      40.610  35.443  35.734  1.00  0.00    -0.206 F 
ATOM     56  C   UNL A   1      39.166  35.222  39.040  1.00  0.00     0.022 A 
BRANCH  53  57
ATOM     57  S   UNL A   1      37.793  33.239  40.439  1.00  0.00     0.124 S 
ATOM     58  O   UNL A   1      38.531  32.025  40.769  1.00  0.00    -0.237 OA
ATOM     59  O   UNL A   1      37.890  34.330  41.404  1.00  0.00    -0.237 OA
ATOM     60  O   UNL A   1      36.465  33.029  39.870  1.00  0.00    -0.744 OA
ENDBRANCH  53  57
ENDBRANCH  26  50
BRANCH  38  61
ATOM     61  C   UNL A   1      44.199  28.510  35.273  1.00  0.00     0.023 A 
ATOM     62  C   UNL A   1      44.045  27.489  36.229  1.00  0.00     0.031 A 
ATOM     63  C   UNL A   1      45.489  29.023  35.056  1.00  0.00     0.131 A 
ATOM     64  C   UNL A   1      45.152  27.059  36.975  1.00  0.00     0.055 A 
ATOM     65  C   UNL A   1      46.598  28.543  35.753  1.00  0.00     0.041 A 
ATOM     66  F   UNL A   1      45.694  30.003  34.161  1.00  0.00    -0.206 F 
ATOM     67  C   UNL A   1      46.431  27.565  36.729  1.00  0.00     0.022 A 
BRANCH  64  68
ATOM     68  S   UNL A   1      44.882  25.901  38.346  1.00  0.00     0.124 S 
ATOM     69  O   UNL A   1      44.129  24.834  37.696  1.00  0.00    -0.237 OA
ATOM     70  O   UNL A   1      46.245  25.568  38.745  1.00  0.00    -0.237 OA
ATOM     71  O   UNL A   1      44.128  26.691  39.317  1.00  0.00    -0.744 OA
ENDBRANCH  64  68
ENDBRANCH  38  61
ENDBRANCH  12  13
ENDBRANCH   5   7
ENDBRANCH   2   3
ENDBRANCH   1   2
BRANCH   1  72
ATOM     72  C   UNL A   1      31.844  30.109  26.763  1.00  0.00     0.023 C 
BRANCH  72  73
ATOM     73  C   UNL A   1      33.224  29.514  26.508  1.00  0.00     0.116 C 
BRANCH  73  74
ATOM     74  N   UNL A   1      33.576  29.499  25.101  1.00  0.00    -0.354 N 
ATOM     75  C   UNL A   1      33.560  28.490  24.180  1.00  0.00     0.243 C 
ATOM     76  H   UNL A   1      33.880  30.367  24.748  1.00  0.00     0.163 HD
ATOM     77  O   UNL A   1      33.649  28.813  22.991  1.00  0.00    -0.273 OA
BRANCH  75  78
ATOM     78  C   UNL A   1      33.208  27.036  24.556  1.00  0.00     0.183 C 
ATOM     79  C   UNL A   1      34.260  26.107  23.963  1.00  0.00     0.046 C 
ATOM     80  N   UNL A   1      31.932  26.586  24.031  1.00  0.00    -0.266 N 
ATOM     81  C   UNL A   1      33.484  24.897  23.495  1.00  0.00     0.103 C 
ATOM     82  C   UNL A   1      32.093  25.422  23.263  1.00  0.00     0.230 C 
ATOM     83  O   UNL A   1      31.302  24.885  22.504  1.00  0.00    -0.274 OA
BRANCH  80  84
ATOM     84  C   UNL A   1      30.784  27.200  24.527  1.00  0.00     0.253 C 
ATOM     85  O   UNL A   1      30.387  27.012  25.678  1.00  0.00    -0.269 OA
BRANCH  84  86
ATOM     86  C   UNL A   1      30.049  28.191  23.707  1.00  0.00     0.072 C 
ATOM     87  C   UNL A   1      30.093  29.519  23.881  1.00  0.00     0.014 C 
BRANCH  87  88
ATOM     88  C   UNL A   1      29.355  30.520  23.089  1.00  0.00    -0.025 A 
ATOM     89  C   UNL A   1      28.979  30.175  21.782  1.00  0.00     0.008 A 
ATOM     90  C   UNL A   1      29.038  31.805  23.551  1.00  0.00     0.008 A 
ATOM     91  C   UNL A   1      28.300  31.081  20.963  1.00  0.00     0.001 A 
ATOM     92  C   UNL A   1      28.358  32.713  22.732  1.00  0.00     0.001 A 
ATOM     93  C   UNL A   1      27.989  32.351  21.439  1.00  0.00     0.000 A 
ENDBRANCH  87  88
ENDBRANCH  84  86
ENDBRANCH  80  84
ENDBRANCH  75  78
ENDBRANCH  73  74
ENDBRANCH  72  73
ENDBRANCH   1  72
TORSDOF 17
ENDMDL
MODEL 2
REMARK VINA RESULT:     -12.0      5.937      8.918
REMARK SMILES O=C(NCCCCNC(=O)[C@@H]1CCC(=O)N1C(=O)/C=C/c1ccccc1)c1ccc(-c2c3nc(c(-c4cc(S(=O)(=O)[O-])ccc4F)c4ccc([nH]4)c(-c4cc(S(=O)(=O)[O-])ccc4F)c4nc(c(-c5cc(S(=O)(=O)[O-])ccc5F)c5ccc2[nH]5)C=C4)C=C3)cc1
REMARK SMILES IDX 5 1 4 2 3 3 1 4 2 5 27 7 28 8 89 9 29 10 88 11 30 12 31 13
REMARK SMILES IDX 32 14 82 15 33 16 87 17 81 18 83 19 34 20 86 21 80 22 79 23
REMARK SMILES IDX 35 25 67 26 47 27 66 28 48 29 51 30 65 31 84 32 49 33 50 34
REMARK SMILES IDX 64 36 85 37 52 38 36 39 37 40 45 41 38 42 44 43 46 44 43 45
REMARK SMILES IDX 39 46 40 47 41 48 42 49 68 50 69 51 77 52 70 53 76 54 78 55
REMARK SMILES IDX 75 56 71 57 72 58 73 59 74 60 53 61 54 62 62 63 55 64 61 65
REMARK SMILES IDX 63 66 60 67 56 68 57 69 58 70 59 71 6 72 7 73 8 74 9 75
REMARK SMILES IDX 10 77 11 78 12 79 16 80 13 81 14 82 15 83 17 84 18 85 19 86
REMARK SMILES IDX 20 87 21 88 22 89 26 90 23 91 25 92 24 93
REMARK H PARENT 3 6 83 24 51 35 8 76
REMARK Flexibility Score: inf
ROOT
ATOM      1  C   UNL A   1      34.465  21.713  27.003  1.00  0.00     0.023 C 
ENDROOT
BRANCH   1   2
ATOM      2  C   UNL A   1      35.733  22.288  26.389  1.00  0.00     0.116 C 
BRANCH   2   3
ATOM      3  N   UNL A   1      36.647  21.267  25.895  1.00  0.00    -0.352 N 
ATOM      4  O   UNL A   1      38.643  20.450  25.211  1.00  0.00    -0.269 OA
ATOM      5  C   UNL A   1      38.013  21.351  25.754  1.00  0.00     0.251 C 
ATOM      6  H   UNL A   1      36.238  20.412  25.629  1.00  0.00     0.163 HD
BRANCH   5   7
ATOM      7  C   UNL A   1      38.699  22.563  26.244  1.00  0.00     0.039 A 
ATOM      8  C   UNL A   1      38.237  23.823  25.863  1.00  0.00     0.014 A 
ATOM      9  C   UNL A   1      39.847  22.433  27.029  1.00  0.00     0.014 A 
ATOM     10  C   UNL A   1      39.007  24.945  26.134  1.00  0.00     0.010 A 
ATOM     11  C   UNL A   1      40.566  23.577  27.387  1.00  0.00     0.010 A 
ATOM     12  C   UNL A   1      40.167  24.838  26.918  1.00  0.00    -0.014 A 
BRANCH  12  13
ATOM     13  C   UNL A   1      40.899  26.076  27.291  1.00  0.00     0.031 A 
ATOM     14  C   UNL A   1      42.289  26.345  26.788  1.00  0.00     0.074 A 
ATOM     15  C   UNL A   1      40.273  26.971  28.081  1.00  0.00     0.049 A 
ATOM     16  N   UNL A   1      43.067  27.369  27.032  1.00  0.00    -0.248 NA
ATOM     17  C   UNL A   1      42.888  25.331  25.908  1.00  0.00     0.031 C 
ATOM     18  C   UNL A   1      38.922  26.805  28.627  1.00  0.00     0.029 A 
ATOM     19  N   UNL A   1      40.671  28.194  28.551  1.00  0.00    -0.354 N 
ATOM     20  C   UNL A   1      44.254  27.119  26.351  1.00  0.00     0.074 A 
ATOM     21  C   UNL A   1      44.102  25.827  25.713  1.00  0.00     0.031 C 
ATOM     22  C   UNL A   1      38.588  27.905  29.317  1.00  0.00     0.029 A 
ATOM     23  C   UNL A   1      39.729  28.811  29.339  1.00  0.00     0.049 A 
ATOM     24  H   UNL A   1      41.548  28.593  28.344  1.00  0.00     0.167 HD
ATOM     25  C   UNL A   1      45.361  27.899  26.267  1.00  0.00     0.034 A 
ATOM     26  C   UNL A   1      39.782  29.962  30.034  1.00  0.00     0.034 A 
ATOM     27  C   UNL A   1      45.487  29.184  26.918  1.00  0.00     0.049 A 
ATOM     28  C   UNL A   1      41.041  30.782  29.966  1.00  0.00     0.074 A 
ATOM     29  C   UNL A   1      46.548  30.074  26.872  1.00  0.00     0.029 A 
ATOM     30  N   UNL A   1      44.529  29.759  27.746  1.00  0.00    -0.354 N 
ATOM     31  N   UNL A   1      42.147  30.541  29.301  1.00  0.00    -0.248 NA
ATOM     32  C   UNL A   1      41.057  32.028  30.739  1.00  0.00     0.031 C 
ATOM     33  C   UNL A   1      46.265  31.141  27.731  1.00  0.00     0.029 A 
ATOM     34  C   UNL A   1      44.991  30.968  28.247  1.00  0.00     0.049 A 
ATOM     35  H   UNL A   1      43.650  29.364  27.949  1.00  0.00     0.167 HD
ATOM     36  C   UNL A   1      42.985  31.620  29.561  1.00  0.00     0.074 A 
ATOM     37  C   UNL A   1      42.245  32.521  30.423  1.00  0.00     0.031 C 
ATOM     38  C   UNL A   1      44.251  31.847  29.125  1.00  0.00     0.034 A 
BRANCH  25  39
ATOM     39  C   UNL A   1      46.541  27.362  25.488  1.00  0.00     0.023 A 
ATOM     40  C   UNL A   1      46.894  27.869  24.225  1.00  0.00     0.031 A 
ATOM     41  C   UNL A   1      47.319  26.312  26.013  1.00  0.00     0.131 A 
ATOM     42  C   UNL A   1      47.943  27.280  23.500  1.00  0.00     0.055 A 
ATOM     43  C   UNL A   1      48.413  25.787  25.322  1.00  0.00     0.041 A 
ATOM     44  F   UNL A   1      47.021  25.771  27.204  1.00  0.00    -0.206 F 
ATOM     45  C   UNL A   1      48.722  26.261  24.051  1.00  0.00     0.022 A 
BRANCH  42  46
ATOM     46  S   UNL A   1      48.180  27.766  21.768  1.00  0.00     0.124 S 
ATOM     47  O   UNL A   1      46.909  28.420  21.468  1.00  0.00    -0.237 OA
ATOM     48  O   UNL A   1      49.346  28.639  21.842  1.00  0.00    -0.237 OA
ATOM     49  O   UNL A   1      48.394  26.494  21.081  1.00  0.00    -0.744 OA
ENDBRANCH  42  46
ENDBRANCH  25  39
BRANCH  26  50
ATOM     50  C   UNL A   1      38.631  30.375  30.885  1.00  0.00     0.023 A 
ATOM     51  C   UNL A   1      37.564  31.114  30.356  1.00  0.00     0.031 A 
ATOM     52  C   UNL A   1      38.593  30.045  32.253  1.00  0.00     0.131 A 
ATOM     53  C   UNL A   1      36.523  31.535  31.197  1.00  0.00     0.055 A 
ATOM     54  C   UNL A   1      37.526  30.414  33.071  1.00  0.00     0.041 A 
ATOM     55  F   UNL A   1      39.587  29.336  32.809  1.00  0.00    -0.206 F 
ATOM     56  C   UNL A   1      36.488  31.177  32.547  1.00  0.00     0.022 A 
BRANCH  53  57
ATOM     57  S   UNL A   1      35.253  32.638  30.519  1.00  0.00     0.124 S 
ATOM     58  O   UNL A   1      34.288  32.687  31.611  1.00  0.00    -0.237 OA
ATOM     59  O   UNL A   1      36.013  33.862  30.279  1.00  0.00    -0.237 OA
ATOM     60  O   UNL A   1      34.804  31.941  29.317  1.00  0.00    -0.744 OA
ENDBRANCH  53  57
ENDBRANCH  26  50
BRANCH  38  61
ATOM     61  C   UNL A   1      44.893  33.146  29.548  1.00  0.00     0.023 A 
ATOM     62  C   UNL A   1      44.787  34.312  28.769  1.00  0.00     0.031 A 
ATOM     63  C   UNL A   1      45.642  33.211  30.735  1.00  0.00     0.131 A 
ATOM     64  C   UNL A   1      45.472  35.474  29.154  1.00  0.00     0.055 A 
ATOM     65  C   UNL A   1      46.265  34.389  31.149  1.00  0.00     0.041 A 
ATOM     66  F   UNL A   1      45.783  32.126  31.515  1.00  0.00    -0.206 F 
ATOM     67  C   UNL A   1      46.194  35.525  30.348  1.00  0.00     0.022 A 
BRANCH  64  68
ATOM     68  S   UNL A   1      45.493  36.890  28.019  1.00  0.00     0.124 S 
ATOM     69  O   UNL A   1      44.330  37.651  28.463  1.00  0.00    -0.237 OA
ATOM     70  O   UNL A   1      46.793  37.492  28.296  1.00  0.00    -0.237 OA
ATOM     71  O   UNL A   1      45.364  36.273  26.700  1.00  0.00    -0.744 OA
ENDBRANCH  64  68
ENDBRANCH  38  61
ENDBRANCH  12  13
ENDBRANCH   5   7
ENDBRANCH   2   3
ENDBRANCH   1   2
BRANCH   1  72
ATOM     72  C   UNL A   1      33.603  22.723  27.758  1.00  0.00     0.023 C 
BRANCH  72  73
ATOM     73  C   UNL A   1      32.132  22.712  27.360  1.00  0.00     0.116 C 
BRANCH  73  74
ATOM     74  N   UNL A   1      31.624  24.038  27.055  1.00  0.00    -0.354 N 
ATOM     75  C   UNL A   1      31.889  24.885  26.017  1.00  0.00     0.243 C 
ATOM     76  H   UNL A   1      30.977  24.386  27.711  1.00  0.00     0.163 HD
ATOM     77  O   UNL A   1      31.115  25.835  25.858  1.00  0.00    -0.273 OA
BRANCH  75  78
ATOM     78  C   UNL A   1      32.945  24.566  24.940  1.00  0.00     0.183 C 
ATOM     79  C   UNL A   1      33.989  25.674  24.931  1.00  0.00     0.046 C 
ATOM     80  N   UNL A   1      32.410  24.507  23.592  1.00  0.00    -0.266 N 
ATOM     81  C   UNL A   1      34.319  25.881  23.471  1.00  0.00     0.103 C 
ATOM     82  C   UNL A   1      33.092  25.397  22.747  1.00  0.00     0.230 C 
ATOM     83  O   UNL A   1      32.795  25.774  21.625  1.00  0.00    -0.274 OA
BRANCH  80  84
ATOM     84  C   UNL A   1      31.516  23.478  23.302  1.00  0.00     0.253 C 
ATOM     85  O   UNL A   1      30.312  23.682  23.145  1.00  0.00    -0.269 OA
BRANCH  84  86
ATOM     86  C   UNL A   1      32.008  22.099  23.069  1.00  0.00     0.072 C 
ATOM     87  C   UNL A   1      32.343  21.229  24.031  1.00  0.00     0.014 C 
BRANCH  87  88
ATOM     88  C   UNL A   1      32.852  19.862  23.821  1.00  0.00    -0.025 A 
ATOM     89  C   UNL A   1      32.234  19.075  22.837  1.00  0.00     0.008 A 
ATOM     90  C   UNL A   1      33.893  19.290  24.566  1.00  0.00     0.008 A 
ATOM     91  C   UNL A   1      32.645  17.761  22.599  1.00  0.00     0.001 A 
ATOM     92  C   UNL A   1      34.306  17.974  24.328  1.00  0.00     0.001 A 
ATOM     93  C   UNL A   1      33.683  17.211  23.345  1.00  0.00     0.000 A 
ENDBRANCH  87  88
ENDBRANCH  84  86
ENDBRANCH  80  84
ENDBRANCH  75  78
ENDBRANCH  73  74
ENDBRANCH  72  73
ENDBRANCH   1  72
TORSDOF 17
ENDMDL
MODEL 3
REMARK VINA RESULT:     -11.9      5.924     11.281
REMARK SMILES O=C(NCCCCNC(=O)[C@@H]1CCC(=O)N1C(=O)/C=C/c1ccccc1)c1ccc(-c2c3nc(c(-c4cc(S(=O)(=O)[O-])ccc4F)c4ccc([nH]4)c(-c4cc(S(=O)(=O)[O-])ccc4F)c4nc(c(-c5cc(S(=O)(=O)[O-])ccc5F)c5ccc2[nH]5)C=C4)C=C3)cc1
REMARK SMILES IDX 5 1 4 2 3 3 1 4 2 5 27 7 28 8 89 9 29 10 88 11 30 12 31 13
REMARK SMILES IDX 32 14 82 15 33 16 87 17 81 18 83 19 34 20 86 21 80 22 79 23
REMARK SMILES IDX 35 25 67 26 47 27 66 28 48 29 51 30 65 31 84 32 49 33 50 34
REMARK SMILES IDX 64 36 85 37 52 38 36 39 37 40 45 41 38 42 44 43 46 44 43 45
REMARK SMILES IDX 39 46 40 47 41 48 42 49 68 50 69 51 77 52 70 53 76 54 78 55
REMARK SMILES IDX 75 56 71 57 72 58 73 59 74 60 53 61 54 62 62 63 55 64 61 65
REMARK SMILES IDX 63 66 60 67 56 68 57 69 58 70 59 71 6 72 7 73 8 74 9 75
REMARK SMILES IDX 10 77 11 78 12 79 16 80 13 81 14 82 15 83 17 84 18 85 19 86
REMARK SMILES IDX 20 87 21 88 22 89 26 90 23 91 25 92 24 93
REMARK H PARENT 3 6 83 24 51 35 8 76
REMARK Flexibility Score: inf
ROOT
ATOM      1  C   UNL A   1      36.295  21.552  24.287  1.00  0.00     0.023 C 
ENDROOT
BRANCH   1   2
ATOM      2  C   UNL A   1      37.028  21.566  25.620  1.00  0.00     0.116 C 
BRANCH   2   3
ATOM      3  N   UNL A   1      38.010  20.497  25.749  1.00  0.00    -0.352 N 
ATOM      4  O   UNL A   1      40.074  19.627  26.066  1.00  0.00    -0.269 OA
ATOM      5  C   UNL A   1      39.332  20.602  26.114  1.00  0.00     0.251 C 
ATOM      6  H   UNL A   1      37.688  19.588  25.551  1.00  0.00     0.163 HD
BRANCH   5   7
ATOM      7  C   UNL A   1      39.844  21.920  26.537  1.00  0.00     0.039 A 
ATOM      8  C   UNL A   1      39.405  23.075  25.887  1.00  0.00     0.014 A 
ATOM      9  C   UNL A   1      40.817  21.993  27.537  1.00  0.00     0.014 A 
ATOM     10  C   UNL A   1      40.048  24.281  26.128  1.00  0.00     0.010 A 
ATOM     11  C   UNL A   1      41.390  23.228  27.848  1.00  0.00     0.010 A 
ATOM     12  C   UNL A   1      41.031  24.376  27.125  1.00  0.00    -0.014 A 
BRANCH  12  13
ATOM     13  C   UNL A   1      41.611  25.708  27.440  1.00  0.00     0.031 A 
ATOM     14  C   UNL A   1      40.859  26.713  28.265  1.00  0.00     0.074 A 
ATOM     15  C   UNL A   1      42.848  25.986  26.983  1.00  0.00     0.049 A 
ATOM     16  N   UNL A   1      41.219  27.922  28.617  1.00  0.00    -0.248 NA
ATOM     17  C   UNL A   1      39.528  26.318  28.749  1.00  0.00     0.031 C 
ATOM     18  C   UNL A   1      43.664  25.079  26.170  1.00  0.00     0.029 A 
ATOM     19  N   UNL A   1      43.641  27.091  27.141  1.00  0.00    -0.354 N 
ATOM     20  C   UNL A   1      40.156  28.441  29.349  1.00  0.00     0.074 A 
ATOM     21  C   UNL A   1      39.124  27.424  29.359  1.00  0.00     0.031 C 
ATOM     22  C   UNL A   1      44.857  25.646  25.941  1.00  0.00     0.029 A 
ATOM     23  C   UNL A   1      44.859  26.987  26.511  1.00  0.00     0.049 A 
ATOM     24  H   UNL A   1      43.366  27.884  27.658  1.00  0.00     0.167 HD
ATOM     25  C   UNL A   1      40.059  29.651  29.955  1.00  0.00     0.034 A 
ATOM     26  C   UNL A   1      45.856  27.879  26.374  1.00  0.00     0.034 A 
ATOM     27  C   UNL A   1      41.105  30.649  29.926  1.00  0.00     0.049 A 
ATOM     28  C   UNL A   1      45.700  29.232  27.011  1.00  0.00     0.074 A 
ATOM     29  C   UNL A   1      41.127  31.893  30.535  1.00  0.00     0.029 A 
ATOM     30  N   UNL A   1      42.308  30.527  29.240  1.00  0.00    -0.354 N 
ATOM     31  N   UNL A   1      44.697  29.700  27.718  1.00  0.00    -0.248 NA
ATOM     32  C   UNL A   1      46.809  30.175  26.836  1.00  0.00     0.031 C 
ATOM     33  C   UNL A   1      42.302  32.550  30.152  1.00  0.00     0.029 A 
ATOM     34  C   UNL A   1      43.059  31.686  29.378  1.00  0.00     0.049 A 
ATOM     35  H   UNL A   1      42.587  29.732  28.729  1.00  0.00     0.167 HD
ATOM     36  C   UNL A   1      45.066  30.989  28.089  1.00  0.00     0.074 A 
ATOM     37  C   UNL A   1      46.392  31.211  27.548  1.00  0.00     0.031 C 
ATOM     38  C   UNL A   1      44.372  31.904  28.814  1.00  0.00     0.034 A 
BRANCH  25  39
ATOM     39  C   UNL A   1      38.760  29.982  30.656  1.00  0.00     0.023 A 
ATOM     40  C   UNL A   1      37.739  30.717  30.027  1.00  0.00     0.031 A 
ATOM     41  C   UNL A   1      38.545  29.567  31.983  1.00  0.00     0.131 A 
ATOM     42  C   UNL A   1      36.587  31.076  30.746  1.00  0.00     0.055 A 
ATOM     43  C   UNL A   1      37.360  29.856  32.665  1.00  0.00     0.041 A 
ATOM     44  F   UNL A   1      39.488  28.880  32.647  1.00  0.00    -0.206 F 
ATOM     45  C   UNL A   1      36.379  30.627  32.052  1.00  0.00     0.022 A 
BRANCH  42  46
ATOM     46  S   UNL A   1      35.434  32.260  29.999  1.00  0.00     0.124 S 
ATOM     47  O   UNL A   1      34.450  32.428  31.066  1.00  0.00    -0.237 OA
ATOM     48  O   UNL A   1      36.291  33.410  29.734  1.00  0.00    -0.237 OA
ATOM     49  O   UNL A   1      34.942  31.560  28.814  1.00  0.00    -0.744 OA
ENDBRANCH  42  46
ENDBRANCH  25  39
BRANCH  26  50
ATOM     50  C   UNL A   1      47.058  27.537  25.564  1.00  0.00     0.023 A 
ATOM     51  C   UNL A   1      47.145  27.882  24.207  1.00  0.00     0.031 A 
ATOM     52  C   UNL A   1      48.138  26.839  26.138  1.00  0.00     0.131 A 
ATOM     53  C   UNL A   1      48.267  27.495  23.460  1.00  0.00     0.055 A 
ATOM     54  C   UNL A   1      49.278  26.510  25.405  1.00  0.00     0.041 A 
ATOM     55  F   UNL A   1      48.108  26.488  27.433  1.00  0.00    -0.206 F 
ATOM     56  C   UNL A   1      49.341  26.826  24.052  1.00  0.00     0.022 A 
BRANCH  53  57
ATOM     57  S   UNL A   1      48.264  27.801  21.673  1.00  0.00     0.124 S 
ATOM     58  O   UNL A   1      46.925  28.341  21.465  1.00  0.00    -0.237 OA
ATOM     59  O   UNL A   1      49.367  28.747  21.527  1.00  0.00    -0.237 OA
ATOM     60  O   UNL A   1      48.501  26.478  21.101  1.00  0.00    -0.744 OA
ENDBRANCH  53  57
ENDBRANCH  26  50
BRANCH  38  61
ATOM     61  C   UNL A   1      45.065  33.216  29.092  1.00  0.00     0.023 A 
ATOM     62  C   UNL A   1      44.865  34.346  28.279  1.00  0.00     0.031 A 
ATOM     63  C   UNL A   1      45.958  33.328  30.171  1.00  0.00     0.131 A 
ATOM     64  C   UNL A   1      45.596  35.518  28.521  1.00  0.00     0.055 A 
ATOM     65  C   UNL A   1      46.632  34.518  30.447  1.00  0.00     0.041 A 
ATOM     66  F   UNL A   1      46.194  32.279  30.976  1.00  0.00    -0.206 F 
ATOM     67  C   UNL A   1      46.463  35.618  29.611  1.00  0.00     0.022 A 
BRANCH  64  68
ATOM     68  S   UNL A   1      45.477  36.880  27.327  1.00  0.00     0.124 S 
ATOM     69  O   UNL A   1      46.007  38.002  28.095  1.00  0.00    -0.237 OA
ATOM     70  O   UNL A   1      46.313  36.407  26.229  1.00  0.00    -0.237 OA
ATOM     71  O   UNL A   1      44.047  36.951  27.031  1.00  0.00    -0.744 OA
ENDBRANCH  64  68
ENDBRANCH  38  61
ENDBRANCH  12  13
ENDBRANCH   5   7
ENDBRANCH   2   3
ENDBRANCH   1   2
BRANCH   1  72
ATOM     72  C   UNL A   1      36.157  22.916  23.616  1.00  0.00     0.023 C 
BRANCH  72  73
ATOM     73  C   UNL A   1      34.752  23.504  23.675  1.00  0.00     0.116 C 
BRANCH  73  74
ATOM     74  N   UNL A   1      34.667  24.670  24.534  1.00  0.00    -0.354 N 
ATOM     75  C   UNL A   1      33.590  25.365  25.004  1.00  0.00     0.243 C 
ATOM     76  H   UNL A   1      35.539  25.022  24.830  1.00  0.00     0.163 HD
ATOM     77  O   UNL A   1      33.791  26.151  25.936  1.00  0.00    -0.273 OA
BRANCH  75  78
ATOM     78  C   UNL A   1      32.145  25.034  24.578  1.00  0.00     0.183 C 
ATOM     79  C   UNL A   1      31.491  26.297  24.033  1.00  0.00     0.046 C 
ATOM     80  N   UNL A   1      31.300  24.583  25.669  1.00  0.00    -0.266 N 
ATOM     81  C   UNL A   1      30.068  26.244  24.541  1.00  0.00     0.103 C 
ATOM     82  C   UNL A   1      30.153  25.385  25.774  1.00  0.00     0.230 C 
ATOM     83  O   UNL A   1      29.337  25.447  26.679  1.00  0.00    -0.274 OA
BRANCH  80  84
ATOM     84  C   UNL A   1      31.616  23.361  26.261  1.00  0.00     0.253 C 
ATOM     85  O   UNL A   1      31.789  23.248  27.475  1.00  0.00    -0.269 OA
BRANCH  84  86
ATOM     86  C   UNL A   1      31.654  22.121  25.449  1.00  0.00     0.072 C 
ATOM     87  C   UNL A   1      32.569  21.150  25.570  1.00  0.00     0.014 C 
BRANCH  87  88
ATOM     88  C   UNL A   1      32.635  19.920  24.760  1.00  0.00    -0.025 A 
ATOM     89  C   UNL A   1      32.352  20.021  23.390  1.00  0.00     0.008 A 
ATOM     90  C   UNL A   1      32.931  18.653  25.283  1.00  0.00     0.008 A 
ATOM     91  C   UNL A   1      32.370  18.893  22.564  1.00  0.00     0.001 A 
ATOM     92  C   UNL A   1      32.949  17.524  24.458  1.00  0.00     0.001 A 
ATOM     93  C   UNL A   1      32.670  17.644  23.099  1.00  0.00     0.000 A 
ENDBRANCH  87  88
ENDBRANCH  84  86
ENDBRANCH  80  84
ENDBRANCH  75  78
ENDBRANCH  73  74
ENDBRANCH  72  73
ENDBRANCH   1  72
TORSDOF 17
ENDMDL
