MODEL 1
REMARK VINA RESULT:     -10.9      0.000      0.000
REMARK SMILES COCCCN(C)C(=O)N1CCC(CC(=O)NCCCCNC(=O)c2ccc(-c3c4nc(c(-c5cc(S(=O)(=O)[O-])ccc5F)c5ccc([nH]5)c(-c5cc(S(=O)(=O)[O-])ccc5F)c5nc(c(-c6cc(S(=O)(=O)[O-])ccc6F)c6ccc3[nH]6)C=C5)C=C4)cc2)CC1
REMARK SMILES IDX 18 1 17 2 15 3 16 4 14 6 13 7 8 8 9 9 10 10 11 11 89 12
REMARK SMILES IDX 12 13 88 14 6 15 7 16 5 17 4 18 3 19 2 20 1 21 19 22 20 23
REMARK SMILES IDX 21 24 22 25 23 26 24 28 25 29 26 30 87 31 27 32 86 33 28 34
REMARK SMILES IDX 29 35 30 36 80 37 31 38 85 39 79 40 81 41 32 42 84 43 78 44
REMARK SMILES IDX 77 45 33 47 65 48 45 49 64 50 46 51 49 52 63 53 82 54 47 55
REMARK SMILES IDX 48 56 62 58 83 59 50 60 34 61 35 62 43 63 36 64 42 65 44 66
REMARK SMILES IDX 41 67 37 68 38 69 39 70 40 71 66 72 67 73 75 74 68 75 74 76
REMARK SMILES IDX 76 77 73 78 69 79 70 80 71 81 72 82 51 83 52 84 60 85 53 86
REMARK SMILES IDX 59 87 61 88 58 89 54 90 55 91 56 92 57 93
REMARK H PARENT 17 5 22 27 81 46 49 57
REMARK Flexibility Score: inf
ROOT
ATOM      1  C   UNL A   1      32.312  26.974  26.384  1.00  0.00     0.116 C 
ENDROOT
BRANCH   1   2
ATOM      2  N   UNL A   1      31.549  25.859  26.926  1.00  0.00    -0.356 N 
ATOM      3  C   UNL A   1      30.823  24.895  26.288  1.00  0.00     0.220 C 
ATOM      4  O   UNL A   1      30.206  24.074  26.971  1.00  0.00    -0.275 OA
ATOM      5  H   UNL A   1      31.559  25.790  27.908  1.00  0.00     0.163 HD
BRANCH   3   6
ATOM      6  C   UNL A   1      30.761  24.838  24.771  1.00  0.00     0.103 C 
BRANCH   6   7
ATOM      7  C   UNL A   1      31.903  24.019  24.132  1.00  0.00     0.002 C 
ATOM      8  C   UNL A   1      32.562  20.240  24.364  1.00  0.00     0.319 C 
ATOM      9  O   UNL A   1      31.720  20.305  25.255  1.00  0.00    -0.248 OA
ATOM     10  N   UNL A   1      33.111  21.379  23.802  1.00  0.00    -0.325 N 
ATOM     11  C   UNL A   1      33.755  22.323  24.688  1.00  0.00     0.121 C 
ATOM     12  C   UNL A   1      32.410  21.985  22.683  1.00  0.00     0.121 C 
ATOM     13  C   UNL A   1      32.774  23.360  25.204  1.00  0.00     0.026 C 
ATOM     14  C   UNL A   1      31.334  22.961  23.169  1.00  0.00     0.026 C 
BRANCH   8  15
ATOM     15  N   UNL A   1      33.036  19.050  23.837  1.00  0.00    -0.328 N 
ATOM     16  C   UNL A   1      32.334  18.318  22.794  1.00  0.00     0.148 C 
BRANCH  15  17
ATOM     17  C   UNL A   1      34.240  18.439  24.399  1.00  0.00     0.123 C 
BRANCH  17  18
ATOM     18  C   UNL A   1      33.970  17.228  25.299  1.00  0.00     0.050 C 
BRANCH  18  19
ATOM     19  C   UNL A   1      34.551  15.892  24.828  1.00  0.00     0.161 C 
BRANCH  19  20
ATOM     20  O   UNL A   1      33.917  14.766  25.439  1.00  0.00    -0.385 OA
ATOM     21  C   UNL A   1      32.500  14.841  25.485  1.00  0.00     0.194 C 
ENDBRANCH  19  20
ENDBRANCH  18  19
ENDBRANCH  17  18
ENDBRANCH  15  17
ENDBRANCH   8  15
ENDBRANCH   6   7
ENDBRANCH   3   6
ENDBRANCH   1   2
BRANCH   1  22
ATOM     22  C   UNL A   1      32.548  28.064  27.434  1.00  0.00     0.023 C 
BRANCH  22  23
ATOM     23  C   UNL A   1      32.014  29.440  27.077  1.00  0.00     0.023 C 
BRANCH  23  24
ATOM     24  C   UNL A   1      33.055  30.382  26.505  1.00  0.00     0.116 C 
BRANCH  24  25
ATOM     25  N   UNL A   1      32.933  31.747  27.000  1.00  0.00    -0.352 N 
ATOM     26  C   UNL A   1      33.787  32.448  27.820  1.00  0.00     0.251 C 
ATOM     27  H   UNL A   1      32.130  32.234  26.708  1.00  0.00     0.163 HD
ATOM     28  O   UNL A   1      33.469  33.552  28.241  1.00  0.00    -0.269 OA
BRANCH  26  29
ATOM     29  C   UNL A   1      35.066  31.824  28.218  1.00  0.00     0.039 A 
ATOM     30  C   UNL A   1      36.239  32.577  28.151  1.00  0.00     0.014 A 
ATOM     31  C   UNL A   1      35.088  30.524  28.727  1.00  0.00     0.014 A 
ATOM     32  C   UNL A   1      37.420  32.047  28.670  1.00  0.00     0.010 A 
ATOM     33  C   UNL A   1      36.231  30.051  29.353  1.00  0.00     0.010 A 
ATOM     34  C   UNL A   1      37.415  30.799  29.315  1.00  0.00    -0.014 A 
BRANCH  34  35
ATOM     35  C   UNL A   1      38.646  30.248  29.931  1.00  0.00     0.031 A 
ATOM     36  C   UNL A   1      39.047  30.675  31.317  1.00  0.00     0.074 A 
ATOM     37  C   UNL A   1      39.427  29.409  29.223  1.00  0.00     0.049 A 
ATOM     38  N   UNL A   1      40.084  30.319  32.028  1.00  0.00    -0.248 NA
ATOM     39  C   UNL A   1      38.189  31.676  31.969  1.00  0.00     0.031 C 
ATOM     40  C   UNL A   1      39.180  28.984  27.842  1.00  0.00     0.029 A 
ATOM     41  N   UNL A   1      40.581  28.757  29.568  1.00  0.00    -0.354 N 
ATOM     42  C   UNL A   1      40.010  31.064  33.202  1.00  0.00     0.074 A 
ATOM     43  C   UNL A   1      38.885  31.960  33.056  1.00  0.00     0.031 C 
ATOM     44  C   UNL A   1      40.116  28.092  27.483  1.00  0.00     0.029 A 
ATOM     45  C   UNL A   1      41.049  27.911  28.589  1.00  0.00     0.049 A 
ATOM     46  H   UNL A   1      41.032  28.880  30.434  1.00  0.00     0.167 HD
ATOM     47  C   UNL A   1      40.782  30.979  34.314  1.00  0.00     0.034 A 
ATOM     48  C   UNL A   1      42.102  27.073  28.595  1.00  0.00     0.034 A 
ATOM     49  C   UNL A   1      41.891  30.064  34.439  1.00  0.00     0.049 A 
ATOM     50  C   UNL A   1      42.948  26.988  29.838  1.00  0.00     0.074 A 
ATOM     51  C   UNL A   1      42.708  29.837  35.530  1.00  0.00     0.029 A 
ATOM     52  N   UNL A   1      42.344  29.227  33.425  1.00  0.00    -0.354 N 
ATOM     53  N   UNL A   1      42.826  27.642  30.971  1.00  0.00    -0.248 NA
ATOM     54  C   UNL A   1      44.066  26.038  29.804  1.00  0.00     0.031 C 
ATOM     55  C   UNL A   1      43.694  28.914  35.156  1.00  0.00     0.029 A 
ATOM     56  C   UNL A   1      43.448  28.506  33.854  1.00  0.00     0.049 A 
ATOM     57  H   UNL A   1      41.938  29.155  32.530  1.00  0.00     0.167 HD
ATOM     58  C   UNL A   1      43.838  27.163  31.796  1.00  0.00     0.074 A 
ATOM     59  C   UNL A   1      44.543  26.149  31.035  1.00  0.00     0.031 C 
ATOM     60  C   UNL A   1      44.158  27.522  33.067  1.00  0.00     0.034 A 
BRANCH  47  61
ATOM     61  C   UNL A   1      40.449  31.921  35.451  1.00  0.00     0.023 A 
ATOM     62  C   UNL A   1      39.466  31.605  36.408  1.00  0.00     0.031 A 
ATOM     63  C   UNL A   1      41.054  33.186  35.533  1.00  0.00     0.131 A 
ATOM     64  C   UNL A   1      39.029  32.579  37.317  1.00  0.00     0.055 A 
ATOM     65  C   UNL A   1      40.688  34.116  36.511  1.00  0.00     0.041 A 
ATOM     66  F   UNL A   1      41.986  33.560  34.642  1.00  0.00    -0.206 F 
ATOM     67  C   UNL A   1      39.653  33.825  37.394  1.00  0.00     0.022 A 
BRANCH  64  68
ATOM     68  S   UNL A   1      37.502  32.268  38.249  1.00  0.00     0.124 S 
ATOM     69  O   UNL A   1      37.287  30.845  37.995  1.00  0.00    -0.237 OA
ATOM     70  O   UNL A   1      37.885  32.624  39.610  1.00  0.00    -0.237 OA
ATOM     71  O   UNL A   1      36.530  33.159  37.619  1.00  0.00    -0.744 OA
ENDBRANCH  64  68
ENDBRANCH  47  61
BRANCH  48  72
ATOM     72  C   UNL A   1      42.390  26.216  27.412  1.00  0.00     0.023 A 
ATOM     73  C   UNL A   1      42.000  24.867  27.393  1.00  0.00     0.031 A 
ATOM     74  C   UNL A   1      43.066  26.725  26.289  1.00  0.00     0.131 A 
ATOM     75  C   UNL A   1      42.319  24.061  26.289  1.00  0.00     0.055 A 
ATOM     76  C   UNL A   1      43.344  25.930  25.175  1.00  0.00     0.041 A 
ATOM     77  F   UNL A   1      43.448  28.011  26.253  1.00  0.00    -0.206 F 
ATOM     78  C   UNL A   1      42.979  24.587  25.176  1.00  0.00     0.022 A 
BRANCH  75  79
ATOM     79  S   UNL A   1      41.903  22.298  26.352  1.00  0.00     0.124 S 
ATOM     80  O   UNL A   1      40.446  22.333  26.316  1.00  0.00    -0.237 OA
ATOM     81  O   UNL A   1      42.563  21.788  25.154  1.00  0.00    -0.237 OA
ATOM     82  O   UNL A   1      42.487  21.855  27.616  1.00  0.00    -0.744 OA
ENDBRANCH  75  79
ENDBRANCH  48  72
BRANCH  60  83
ATOM     83  C   UNL A   1      45.310  26.785  33.706  1.00  0.00     0.023 A 
ATOM     84  C   UNL A   1      46.624  27.286  33.655  1.00  0.00     0.031 A 
ATOM     85  C   UNL A   1      45.102  25.541  34.328  1.00  0.00     0.131 A 
ATOM     86  C   UNL A   1      47.686  26.512  34.141  1.00  0.00     0.055 A 
ATOM     87  C   UNL A   1      46.155  24.809  34.875  1.00  0.00     0.041 A 
ATOM     88  F   UNL A   1      43.870  25.013  34.404  1.00  0.00    -0.206 F 
ATOM     89  C   UNL A   1      47.459  25.283  34.766  1.00  0.00     0.022 A 
BRANCH  86  90
ATOM     90  S   UNL A   1      49.383  27.072  33.825  1.00  0.00     0.124 S 
ATOM     91  O   UNL A   1      49.738  27.694  35.096  1.00  0.00    -0.237 OA
ATOM     92  O   UNL A   1      50.070  25.824  33.512  1.00  0.00    -0.237 OA
ATOM     93  O   UNL A   1      49.234  27.997  32.703  1.00  0.00    -0.744 OA
ENDBRANCH  86  90
ENDBRANCH  60  83
ENDBRANCH  34  35
ENDBRANCH  26  29
ENDBRANCH  24  25
ENDBRANCH  23  24
ENDBRANCH  22  23
ENDBRANCH   1  22
TORSDOF 20
ENDMDL
MODEL 2
REMARK VINA RESULT:     -10.8      2.227      2.842
REMARK SMILES COCCCN(C)C(=O)N1CCC(CC(=O)NCCCCNC(=O)c2ccc(-c3c4nc(c(-c5cc(S(=O)(=O)[O-])ccc5F)c5ccc([nH]5)c(-c5cc(S(=O)(=O)[O-])ccc5F)c5nc(c(-c6cc(S(=O)(=O)[O-])ccc6F)c6ccc3[nH]6)C=C5)C=C4)cc2)CC1
REMARK SMILES IDX 18 1 17 2 15 3 16 4 14 6 13 7 8 8 9 9 10 10 11 11 89 12
REMARK SMILES IDX 12 13 88 14 6 15 7 16 5 17 4 18 3 19 2 20 1 21 19 22 20 23
REMARK SMILES IDX 21 24 22 25 23 26 24 28 25 29 26 30 87 31 27 32 86 33 28 34
REMARK SMILES IDX 29 35 30 36 80 37 31 38 85 39 79 40 81 41 32 42 84 43 78 44
REMARK SMILES IDX 77 45 33 47 65 48 45 49 64 50 46 51 49 52 63 53 82 54 47 55
REMARK SMILES IDX 48 56 62 58 83 59 50 60 34 61 35 62 43 63 36 64 42 65 44 66
REMARK SMILES IDX 41 67 37 68 38 69 39 70 40 71 66 72 67 73 75 74 68 75 74 76
REMARK SMILES IDX 76 77 73 78 69 79 70 80 71 81 72 82 51 83 52 84 60 85 53 86
REMARK SMILES IDX 59 87 61 88 58 89 54 90 55 91 56 92 57 93
REMARK H PARENT 17 5 22 27 81 46 49 57
REMARK Flexibility Score: inf
ROOT
ATOM      1  C   UNL A   1      33.292  27.457  22.965  1.00  0.00     0.116 C 
ENDROOT
BRANCH   1   2
ATOM      2  N   UNL A   1      32.058  27.858  22.305  1.00  0.00    -0.356 N 
ATOM      3  C   UNL A   1      30.777  27.891  22.775  1.00  0.00     0.220 C 
ATOM      4  O   UNL A   1      29.874  28.218  22.001  1.00  0.00    -0.275 OA
ATOM      5  H   UNL A   1      32.165  28.151  21.371  1.00  0.00     0.163 HD
BRANCH   3   6
ATOM      6  C   UNL A   1      30.462  27.521  24.215  1.00  0.00     0.103 C 
BRANCH   6   7
ATOM      7  C   UNL A   1      30.151  26.024  24.419  1.00  0.00     0.002 C 
ATOM      8  C   UNL A   1      32.609  23.091  24.772  1.00  0.00     0.319 C 
ATOM      9  O   UNL A   1      33.420  23.926  24.383  1.00  0.00    -0.248 OA
ATOM     10  N   UNL A   1      31.247  23.335  24.741  1.00  0.00    -0.325 N 
ATOM     11  C   UNL A   1      30.655  23.687  23.469  1.00  0.00     0.121 C 
ATOM     12  C   UNL A   1      30.654  24.002  25.886  1.00  0.00     0.121 C 
ATOM     13  C   UNL A   1      30.670  25.188  23.247  1.00  0.00     0.026 C 
ATOM     14  C   UNL A   1      30.748  25.525  25.747  1.00  0.00     0.026 C 
BRANCH   8  15
ATOM     15  N   UNL A   1      32.962  21.848  25.273  1.00  0.00    -0.328 N 
ATOM     16  C   UNL A   1      33.793  21.687  26.456  1.00  0.00     0.148 C 
BRANCH  15  17
ATOM     17  C   UNL A   1      32.571  20.639  24.551  1.00  0.00     0.123 C 
BRANCH  17  18
ATOM     18  C   UNL A   1      33.441  19.414  24.859  1.00  0.00     0.050 C 
BRANCH  18  19
ATOM     19  C   UNL A   1      32.704  18.176  25.377  1.00  0.00     0.161 C 
BRANCH  19  20
ATOM     20  O   UNL A   1      32.565  17.159  24.382  1.00  0.00    -0.385 OA
ATOM     21  C   UNL A   1      33.643  16.237  24.327  1.00  0.00     0.194 C 
ENDBRANCH  19  20
ENDBRANCH  18  19
ENDBRANCH  17  18
ENDBRANCH  15  17
ENDBRANCH   8  15
ENDBRANCH   6   7
ENDBRANCH   3   6
ENDBRANCH   1   2
BRANCH   1  22
ATOM     22  C   UNL A   1      33.832  28.561  23.879  1.00  0.00     0.023 C 
BRANCH  22  23
ATOM     23  C   UNL A   1      33.440  28.445  25.342  1.00  0.00     0.023 C 
BRANCH  23  24
ATOM     24  C   UNL A   1      34.405  29.115  26.300  1.00  0.00     0.116 C 
BRANCH  24  25
ATOM     25  N   UNL A   1      33.976  30.442  26.718  1.00  0.00    -0.352 N 
ATOM     26  C   UNL A   1      34.511  31.258  27.689  1.00  0.00     0.251 C 
ATOM     27  H   UNL A   1      33.197  30.807  26.239  1.00  0.00     0.163 HD
ATOM     28  O   UNL A   1      33.947  32.298  27.998  1.00  0.00    -0.269 OA
BRANCH  26  29
ATOM     29  C   UNL A   1      35.744  30.828  28.381  1.00  0.00     0.039 A 
ATOM     30  C   UNL A   1      35.661  29.842  29.364  1.00  0.00     0.014 A 
ATOM     31  C   UNL A   1      36.983  31.346  28.001  1.00  0.00     0.014 A 
ATOM     32  C   UNL A   1      36.835  29.321  29.909  1.00  0.00     0.010 A 
ATOM     33  C   UNL A   1      38.147  30.742  28.451  1.00  0.00     0.010 A 
ATOM     34  C   UNL A   1      38.086  29.737  29.425  1.00  0.00    -0.014 A 
BRANCH  34  35
ATOM     35  C   UNL A   1      39.345  29.149  29.944  1.00  0.00     0.031 A 
ATOM     36  C   UNL A   1      39.948  29.674  31.219  1.00  0.00     0.074 A 
ATOM     37  C   UNL A   1      39.969  28.184  29.241  1.00  0.00     0.049 A 
ATOM     38  N   UNL A   1      41.040  29.304  31.835  1.00  0.00    -0.248 NA
ATOM     39  C   UNL A   1      39.251  30.800  31.859  1.00  0.00     0.031 C 
ATOM     40  C   UNL A   1      39.519  27.649  27.952  1.00  0.00     0.029 A 
ATOM     41  N   UNL A   1      41.110  27.476  29.512  1.00  0.00    -0.354 N 
ATOM     42  C   UNL A   1      41.168  30.162  32.923  1.00  0.00     0.074 A 
ATOM     43  C   UNL A   1      40.098  31.130  32.819  1.00  0.00     0.031 C 
ATOM     44  C   UNL A   1      40.338  26.653  27.581  1.00  0.00     0.029 A 
ATOM     45  C   UNL A   1      41.390  26.504  28.580  1.00  0.00     0.049 A 
ATOM     46  H   UNL A   1      41.676  27.645  30.300  1.00  0.00     0.167 HD
ATOM     47  C   UNL A   1      42.067  30.122  33.938  1.00  0.00     0.034 A 
ATOM     48  C   UNL A   1      42.375  25.587  28.549  1.00  0.00     0.034 A 
ATOM     49  C   UNL A   1      43.117  29.137  34.025  1.00  0.00     0.049 A 
ATOM     50  C   UNL A   1      43.364  25.554  29.683  1.00  0.00     0.074 A 
ATOM     51  C   UNL A   1      44.049  28.950  35.029  1.00  0.00     0.029 A 
ATOM     52  N   UNL A   1      43.378  28.171  33.059  1.00  0.00    -0.354 N 
ATOM     53  N   UNL A   1      43.433  26.322  30.747  1.00  0.00    -0.248 NA
ATOM     54  C   UNL A   1      44.400  24.517  29.617  1.00  0.00     0.031 C 
ATOM     55  C   UNL A   1      44.913  27.918  34.639  1.00  0.00     0.029 A 
ATOM     56  C   UNL A   1      44.475  27.407  33.426  1.00  0.00     0.049 A 
ATOM     57  H   UNL A   1      42.858  28.046  32.232  1.00  0.00     0.167 HD
ATOM     58  C   UNL A   1      44.507  25.843  31.491  1.00  0.00     0.074 A 
ATOM     59  C   UNL A   1      45.036  24.707  30.763  1.00  0.00     0.031 C 
ATOM     60  C   UNL A   1      45.009  26.297  32.669  1.00  0.00     0.034 A 
BRANCH  47  61
ATOM     61  C   UNL A   1      41.948  31.194  35.000  1.00  0.00     0.023 A 
ATOM     62  C   UNL A   1      40.870  31.220  35.904  1.00  0.00     0.031 A 
ATOM     63  C   UNL A   1      42.870  32.252  35.056  1.00  0.00     0.131 A 
ATOM     64  C   UNL A   1      40.671  32.336  36.731  1.00  0.00     0.055 A 
ATOM     65  C   UNL A   1      42.724  33.311  35.958  1.00  0.00     0.041 A 
ATOM     66  F   UNL A   1      43.912  32.300  34.211  1.00  0.00    -0.206 F 
ATOM     67  C   UNL A   1      41.606  33.370  36.785  1.00  0.00     0.022 A 
BRANCH  64  68
ATOM     68  S   UNL A   1      39.072  32.511  37.574  1.00  0.00     0.124 S 
ATOM     69  O   UNL A   1      39.464  32.383  38.976  1.00  0.00    -0.237 OA
ATOM     70  O   UNL A   1      38.637  33.837  37.151  1.00  0.00    -0.237 OA
ATOM     71  O   UNL A   1      38.286  31.397  37.051  1.00  0.00    -0.744 OA
ENDBRANCH  64  68
ENDBRANCH  47  61
BRANCH  48  72
ATOM     72  C   UNL A   1      42.449  24.600  27.437  1.00  0.00     0.023 A 
ATOM     73  C   UNL A   1      41.667  23.433  27.462  1.00  0.00     0.031 A 
ATOM     74  C   UNL A   1      43.307  24.797  26.341  1.00  0.00     0.131 A 
ATOM     75  C   UNL A   1      41.783  22.490  26.429  1.00  0.00     0.055 A 
ATOM     76  C   UNL A   1      43.388  23.876  25.295  1.00  0.00     0.041 A 
ATOM     77  F   UNL A   1      44.066  25.901  26.264  1.00  0.00    -0.206 F 
ATOM     78  C   UNL A   1      42.630  22.709  25.340  1.00  0.00     0.022 A 
BRANCH  75  79
ATOM     79  S   UNL A   1      40.845  20.944  26.556  1.00  0.00     0.124 S 
ATOM     80  O   UNL A   1      40.778  20.751  28.000  1.00  0.00    -0.237 OA
ATOM     81  O   UNL A   1      39.591  21.295  25.896  1.00  0.00    -0.237 OA
ATOM     82  O   UNL A   1      41.675  19.981  25.835  1.00  0.00    -0.744 OA
ENDBRANCH  75  79
ENDBRANCH  48  72
BRANCH  60  83
ATOM     83  C   UNL A   1      46.180  25.533  33.240  1.00  0.00     0.023 A 
ATOM     84  C   UNL A   1      45.994  24.376  34.019  1.00  0.00     0.031 A 
ATOM     85  C   UNL A   1      47.493  25.994  33.047  1.00  0.00     0.131 A 
ATOM     86  C   UNL A   1      47.093  23.769  34.641  1.00  0.00     0.055 A 
ATOM     87  C   UNL A   1      48.591  25.343  33.609  1.00  0.00     0.041 A 
ATOM     88  F   UNL A   1      47.730  27.095  32.314  1.00  0.00    -0.206 F 
ATOM     89  C   UNL A   1      48.393  24.235  34.428  1.00  0.00     0.022 A 
BRANCH  86  90
ATOM     90  S   UNL A   1      46.787  22.443  35.841  1.00  0.00     0.124 S 
ATOM     91  O   UNL A   1      46.470  21.315  34.972  1.00  0.00    -0.237 OA
ATOM     92  O   UNL A   1      48.060  22.364  36.550  1.00  0.00    -0.237 OA
ATOM     93  O   UNL A   1      45.668  22.949  36.632  1.00  0.00    -0.744 OA
ENDBRANCH  86  90
ENDBRANCH  60  83
ENDBRANCH  34  35
ENDBRANCH  26  29
ENDBRANCH  24  25
ENDBRANCH  23  24
ENDBRANCH  22  23
ENDBRANCH   1  22
TORSDOF 20
ENDMDL
MODEL 3
REMARK VINA RESULT:     -10.8      1.932      2.692
REMARK SMILES COCCCN(C)C(=O)N1CCC(CC(=O)NCCCCNC(=O)c2ccc(-c3c4nc(c(-c5cc(S(=O)(=O)[O-])ccc5F)c5ccc([nH]5)c(-c5cc(S(=O)(=O)[O-])ccc5F)c5nc(c(-c6cc(S(=O)(=O)[O-])ccc6F)c6ccc3[nH]6)C=C5)C=C4)cc2)CC1
REMARK SMILES IDX 18 1 17 2 15 3 16 4 14 6 13 7 8 8 9 9 10 10 11 11 89 12
REMARK SMILES IDX 12 13 88 14 6 15 7 16 5 17 4 18 3 19 2 20 1 21 19 22 20 23
REMARK SMILES IDX 21 24 22 25 23 26 24 28 25 29 26 30 87 31 27 32 86 33 28 34
REMARK SMILES IDX 29 35 30 36 80 37 31 38 85 39 79 40 81 41 32 42 84 43 78 44
REMARK SMILES IDX 77 45 33 47 65 48 45 49 64 50 46 51 49 52 63 53 82 54 47 55
REMARK SMILES IDX 48 56 62 58 83 59 50 60 34 61 35 62 43 63 36 64 42 65 44 66
REMARK SMILES IDX 41 67 37 68 38 69 39 70 40 71 66 72 67 73 75 74 68 75 74 76
REMARK SMILES IDX 76 77 73 78 69 79 70 80 71 81 72 82 51 83 52 84 60 85 53 86
REMARK SMILES IDX 59 87 61 88 58 89 54 90 55 91 56 92 57 93
REMARK H PARENT 17 5 22 27 81 46 49 57
REMARK Flexibility Score: inf
ROOT
ATOM      1  C   UNL A   1      33.330  27.463  23.838  1.00  0.00     0.116 C 
ENDROOT
BRANCH   1   2
ATOM      2  N   UNL A   1      32.298  27.747  22.852  1.00  0.00    -0.356 N 
ATOM      3  C   UNL A   1      30.939  27.689  22.956  1.00  0.00     0.220 C 
ATOM      4  O   UNL A   1      30.261  27.923  21.953  1.00  0.00    -0.275 OA
ATOM      5  H   UNL A   1      32.635  28.024  21.969  1.00  0.00     0.163 HD
BRANCH   3   6
ATOM      6  C   UNL A   1      30.270  27.331  24.273  1.00  0.00     0.103 C 
BRANCH   6   7
ATOM      7  C   UNL A   1      30.138  25.813  24.512  1.00  0.00     0.002 C 
ATOM      8  C   UNL A   1      32.896  23.137  24.496  1.00  0.00     0.319 C 
ATOM      9  O   UNL A   1      33.558  24.044  24.001  1.00  0.00    -0.248 OA
ATOM     10  N   UNL A   1      31.526  23.246  24.661  1.00  0.00    -0.325 N 
ATOM     11  C   UNL A   1      30.728  23.527  23.488  1.00  0.00     0.121 C 
ATOM     12  C   UNL A   1      31.040  23.863  25.882  1.00  0.00     0.121 C 
ATOM     13  C   UNL A   1      30.564  25.021  23.273  1.00  0.00     0.026 C 
ATOM     14  C   UNL A   1      30.963  25.386  25.739  1.00  0.00     0.026 C 
BRANCH   8  15
ATOM     15  N   UNL A   1      33.437  21.939  24.937  1.00  0.00    -0.328 N 
ATOM     16  C   UNL A   1      33.222  20.679  24.243  1.00  0.00     0.148 C 
BRANCH  15  17
ATOM     17  C   UNL A   1      34.181  21.901  26.194  1.00  0.00     0.123 C 
BRANCH  17  18
ATOM     18  C   UNL A   1      35.704  21.970  26.027  1.00  0.00     0.050 C 
BRANCH  18  19
ATOM     19  C   UNL A   1      36.300  23.367  25.841  1.00  0.00     0.161 C 
BRANCH  19  20
ATOM     20  O   UNL A   1      36.987  23.515  24.597  1.00  0.00    -0.385 OA
ATOM     21  C   UNL A   1      36.751  22.469  23.666  1.00  0.00     0.194 C 
ENDBRANCH  19  20
ENDBRANCH  18  19
ENDBRANCH  17  18
ENDBRANCH  15  17
ENDBRANCH   8  15
ENDBRANCH   6   7
ENDBRANCH   3   6
ENDBRANCH   1   2
BRANCH   1  22
ATOM     22  C   UNL A   1      33.890  28.745  24.460  1.00  0.00     0.023 C 
BRANCH  22  23
ATOM     23  C   UNL A   1      32.902  29.559  25.278  1.00  0.00     0.023 C 
BRANCH  23  24
ATOM     24  C   UNL A   1      33.287  29.725  26.734  1.00  0.00     0.116 C 
BRANCH  24  25
ATOM     25  N   UNL A   1      33.239  31.108  27.190  1.00  0.00    -0.352 N 
ATOM     26  C   UNL A   1      34.161  31.804  27.937  1.00  0.00     0.251 C 
ATOM     27  H   UNL A   1      32.437  31.614  26.926  1.00  0.00     0.163 HD
ATOM     28  O   UNL A   1      33.904  32.931  28.339  1.00  0.00    -0.269 OA
BRANCH  26  29
ATOM     29  C   UNL A   1      35.439  31.148  28.285  1.00  0.00     0.039 A 
ATOM     30  C   UNL A   1      36.628  31.865  28.155  1.00  0.00     0.014 A 
ATOM     31  C   UNL A   1      35.447  29.854  28.810  1.00  0.00     0.014 A 
ATOM     32  C   UNL A   1      37.817  31.308  28.626  1.00  0.00     0.010 A 
ATOM     33  C   UNL A   1      36.604  29.355  29.389  1.00  0.00     0.010 A 
ATOM     34  C   UNL A   1      37.805  30.068  29.286  1.00  0.00    -0.014 A 
BRANCH  34  35
ATOM     35  C   UNL A   1      39.047  29.488  29.853  1.00  0.00     0.031 A 
ATOM     36  C   UNL A   1      39.586  30.002  31.160  1.00  0.00     0.074 A 
ATOM     37  C   UNL A   1      39.715  28.542  29.164  1.00  0.00     0.049 A 
ATOM     38  N   UNL A   1      40.655  29.637  31.819  1.00  0.00    -0.248 NA
ATOM     39  C   UNL A   1      38.848  31.110  31.784  1.00  0.00     0.031 C 
ATOM     40  C   UNL A   1      39.329  28.020  27.850  1.00  0.00     0.029 A 
ATOM     41  N   UNL A   1      40.851  27.844  29.476  1.00  0.00    -0.354 N 
ATOM     42  C   UNL A   1      40.724  30.481  32.923  1.00  0.00     0.074 A 
ATOM     43  C   UNL A   1      39.647  31.437  32.785  1.00  0.00     0.031 C 
ATOM     44  C   UNL A   1      40.177  27.039  27.501  1.00  0.00     0.029 A 
ATOM     45  C   UNL A   1      41.185  26.890  28.544  1.00  0.00     0.049 A 
ATOM     46  H   UNL A   1      41.380  28.009  30.291  1.00  0.00     0.167 HD
ATOM     47  C   UNL A   1      41.577  30.438  33.976  1.00  0.00     0.034 A 
ATOM     48  C   UNL A   1      42.182  25.986  28.544  1.00  0.00     0.034 A 
ATOM     49  C   UNL A   1      42.636  29.464  34.096  1.00  0.00     0.049 A 
ATOM     50  C   UNL A   1      43.121  25.948  29.720  1.00  0.00     0.074 A 
ATOM     51  C   UNL A   1      43.525  29.275  35.138  1.00  0.00     0.029 A 
ATOM     52  N   UNL A   1      42.952  28.516  33.129  1.00  0.00    -0.354 N 
ATOM     53  N   UNL A   1      43.132  26.702  30.797  1.00  0.00    -0.248 NA
ATOM     54  C   UNL A   1      44.172  24.925  29.685  1.00  0.00     0.031 C 
ATOM     55  C   UNL A   1      44.418  28.259  34.772  1.00  0.00     0.029 A 
ATOM     56  C   UNL A   1      44.041  27.760  33.534  1.00  0.00     0.049 A 
ATOM     57  H   UNL A   1      42.470  28.397  32.278  1.00  0.00     0.167 HD
ATOM     58  C   UNL A   1      44.179  26.226  31.580  1.00  0.00     0.074 A 
ATOM     59  C   UNL A   1      44.755  25.106  30.861  1.00  0.00     0.031 C 
ATOM     60  C   UNL A   1      44.623  26.669  32.786  1.00  0.00     0.034 A 
BRANCH  47  61
ATOM     61  C   UNL A   1      41.398  31.493  35.047  1.00  0.00     0.023 A 
ATOM     62  C   UNL A   1      40.360  31.413  35.995  1.00  0.00     0.031 A 
ATOM     63  C   UNL A   1      42.213  32.637  35.070  1.00  0.00     0.131 A 
ATOM     64  C   UNL A   1      40.087  32.503  36.834  1.00  0.00     0.055 A 
ATOM     65  C   UNL A   1      42.001  33.675  35.981  1.00  0.00     0.041 A 
ATOM     66  F   UNL A   1      43.210  32.786  34.183  1.00  0.00    -0.206 F 
ATOM     67  C   UNL A   1      40.918  33.624  36.853  1.00  0.00     0.022 A 
BRANCH  64  68
ATOM     68  S   UNL A   1      38.515  32.520  37.743  1.00  0.00     0.124 S 
ATOM     69  O   UNL A   1      37.962  33.814  37.350  1.00  0.00    -0.237 OA
ATOM     70  O   UNL A   1      37.833  31.345  37.213  1.00  0.00    -0.237 OA
ATOM     71  O   UNL A   1      38.928  32.426  39.141  1.00  0.00    -0.744 OA
ENDBRANCH  64  68
ENDBRANCH  47  61
BRANCH  48  72
ATOM     72  C   UNL A   1      42.318  25.015  27.423  1.00  0.00     0.023 A 
ATOM     73  C   UNL A   1      41.566  23.830  27.406  1.00  0.00     0.031 A 
ATOM     74  C   UNL A   1      43.208  25.248  26.359  1.00  0.00     0.131 A 
ATOM     75  C   UNL A   1      41.740  22.903  26.366  1.00  0.00     0.055 A 
ATOM     76  C   UNL A   1      43.347  24.344  25.305  1.00  0.00     0.041 A 
ATOM     77  F   UNL A   1      43.941  26.371  26.322  1.00  0.00    -0.206 F 
ATOM     78  C   UNL A   1      42.617  23.158  25.309  1.00  0.00     0.022 A 
BRANCH  75  79
ATOM     79  S   UNL A   1      40.837  21.333  26.441  1.00  0.00     0.124 S 
ATOM     80  O   UNL A   1      41.726  20.441  25.707  1.00  0.00    -0.237 OA
ATOM     81  O   UNL A   1      40.744  21.105  27.879  1.00  0.00    -0.237 OA
ATOM     82  O   UNL A   1      39.570  21.637  25.779  1.00  0.00    -0.744 OA
ENDBRANCH  75  79
ENDBRANCH  48  72
BRANCH  60  83
ATOM     83  C   UNL A   1      45.777  25.911  33.398  1.00  0.00     0.023 A 
ATOM     84  C   UNL A   1      47.112  26.224  33.082  1.00  0.00     0.031 A 
ATOM     85  C   UNL A   1      45.539  24.831  34.265  1.00  0.00     0.131 A 
ATOM     86  C   UNL A   1      48.151  25.415  33.564  1.00  0.00     0.055 A 
ATOM     87  C   UNL A   1      46.583  24.075  34.800  1.00  0.00     0.041 A 
ATOM     88  F   UNL A   1      44.285  24.486  34.599  1.00  0.00    -0.206 F 
ATOM     89  C   UNL A   1      47.896  24.352  34.434  1.00  0.00     0.022 A 
BRANCH  86  90
ATOM     90  S   UNL A   1      49.829  25.690  32.930  1.00  0.00     0.124 S 
ATOM     91  O   UNL A   1      49.820  24.904  31.700  1.00  0.00    -0.237 OA
ATOM     92  O   UNL A   1      49.864  27.138  32.760  1.00  0.00    -0.237 OA
ATOM     93  O   UNL A   1      50.686  25.169  33.992  1.00  0.00    -0.744 OA
ENDBRANCH  86  90
ENDBRANCH  60  83
ENDBRANCH  34  35
ENDBRANCH  26  29
ENDBRANCH  24  25
ENDBRANCH  23  24
ENDBRANCH  22  23
ENDBRANCH   1  22
TORSDOF 20
ENDMDL
