MODEL 1
REMARK VINA RESULT:     -10.8      0.000      0.000
REMARK SMILES CC(C)[C@@H](NC(=O)[C@@](C)([NH3+])C(F)(F)F)C(=O)NCCCCNC(=O)c1ccc(-c2c3nc(c(-c4cc(S(=O)(=O)[O-])ccc4F)c4ccc([nH]4)c(-c4cc(S(=O)(=O)[O-])ccc4F)c4nc(c(-c5cc(S(=O)(=O)[O-])ccc5F)c5ccc2[nH]5)C=C4)C=C3)cc1
REMARK SMILES IDX 19 1 18 2 17 3 15 4 16 5 4 7 2 8 1 9 3 10 5 11 6 12 7 14
REMARK SMILES IDX 8 15 9 16 10 17 11 21 12 22 13 23 14 24 20 25 21 26 22 27
REMARK SMILES IDX 23 28 24 30 25 31 26 32 87 33 27 34 86 35 28 36 29 37 30 38
REMARK SMILES IDX 80 39 31 40 85 41 79 42 81 43 32 44 84 45 78 46 77 47 33 49
REMARK SMILES IDX 65 50 45 51 64 52 46 53 49 54 63 55 82 56 47 57 48 58 62 60
REMARK SMILES IDX 83 61 50 62 34 63 35 64 43 65 36 66 42 67 44 68 41 69 37 70
REMARK SMILES IDX 38 71 39 72 40 73 66 74 67 75 75 76 68 77 74 78 76 79 73 80
REMARK SMILES IDX 69 81 70 82 71 83 72 84 51 85 52 86 60 87 53 88 59 89 61 90
REMARK SMILES IDX 58 91 54 92 55 93 56 94 57 95
REMARK H PARENT 17 6 5 13 10 18 10 19 10 20 22 29 81 48 49 59
REMARK Flexibility Score: inf
ROOT
ATOM      1  C   UNL A   1      35.856  23.663  26.004  1.00  0.00     0.023 C 
ENDROOT
BRANCH   1   2
ATOM      2  C   UNL A   1      34.454  23.916  25.464  1.00  0.00     0.116 C 
BRANCH   2   3
ATOM      3  N   UNL A   1      34.358  23.619  24.041  1.00  0.00    -0.354 N 
ATOM      4  C   UNL A   1      33.476  22.810  23.385  1.00  0.00     0.242 C 
ATOM      5  O   UNL A   1      33.347  22.952  22.166  1.00  0.00    -0.273 OA
ATOM      6  H   UNL A   1      35.024  24.067  23.470  1.00  0.00     0.163 HD
BRANCH   4   7
ATOM      7  C   UNL A   1      32.668  21.735  24.128  1.00  0.00     0.174 C 
BRANCH   7   8
ATOM      8  C   UNL A   1      31.312  22.366  24.605  1.00  0.00     0.015 C 
ATOM      9  C   UNL A   1      31.208  22.574  26.118  1.00  0.00     0.010 C 
ATOM     10  C   UNL A   1      30.994  23.698  23.904  1.00  0.00     0.010 C 
ENDBRANCH   7   8
BRANCH   7  11
ATOM     11  N   UNL A   1      32.485  20.524  23.305  1.00  0.00    -0.338 N 
ATOM     12  C   UNL A   1      32.593  19.182  23.575  1.00  0.00     0.291 C 
ATOM     13  H   UNL A   1      32.234  20.717  22.373  1.00  0.00     0.164 HD
ATOM     14  O   UNL A   1      31.870  18.483  22.854  1.00  0.00    -0.267 OA
BRANCH  12  15
ATOM     15  C   UNL A   1      33.559  18.540  24.616  1.00  0.00     0.267 C 
ATOM     16  C   UNL A   1      34.916  19.254  24.701  1.00  0.00     0.100 C 
BRANCH  15  17
ATOM     17  N   UNL A   1      32.916  18.558  25.974  1.00  0.00    -0.337 N 
ATOM     18  H   UNL A   1      31.909  18.689  25.873  1.00  0.00     0.345 HD
ATOM     19  H   UNL A   1      33.304  19.324  26.526  1.00  0.00     0.345 HD
ATOM     20  H   UNL A   1      33.097  17.673  26.448  1.00  0.00     0.345 HD
ENDBRANCH  15  17
BRANCH  15  21
ATOM     21  C   UNL A   1      33.903  17.106  24.090  1.00  0.00     0.453 C 
ATOM     22  F   UNL A   1      32.906  16.212  24.253  1.00  0.00    -0.164 F 
ATOM     23  F   UNL A   1      34.271  17.107  22.786  1.00  0.00    -0.164 F 
ATOM     24  F   UNL A   1      34.975  16.618  24.781  1.00  0.00    -0.164 F 
ENDBRANCH  15  21
ENDBRANCH  12  15
ENDBRANCH   7  11
ENDBRANCH   4   7
ENDBRANCH   2   3
ENDBRANCH   1   2
BRANCH   1  25
ATOM     25  C   UNL A   1      36.335  22.218  25.867  1.00  0.00     0.023 C 
BRANCH  25  26
ATOM     26  C   UNL A   1      37.635  22.042  25.090  1.00  0.00     0.116 C 
BRANCH  26  27
ATOM     27  N   UNL A   1      38.516  21.057  25.692  1.00  0.00    -0.352 N 
ATOM     28  C   UNL A   1      39.660  21.250  26.433  1.00  0.00     0.251 C 
ATOM     29  H   UNL A   1      38.259  20.117  25.549  1.00  0.00     0.163 HD
ATOM     30  O   UNL A   1      40.387  20.303  26.690  1.00  0.00    -0.269 OA
BRANCH  28  31
ATOM     31  C   UNL A   1      40.011  22.617  26.878  1.00  0.00     0.039 A 
ATOM     32  C   UNL A   1      40.841  22.771  27.989  1.00  0.00     0.014 A 
ATOM     33  C   UNL A   1      39.545  23.736  26.182  1.00  0.00     0.014 A 
ATOM     34  C   UNL A   1      41.264  24.050  28.357  1.00  0.00     0.010 A 
ATOM     35  C   UNL A   1      40.035  25.000  26.502  1.00  0.00     0.010 A 
ATOM     36  C   UNL A   1      40.900  25.171  27.593  1.00  0.00    -0.014 A 
BRANCH  36  37
ATOM     37  C   UNL A   1      41.424  26.524  27.922  1.00  0.00     0.031 A 
ATOM     38  C   UNL A   1      42.833  26.901  27.551  1.00  0.00     0.074 A 
ATOM     39  C   UNL A   1      40.646  27.394  28.598  1.00  0.00     0.049 A 
ATOM     40  N   UNL A   1      43.481  28.011  27.792  1.00  0.00    -0.248 NA
ATOM     41  C   UNL A   1      43.623  25.887  26.836  1.00  0.00     0.031 C 
ATOM     42  C   UNL A   1      39.277  27.129  29.049  1.00  0.00     0.029 A 
ATOM     43  N   UNL A   1      40.892  28.674  29.030  1.00  0.00    -0.354 N 
ATOM     44  C   UNL A   1      44.757  27.827  27.270  1.00  0.00     0.074 A 
ATOM     45  C   UNL A   1      44.806  26.475  26.755  1.00  0.00     0.031 C 
ATOM     46  C   UNL A   1      38.798  28.220  29.666  1.00  0.00     0.029 A 
ATOM     47  C   UNL A   1      39.836  29.246  29.703  1.00  0.00     0.049 A 
ATOM     48  H   UNL A   1      41.744  29.140  28.872  1.00  0.00     0.167 HD
ATOM     49  C   UNL A   1      45.784  28.711  27.205  1.00  0.00     0.034 A 
ATOM     50  C   UNL A   1      39.720  30.451  30.297  1.00  0.00     0.034 A 
ATOM     51  C   UNL A   1      45.715  30.059  27.717  1.00  0.00     0.049 A 
ATOM     52  C   UNL A   1      40.888  31.404  30.241  1.00  0.00     0.074 A 
ATOM     53  C   UNL A   1      46.675  31.054  27.652  1.00  0.00     0.029 A 
ATOM     54  N   UNL A   1      44.634  30.598  28.401  1.00  0.00    -0.354 N 
ATOM     55  N   UNL A   1      42.067  31.234  29.689  1.00  0.00    -0.248 NA
ATOM     56  C   UNL A   1      40.706  32.714  30.878  1.00  0.00     0.031 C 
ATOM     57  C   UNL A   1      46.209  32.161  28.365  1.00  0.00     0.029 A 
ATOM     58  C   UNL A   1      44.920  31.897  28.797  1.00  0.00     0.049 A 
ATOM     59  H   UNL A   1      43.787  30.128  28.580  1.00  0.00     0.167 HD
ATOM     60  C   UNL A   1      42.754  32.430  29.884  1.00  0.00     0.074 A 
ATOM     61  C   UNL A   1      41.850  33.316  30.588  1.00  0.00     0.031 C 
ATOM     62  C   UNL A   1      44.015  32.768  29.510  1.00  0.00     0.034 A 
BRANCH  49  63
ATOM     63  C   UNL A   1      47.077  28.235  26.585  1.00  0.00     0.023 A 
ATOM     64  C   UNL A   1      47.276  28.233  25.193  1.00  0.00     0.031 A 
ATOM     65  C   UNL A   1      48.123  27.764  27.398  1.00  0.00     0.131 A 
ATOM     66  C   UNL A   1      48.457  27.703  24.654  1.00  0.00     0.055 A 
ATOM     67  C   UNL A   1      49.331  27.318  26.858  1.00  0.00     0.041 A 
ATOM     68  F   UNL A   1      47.987  27.721  28.733  1.00  0.00    -0.206 F 
ATOM     69  C   UNL A   1      49.498  27.271  25.477  1.00  0.00     0.022 A 
BRANCH  66  70
ATOM     70  S   UNL A   1      48.555  27.454  22.860  1.00  0.00     0.124 S 
ATOM     71  O   UNL A   1      49.850  28.056  22.549  1.00  0.00    -0.237 OA
ATOM     72  O   UNL A   1      48.479  26.003  22.737  1.00  0.00    -0.237 OA
ATOM     73  O   UNL A   1      47.397  28.185  22.348  1.00  0.00    -0.744 OA
ENDBRANCH  66  70
ENDBRANCH  49  63
BRANCH  50  74
ATOM     74  C   UNL A   1      38.466  30.825  31.016  1.00  0.00     0.023 A 
ATOM     75  C   UNL A   1      37.525  31.689  30.434  1.00  0.00     0.031 A 
ATOM     76  C   UNL A   1      38.216  30.362  32.321  1.00  0.00     0.131 A 
ATOM     77  C   UNL A   1      36.407  32.108  31.175  1.00  0.00     0.055 A 
ATOM     78  C   UNL A   1      37.071  30.732  33.030  1.00  0.00     0.041 A 
ATOM     79  F   UNL A   1      39.080  29.532  32.925  1.00  0.00    -0.206 F 
ATOM     80  C   UNL A   1      36.166  31.623  32.461  1.00  0.00     0.022 A 
BRANCH  77  81
ATOM     81  S   UNL A   1      35.322  33.378  30.466  1.00  0.00     0.124 S 
ATOM     82  O   UNL A   1      35.935  33.598  29.162  1.00  0.00    -0.237 OA
ATOM     83  O   UNL A   1      34.029  32.704  30.464  1.00  0.00    -0.237 OA
ATOM     84  O   UNL A   1      35.442  34.489  31.409  1.00  0.00    -0.744 OA
ENDBRANCH  77  81
ENDBRANCH  50  74
BRANCH  62  85
ATOM     85  C   UNL A   1      44.471  34.176  29.815  1.00  0.00     0.023 A 
ATOM     86  C   UNL A   1      44.223  35.246  28.937  1.00  0.00     0.031 A 
ATOM     87  C   UNL A   1      45.175  34.447  31.002  1.00  0.00     0.131 A 
ATOM     88  C   UNL A   1      44.726  36.523  29.231  1.00  0.00     0.055 A 
ATOM     89  C   UNL A   1      45.612  35.733  31.322  1.00  0.00     0.041 A 
ATOM     90  F   UNL A   1      45.447  33.464  31.876  1.00  0.00    -0.206 F 
ATOM     91  C   UNL A   1      45.401  36.777  30.427  1.00  0.00     0.022 A 
BRANCH  88  92
ATOM     92  S   UNL A   1      44.575  37.827  27.980  1.00  0.00     0.124 S 
ATOM     93  O   UNL A   1      43.132  37.881  27.772  1.00  0.00    -0.237 OA
ATOM     94  O   UNL A   1      45.165  38.978  28.655  1.00  0.00    -0.237 OA
ATOM     95  O   UNL A   1      45.345  37.309  26.850  1.00  0.00    -0.744 OA
ENDBRANCH  88  92
ENDBRANCH  62  85
ENDBRANCH  36  37
ENDBRANCH  28  31
ENDBRANCH  26  27
ENDBRANCH  25  26
ENDBRANCH   1  25
TORSDOF 19
ENDMDL
MODEL 2
REMARK VINA RESULT:     -10.8      5.237     10.237
REMARK SMILES CC(C)[C@@H](NC(=O)[C@@](C)([NH3+])C(F)(F)F)C(=O)NCCCCNC(=O)c1ccc(-c2c3nc(c(-c4cc(S(=O)(=O)[O-])ccc4F)c4ccc([nH]4)c(-c4cc(S(=O)(=O)[O-])ccc4F)c4nc(c(-c5cc(S(=O)(=O)[O-])ccc5F)c5ccc2[nH]5)C=C4)C=C3)cc1
REMARK SMILES IDX 19 1 18 2 17 3 15 4 16 5 4 7 2 8 1 9 3 10 5 11 6 12 7 14
REMARK SMILES IDX 8 15 9 16 10 17 11 21 12 22 13 23 14 24 20 25 21 26 22 27
REMARK SMILES IDX 23 28 24 30 25 31 26 32 87 33 27 34 86 35 28 36 29 37 30 38
REMARK SMILES IDX 80 39 31 40 85 41 79 42 81 43 32 44 84 45 78 46 77 47 33 49
REMARK SMILES IDX 65 50 45 51 64 52 46 53 49 54 63 55 82 56 47 57 48 58 62 60
REMARK SMILES IDX 83 61 50 62 34 63 35 64 43 65 36 66 42 67 44 68 41 69 37 70
REMARK SMILES IDX 38 71 39 72 40 73 66 74 67 75 75 76 68 77 74 78 76 79 73 80
REMARK SMILES IDX 69 81 70 82 71 83 72 84 51 85 52 86 60 87 53 88 59 89 61 90
REMARK SMILES IDX 58 91 54 92 55 93 56 94 57 95
REMARK H PARENT 17 6 5 13 10 18 10 19 10 20 22 29 81 48 49 59
REMARK Flexibility Score: inf
ROOT
ATOM      1  C   UNL A   1      32.078  27.802  25.176  1.00  0.00     0.023 C 
ENDROOT
BRANCH   1   2
ATOM      2  C   UNL A   1      31.371  27.174  23.982  1.00  0.00     0.116 C 
BRANCH   2   3
ATOM      3  N   UNL A   1      32.250  27.065  22.825  1.00  0.00    -0.354 N 
ATOM      4  C   UNL A   1      32.856  25.960  22.302  1.00  0.00     0.242 C 
ATOM      5  O   UNL A   1      33.280  26.019  21.144  1.00  0.00    -0.273 OA
ATOM      6  H   UNL A   1      32.432  27.910  22.353  1.00  0.00     0.163 HD
BRANCH   4   7
ATOM      7  C   UNL A   1      33.028  24.674  23.124  1.00  0.00     0.174 C 
BRANCH   7   8
ATOM      8  C   UNL A   1      31.943  23.636  22.667  1.00  0.00     0.015 C 
ATOM      9  C   UNL A   1      32.429  22.185  22.637  1.00  0.00     0.010 C 
ATOM     10  C   UNL A   1      30.658  23.705  23.510  1.00  0.00     0.010 C 
ENDBRANCH   7   8
BRANCH   7  11
ATOM     11  N   UNL A   1      34.405  24.149  23.034  1.00  0.00    -0.338 N 
ATOM     12  C   UNL A   1      35.242  23.553  23.945  1.00  0.00     0.291 C 
ATOM     13  H   UNL A   1      34.805  24.246  22.140  1.00  0.00     0.164 HD
ATOM     14  O   UNL A   1      36.057  22.783  23.422  1.00  0.00    -0.267 OA
BRANCH  12  15
ATOM     15  C   UNL A   1      35.261  23.831  25.478  1.00  0.00     0.267 C 
ATOM     16  C   UNL A   1      36.613  23.512  26.132  1.00  0.00     0.100 C 
BRANCH  15  17
ATOM     17  N   UNL A   1      34.929  25.275  25.730  1.00  0.00    -0.337 N 
ATOM     18  H   UNL A   1      34.083  25.336  26.297  1.00  0.00     0.345 HD
ATOM     19  H   UNL A   1      34.778  25.751  24.841  1.00  0.00     0.345 HD
ATOM     20  H   UNL A   1      35.703  25.720  26.225  1.00  0.00     0.345 HD
ENDBRANCH  15  17
BRANCH  15  21
ATOM     21  C   UNL A   1      34.261  22.821  26.134  1.00  0.00     0.453 C 
ATOM     22  F   UNL A   1      33.055  23.354  26.417  1.00  0.00    -0.164 F 
ATOM     23  F   UNL A   1      34.074  21.712  25.378  1.00  0.00    -0.164 F 
ATOM     24  F   UNL A   1      34.776  22.381  27.320  1.00  0.00    -0.164 F 
ENDBRANCH  15  21
ENDBRANCH  12  15
ENDBRANCH   7  11
ENDBRANCH   4   7
ENDBRANCH   2   3
ENDBRANCH   1   2
BRANCH   1  25
ATOM     25  C   UNL A   1      31.671  29.248  25.463  1.00  0.00     0.023 C 
BRANCH  25  26
ATOM     26  C   UNL A   1      32.216  29.823  26.765  1.00  0.00     0.116 C 
BRANCH  26  27
ATOM     27  N   UNL A   1      32.245  31.275  26.764  1.00  0.00    -0.352 N 
ATOM     28  C   UNL A   1      33.166  32.128  27.329  1.00  0.00     0.251 C 
ATOM     29  H   UNL A   1      31.499  31.712  26.293  1.00  0.00     0.163 HD
ATOM     30  O   UNL A   1      32.926  33.323  27.404  1.00  0.00    -0.269 OA
BRANCH  28  31
ATOM     31  C   UNL A   1      34.425  31.573  27.874  1.00  0.00     0.039 A 
ATOM     32  C   UNL A   1      35.483  32.442  28.144  1.00  0.00     0.014 A 
ATOM     33  C   UNL A   1      34.546  30.207  28.144  1.00  0.00     0.014 A 
ATOM     34  C   UNL A   1      36.638  31.949  28.754  1.00  0.00     0.010 A 
ATOM     35  C   UNL A   1      35.664  29.735  28.826  1.00  0.00     0.010 A 
ATOM     36  C   UNL A   1      36.723  30.601  29.139  1.00  0.00    -0.014 A 
BRANCH  36  37
ATOM     37  C   UNL A   1      37.910  30.089  29.875  1.00  0.00     0.031 A 
ATOM     38  C   UNL A   1      38.176  30.535  31.288  1.00  0.00     0.074 A 
ATOM     39  C   UNL A   1      38.775  29.261  29.253  1.00  0.00     0.049 A 
ATOM     40  N   UNL A   1      39.178  30.236  32.074  1.00  0.00    -0.248 NA
ATOM     41  C   UNL A   1      37.198  31.457  31.885  1.00  0.00     0.031 C 
ATOM     42  C   UNL A   1      38.647  28.790  27.871  1.00  0.00     0.029 A 
ATOM     43  N   UNL A   1      39.933  28.671  29.695  1.00  0.00    -0.354 N 
ATOM     44  C   UNL A   1      38.958  30.940  33.253  1.00  0.00     0.074 A 
ATOM     45  C   UNL A   1      37.760  31.728  33.053  1.00  0.00     0.031 C 
ATOM     46  C   UNL A   1      39.668  27.965  27.591  1.00  0.00     0.029 A 
ATOM     47  C   UNL A   1      40.552  27.884  28.750  1.00  0.00     0.049 A 
ATOM     48  H   UNL A   1      40.288  28.799  30.604  1.00  0.00     0.167 HD
ATOM     49  C   UNL A   1      39.677  30.914  34.404  1.00  0.00     0.034 A 
ATOM     50  C   UNL A   1      41.706  27.190  28.802  1.00  0.00     0.034 A 
ATOM     51  C   UNL A   1      40.865  30.117  34.588  1.00  0.00     0.049 A 
ATOM     52  C   UNL A   1      42.505  27.204  30.083  1.00  0.00     0.074 A 
ATOM     53  C   UNL A   1      41.634  29.972  35.730  1.00  0.00     0.029 A 
ATOM     54  N   UNL A   1      41.467  29.341  33.606  1.00  0.00    -0.354 N 
ATOM     55  N   UNL A   1      42.249  27.827  31.209  1.00  0.00    -0.248 NA
ATOM     56  C   UNL A   1      43.741  26.411  30.101  1.00  0.00     0.031 C 
ATOM     57  C   UNL A   1      42.742  29.179  35.416  1.00  0.00     0.029 A 
ATOM     58  C   UNL A   1      42.618  28.749  34.105  1.00  0.00     0.049 A 
ATOM     59  H   UNL A   1      41.126  29.227  32.689  1.00  0.00     0.167 HD
ATOM     60  C   UNL A   1      43.277  27.474  32.081  1.00  0.00     0.074 A 
ATOM     61  C   UNL A   1      44.143  26.569  31.353  1.00  0.00     0.031 C 
ATOM     62  C   UNL A   1      43.482  27.857  33.367  1.00  0.00     0.034 A 
BRANCH  49  63
ATOM     63  C   UNL A   1      39.211  31.797  35.538  1.00  0.00     0.023 A 
ATOM     64  C   UNL A   1      38.548  31.272  36.662  1.00  0.00     0.031 A 
ATOM     65  C   UNL A   1      39.420  33.186  35.489  1.00  0.00     0.131 A 
ATOM     66  C   UNL A   1      38.056  32.136  37.652  1.00  0.00     0.055 A 
ATOM     67  C   UNL A   1      39.003  34.031  36.519  1.00  0.00     0.041 A 
ATOM     68  F   UNL A   1      40.027  33.750  34.432  1.00  0.00    -0.206 F 
ATOM     69  C   UNL A   1      38.303  33.509  37.603  1.00  0.00     0.022 A 
BRANCH  66  70
ATOM     70  S   UNL A   1      36.964  31.454  38.931  1.00  0.00     0.124 S 
ATOM     71  O   UNL A   1      36.746  30.096  38.438  1.00  0.00    -0.237 OA
ATOM     72  O   UNL A   1      37.776  31.574  40.136  1.00  0.00    -0.237 OA
ATOM     73  O   UNL A   1      35.791  32.324  38.879  1.00  0.00    -0.744 OA
ENDBRANCH  66  70
ENDBRANCH  49  63
BRANCH  50  74
ATOM     74  C   UNL A   1      42.195  26.439  27.609  1.00  0.00     0.023 A 
ATOM     75  C   UNL A   1      41.878  25.084  27.421  1.00  0.00     0.031 A 
ATOM     76  C   UNL A   1      43.033  27.055  26.661  1.00  0.00     0.131 A 
ATOM     77  C   UNL A   1      42.438  24.376  26.345  1.00  0.00     0.055 A 
ATOM     78  C   UNL A   1      43.538  26.363  25.559  1.00  0.00     0.041 A 
ATOM     79  F   UNL A   1      43.368  28.349  26.789  1.00  0.00    -0.206 F 
ATOM     80  C   UNL A   1      43.253  25.010  25.405  1.00  0.00     0.022 A 
BRANCH  77  81
ATOM     81  S   UNL A   1      42.167  22.585  26.249  1.00  0.00     0.124 S 
ATOM     82  O   UNL A   1      42.819  22.120  27.467  1.00  0.00    -0.237 OA
ATOM     83  O   UNL A   1      40.710  22.501  26.227  1.00  0.00    -0.237 OA
ATOM     84  O   UNL A   1      42.830  22.209  25.001  1.00  0.00    -0.744 OA
ENDBRANCH  77  81
ENDBRANCH  50  74
BRANCH  62  85
ATOM     85  C   UNL A   1      44.669  27.257  34.085  1.00  0.00     0.023 A 
ATOM     86  C   UNL A   1      44.589  26.021  34.749  1.00  0.00     0.031 A 
ATOM     87  C   UNL A   1      45.898  27.941  34.110  1.00  0.00     0.131 A 
ATOM     88  C   UNL A   1      45.699  25.536  35.460  1.00  0.00     0.055 A 
ATOM     89  C   UNL A   1      47.017  27.421  34.759  1.00  0.00     0.041 A 
ATOM     90  F   UNL A   1      46.032  29.129  33.497  1.00  0.00    -0.206 F 
ATOM     91  C   UNL A   1      46.918  26.218  35.452  1.00  0.00     0.022 A 
BRANCH  88  92
ATOM     92  S   UNL A   1      45.498  24.051  36.482  1.00  0.00     0.124 S 
ATOM     93  O   UNL A   1      44.354  23.401  35.849  1.00  0.00    -0.237 OA
ATOM     94  O   UNL A   1      46.783  23.380  36.316  1.00  0.00    -0.237 OA
ATOM     95  O   UNL A   1      45.245  24.586  37.819  1.00  0.00    -0.744 OA
ENDBRANCH  88  92
ENDBRANCH  62  85
ENDBRANCH  36  37
ENDBRANCH  28  31
ENDBRANCH  26  27
ENDBRANCH  25  26
ENDBRANCH   1  25
TORSDOF 19
ENDMDL
MODEL 3
REMARK VINA RESULT:     -10.8      4.790      9.436
REMARK SMILES CC(C)[C@@H](NC(=O)[C@@](C)([NH3+])C(F)(F)F)C(=O)NCCCCNC(=O)c1ccc(-c2c3nc(c(-c4cc(S(=O)(=O)[O-])ccc4F)c4ccc([nH]4)c(-c4cc(S(=O)(=O)[O-])ccc4F)c4nc(c(-c5cc(S(=O)(=O)[O-])ccc5F)c5ccc2[nH]5)C=C4)C=C3)cc1
REMARK SMILES IDX 19 1 18 2 17 3 15 4 16 5 4 7 2 8 1 9 3 10 5 11 6 12 7 14
REMARK SMILES IDX 8 15 9 16 10 17 11 21 12 22 13 23 14 24 20 25 21 26 22 27
REMARK SMILES IDX 23 28 24 30 25 31 26 32 87 33 27 34 86 35 28 36 29 37 30 38
REMARK SMILES IDX 80 39 31 40 85 41 79 42 81 43 32 44 84 45 78 46 77 47 33 49
REMARK SMILES IDX 65 50 45 51 64 52 46 53 49 54 63 55 82 56 47 57 48 58 62 60
REMARK SMILES IDX 83 61 50 62 34 63 35 64 43 65 36 66 42 67 44 68 41 69 37 70
REMARK SMILES IDX 38 71 39 72 40 73 66 74 67 75 75 76 68 77 74 78 76 79 73 80
REMARK SMILES IDX 69 81 70 82 71 83 72 84 51 85 52 86 60 87 53 88 59 89 61 90
REMARK SMILES IDX 58 91 54 92 55 93 56 94 57 95
REMARK H PARENT 17 6 5 13 10 18 10 19 10 20 22 29 81 48 49 59
REMARK Flexibility Score: inf
ROOT
ATOM      1  C   UNL A   1      31.409  27.873  25.746  1.00  0.00     0.023 C 
ENDROOT
BRANCH   1   2
ATOM      2  C   UNL A   1      30.765  26.517  26.006  1.00  0.00     0.116 C 
BRANCH   2   3
ATOM      3  N   UNL A   1      30.668  25.719  24.791  1.00  0.00    -0.354 N 
ATOM      4  C   UNL A   1      31.117  24.452  24.552  1.00  0.00     0.242 C 
ATOM      5  O   UNL A   1      30.649  23.838  23.589  1.00  0.00    -0.273 OA
ATOM      6  H   UNL A   1      30.214  26.155  24.035  1.00  0.00     0.163 HD
BRANCH   4   7
ATOM      7  C   UNL A   1      32.186  23.799  25.440  1.00  0.00     0.174 C 
BRANCH   7   8
ATOM      8  C   UNL A   1      31.537  23.431  26.822  1.00  0.00     0.015 C 
ATOM      9  C   UNL A   1      30.179  22.733  26.717  1.00  0.00     0.010 C 
ATOM     10  C   UNL A   1      32.462  22.577  27.707  1.00  0.00     0.010 C 
ENDBRANCH   7   8
BRANCH   7  11
ATOM     11  N   UNL A   1      32.818  22.644  24.773  1.00  0.00    -0.338 N 
ATOM     12  C   UNL A   1      34.119  22.345  24.448  1.00  0.00     0.291 C 
ATOM     13  H   UNL A   1      32.178  21.946  24.506  1.00  0.00     0.164 HD
ATOM     14  O   UNL A   1      34.340  21.128  24.406  1.00  0.00    -0.267 OA
BRANCH  12  15
ATOM     15  C   UNL A   1      35.226  23.381  24.089  1.00  0.00     0.267 C 
ATOM     16  C   UNL A   1      36.453  22.746  23.419  1.00  0.00     0.100 C 
BRANCH  15  17
ATOM     17  N   UNL A   1      34.657  24.425  23.169  1.00  0.00    -0.337 N 
ATOM     18  H   UNL A   1      35.416  24.973  22.765  1.00  0.00     0.345 HD
ATOM     19  H   UNL A   1      34.035  25.040  23.694  1.00  0.00     0.345 HD
ATOM     20  H   UNL A   1      34.132  23.969  22.422  1.00  0.00     0.345 HD
ENDBRANCH  15  17
BRANCH  15  21
ATOM     21  C   UNL A   1      35.770  23.950  25.443  1.00  0.00     0.453 C 
ATOM     22  F   UNL A   1      35.504  23.168  26.509  1.00  0.00    -0.164 F 
ATOM     23  F   UNL A   1      37.103  24.189  25.405  1.00  0.00    -0.164 F 
ATOM     24  F   UNL A   1      35.182  25.157  25.693  1.00  0.00    -0.164 F 
ENDBRANCH  15  21
ENDBRANCH  12  15
ENDBRANCH   7  11
ENDBRANCH   4   7
ENDBRANCH   2   3
ENDBRANCH   1   2
BRANCH   1  25
ATOM     25  C   UNL A   1      32.530  28.237  26.720  1.00  0.00     0.023 C 
BRANCH  25  26
ATOM     26  C   UNL A   1      33.623  29.127  26.139  1.00  0.00     0.116 C 
BRANCH  26  27
ATOM     27  N   UNL A   1      33.587  30.477  26.675  1.00  0.00    -0.352 N 
ATOM     28  C   UNL A   1      34.400  31.061  27.620  1.00  0.00     0.251 C 
ATOM     29  H   UNL A   1      32.879  31.057  26.310  1.00  0.00     0.163 HD
ATOM     30  O   UNL A   1      34.100  32.143  28.098  1.00  0.00    -0.269 OA
BRANCH  28  31
ATOM     31  C   UNL A   1      35.614  30.344  28.071  1.00  0.00     0.039 A 
ATOM     32  C   UNL A   1      36.804  30.525  27.365  1.00  0.00     0.014 A 
ATOM     33  C   UNL A   1      35.579  29.521  29.200  1.00  0.00     0.014 A 
ATOM     34  C   UNL A   1      37.979  29.937  27.839  1.00  0.00     0.010 A 
ATOM     35  C   UNL A   1      36.766  29.005  29.714  1.00  0.00     0.010 A 
ATOM     36  C   UNL A   1      37.980  29.209  29.040  1.00  0.00    -0.014 A 
BRANCH  36  37
ATOM     37  C   UNL A   1      39.243  28.661  29.601  1.00  0.00     0.031 A 
ATOM     38  C   UNL A   1      39.886  29.311  30.797  1.00  0.00     0.074 A 
ATOM     39  C   UNL A   1      39.837  27.607  29.004  1.00  0.00     0.049 A 
ATOM     40  N   UNL A   1      41.007  29.008  31.399  1.00  0.00    -0.248 NA
ATOM     41  C   UNL A   1      39.187  30.470  31.374  1.00  0.00     0.031 C 
ATOM     42  C   UNL A   1      39.333  26.916  27.815  1.00  0.00     0.029 A 
ATOM     43  N   UNL A   1      40.995  26.934  29.308  1.00  0.00    -0.354 N 
ATOM     44  C   UNL A   1      41.154  29.942  32.419  1.00  0.00     0.074 A 
ATOM     45  C   UNL A   1      40.038  30.858  32.311  1.00  0.00     0.031 C 
ATOM     46  C   UNL A   1      40.159  25.903  27.509  1.00  0.00     0.029 A 
ATOM     47  C   UNL A   1      41.279  25.899  28.446  1.00  0.00     0.049 A 
ATOM     48  H   UNL A   1      41.568  27.169  30.073  1.00  0.00     0.167 HD
ATOM     49  C   UNL A   1      42.119  30.016  33.370  1.00  0.00     0.034 A 
ATOM     50  C   UNL A   1      42.328  25.053  28.402  1.00  0.00     0.034 A 
ATOM     51  C   UNL A   1      43.221  29.090  33.467  1.00  0.00     0.049 A 
ATOM     52  C   UNL A   1      43.405  25.177  29.451  1.00  0.00     0.074 A 
ATOM     53  C   UNL A   1      44.219  29.039  34.425  1.00  0.00     0.029 A 
ATOM     54  N   UNL A   1      43.481  28.062  32.571  1.00  0.00    -0.354 N 
ATOM     55  N   UNL A   1      43.496  26.029  30.445  1.00  0.00    -0.248 NA
ATOM     56  C   UNL A   1      44.514  24.217  29.379  1.00  0.00     0.031 C 
ATOM     57  C   UNL A   1      45.125  28.037  34.062  1.00  0.00     0.029 A 
ATOM     58  C   UNL A   1      44.645  27.398  32.931  1.00  0.00     0.049 A 
ATOM     59  H   UNL A   1      42.922  27.836  31.792  1.00  0.00     0.167 HD
ATOM     60  C   UNL A   1      44.656  25.685  31.136  1.00  0.00     0.074 A 
ATOM     61  C   UNL A   1      45.218  24.537  30.454  1.00  0.00     0.031 C 
ATOM     62  C   UNL A   1      45.203  26.261  32.237  1.00  0.00     0.034 A 
BRANCH  49  63
ATOM     63  C   UNL A   1      42.038  31.154  34.360  1.00  0.00     0.023 A 
ATOM     64  C   UNL A   1      42.721  32.367  34.155  1.00  0.00     0.031 A 
ATOM     65  C   UNL A   1      41.276  31.022  35.534  1.00  0.00     0.131 A 
ATOM     66  C   UNL A   1      42.689  33.365  35.140  1.00  0.00     0.055 A 
ATOM     67  C   UNL A   1      41.178  32.053  36.470  1.00  0.00     0.041 A 
ATOM     68  F   UNL A   1      40.618  29.881  35.798  1.00  0.00    -0.206 F 
ATOM     69  C   UNL A   1      41.899  33.228  36.283  1.00  0.00     0.022 A 
BRANCH  66  70
ATOM     70  S   UNL A   1      43.806  34.784  34.971  1.00  0.00     0.124 S 
ATOM     71  O   UNL A   1      43.156  35.546  33.907  1.00  0.00    -0.237 OA
ATOM     72  O   UNL A   1      43.763  35.380  36.302  1.00  0.00    -0.237 OA
ATOM     73  O   UNL A   1      45.081  34.174  34.600  1.00  0.00    -0.744 OA
ENDBRANCH  66  70
ENDBRANCH  49  63
BRANCH  50  74
ATOM     74  C   UNL A   1      42.432  24.028  27.322  1.00  0.00     0.023 A 
ATOM     75  C   UNL A   1      41.657  22.858  27.352  1.00  0.00     0.031 A 
ATOM     76  C   UNL A   1      43.350  24.181  26.266  1.00  0.00     0.131 A 
ATOM     77  C   UNL A   1      41.851  21.864  26.379  1.00  0.00     0.055 A 
ATOM     78  C   UNL A   1      43.496  23.217  25.267  1.00  0.00     0.041 A 
ATOM     79  F   UNL A   1      44.116  25.282  26.185  1.00  0.00    -0.206 F 
ATOM     80  C   UNL A   1      42.754  22.042  25.330  1.00  0.00     0.022 A 
BRANCH  77  81
ATOM     81  S   UNL A   1      40.978  20.284  26.566  1.00  0.00     0.124 S 
ATOM     82  O   UNL A   1      40.942  20.134  28.015  1.00  0.00    -0.237 OA
ATOM     83  O   UNL A   1      39.702  20.567  25.917  1.00  0.00    -0.237 OA
ATOM     84  O   UNL A   1      41.838  19.337  25.859  1.00  0.00    -0.744 OA
ENDBRANCH  77  81
ENDBRANCH  50  74
BRANCH  62  85
ATOM     85  C   UNL A   1      46.453  25.624  32.800  1.00  0.00     0.023 A 
ATOM     86  C   UNL A   1      47.738  26.003  32.375  1.00  0.00     0.031 A 
ATOM     87  C   UNL A   1      46.351  24.614  33.773  1.00  0.00     0.131 A 
ATOM     88  C   UNL A   1      48.866  25.335  32.877  1.00  0.00     0.055 A 
ATOM     89  C   UNL A   1      47.480  24.002  34.320  1.00  0.00     0.041 A 
ATOM     90  F   UNL A   1      45.150  24.206  34.214  1.00  0.00    -0.206 F 
ATOM     91  C   UNL A   1      48.746  24.351  33.861  1.00  0.00     0.022 A 
BRANCH  88  92
ATOM     92  S   UNL A   1      50.488  25.698  32.150  1.00  0.00     0.124 S 
ATOM     93  O   UNL A   1      50.159  26.736  31.179  1.00  0.00    -0.237 OA
ATOM     94  O   UNL A   1      51.260  26.132  33.309  1.00  0.00    -0.237 OA
ATOM     95  O   UNL A   1      50.900  24.419  31.574  1.00  0.00    -0.744 OA
ENDBRANCH  88  92
ENDBRANCH  62  85
ENDBRANCH  36  37
ENDBRANCH  28  31
ENDBRANCH  26  27
ENDBRANCH  25  26
ENDBRANCH   1  25
TORSDOF 19
ENDMDL
