MODEL 1
REMARK VINA RESULT:     -13.2      0.000      0.000
REMARK SMILES O=C(NCCCCNC(=O)[C@@H](Cc1ccccc1)N1C(=O)/C(=C/c2ccncc2)SC1=S)c1ccc(-c2c3nc(c(-c4cc(S(=O)(=O)[O-])ccc4F)c4ccc([nH]4)c(-c4cc(S(=O)(=O)[O-])ccc4F)c4nc(c(-c5cc(S(=O)(=O)[O-])ccc5F)c5ccc2[nH]5)C=C4)C=C3)cc1
REMARK SMILES IDX 5 1 4 2 3 3 1 4 2 5 33 7 34 8 95 9 35 10 94 11 36 12 37 13
REMARK SMILES IDX 38 14 88 15 39 16 93 17 87 18 89 19 40 20 92 21 86 22 85 23
REMARK SMILES IDX 41 25 73 26 53 27 72 28 54 29 57 30 71 31 90 32 55 33 56 34
REMARK SMILES IDX 70 36 91 37 58 38 42 39 43 40 51 41 44 42 50 43 52 44 49 45
REMARK SMILES IDX 45 46 46 47 47 48 48 49 74 50 75 51 83 52 76 53 82 54 84 55
REMARK SMILES IDX 81 56 77 57 78 58 79 59 80 60 59 61 60 62 68 63 61 64 67 65
REMARK SMILES IDX 69 66 66 67 62 68 63 69 64 70 65 71 6 72 7 73 8 74 9 75
REMARK SMILES IDX 10 77 11 78 12 79 13 80 14 81 18 82 15 83 17 84 16 85 19 86
REMARK SMILES IDX 20 87 31 88 21 89 22 90 30 91 32 92 23 93 24 94 25 95 29 96
REMARK SMILES IDX 26 97 28 98 27 99
REMARK H PARENT 3 6 89 24 57 35 8 76
REMARK Flexibility Score: inf
ROOT
ATOM      1  C   UNL A   1      35.868  21.935  24.481  1.00  0.00     0.023 C 
ENDROOT
BRANCH   1   2
ATOM      2  C   UNL A   1      36.717  21.731  25.734  1.00  0.00     0.116 C 
BRANCH   2   3
ATOM      3  N   UNL A   1      37.814  20.778  25.590  1.00  0.00    -0.352 N 
ATOM      4  O   UNL A   1      39.957  20.040  25.738  1.00  0.00    -0.269 OA
ATOM      5  C   UNL A   1      39.133  20.921  25.966  1.00  0.00     0.251 C 
ATOM      6  H   UNL A   1      37.581  19.919  25.169  1.00  0.00     0.163 HD
BRANCH   5   7
ATOM      7  C   UNL A   1      39.550  22.185  26.606  1.00  0.00     0.039 A 
ATOM      8  C   UNL A   1      39.054  23.400  26.132  1.00  0.00     0.014 A 
ATOM      9  C   UNL A   1      40.544  22.156  27.585  1.00  0.00     0.014 A 
ATOM     10  C   UNL A   1      39.710  24.576  26.466  1.00  0.00     0.010 A 
ATOM     11  C   UNL A   1      41.121  23.355  28.009  1.00  0.00     0.010 A 
ATOM     12  C   UNL A   1      40.751  24.570  27.408  1.00  0.00    -0.014 A 
BRANCH  12  13
ATOM     13  C   UNL A   1      41.439  25.839  27.759  1.00  0.00     0.031 A 
ATOM     14  C   UNL A   1      40.738  26.905  28.557  1.00  0.00     0.074 A 
ATOM     15  C   UNL A   1      42.709  26.024  27.352  1.00  0.00     0.049 A 
ATOM     16  N   UNL A   1      41.134  28.118  28.848  1.00  0.00    -0.248 NA
ATOM     17  C   UNL A   1      39.408  26.566  29.086  1.00  0.00     0.031 C 
ATOM     18  C   UNL A   1      43.498  25.052  26.589  1.00  0.00     0.029 A 
ATOM     19  N   UNL A   1      43.560  27.087  27.516  1.00  0.00    -0.354 N 
ATOM     20  C   UNL A   1      40.089  28.704  29.557  1.00  0.00     0.074 A 
ATOM     21  C   UNL A   1      39.033  27.714  29.631  1.00  0.00     0.031 C 
ATOM     22  C   UNL A   1      44.720  25.552  26.371  1.00  0.00     0.029 A 
ATOM     23  C   UNL A   1      44.771  26.913  26.890  1.00  0.00     0.049 A 
ATOM     24  H   UNL A   1      43.327  27.892  28.030  1.00  0.00     0.167 HD
ATOM     25  C   UNL A   1      40.023  29.951  30.092  1.00  0.00     0.034 A 
ATOM     26  C   UNL A   1      45.791  27.769  26.697  1.00  0.00     0.034 A 
ATOM     27  C   UNL A   1      41.101  30.911  30.014  1.00  0.00     0.049 A 
ATOM     28  C   UNL A   1      45.683  29.159  27.251  1.00  0.00     0.074 A 
ATOM     29  C   UNL A   1      41.165  32.186  30.551  1.00  0.00     0.029 A 
ATOM     30  N   UNL A   1      42.305  30.704  29.349  1.00  0.00    -0.354 N 
ATOM     31  N   UNL A   1      44.685  29.705  27.905  1.00  0.00    -0.248 NA
ATOM     32  C   UNL A   1      46.832  30.045  27.042  1.00  0.00     0.031 C 
ATOM     33  C   UNL A   1      42.372  32.771  30.153  1.00  0.00     0.029 A 
ATOM     34  C   UNL A   1      43.099  31.838  29.433  1.00  0.00     0.049 A 
ATOM     35  H   UNL A   1      42.556  29.873  28.885  1.00  0.00     0.167 HD
ATOM     36  C   UNL A   1      45.092  31.000  28.200  1.00  0.00     0.074 A 
ATOM     37  C   UNL A   1      46.429  31.148  27.658  1.00  0.00     0.031 C 
ATOM     38  C   UNL A   1      44.424  31.974  28.869  1.00  0.00     0.034 A 
BRANCH  25  39
ATOM     39  C   UNL A   1      38.722  30.361  30.747  1.00  0.00     0.023 A 
ATOM     40  C   UNL A   1      37.672  30.950  30.021  1.00  0.00     0.031 A 
ATOM     41  C   UNL A   1      38.547  30.203  32.134  1.00  0.00     0.131 A 
ATOM     42  C   UNL A   1      36.539  31.439  30.693  1.00  0.00     0.055 A 
ATOM     43  C   UNL A   1      37.382  30.614  32.786  1.00  0.00     0.041 A 
ATOM     44  F   UNL A   1      39.520  29.665  32.889  1.00  0.00    -0.206 F 
ATOM     45  C   UNL A   1      36.378  31.255  32.067  1.00  0.00     0.022 A 
BRANCH  42  46
ATOM     46  S   UNL A   1      35.367  32.477  29.774  1.00  0.00     0.124 S 
ATOM     47  O   UNL A   1      34.315  32.689  30.765  1.00  0.00    -0.237 OA
ATOM     48  O   UNL A   1      36.175  33.644  29.441  1.00  0.00    -0.237 OA
ATOM     49  O   UNL A   1      34.982  31.638  28.640  1.00  0.00    -0.744 OA
ENDBRANCH  42  46
ENDBRANCH  25  39
BRANCH  26  50
ATOM     50  C   UNL A   1      46.955  27.333  25.880  1.00  0.00     0.023 A 
ATOM     51  C   UNL A   1      47.080  27.701  24.534  1.00  0.00     0.031 A 
ATOM     52  C   UNL A   1      47.995  26.587  26.467  1.00  0.00     0.131 A 
ATOM     53  C   UNL A   1      48.221  27.315  23.813  1.00  0.00     0.055 A 
ATOM     54  C   UNL A   1      49.146  26.243  25.760  1.00  0.00     0.041 A 
ATOM     55  F   UNL A   1      47.925  26.227  27.759  1.00  0.00    -0.206 F 
ATOM     56  C   UNL A   1      49.261  26.605  24.422  1.00  0.00     0.022 A 
BRANCH  53  57
ATOM     57  S   UNL A   1      48.324  27.740  22.054  1.00  0.00     0.124 S 
ATOM     58  O   UNL A   1      47.081  28.477  21.854  1.00  0.00    -0.237 OA
ATOM     59  O   UNL A   1      49.551  28.528  22.003  1.00  0.00    -0.237 OA
ATOM     60  O   UNL A   1      48.393  26.439  21.393  1.00  0.00    -0.744 OA
ENDBRANCH  53  57
ENDBRANCH  26  50
BRANCH  38  61
ATOM     61  C   UNL A   1      45.156  33.271  29.088  1.00  0.00     0.023 A 
ATOM     62  C   UNL A   1      45.119  34.311  28.145  1.00  0.00     0.031 A 
ATOM     63  C   UNL A   1      45.897  33.465  30.268  1.00  0.00     0.131 A 
ATOM     64  C   UNL A   1      45.844  35.490  28.381  1.00  0.00     0.055 A 
ATOM     65  C   UNL A   1      46.576  34.658  30.518  1.00  0.00     0.041 A 
ATOM     66  F   UNL A   1      45.965  32.501  31.198  1.00  0.00    -0.206 F 
ATOM     67  C   UNL A   1      46.558  35.675  29.568  1.00  0.00     0.022 A 
BRANCH  64  68
ATOM     68  S   UNL A   1      45.886  36.763  27.090  1.00  0.00     0.124 S 
ATOM     69  O   UNL A   1      46.398  36.016  25.946  1.00  0.00    -0.237 OA
ATOM     70  O   UNL A   1      44.489  37.176  27.009  1.00  0.00    -0.237 OA
ATOM     71  O   UNL A   1      46.798  37.770  27.632  1.00  0.00    -0.744 OA
ENDBRANCH  64  68
ENDBRANCH  38  61
ENDBRANCH  12  13
ENDBRANCH   5   7
ENDBRANCH   2   3
ENDBRANCH   1   2
BRANCH   1  72
ATOM     72  C   UNL A   1      36.125  23.217  23.704  1.00  0.00     0.023 C 
BRANCH  72  73
ATOM     73  C   UNL A   1      34.881  24.040  23.425  1.00  0.00     0.116 C 
BRANCH  73  74
ATOM     74  N   UNL A   1      34.471  24.944  24.465  1.00  0.00    -0.354 N 
ATOM     75  C   UNL A   1      33.172  25.196  24.803  1.00  0.00     0.243 C 
ATOM     76  H   UNL A   1      35.174  25.415  24.967  1.00  0.00     0.163 HD
ATOM     77  O   UNL A   1      32.925  25.310  26.010  1.00  0.00    -0.273 OA
BRANCH  75  78
ATOM     78  C   UNL A   1      32.031  25.324  23.758  1.00  0.00     0.185 C 
BRANCH  78  79
ATOM     79  C   UNL A   1      31.137  24.089  23.442  1.00  0.00     0.071 C 
BRANCH  79  80
ATOM     80  C   UNL A   1      31.576  22.680  23.745  1.00  0.00    -0.045 A 
ATOM     81  C   UNL A   1      31.938  21.816  22.697  1.00  0.00     0.004 A 
ATOM     82  C   UNL A   1      31.604  22.186  25.052  1.00  0.00     0.004 A 
ATOM     83  C   UNL A   1      32.408  20.527  22.962  1.00  0.00     0.000 A 
ATOM     84  C   UNL A   1      32.103  20.907  25.319  1.00  0.00     0.000 A 
ATOM     85  C   UNL A   1      32.519  20.085  24.276  1.00  0.00     0.000 A 
ENDBRANCH  79  80
ENDBRANCH  78  79
BRANCH  78  86
ATOM     86  N   UNL A   1      31.475  26.679  23.464  1.00  0.00    -0.280 N 
ATOM     87  C   UNL A   1      30.093  26.855  23.591  1.00  0.00     0.266 C 
ATOM     88  C   UNL A   1      32.147  27.818  23.066  1.00  0.00     0.149 C 
ATOM     89  O   UNL A   1      29.261  26.019  23.916  1.00  0.00    -0.268 OA
ATOM     90  C   UNL A   1      29.720  28.259  23.279  1.00  0.00     0.081 C 
ATOM     91  S   UNL A   1      31.130  29.226  23.311  1.00  0.00    -0.054 SA
ATOM     92  S   UNL A   1      33.630  28.071  22.369  1.00  0.00    -0.052 S 
ATOM     93  C   UNL A   1      28.489  28.671  22.947  1.00  0.00     0.029 C 
BRANCH  93  94
ATOM     94  C   UNL A   1      28.219  30.060  22.551  1.00  0.00    -0.021 A 
ATOM     95  C   UNL A   1      28.127  30.407  21.200  1.00  0.00     0.028 A 
ATOM     96  C   UNL A   1      28.187  31.066  23.513  1.00  0.00     0.028 A 
ATOM     97  C   UNL A   1      28.037  31.748  20.869  1.00  0.00     0.111 A 
ATOM     98  C   UNL A   1      28.085  32.378  23.080  1.00  0.00     0.111 A 
ATOM     99  N   UNL A   1      28.009  32.742  21.782  1.00  0.00    -0.265 NA
ENDBRANCH  93  94
ENDBRANCH  78  86
ENDBRANCH  75  78
ENDBRANCH  73  74
ENDBRANCH  72  73
ENDBRANCH   1  72
TORSDOF 18
ENDMDL
MODEL 2
REMARK VINA RESULT:     -13.2      1.476      1.751
REMARK SMILES O=C(NCCCCNC(=O)[C@@H](Cc1ccccc1)N1C(=O)/C(=C/c2ccncc2)SC1=S)c1ccc(-c2c3nc(c(-c4cc(S(=O)(=O)[O-])ccc4F)c4ccc([nH]4)c(-c4cc(S(=O)(=O)[O-])ccc4F)c4nc(c(-c5cc(S(=O)(=O)[O-])ccc5F)c5ccc2[nH]5)C=C4)C=C3)cc1
REMARK SMILES IDX 5 1 4 2 3 3 1 4 2 5 33 7 34 8 95 9 35 10 94 11 36 12 37 13
REMARK SMILES IDX 38 14 88 15 39 16 93 17 87 18 89 19 40 20 92 21 86 22 85 23
REMARK SMILES IDX 41 25 73 26 53 27 72 28 54 29 57 30 71 31 90 32 55 33 56 34
REMARK SMILES IDX 70 36 91 37 58 38 42 39 43 40 51 41 44 42 50 43 52 44 49 45
REMARK SMILES IDX 45 46 46 47 47 48 48 49 74 50 75 51 83 52 76 53 82 54 84 55
REMARK SMILES IDX 81 56 77 57 78 58 79 59 80 60 59 61 60 62 68 63 61 64 67 65
REMARK SMILES IDX 69 66 66 67 62 68 63 69 64 70 65 71 6 72 7 73 8 74 9 75
REMARK SMILES IDX 10 77 11 78 12 79 13 80 14 81 18 82 15 83 17 84 16 85 19 86
REMARK SMILES IDX 20 87 31 88 21 89 22 90 30 91 32 92 23 93 24 94 25 95 29 96
REMARK SMILES IDX 26 97 28 98 27 99
REMARK H PARENT 3 6 89 24 57 35 8 76
REMARK Flexibility Score: inf
ROOT
ATOM      1  C   UNL A   1      35.694  22.054  24.975  1.00  0.00     0.023 C 
ENDROOT
BRANCH   1   2
ATOM      2  C   UNL A   1      37.188  22.222  24.703  1.00  0.00     0.116 C 
BRANCH   2   3
ATOM      3  N   UNL A   1      38.015  21.074  25.065  1.00  0.00    -0.352 N 
ATOM      4  O   UNL A   1      39.726  19.987  26.091  1.00  0.00    -0.269 OA
ATOM      5  C   UNL A   1      39.098  21.028  25.918  1.00  0.00     0.251 C 
ATOM      6  H   UNL A   1      37.767  20.218  24.645  1.00  0.00     0.163 HD
BRANCH   5   7
ATOM      7  C   UNL A   1      39.524  22.276  26.584  1.00  0.00     0.039 A 
ATOM      8  C   UNL A   1      39.031  23.503  26.138  1.00  0.00     0.014 A 
ATOM      9  C   UNL A   1      40.521  22.221  27.558  1.00  0.00     0.014 A 
ATOM     10  C   UNL A   1      39.694  24.668  26.495  1.00  0.00     0.010 A 
ATOM     11  C   UNL A   1      41.105  23.408  28.005  1.00  0.00     0.010 A 
ATOM     12  C   UNL A   1      40.738  24.637  27.433  1.00  0.00    -0.014 A 
BRANCH  12  13
ATOM     13  C   UNL A   1      41.434  25.895  27.808  1.00  0.00     0.031 A 
ATOM     14  C   UNL A   1      40.708  26.992  28.541  1.00  0.00     0.074 A 
ATOM     15  C   UNL A   1      42.732  26.042  27.484  1.00  0.00     0.049 A 
ATOM     16  N   UNL A   1      41.114  28.200  28.838  1.00  0.00    -0.248 NA
ATOM     17  C   UNL A   1      39.338  26.695  28.985  1.00  0.00     0.031 C 
ATOM     18  C   UNL A   1      43.545  25.038  26.792  1.00  0.00     0.029 A 
ATOM     19  N   UNL A   1      43.597  27.087  27.688  1.00  0.00    -0.354 N 
ATOM     20  C   UNL A   1      40.040  28.824  29.467  1.00  0.00     0.074 A 
ATOM     21  C   UNL A   1      38.957  27.861  29.486  1.00  0.00     0.031 C 
ATOM     22  C   UNL A   1      44.791  25.505  26.647  1.00  0.00     0.029 A 
ATOM     23  C   UNL A   1      44.842  26.873  27.147  1.00  0.00     0.049 A 
ATOM     24  H   UNL A   1      43.351  27.907  28.172  1.00  0.00     0.167 HD
ATOM     25  C   UNL A   1      39.970  30.081  29.976  1.00  0.00     0.034 A 
ATOM     26  C   UNL A   1      45.894  27.700  27.009  1.00  0.00     0.034 A 
ATOM     27  C   UNL A   1      41.076  31.013  29.955  1.00  0.00     0.049 A 
ATOM     28  C   UNL A   1      45.785  29.101  27.533  1.00  0.00     0.074 A 
ATOM     29  C   UNL A   1      41.136  32.295  30.474  1.00  0.00     0.029 A 
ATOM     30  N   UNL A   1      42.315  30.765  29.375  1.00  0.00    -0.354 N 
ATOM     31  N   UNL A   1      44.760  29.683  28.109  1.00  0.00    -0.248 NA
ATOM     32  C   UNL A   1      46.967  29.956  27.386  1.00  0.00     0.031 C 
ATOM     33  C   UNL A   1      42.382  32.844  30.148  1.00  0.00     0.029 A 
ATOM     34  C   UNL A   1      43.131  31.880  29.493  1.00  0.00     0.049 A 
ATOM     35  H   UNL A   1      42.576  29.920  28.942  1.00  0.00     0.167 HD
ATOM     36  C   UNL A   1      45.179  30.973  28.410  1.00  0.00     0.074 A 
ATOM     37  C   UNL A   1      46.552  31.079  27.956  1.00  0.00     0.031 C 
ATOM     38  C   UNL A   1      44.493  31.974  29.017  1.00  0.00     0.034 A 
BRANCH  25  39
ATOM     39  C   UNL A   1      38.640  30.534  30.536  1.00  0.00     0.023 A 
ATOM     40  C   UNL A   1      37.674  31.177  29.741  1.00  0.00     0.031 A 
ATOM     41  C   UNL A   1      38.351  30.362  31.902  1.00  0.00     0.131 A 
ATOM     42  C   UNL A   1      36.513  31.702  30.333  1.00  0.00     0.055 A 
ATOM     43  C   UNL A   1      37.156  30.811  32.469  1.00  0.00     0.041 A 
ATOM     44  F   UNL A   1      39.240  29.773  32.719  1.00  0.00    -0.206 F 
ATOM     45  C   UNL A   1      36.237  31.503  31.687  1.00  0.00     0.022 A 
BRANCH  42  46
ATOM     46  S   UNL A   1      35.458  32.801  29.345  1.00  0.00     0.124 S 
ATOM     47  O   UNL A   1      34.221  32.807  30.123  1.00  0.00    -0.237 OA
ATOM     48  O   UNL A   1      36.217  34.045  29.343  1.00  0.00    -0.237 OA
ATOM     49  O   UNL A   1      35.367  32.120  28.055  1.00  0.00    -0.744 OA
ENDBRANCH  42  46
ENDBRANCH  25  39
BRANCH  26  50
ATOM     50  C   UNL A   1      47.099  27.221  26.279  1.00  0.00     0.023 A 
ATOM     51  C   UNL A   1      48.153  26.587  26.949  1.00  0.00     0.031 A 
ATOM     52  C   UNL A   1      47.174  27.341  24.879  1.00  0.00     0.131 A 
ATOM     53  C   UNL A   1      49.247  26.100  26.216  1.00  0.00     0.055 A 
ATOM     54  C   UNL A   1      48.242  26.818  24.151  1.00  0.00     0.041 A 
ATOM     55  F   UNL A   1      46.179  27.927  24.193  1.00  0.00    -0.206 F 
ATOM     56  C   UNL A   1      49.290  26.196  24.822  1.00  0.00     0.022 A 
BRANCH  53  57
ATOM     57  S   UNL A   1      50.631  25.350  27.115  1.00  0.00     0.124 S 
ATOM     58  O   UNL A   1      49.971  24.251  27.813  1.00  0.00    -0.237 OA
ATOM     59  O   UNL A   1      51.529  24.972  26.029  1.00  0.00    -0.237 OA
ATOM     60  O   UNL A   1      51.110  26.434  27.968  1.00  0.00    -0.744 OA
ENDBRANCH  53  57
ENDBRANCH  26  50
BRANCH  38  61
ATOM     61  C   UNL A   1      45.241  33.257  29.265  1.00  0.00     0.023 A 
ATOM     62  C   UNL A   1      45.255  34.300  28.323  1.00  0.00     0.031 A 
ATOM     63  C   UNL A   1      45.947  33.434  30.468  1.00  0.00     0.131 A 
ATOM     64  C   UNL A   1      45.993  35.464  28.586  1.00  0.00     0.055 A 
ATOM     65  C   UNL A   1      46.640  34.614  30.744  1.00  0.00     0.041 A 
ATOM     66  F   UNL A   1      45.967  32.466  31.396  1.00  0.00    -0.206 F 
ATOM     67  C   UNL A   1      46.672  35.633  29.797  1.00  0.00     0.022 A 
BRANCH  64  68
ATOM     68  S   UNL A   1      46.101  36.740  27.301  1.00  0.00     0.124 S 
ATOM     69  O   UNL A   1      44.700  36.920  26.936  1.00  0.00    -0.237 OA
ATOM     70  O   UNL A   1      46.724  37.852  28.013  1.00  0.00    -0.237 OA
ATOM     71  O   UNL A   1      46.936  36.119  26.273  1.00  0.00    -0.744 OA
ENDBRANCH  64  68
ENDBRANCH  38  61
ENDBRANCH  12  13
ENDBRANCH   5   7
ENDBRANCH   2   3
ENDBRANCH   1   2
BRANCH   1  72
ATOM     72  C   UNL A   1      35.086  23.027  25.973  1.00  0.00     0.023 C 
BRANCH  72  73
ATOM     73  C   UNL A   1      34.532  24.296  25.354  1.00  0.00     0.116 C 
BRANCH  73  74
ATOM     74  N   UNL A   1      33.553  25.008  26.130  1.00  0.00    -0.354 N 
ATOM     75  C   UNL A   1      32.226  25.084  25.821  1.00  0.00     0.243 C 
ATOM     76  H   UNL A   1      33.862  25.474  26.941  1.00  0.00     0.163 HD
ATOM     77  O   UNL A   1      31.431  25.011  26.766  1.00  0.00    -0.273 OA
BRANCH  75  78
ATOM     78  C   UNL A   1      31.698  25.239  24.369  1.00  0.00     0.185 C 
BRANCH  78  79
ATOM     79  C   UNL A   1      31.062  24.014  23.649  1.00  0.00     0.071 C 
BRANCH  79  80
ATOM     80  C   UNL A   1      31.575  22.612  23.841  1.00  0.00    -0.045 A 
ATOM     81  C   UNL A   1      32.010  21.864  22.733  1.00  0.00     0.004 A 
ATOM     82  C   UNL A   1      31.604  22.007  25.101  1.00  0.00     0.004 A 
ATOM     83  C   UNL A   1      32.550  20.586  22.898  1.00  0.00     0.000 A 
ATOM     84  C   UNL A   1      32.171  20.740  25.270  1.00  0.00     0.000 A 
ATOM     85  C   UNL A   1      32.657  20.037  24.171  1.00  0.00     0.000 A 
ENDBRANCH  79  80
ENDBRANCH  78  79
BRANCH  78  86
ATOM     86  N   UNL A   1      31.334  26.602  23.878  1.00  0.00    -0.280 N 
ATOM     87  C   UNL A   1      30.015  27.029  24.067  1.00  0.00     0.266 C 
ATOM     88  C   UNL A   1      32.134  27.529  23.239  1.00  0.00     0.149 C 
ATOM     89  O   UNL A   1      29.099  26.411  24.592  1.00  0.00    -0.268 OA
ATOM     90  C   UNL A   1      29.837  28.405  23.537  1.00  0.00     0.081 C 
ATOM     91  S   UNL A   1      31.376  29.111  23.299  1.00  0.00    -0.054 SA
ATOM     92  S   UNL A   1      33.563  27.409  22.407  1.00  0.00    -0.052 S 
ATOM     93  C   UNL A   1      28.659  28.960  23.224  1.00  0.00     0.029 C 
BRANCH  93  94
ATOM     94  C   UNL A   1      28.571  30.292  22.607  1.00  0.00    -0.021 A 
ATOM     95  C   UNL A   1      28.666  31.444  23.392  1.00  0.00     0.028 A 
ATOM     96  C   UNL A   1      28.258  30.415  21.256  1.00  0.00     0.028 A 
ATOM     97  C   UNL A   1      28.414  32.668  22.798  1.00  0.00     0.111 A 
ATOM     98  C   UNL A   1      28.034  31.687  20.753  1.00  0.00     0.111 A 
ATOM     99  N   UNL A   1      28.105  32.815  21.492  1.00  0.00    -0.265 NA
ENDBRANCH  93  94
ENDBRANCH  78  86
ENDBRANCH  75  78
ENDBRANCH  73  74
ENDBRANCH  72  73
ENDBRANCH   1  72
TORSDOF 18
ENDMDL
MODEL 3
REMARK VINA RESULT:     -13.1      0.701      7.295
REMARK SMILES O=C(NCCCCNC(=O)[C@@H](Cc1ccccc1)N1C(=O)/C(=C/c2ccncc2)SC1=S)c1ccc(-c2c3nc(c(-c4cc(S(=O)(=O)[O-])ccc4F)c4ccc([nH]4)c(-c4cc(S(=O)(=O)[O-])ccc4F)c4nc(c(-c5cc(S(=O)(=O)[O-])ccc5F)c5ccc2[nH]5)C=C4)C=C3)cc1
REMARK SMILES IDX 5 1 4 2 3 3 1 4 2 5 33 7 34 8 95 9 35 10 94 11 36 12 37 13
REMARK SMILES IDX 38 14 88 15 39 16 93 17 87 18 89 19 40 20 92 21 86 22 85 23
REMARK SMILES IDX 41 25 73 26 53 27 72 28 54 29 57 30 71 31 90 32 55 33 56 34
REMARK SMILES IDX 70 36 91 37 58 38 42 39 43 40 51 41 44 42 50 43 52 44 49 45
REMARK SMILES IDX 45 46 46 47 47 48 48 49 74 50 75 51 83 52 76 53 82 54 84 55
REMARK SMILES IDX 81 56 77 57 78 58 79 59 80 60 59 61 60 62 68 63 61 64 67 65
REMARK SMILES IDX 69 66 66 67 62 68 63 69 64 70 65 71 6 72 7 73 8 74 9 75
REMARK SMILES IDX 10 77 11 78 12 79 13 80 14 81 18 82 15 83 17 84 16 85 19 86
REMARK SMILES IDX 20 87 31 88 21 89 22 90 30 91 32 92 23 93 24 94 25 95 29 96
REMARK SMILES IDX 26 97 28 98 27 99
REMARK H PARENT 3 6 89 24 57 35 8 76
REMARK Flexibility Score: inf
ROOT
ATOM      1  C   UNL A   1      35.644  22.096  25.127  1.00  0.00     0.023 C 
ENDROOT
BRANCH   1   2
ATOM      2  C   UNL A   1      37.114  22.269  24.748  1.00  0.00     0.116 C 
BRANCH   2   3
ATOM      3  N   UNL A   1      37.992  21.177  25.158  1.00  0.00    -0.352 N 
ATOM      4  O   UNL A   1      39.763  20.218  26.208  1.00  0.00    -0.269 OA
ATOM      5  C   UNL A   1      39.092  21.222  25.989  1.00  0.00     0.251 C 
ATOM      6  H   UNL A   1      37.769  20.289  24.793  1.00  0.00     0.163 HD
BRANCH   5   7
ATOM      7  C   UNL A   1      39.481  22.522  26.572  1.00  0.00     0.039 A 
ATOM      8  C   UNL A   1      38.865  23.693  26.130  1.00  0.00     0.014 A 
ATOM      9  C   UNL A   1      40.558  22.575  27.457  1.00  0.00     0.014 A 
ATOM     10  C   UNL A   1      39.470  24.915  26.388  1.00  0.00     0.010 A 
ATOM     11  C   UNL A   1      41.091  23.816  27.811  1.00  0.00     0.010 A 
ATOM     12  C   UNL A   1      40.589  24.993  27.231  1.00  0.00    -0.014 A 
BRANCH  12  13
ATOM     13  C   UNL A   1      41.221  26.310  27.502  1.00  0.00     0.031 A 
ATOM     14  C   UNL A   1      42.606  26.622  27.000  1.00  0.00     0.074 A 
ATOM     15  C   UNL A   1      40.534  27.229  28.206  1.00  0.00     0.049 A 
ATOM     16  N   UNL A   1      43.361  27.662  27.245  1.00  0.00    -0.248 NA
ATOM     17  C   UNL A   1      43.229  25.624  26.118  1.00  0.00     0.031 C 
ATOM     18  C   UNL A   1      39.176  27.047  28.727  1.00  0.00     0.029 A 
ATOM     19  N   UNL A   1      40.877  28.494  28.609  1.00  0.00    -0.354 N 
ATOM     20  C   UNL A   1      44.564  27.429  26.583  1.00  0.00     0.074 A 
ATOM     21  C   UNL A   1      44.440  26.134  25.945  1.00  0.00     0.031 C 
ATOM     22  C   UNL A   1      38.794  28.162  29.360  1.00  0.00     0.029 A 
ATOM     23  C   UNL A   1      39.910  29.100  29.374  1.00  0.00     0.049 A 
ATOM     24  H   UNL A   1      41.730  28.924  28.374  1.00  0.00     0.167 HD
ATOM     25  C   UNL A   1      45.663  28.223  26.519  1.00  0.00     0.034 A 
ATOM     26  C   UNL A   1      39.932  30.254  30.067  1.00  0.00     0.034 A 
ATOM     27  C   UNL A   1      45.750  29.519  27.155  1.00  0.00     0.049 A 
ATOM     28  C   UNL A   1      41.171  31.097  30.026  1.00  0.00     0.074 A 
ATOM     29  C   UNL A   1      46.793  30.428  27.127  1.00  0.00     0.029 A 
ATOM     30  N   UNL A   1      44.755  30.087  27.943  1.00  0.00    -0.354 N 
ATOM     31  N   UNL A   1      42.306  30.858  29.411  1.00  0.00    -0.248 NA
ATOM     32  C   UNL A   1      41.136  32.359  30.771  1.00  0.00     0.031 C 
ATOM     33  C   UNL A   1      46.458  31.509  27.950  1.00  0.00     0.029 A 
ATOM     34  C   UNL A   1      45.174  31.315  28.433  1.00  0.00     0.049 A 
ATOM     35  H   UNL A   1      43.879  29.676  28.127  1.00  0.00     0.167 HD
ATOM     36  C   UNL A   1      43.119  31.951  29.683  1.00  0.00     0.074 A 
ATOM     37  C   UNL A   1      42.340  32.851  30.511  1.00  0.00     0.031 C 
ATOM     38  C   UNL A   1      44.391  32.192  29.274  1.00  0.00     0.034 A 
BRANCH  25  39
ATOM     39  C   UNL A   1      46.875  27.682  25.791  1.00  0.00     0.023 A 
ATOM     40  C   UNL A   1      47.169  28.034  24.462  1.00  0.00     0.031 A 
ATOM     41  C   UNL A   1      47.726  26.757  26.425  1.00  0.00     0.131 A 
ATOM     42  C   UNL A   1      48.224  27.402  23.784  1.00  0.00     0.055 A 
ATOM     43  C   UNL A   1      48.826  26.196  25.772  1.00  0.00     0.041 A 
ATOM     44  F   UNL A   1      47.489  26.364  27.687  1.00  0.00    -0.206 F 
ATOM     45  C   UNL A   1      49.068  26.502  24.437  1.00  0.00     0.022 A 
BRANCH  42  46
ATOM     46  S   UNL A   1      48.365  27.638  21.990  1.00  0.00     0.124 S 
ATOM     47  O   UNL A   1      49.513  28.538  21.896  1.00  0.00    -0.237 OA
ATOM     48  O   UNL A   1      48.579  26.279  21.510  1.00  0.00    -0.237 OA
ATOM     49  O   UNL A   1      47.085  28.239  21.621  1.00  0.00    -0.744 OA
ENDBRANCH  42  46
ENDBRANCH  25  39
BRANCH  26  50
ATOM     50  C   UNL A   1      38.757  30.616  30.904  1.00  0.00     0.023 A 
ATOM     51  C   UNL A   1      37.689  31.356  30.380  1.00  0.00     0.031 A 
ATOM     52  C   UNL A   1      38.666  30.163  32.234  1.00  0.00     0.131 A 
ATOM     53  C   UNL A   1      36.574  31.630  31.187  1.00  0.00     0.055 A 
ATOM     54  C   UNL A   1      37.538  30.401  33.018  1.00  0.00     0.041 A 
ATOM     55  F   UNL A   1      39.659  29.436  32.772  1.00  0.00    -0.206 F 
ATOM     56  C   UNL A   1      36.484  31.143  32.495  1.00  0.00     0.022 A 
BRANCH  53  57
ATOM     57  S   UNL A   1      35.239  32.652  30.509  1.00  0.00     0.124 S 
ATOM     58  O   UNL A   1      34.759  31.822  29.409  1.00  0.00    -0.237 OA
ATOM     59  O   UNL A   1      34.343  32.781  31.653  1.00  0.00    -0.237 OA
ATOM     60  O   UNL A   1      35.920  33.882  30.112  1.00  0.00    -0.744 OA
ENDBRANCH  53  57
ENDBRANCH  26  50
BRANCH  38  61
ATOM     61  C   UNL A   1      44.997  33.507  29.684  1.00  0.00     0.023 A 
ATOM     62  C   UNL A   1      44.819  34.674  28.923  1.00  0.00     0.031 A 
ATOM     63  C   UNL A   1      45.763  33.588  30.861  1.00  0.00     0.131 A 
ATOM     64  C   UNL A   1      45.431  35.870  29.330  1.00  0.00     0.055 A 
ATOM     65  C   UNL A   1      46.329  34.791  31.285  1.00  0.00     0.041 A 
ATOM     66  F   UNL A   1      45.964  32.500  31.620  1.00  0.00    -0.206 F 
ATOM     67  C   UNL A   1      46.170  35.938  30.514  1.00  0.00     0.022 A 
BRANCH  64  68
ATOM     68  S   UNL A   1      45.294  37.330  28.262  1.00  0.00     0.124 S 
ATOM     69  O   UNL A   1      46.291  38.223  28.842  1.00  0.00    -0.237 OA
ATOM     70  O   UNL A   1      45.611  36.788  26.945  1.00  0.00    -0.237 OA
ATOM     71  O   UNL A   1      43.905  37.752  28.438  1.00  0.00    -0.744 OA
ENDBRANCH  64  68
ENDBRANCH  38  61
ENDBRANCH  12  13
ENDBRANCH   5   7
ENDBRANCH   2   3
ENDBRANCH   1   2
BRANCH   1  72
ATOM     72  C   UNL A   1      35.060  23.168  26.035  1.00  0.00     0.023 C 
BRANCH  72  73
ATOM     73  C   UNL A   1      34.360  24.296  25.301  1.00  0.00     0.116 C 
BRANCH  73  74
ATOM     74  N   UNL A   1      33.468  25.107  26.085  1.00  0.00    -0.354 N 
ATOM     75  C   UNL A   1      32.143  25.286  25.811  1.00  0.00     0.243 C 
ATOM     76  H   UNL A   1      33.839  25.566  26.873  1.00  0.00     0.163 HD
ATOM     77  O   UNL A   1      31.373  25.304  26.780  1.00  0.00    -0.273 OA
BRANCH  75  78
ATOM     78  C   UNL A   1      31.586  25.448  24.371  1.00  0.00     0.185 C 
BRANCH  78  79
ATOM     79  C   UNL A   1      31.022  24.206  23.621  1.00  0.00     0.071 C 
BRANCH  79  80
ATOM     80  C   UNL A   1      31.528  22.811  23.881  1.00  0.00    -0.045 A 
ATOM     81  C   UNL A   1      32.124  22.075  22.842  1.00  0.00     0.004 A 
ATOM     82  C   UNL A   1      31.394  22.203  25.133  1.00  0.00     0.004 A 
ATOM     83  C   UNL A   1      32.657  20.805  23.079  1.00  0.00     0.000 A 
ATOM     84  C   UNL A   1      31.954  20.946  25.377  1.00  0.00     0.000 A 
ATOM     85  C   UNL A   1      32.599  20.254  24.354  1.00  0.00     0.000 A 
ENDBRANCH  79  80
ENDBRANCH  78  79
BRANCH  78  86
ATOM     86  N   UNL A   1      31.126  26.798  23.926  1.00  0.00    -0.280 N 
ATOM     87  C   UNL A   1      29.751  27.055  23.947  1.00  0.00     0.266 C 
ATOM     88  C   UNL A   1      31.884  27.861  23.476  1.00  0.00     0.149 C 
ATOM     89  O   UNL A   1      28.855  26.294  24.288  1.00  0.00    -0.268 OA
ATOM     90  C   UNL A   1      29.477  28.442  23.492  1.00  0.00     0.081 C 
ATOM     91  S   UNL A   1      30.934  29.335  23.532  1.00  0.00    -0.054 SA
ATOM     92  S   UNL A   1      33.418  27.976  22.858  1.00  0.00    -0.052 S 
ATOM     93  C   UNL A   1      28.293  28.884  23.047  1.00  0.00     0.029 C 
BRANCH  93  94
ATOM     94  C   UNL A   1      28.126  30.245  22.516  1.00  0.00    -0.021 A 
ATOM     95  C   UNL A   1      28.122  30.472  21.137  1.00  0.00     0.028 A 
ATOM     96  C   UNL A   1      28.106  31.334  23.383  1.00  0.00     0.028 A 
ATOM     97  C   UNL A   1      28.128  31.780  20.686  1.00  0.00     0.111 A 
ATOM     98  C   UNL A   1      28.103  32.605  22.832  1.00  0.00     0.111 A 
ATOM     99  N   UNL A   1      28.113  32.853  21.505  1.00  0.00    -0.265 NA
ENDBRANCH  93  94
ENDBRANCH  78  86
ENDBRANCH  75  78
ENDBRANCH  73  74
ENDBRANCH  72  73
ENDBRANCH   1  72
TORSDOF 18
ENDMDL
