MODEL 1
REMARK VINA RESULT:     -11.3      0.000      0.000
REMARK SMILES C[C@@H](C(=O)NCCCCNC(=O)c1ccc(-c2c3nc(c(-c4cc(S(=O)(=O)[O-])ccc4F)c4ccc([nH]4)c(-c4cc(S(=O)(=O)[O-])ccc4F)c4nc(c(-c5cc(S(=O)(=O)[O-])ccc5F)c5ccc2[nH]5)C=C4)C=C3)cc1)[C@H](C)[S@@](=O)c1ccc(F)c(F)c1
REMARK SMILES IDX 7 1 6 2 5 3 3 4 4 5 2 7 1 8 76 9 77 10 78 11 79 12 80 13
REMARK SMILES IDX 81 14 87 15 82 16 85 17 83 18 86 19 84 20 8 21 9 22 10 23
REMARK SMILES IDX 11 24 12 26 13 27 14 28 75 29 15 30 74 31 16 32 17 33 18 34
REMARK SMILES IDX 68 35 19 36 73 37 67 38 69 39 20 40 72 41 66 42 65 43 21 45
REMARK SMILES IDX 53 46 33 47 52 48 34 49 37 50 51 51 70 52 35 53 36 54 50 56
REMARK SMILES IDX 71 57 38 58 22 59 23 60 31 61 24 62 30 63 32 64 29 65 25 66
REMARK SMILES IDX 26 67 27 68 28 69 54 70 55 71 63 72 56 73 62 74 64 75 61 76
REMARK SMILES IDX 57 77 58 78 59 79 60 80 39 81 40 82 48 83 41 84 47 85 49 86
REMARK SMILES IDX 46 87 42 88 43 89 44 90 45 91
REMARK H PARENT 5 6 10 25 69 44 37 55
REMARK Flexibility Score: inf
ROOT
ATOM      1  C   UNL A   1      37.416  20.881  24.488  1.00  0.00     0.023 C 
ENDROOT
BRANCH   1   2
ATOM      2  C   UNL A   1      37.592  22.070  25.434  1.00  0.00     0.116 C 
BRANCH   2   3
ATOM      3  N   UNL A   1      36.469  22.190  26.351  1.00  0.00    -0.356 N 
ATOM      4  C   UNL A   1      35.307  22.895  26.225  1.00  0.00     0.224 C 
ATOM      5  O   UNL A   1      34.569  22.982  27.206  1.00  0.00    -0.275 OA
ATOM      6  H   UNL A   1      36.562  21.683  27.190  1.00  0.00     0.163 HD
BRANCH   4   7
ATOM      7  C   UNL A   1      34.987  23.574  24.898  1.00  0.00     0.091 C 
ATOM      8  C   UNL A   1      34.209  24.856  25.231  1.00  0.00     0.019 C 
BRANCH   7   9
ATOM      9  C   UNL A   1      34.212  22.671  23.904  1.00  0.00     0.093 C 
ATOM     10  C   UNL A   1      33.677  23.355  22.641  1.00  0.00     0.023 C 
BRANCH   9  11
ATOM     11  S   UNL A   1      32.811  21.751  24.733  1.00  0.00     0.057 S 
ATOM     12  O   UNL A   1      31.528  22.079  24.030  1.00  0.00    -0.254 OA
BRANCH  11  13
ATOM     13  C   UNL A   1      33.158  20.038  24.278  1.00  0.00     0.042 A 
ATOM     14  C   UNL A   1      32.325  19.406  23.342  1.00  0.00     0.021 A 
ATOM     15  C   UNL A   1      34.287  19.362  24.753  1.00  0.00     0.060 A 
ATOM     16  C   UNL A   1      32.600  18.104  22.914  1.00  0.00     0.043 A 
ATOM     17  C   UNL A   1      34.537  18.055  24.346  1.00  0.00     0.160 A 
ATOM     18  C   UNL A   1      33.701  17.430  23.429  1.00  0.00     0.158 A 
ATOM     19  F   UNL A   1      35.604  17.410  24.837  1.00  0.00    -0.204 F 
ATOM     20  F   UNL A   1      33.960  16.181  23.020  1.00  0.00    -0.204 F 
ENDBRANCH  11  13
ENDBRANCH   9  11
ENDBRANCH   7   9
ENDBRANCH   4   7
ENDBRANCH   2   3
ENDBRANCH   1   2
BRANCH   1  21
ATOM     21  C   UNL A   1      38.176  19.619  24.902  1.00  0.00     0.023 C 
BRANCH  21  22
ATOM     22  C   UNL A   1      39.054  19.768  26.139  1.00  0.00     0.116 C 
BRANCH  22  23
ATOM     23  N   UNL A   1      40.305  19.034  26.034  1.00  0.00    -0.352 N 
ATOM     24  C   UNL A   1      41.594  19.507  26.098  1.00  0.00     0.251 C 
ATOM     25  H   UNL A   1      40.216  18.062  25.897  1.00  0.00     0.163 HD
ATOM     26  O   UNL A   1      42.531  18.759  25.834  1.00  0.00    -0.269 OA
BRANCH  24  27
ATOM     27  C   UNL A   1      41.840  20.924  26.448  1.00  0.00     0.039 A 
ATOM     28  C   UNL A   1      42.314  21.229  27.725  1.00  0.00     0.014 A 
ATOM     29  C   UNL A   1      41.628  21.943  25.514  1.00  0.00     0.014 A 
ATOM     30  C   UNL A   1      42.644  22.548  28.043  1.00  0.00     0.010 A 
ATOM     31  C   UNL A   1      42.027  23.244  25.809  1.00  0.00     0.010 A 
ATOM     32  C   UNL A   1      42.544  23.561  27.074  1.00  0.00    -0.014 A 
BRANCH  32  33
ATOM     33  C   UNL A   1      42.988  24.951  27.366  1.00  0.00     0.031 A 
ATOM     34  C   UNL A   1      42.052  25.923  28.031  1.00  0.00     0.074 A 
ATOM     35  C   UNL A   1      44.216  25.350  26.977  1.00  0.00     0.049 A 
ATOM     36  N   UNL A   1      42.234  27.188  28.309  1.00  0.00    -0.248 NA
ATOM     37  C   UNL A   1      40.726  25.410  28.407  1.00  0.00     0.031 C 
ATOM     38  C   UNL A   1      45.198  24.512  26.285  1.00  0.00     0.029 A 
ATOM     39  N   UNL A   1      44.849  26.563  27.101  1.00  0.00    -0.354 N 
ATOM     40  C   UNL A   1      41.046  27.626  28.886  1.00  0.00     0.074 A 
ATOM     41  C   UNL A   1      40.131  26.504  28.857  1.00  0.00     0.031 C 
ATOM     42  C   UNL A   1      46.314  25.226  26.071  1.00  0.00     0.029 A 
ATOM     43  C   UNL A   1      46.115  26.584  26.564  1.00  0.00     0.049 A 
ATOM     44  H   UNL A   1      44.434  27.344  27.534  1.00  0.00     0.167 HD
ATOM     45  C   UNL A   1      40.755  28.842  29.411  1.00  0.00     0.034 A 
ATOM     46  C   UNL A   1      47.012  27.587  26.468  1.00  0.00     0.034 A 
ATOM     47  C   UNL A   1      41.683  29.947  29.440  1.00  0.00     0.049 A 
ATOM     48  C   UNL A   1      46.653  28.939  27.035  1.00  0.00     0.074 A 
ATOM     49  C   UNL A   1      41.510  31.203  29.994  1.00  0.00     0.029 A 
ATOM     50  N   UNL A   1      42.957  29.934  28.885  1.00  0.00    -0.354 N 
ATOM     51  N   UNL A   1      45.543  29.319  27.626  1.00  0.00    -0.248 NA
ATOM     52  C   UNL A   1      47.672  29.990  26.933  1.00  0.00     0.031 C 
ATOM     53  C   UNL A   1      42.646  31.969  29.713  1.00  0.00     0.029 A 
ATOM     54  C   UNL A   1      43.565  31.168  29.054  1.00  0.00     0.049 A 
ATOM     55  H   UNL A   1      43.368  29.160  28.436  1.00  0.00     0.167 HD
ATOM     56  C   UNL A   1      45.746  30.647  27.993  1.00  0.00     0.074 A 
ATOM     57  C   UNL A   1      47.090  30.992  27.576  1.00  0.00     0.031 C 
ATOM     58  C   UNL A   1      44.901  31.504  28.622  1.00  0.00     0.034 A 
BRANCH  45  59
ATOM     59  C   UNL A   1      39.369  29.042  29.976  1.00  0.00     0.023 A 
ATOM     60  C   UNL A   1      38.363  29.706  29.251  1.00  0.00     0.031 A 
ATOM     61  C   UNL A   1      39.050  28.578  31.265  1.00  0.00     0.131 A 
ATOM     62  C   UNL A   1      37.115  29.948  29.843  1.00  0.00     0.055 A 
ATOM     63  C   UNL A   1      37.780  28.751  31.818  1.00  0.00     0.041 A 
ATOM     64  F   UNL A   1      39.974  27.957  32.016  1.00  0.00    -0.206 F 
ATOM     65  C   UNL A   1      36.807  29.453  31.111  1.00  0.00     0.022 A 
BRANCH  62  66
ATOM     66  S   UNL A   1      35.947  31.040  28.986  1.00  0.00     0.124 S 
ATOM     67  O   UNL A   1      36.848  31.854  28.173  1.00  0.00    -0.237 OA
ATOM     68  O   UNL A   1      35.108  30.096  28.259  1.00  0.00    -0.237 OA
ATOM     69  O   UNL A   1      35.286  31.756  30.075  1.00  0.00    -0.744 OA
ENDBRANCH  62  66
ENDBRANCH  45  59
BRANCH  46  70
ATOM     70  C   UNL A   1      48.328  27.369  25.802  1.00  0.00     0.023 A 
ATOM     71  C   UNL A   1      48.472  27.536  24.415  1.00  0.00     0.031 A 
ATOM     72  C   UNL A   1      49.449  26.936  26.532  1.00  0.00     0.131 A 
ATOM     73  C   UNL A   1      49.691  27.220  23.794  1.00  0.00     0.055 A 
ATOM     74  C   UNL A   1      50.676  26.678  25.918  1.00  0.00     0.041 A 
ATOM     75  F   UNL A   1      49.368  26.763  27.861  1.00  0.00    -0.206 F 
ATOM     76  C   UNL A   1      50.798  26.805  24.538  1.00  0.00     0.022 A 
BRANCH  73  77
ATOM     77  S   UNL A   1      49.778  27.261  21.983  1.00  0.00     0.124 S 
ATOM     78  O   UNL A   1      48.775  26.269  21.615  1.00  0.00    -0.237 OA
ATOM     79  O   UNL A   1      49.443  28.652  21.695  1.00  0.00    -0.237 OA
ATOM     80  O   UNL A   1      51.162  26.885  21.701  1.00  0.00    -0.744 OA
ENDBRANCH  73  77
ENDBRANCH  46  70
BRANCH  58  81
ATOM     81  C   UNL A   1      45.431  32.884  28.932  1.00  0.00     0.023 A 
ATOM     82  C   UNL A   1      45.204  33.974  28.073  1.00  0.00     0.031 A 
ATOM     83  C   UNL A   1      46.189  33.105  30.095  1.00  0.00     0.131 A 
ATOM     84  C   UNL A   1      45.784  35.219  28.357  1.00  0.00     0.055 A 
ATOM     85  C   UNL A   1      46.709  34.362  30.405  1.00  0.00     0.041 A 
ATOM     86  F   UNL A   1      46.440  32.100  30.949  1.00  0.00    -0.206 F 
ATOM     87  C   UNL A   1      46.519  35.426  29.526  1.00  0.00     0.022 A 
BRANCH  84  88
ATOM     88  S   UNL A   1      45.648  36.544  27.126  1.00  0.00     0.124 S 
ATOM     89  O   UNL A   1      46.360  37.638  27.778  1.00  0.00    -0.237 OA
ATOM     90  O   UNL A   1      46.306  35.959  25.963  1.00  0.00    -0.237 OA
ATOM     91  O   UNL A   1      44.205  36.738  26.987  1.00  0.00    -0.744 OA
ENDBRANCH  84  88
ENDBRANCH  58  81
ENDBRANCH  32  33
ENDBRANCH  24  27
ENDBRANCH  22  23
ENDBRANCH  21  22
ENDBRANCH   1  21
TORSDOF 17
ENDMDL
MODEL 2
REMARK VINA RESULT:     -10.9      5.397      8.422
REMARK SMILES C[C@@H](C(=O)NCCCCNC(=O)c1ccc(-c2c3nc(c(-c4cc(S(=O)(=O)[O-])ccc4F)c4ccc([nH]4)c(-c4cc(S(=O)(=O)[O-])ccc4F)c4nc(c(-c5cc(S(=O)(=O)[O-])ccc5F)c5ccc2[nH]5)C=C4)C=C3)cc1)[C@H](C)[S@@](=O)c1ccc(F)c(F)c1
REMARK SMILES IDX 7 1 6 2 5 3 3 4 4 5 2 7 1 8 76 9 77 10 78 11 79 12 80 13
REMARK SMILES IDX 81 14 87 15 82 16 85 17 83 18 86 19 84 20 8 21 9 22 10 23
REMARK SMILES IDX 11 24 12 26 13 27 14 28 75 29 15 30 74 31 16 32 17 33 18 34
REMARK SMILES IDX 68 35 19 36 73 37 67 38 69 39 20 40 72 41 66 42 65 43 21 45
REMARK SMILES IDX 53 46 33 47 52 48 34 49 37 50 51 51 70 52 35 53 36 54 50 56
REMARK SMILES IDX 71 57 38 58 22 59 23 60 31 61 24 62 30 63 32 64 29 65 25 66
REMARK SMILES IDX 26 67 27 68 28 69 54 70 55 71 63 72 56 73 62 74 64 75 61 76
REMARK SMILES IDX 57 77 58 78 59 79 60 80 39 81 40 82 48 83 41 84 47 85 49 86
REMARK SMILES IDX 46 87 42 88 43 89 44 90 45 91
REMARK H PARENT 5 6 10 25 69 44 37 55
REMARK Flexibility Score: inf
ROOT
ATOM      1  C   UNL A   1      32.111  28.294  27.201  1.00  0.00     0.023 C 
ENDROOT
BRANCH   1   2
ATOM      2  C   UNL A   1      31.028  27.547  26.421  1.00  0.00     0.116 C 
BRANCH   2   3
ATOM      3  N   UNL A   1      30.901  26.171  26.876  1.00  0.00    -0.356 N 
ATOM      4  C   UNL A   1      31.113  25.002  26.202  1.00  0.00     0.224 C 
ATOM      5  O   UNL A   1      30.781  23.949  26.744  1.00  0.00    -0.275 OA
ATOM      6  H   UNL A   1      30.620  26.067  27.814  1.00  0.00     0.163 HD
BRANCH   4   7
ATOM      7  C   UNL A   1      31.712  25.048  24.801  1.00  0.00     0.091 C 
ATOM      8  C   UNL A   1      30.642  24.505  23.842  1.00  0.00     0.019 C 
BRANCH   7   9
ATOM      9  C   UNL A   1      33.051  24.276  24.667  1.00  0.00     0.093 C 
ATOM     10  C   UNL A   1      34.330  25.103  24.837  1.00  0.00     0.023 C 
BRANCH   9  11
ATOM     11  S   UNL A   1      33.156  23.320  23.064  1.00  0.00     0.057 S 
ATOM     12  O   UNL A   1      34.441  23.666  22.373  1.00  0.00    -0.254 OA
BRANCH  11  13
ATOM     13  C   UNL A   1      33.391  21.626  23.646  1.00  0.00     0.042 A 
ATOM     14  C   UNL A   1      34.487  21.343  24.475  1.00  0.00     0.021 A 
ATOM     15  C   UNL A   1      32.460  20.617  23.377  1.00  0.00     0.060 A 
ATOM     16  C   UNL A   1      34.666  20.060  25.000  1.00  0.00     0.043 A 
ATOM     17  C   UNL A   1      32.662  19.334  23.877  1.00  0.00     0.160 A 
ATOM     18  C   UNL A   1      33.756  19.057  24.687  1.00  0.00     0.158 A 
ATOM     19  F   UNL A   1      31.779  18.370  23.582  1.00  0.00    -0.204 F 
ATOM     20  F   UNL A   1      33.933  17.828  25.189  1.00  0.00    -0.204 F 
ENDBRANCH  11  13
ENDBRANCH   9  11
ENDBRANCH   7   9
ENDBRANCH   4   7
ENDBRANCH   2   3
ENDBRANCH   1   2
BRANCH   1  21
ATOM     21  C   UNL A   1      33.542  27.995  26.751  1.00  0.00     0.023 C 
BRANCH  21  22
ATOM     22  C   UNL A   1      34.269  29.157  26.084  1.00  0.00     0.116 C 
BRANCH  22  23
ATOM     23  N   UNL A   1      33.841  30.452  26.587  1.00  0.00    -0.352 N 
ATOM     24  C   UNL A   1      34.366  31.197  27.616  1.00  0.00     0.251 C 
ATOM     25  H   UNL A   1      33.067  30.851  26.126  1.00  0.00     0.163 HD
ATOM     26  O   UNL A   1      33.776  32.203  28.001  1.00  0.00    -0.269 OA
BRANCH  24  27
ATOM     27  C   UNL A   1      35.617  30.761  28.276  1.00  0.00     0.039 A 
ATOM     28  C   UNL A   1      35.541  29.830  29.313  1.00  0.00     0.014 A 
ATOM     29  C   UNL A   1      36.858  31.251  27.859  1.00  0.00     0.014 A 
ATOM     30  C   UNL A   1      36.715  29.334  29.884  1.00  0.00     0.010 A 
ATOM     31  C   UNL A   1      38.028  30.701  28.378  1.00  0.00     0.010 A 
ATOM     32  C   UNL A   1      37.970  29.732  29.393  1.00  0.00    -0.014 A 
BRANCH  32  33
ATOM     33  C   UNL A   1      39.226  29.136  29.920  1.00  0.00     0.031 A 
ATOM     34  C   UNL A   1      39.898  29.730  31.128  1.00  0.00     0.074 A 
ATOM     35  C   UNL A   1      39.790  28.097  29.273  1.00  0.00     0.049 A 
ATOM     36  N   UNL A   1      41.027  29.391  31.696  1.00  0.00    -0.248 NA
ATOM     37  C   UNL A   1      39.225  30.873  31.764  1.00  0.00     0.031 C 
ATOM     38  C   UNL A   1      39.256  27.462  28.066  1.00  0.00     0.029 A 
ATOM     39  N   UNL A   1      40.940  27.392  29.533  1.00  0.00    -0.354 N 
ATOM     40  C   UNL A   1      41.205  30.281  32.751  1.00  0.00     0.074 A 
ATOM     41  C   UNL A   1      40.098  31.212  32.700  1.00  0.00     0.031 C 
ATOM     42  C   UNL A   1      40.060  26.449  27.707  1.00  0.00     0.029 A 
ATOM     43  C   UNL A   1      41.191  26.388  28.625  1.00  0.00     0.049 A 
ATOM     44  H   UNL A   1      41.530  27.587  30.297  1.00  0.00     0.167 HD
ATOM     45  C   UNL A   1      42.186  30.304  33.687  1.00  0.00     0.034 A 
ATOM     46  C   UNL A   1      42.223  25.524  28.537  1.00  0.00     0.034 A 
ATOM     47  C   UNL A   1      43.278  29.361  33.728  1.00  0.00     0.049 A 
ATOM     48  C   UNL A   1      43.317  25.588  29.573  1.00  0.00     0.074 A 
ATOM     49  C   UNL A   1      44.295  29.261  34.661  1.00  0.00     0.029 A 
ATOM     50  N   UNL A   1      43.502  28.359  32.792  1.00  0.00    -0.354 N 
ATOM     51  N   UNL A   1      43.440  26.403  30.596  1.00  0.00    -0.248 NA
ATOM     52  C   UNL A   1      44.403  24.608  29.451  1.00  0.00     0.031 C 
ATOM     53  C   UNL A   1      45.170  28.250  34.253  1.00  0.00     0.029 A 
ATOM     54  C   UNL A   1      44.658  27.660  33.108  1.00  0.00     0.049 A 
ATOM     55  H   UNL A   1      42.925  28.172  32.017  1.00  0.00     0.167 HD
ATOM     56  C   UNL A   1      44.602  26.011  31.255  1.00  0.00     0.074 A 
ATOM     57  C   UNL A   1      45.128  24.875  30.526  1.00  0.00     0.031 C 
ATOM     58  C   UNL A   1      45.180  26.537  32.365  1.00  0.00     0.034 A 
BRANCH  45  59
ATOM     59  C   UNL A   1      42.130  31.397  34.728  1.00  0.00     0.023 A 
ATOM     60  C   UNL A   1      41.114  31.442  35.699  1.00  0.00     0.031 A 
ATOM     61  C   UNL A   1      43.097  32.418  34.742  1.00  0.00     0.131 A 
ATOM     62  C   UNL A   1      41.047  32.520  36.595  1.00  0.00     0.055 A 
ATOM     63  C   UNL A   1      43.072  33.445  35.688  1.00  0.00     0.041 A 
ATOM     64  F   UNL A   1      44.080  32.443  33.827  1.00  0.00    -0.206 F 
ATOM     65  C   UNL A   1      42.033  33.508  36.613  1.00  0.00     0.022 A 
BRANCH  62  66
ATOM     66  S   UNL A   1      39.576  32.685  37.642  1.00  0.00     0.124 S 
ATOM     67  O   UNL A   1      40.148  32.539  38.979  1.00  0.00    -0.237 OA
ATOM     68  O   UNL A   1      39.092  34.016  37.297  1.00  0.00    -0.237 OA
ATOM     69  O   UNL A   1      38.724  31.579  37.213  1.00  0.00    -0.744 OA
ENDBRANCH  62  66
ENDBRANCH  45  59
BRANCH  46  70
ATOM     70  C   UNL A   1      42.289  24.532  27.425  1.00  0.00     0.023 A 
ATOM     71  C   UNL A   1      41.508  23.365  27.449  1.00  0.00     0.031 A 
ATOM     72  C   UNL A   1      43.174  24.708  26.345  1.00  0.00     0.131 A 
ATOM     73  C   UNL A   1      41.667  22.394  26.448  1.00  0.00     0.055 A 
ATOM     74  C   UNL A   1      43.286  23.767  25.321  1.00  0.00     0.041 A 
ATOM     75  F   UNL A   1      43.941  25.808  26.269  1.00  0.00    -0.206 F 
ATOM     76  C   UNL A   1      42.541  22.594  25.376  1.00  0.00     0.022 A 
BRANCH  73  77
ATOM     77  S   UNL A   1      40.787  20.818  26.620  1.00  0.00     0.124 S 
ATOM     78  O   UNL A   1      40.779  20.640  28.067  1.00  0.00    -0.237 OA
ATOM     79  O   UNL A   1      39.500  21.121  26.003  1.00  0.00    -0.237 OA
ATOM     80  O   UNL A   1      41.626  19.877  25.879  1.00  0.00    -0.744 OA
ENDBRANCH  73  77
ENDBRANCH  46  70
BRANCH  58  81
ATOM     81  C   UNL A   1      46.427  25.856  32.876  1.00  0.00     0.023 A 
ATOM     82  C   UNL A   1      46.367  24.805  33.808  1.00  0.00     0.031 A 
ATOM     83  C   UNL A   1      47.695  26.280  32.439  1.00  0.00     0.131 A 
ATOM     84  C   UNL A   1      47.552  24.256  34.320  1.00  0.00     0.055 A 
ATOM     85  C   UNL A   1      48.869  25.685  32.903  1.00  0.00     0.041 A 
ATOM     86  F   UNL A   1      47.812  27.281  31.552  1.00  0.00    -0.206 F 
ATOM     87  C   UNL A   1      48.802  24.676  33.860  1.00  0.00     0.022 A 
BRANCH  84  88
ATOM     88  S   UNL A   1      47.442  23.051  35.671  1.00  0.00     0.124 S 
ATOM     89  O   UNL A   1      46.073  23.244  36.138  1.00  0.00    -0.237 OA
ATOM     90  O   UNL A   1      47.710  21.790  34.988  1.00  0.00    -0.237 OA
ATOM     91  O   UNL A   1      48.482  23.483  36.603  1.00  0.00    -0.744 OA
ENDBRANCH  84  88
ENDBRANCH  58  81
ENDBRANCH  32  33
ENDBRANCH  24  27
ENDBRANCH  22  23
ENDBRANCH  21  22
ENDBRANCH   1  21
TORSDOF 17
ENDMDL
MODEL 3
REMARK VINA RESULT:     -10.9      6.468     11.341
REMARK SMILES C[C@@H](C(=O)NCCCCNC(=O)c1ccc(-c2c3nc(c(-c4cc(S(=O)(=O)[O-])ccc4F)c4ccc([nH]4)c(-c4cc(S(=O)(=O)[O-])ccc4F)c4nc(c(-c5cc(S(=O)(=O)[O-])ccc5F)c5ccc2[nH]5)C=C4)C=C3)cc1)[C@H](C)[S@@](=O)c1ccc(F)c(F)c1
REMARK SMILES IDX 7 1 6 2 5 3 3 4 4 5 2 7 1 8 76 9 77 10 78 11 79 12 80 13
REMARK SMILES IDX 81 14 87 15 82 16 85 17 83 18 86 19 84 20 8 21 9 22 10 23
REMARK SMILES IDX 11 24 12 26 13 27 14 28 75 29 15 30 74 31 16 32 17 33 18 34
REMARK SMILES IDX 68 35 19 36 73 37 67 38 69 39 20 40 72 41 66 42 65 43 21 45
REMARK SMILES IDX 53 46 33 47 52 48 34 49 37 50 51 51 70 52 35 53 36 54 50 56
REMARK SMILES IDX 71 57 38 58 22 59 23 60 31 61 24 62 30 63 32 64 29 65 25 66
REMARK SMILES IDX 26 67 27 68 28 69 54 70 55 71 63 72 56 73 62 74 64 75 61 76
REMARK SMILES IDX 57 77 58 78 59 79 60 80 39 81 40 82 48 83 41 84 47 85 49 86
REMARK SMILES IDX 46 87 42 88 43 89 44 90 45 91
REMARK H PARENT 5 6 10 25 69 44 37 55
REMARK Flexibility Score: inf
ROOT
ATOM      1  C   UNL A   1      31.849  30.321  26.469  1.00  0.00     0.023 C 
ENDROOT
BRANCH   1   2
ATOM      2  C   UNL A   1      31.451  29.722  25.118  1.00  0.00     0.116 C 
BRANCH   2   3
ATOM      3  N   UNL A   1      32.607  29.553  24.252  1.00  0.00    -0.356 N 
ATOM      4  C   UNL A   1      33.426  28.473  24.084  1.00  0.00     0.224 C 
ATOM      5  O   UNL A   1      34.447  28.615  23.414  1.00  0.00    -0.275 OA
ATOM      6  H   UNL A   1      32.833  30.338  23.701  1.00  0.00     0.163 HD
BRANCH   4   7
ATOM      7  C   UNL A   1      33.066  27.154  24.757  1.00  0.00     0.091 C 
ATOM      8  C   UNL A   1      33.825  27.114  26.092  1.00  0.00     0.019 C 
BRANCH   7   9
ATOM      9  C   UNL A   1      33.367  25.905  23.887  1.00  0.00     0.093 C 
ATOM     10  C   UNL A   1      32.769  25.903  22.476  1.00  0.00     0.023 C 
BRANCH   9  11
ATOM     11  S   UNL A   1      32.892  24.314  24.748  1.00  0.00     0.057 S 
ATOM     12  O   UNL A   1      32.113  23.458  23.796  1.00  0.00    -0.254 OA
BRANCH  11  13
ATOM     13  C   UNL A   1      34.486  23.482  24.916  1.00  0.00     0.042 A 
ATOM     14  C   UNL A   1      34.549  22.097  24.700  1.00  0.00     0.021 A 
ATOM     15  C   UNL A   1      35.668  24.191  25.153  1.00  0.00     0.060 A 
ATOM     16  C   UNL A   1      35.775  21.427  24.754  1.00  0.00     0.043 A 
ATOM     17  C   UNL A   1      36.880  23.513  25.237  1.00  0.00     0.160 A 
ATOM     18  C   UNL A   1      36.935  22.140  25.035  1.00  0.00     0.158 A 
ATOM     19  F   UNL A   1      37.999  24.202  25.499  1.00  0.00    -0.204 F 
ATOM     20  F   UNL A   1      38.108  21.494  25.090  1.00  0.00    -0.204 F 
ENDBRANCH  11  13
ENDBRANCH   9  11
ENDBRANCH   7   9
ENDBRANCH   4   7
ENDBRANCH   2   3
ENDBRANCH   1   2
BRANCH   1  21
ATOM     21  C   UNL A   1      31.794  31.848  26.530  1.00  0.00     0.023 C 
BRANCH  21  22
ATOM     22  C   UNL A   1      32.859  32.501  27.402  1.00  0.00     0.116 C 
BRANCH  22  23
ATOM     23  N   UNL A   1      32.582  33.903  27.676  1.00  0.00    -0.352 N 
ATOM     24  C   UNL A   1      33.166  34.734  28.602  1.00  0.00     0.251 C 
ATOM     25  H   UNL A   1      31.879  34.312  27.122  1.00  0.00     0.163 HD
ATOM     26  O   UNL A   1      32.696  35.852  28.797  1.00  0.00    -0.269 OA
BRANCH  24  27
ATOM     27  C   UNL A   1      34.332  34.263  29.382  1.00  0.00     0.039 A 
ATOM     28  C   UNL A   1      34.110  33.615  30.599  1.00  0.00     0.014 A 
ATOM     29  C   UNL A   1      35.634  34.440  28.906  1.00  0.00     0.014 A 
ATOM     30  C   UNL A   1      35.190  33.079  31.303  1.00  0.00     0.010 A 
ATOM     31  C   UNL A   1      36.700  33.840  29.572  1.00  0.00     0.010 A 
ATOM     32  C   UNL A   1      36.490  33.149  30.775  1.00  0.00    -0.014 A 
BRANCH  32  33
ATOM     33  C   UNL A   1      37.635  32.493  31.462  1.00  0.00     0.031 A 
ATOM     34  C   UNL A   1      38.353  31.343  30.810  1.00  0.00     0.074 A 
ATOM     35  C   UNL A   1      37.988  32.899  32.699  1.00  0.00     0.049 A 
ATOM     36  N   UNL A   1      39.329  30.607  31.276  1.00  0.00    -0.248 NA
ATOM     37  C   UNL A   1      37.893  30.953  29.469  1.00  0.00     0.031 C 
ATOM     38  C   UNL A   1      37.340  33.975  33.452  1.00  0.00     0.029 A 
ATOM     39  N   UNL A   1      38.974  32.454  33.545  1.00  0.00    -0.354 N 
ATOM     40  C   UNL A   1      39.597  29.662  30.291  1.00  0.00     0.074 A 
ATOM     41  C   UNL A   1      38.635  29.882  29.231  1.00  0.00     0.031 C 
ATOM     42  C   UNL A   1      37.960  34.123  34.633  1.00  0.00     0.029 A 
ATOM     43  C   UNL A   1      39.017  33.124  34.746  1.00  0.00     0.049 A 
ATOM     44  H   UNL A   1      39.591  31.721  33.314  1.00  0.00     0.167 HD
ATOM     45  C   UNL A   1      40.567  28.715  30.262  1.00  0.00     0.034 A 
ATOM     46  C   UNL A   1      39.813  32.948  35.821  1.00  0.00     0.034 A 
ATOM     47  C   UNL A   1      41.524  28.515  31.325  1.00  0.00     0.049 A 
ATOM     48  C   UNL A   1      40.867  31.869  35.776  1.00  0.00     0.074 A 
ATOM     49  C   UNL A   1      42.580  27.622  31.377  1.00  0.00     0.029 A 
ATOM     50  N   UNL A   1      41.538  29.211  32.527  1.00  0.00    -0.354 N 
ATOM     51  N   UNL A   1      41.140  31.020  34.813  1.00  0.00    -0.248 NA
ATOM     52  C   UNL A   1      41.726  31.735  36.959  1.00  0.00     0.031 C 
ATOM     53  C   UNL A   1      43.186  27.728  32.632  1.00  0.00     0.029 A 
ATOM     54  C   UNL A   1      42.562  28.744  33.338  1.00  0.00     0.049 A 
ATOM     55  H   UNL A   1      40.911  29.931  32.769  1.00  0.00     0.167 HD
ATOM     56  C   UNL A   1      42.225  30.272  35.263  1.00  0.00     0.074 A 
ATOM     57  C   UNL A   1      42.566  30.786  36.574  1.00  0.00     0.031 C 
ATOM     58  C   UNL A   1      42.883  29.256  34.650  1.00  0.00     0.034 A 
BRANCH  45  59
ATOM     59  C   UNL A   1      40.626  27.813  29.053  1.00  0.00     0.023 A 
ATOM     60  C   UNL A   1      41.574  28.007  28.031  1.00  0.00     0.031 A 
ATOM     61  C   UNL A   1      39.714  26.753  28.908  1.00  0.00     0.131 A 
ATOM     62  C   UNL A   1      41.542  27.202  26.883  1.00  0.00     0.055 A 
ATOM     63  C   UNL A   1      39.739  25.903  27.800  1.00  0.00     0.041 A 
ATOM     64  F   UNL A   1      38.771  26.530  29.838  1.00  0.00    -0.206 F 
ATOM     65  C   UNL A   1      40.649  26.135  26.772  1.00  0.00     0.022 A 
BRANCH  62  66
ATOM     66  S   UNL A   1      42.593  27.657  25.477  1.00  0.00     0.124 S 
ATOM     67  O   UNL A   1      42.468  26.479  24.622  1.00  0.00    -0.237 OA
ATOM     68  O   UNL A   1      41.954  28.872  24.987  1.00  0.00    -0.237 OA
ATOM     69  O   UNL A   1      43.910  27.843  26.080  1.00  0.00    -0.744 OA
ENDBRANCH  62  66
ENDBRANCH  45  59
BRANCH  46  70
ATOM     70  C   UNL A   1      39.643  33.793  37.037  1.00  0.00     0.023 A 
ATOM     71  C   UNL A   1      40.482  34.894  37.276  1.00  0.00     0.031 A 
ATOM     72  C   UNL A   1      38.675  33.482  38.009  1.00  0.00     0.131 A 
ATOM     73  C   UNL A   1      40.376  35.609  38.480  1.00  0.00     0.055 A 
ATOM     74  C   UNL A   1      38.534  34.232  39.178  1.00  0.00     0.041 A 
ATOM     75  F   UNL A   1      37.843  32.443  37.831  1.00  0.00    -0.206 F 
ATOM     76  C   UNL A   1      39.398  35.294  39.426  1.00  0.00     0.022 A 
BRANCH  73  77
ATOM     77  S   UNL A   1      41.602  36.896  38.836  1.00  0.00     0.124 S 
ATOM     78  O   UNL A   1      42.211  37.096  37.526  1.00  0.00    -0.237 OA
ATOM     79  O   UNL A   1      40.765  37.985  39.328  1.00  0.00    -0.237 OA
ATOM     80  O   UNL A   1      42.466  36.275  39.838  1.00  0.00    -0.744 OA
ENDBRANCH  73  77
ENDBRANCH  46  70
BRANCH  58  81
ATOM     81  C   UNL A   1      44.067  28.667  35.379  1.00  0.00     0.023 A 
ATOM     82  C   UNL A   1      43.917  27.629  36.316  1.00  0.00     0.031 A 
ATOM     83  C   UNL A   1      45.361  29.165  35.147  1.00  0.00     0.131 A 
ATOM     84  C   UNL A   1      45.032  27.168  37.032  1.00  0.00     0.055 A 
ATOM     85  C   UNL A   1      46.475  28.657  35.815  1.00  0.00     0.041 A 
ATOM     86  F   UNL A   1      45.563  30.158  34.265  1.00  0.00    -0.206 F 
ATOM     87  C   UNL A   1      46.312  27.662  36.774  1.00  0.00     0.022 A 
BRANCH  84  88
ATOM     88  S   UNL A   1      44.771  25.980  38.378  1.00  0.00     0.124 S 
ATOM     89  O   UNL A   1      44.827  24.705  37.672  1.00  0.00    -0.237 OA
ATOM     90  O   UNL A   1      45.892  26.266  39.267  1.00  0.00    -0.237 OA
ATOM     91  O   UNL A   1      43.456  26.341  38.906  1.00  0.00    -0.744 OA
ENDBRANCH  84  88
ENDBRANCH  58  81
ENDBRANCH  32  33
ENDBRANCH  24  27
ENDBRANCH  22  23
ENDBRANCH  21  22
ENDBRANCH   1  21
TORSDOF 17
ENDMDL
