MODEL 1
REMARK VINA RESULT:     -12.4      0.000      0.000
REMARK SMILES O=C(NCCCCNC(=O)c1ccc(-c2c3nc(c(-c4cc(S(=O)(=O)[O-])ccc4F)c4ccc([nH]4)c(-c4cc(S(=O)(=O)[O-])ccc4F)c4nc(c(-c5cc(S(=O)(=O)[O-])ccc5F)c5ccc2[nH]5)C=C4)C=C3)cc1)C1=Cc2cc(C(F)(F)F)ccc2O[C@@H]1C(F)(F)F
REMARK SMILES IDX 6 1 5 2 4 3 3 4 1 5 2 6 74 8 75 9 87 10 76 11 86 12 77 13
REMARK SMILES IDX 85 14 78 15 84 16 83 17 88 18 89 19 90 20 91 21 79 22 80 23
REMARK SMILES IDX 81 24 82 25 7 26 8 27 9 28 10 30 11 31 12 32 73 33 13 34
REMARK SMILES IDX 72 35 14 36 15 37 16 38 66 39 17 40 71 41 65 42 67 43 18 44
REMARK SMILES IDX 70 45 64 46 63 47 19 49 51 50 31 51 50 52 32 53 35 54 49 55
REMARK SMILES IDX 68 56 33 57 34 58 48 60 69 61 36 62 20 63 21 64 29 65 22 66
REMARK SMILES IDX 28 67 30 68 27 69 23 70 24 71 25 72 26 73 52 74 53 75 61 76
REMARK SMILES IDX 54 77 60 78 62 79 59 80 55 81 56 82 57 83 58 84 37 85 38 86
REMARK SMILES IDX 46 87 39 88 45 89 47 90 44 91 40 92 41 93 42 94 43 95
REMARK H PARENT 3 7 8 29 67 48 35 59
REMARK Flexibility Score: inf
ROOT
ATOM      1  C   UNL A   1      31.351  31.663  26.855  1.00  0.00     0.023 C 
ENDROOT
BRANCH   1   2
ATOM      2  C   UNL A   1      31.692  30.323  26.196  1.00  0.00     0.023 C 
BRANCH   2   3
ATOM      3  C   UNL A   1      32.258  29.280  27.165  1.00  0.00     0.116 C 
BRANCH   3   4
ATOM      4  N   UNL A   1      31.595  27.979  27.082  1.00  0.00    -0.352 N 
ATOM      5  O   UNL A   1      31.444  25.752  26.766  1.00  0.00    -0.270 OA
ATOM      6  C   UNL A   1      31.950  26.821  26.439  1.00  0.00     0.251 C 
ATOM      7  H   UNL A   1      30.743  27.924  27.574  1.00  0.00     0.163 HD
BRANCH   6   8
ATOM      8  C   UNL A   1      33.008  26.833  25.399  1.00  0.00     0.067 C 
ATOM      9  C   UNL A   1      34.140  26.163  25.637  1.00  0.00     0.025 C 
ATOM     10  C   UNL A   1      32.546  27.077  23.991  1.00  0.00     0.314 C 
ATOM     11  C   UNL A   1      34.434  25.110  24.677  1.00  0.00     0.018 A 
ATOM     12  O   UNL A   1      32.762  25.947  23.105  1.00  0.00    -0.475 OA
ATOM     13  C   UNL A   1      35.206  24.031  25.120  1.00  0.00     0.025 A 
ATOM     14  C   UNL A   1      33.667  25.001  23.510  1.00  0.00     0.128 A 
ATOM     15  C   UNL A   1      35.152  22.804  24.443  1.00  0.00     0.056 A 
ATOM     16  C   UNL A   1      33.677  23.812  22.786  1.00  0.00     0.048 A 
ATOM     17  C   UNL A   1      34.397  22.711  23.262  1.00  0.00     0.017 A 
BRANCH  10  18
ATOM     18  C   UNL A   1      33.243  28.334  23.432  1.00  0.00     0.429 C 
ATOM     19  F   UNL A   1      34.187  28.009  22.515  1.00  0.00    -0.167 F 
ATOM     20  F   UNL A   1      32.375  29.172  22.817  1.00  0.00    -0.167 F 
ATOM     21  F   UNL A   1      33.863  29.054  24.401  1.00  0.00    -0.167 F 
ENDBRANCH  10  18
BRANCH  15  22
ATOM     22  C   UNL A   1      35.849  21.598  25.025  1.00  0.00     0.416 C 
ATOM     23  F   UNL A   1      35.314  20.428  24.590  1.00  0.00    -0.166 F 
ATOM     24  F   UNL A   1      37.171  21.555  24.693  1.00  0.00    -0.166 F 
ATOM     25  F   UNL A   1      35.808  21.562  26.380  1.00  0.00    -0.166 F 
ENDBRANCH  15  22
ENDBRANCH   6   8
ENDBRANCH   3   4
ENDBRANCH   2   3
ENDBRANCH   1   2
BRANCH   1  26
ATOM     26  C   UNL A   1      32.299  32.826  26.567  1.00  0.00     0.116 C 
BRANCH  26  27
ATOM     27  N   UNL A   1      32.214  33.933  27.508  1.00  0.00    -0.352 N 
ATOM     28  C   UNL A   1      33.127  34.312  28.479  1.00  0.00     0.251 C 
ATOM     29  H   UNL A   1      31.401  34.484  27.447  1.00  0.00     0.163 HD
ATOM     30  O   UNL A   1      32.914  35.271  29.193  1.00  0.00    -0.269 OA
BRANCH  28  31
ATOM     31  C   UNL A   1      34.338  33.479  28.677  1.00  0.00     0.039 A 
ATOM     32  C   UNL A   1      35.587  34.052  28.429  1.00  0.00     0.014 A 
ATOM     33  C   UNL A   1      34.239  32.201  29.229  1.00  0.00     0.014 A 
ATOM     34  C   UNL A   1      36.740  33.398  28.866  1.00  0.00     0.010 A 
ATOM     35  C   UNL A   1      35.383  31.587  29.731  1.00  0.00     0.010 A 
ATOM     36  C   UNL A   1      36.639  32.200  29.592  1.00  0.00    -0.014 A 
BRANCH  36  37
ATOM     37  C   UNL A   1      37.817  31.619  30.289  1.00  0.00     0.031 A 
ATOM     38  C   UNL A   1      38.645  30.557  29.625  1.00  0.00     0.074 A 
ATOM     39  C   UNL A   1      38.064  31.969  31.569  1.00  0.00     0.049 A 
ATOM     40  N   UNL A   1      39.632  29.851  30.112  1.00  0.00    -0.248 NA
ATOM     41  C   UNL A   1      38.289  30.222  28.239  1.00  0.00     0.031 C 
ATOM     42  C   UNL A   1      37.285  32.937  32.346  1.00  0.00     0.029 A 
ATOM     43  N   UNL A   1      39.022  31.536  32.450  1.00  0.00    -0.354 N 
ATOM     44  C   UNL A   1      40.008  28.976  29.100  1.00  0.00     0.074 A 
ATOM     45  C   UNL A   1      39.097  29.203  27.996  1.00  0.00     0.031 C 
ATOM     46  C   UNL A   1      37.801  33.029  33.581  1.00  0.00     0.029 A 
ATOM     47  C   UNL A   1      38.918  32.099  33.701  1.00  0.00     0.049 A 
ATOM     48  H   UNL A   1      39.719  30.884  32.210  1.00  0.00     0.167 HD
ATOM     49  C   UNL A   1      41.029  28.084  29.086  1.00  0.00     0.034 A 
ATOM     50  C   UNL A   1      39.627  31.879  34.827  1.00  0.00     0.034 A 
ATOM     51  C   UNL A   1      41.930  27.876  30.194  1.00  0.00     0.049 A 
ATOM     52  C   UNL A   1      40.753  30.880  34.793  1.00  0.00     0.074 A 
ATOM     53  C   UNL A   1      43.044  27.058  30.262  1.00  0.00     0.029 A 
ATOM     54  N   UNL A   1      41.810  28.484  31.439  1.00  0.00    -0.354 N 
ATOM     55  N   UNL A   1      41.144  30.114  33.802  1.00  0.00    -0.248 NA
ATOM     56  C   UNL A   1      41.537  30.723  36.024  1.00  0.00     0.031 C 
ATOM     57  C   UNL A   1      43.560  27.124  31.563  1.00  0.00     0.029 A 
ATOM     58  C   UNL A   1      42.808  28.033  32.290  1.00  0.00     0.049 A 
ATOM     59  H   UNL A   1      41.117  29.141  31.681  1.00  0.00     0.167 HD
ATOM     60  C   UNL A   1      42.231  29.393  34.287  1.00  0.00     0.074 A 
ATOM     61  C   UNL A   1      42.441  29.829  35.653  1.00  0.00     0.031 C 
ATOM     62  C   UNL A   1      42.989  28.459  33.658  1.00  0.00     0.034 A 
BRANCH  49  63
ATOM     63  C   UNL A   1      41.198  27.253  27.836  1.00  0.00     0.023 A 
ATOM     64  C   UNL A   1      40.815  25.901  27.795  1.00  0.00     0.031 A 
ATOM     65  C   UNL A   1      41.801  27.799  26.690  1.00  0.00     0.131 A 
ATOM     66  C   UNL A   1      41.126  25.117  26.674  1.00  0.00     0.055 A 
ATOM     67  C   UNL A   1      42.028  27.036  25.543  1.00  0.00     0.041 A 
ATOM     68  F   UNL A   1      42.204  29.080  26.674  1.00  0.00    -0.206 F 
ATOM     69  C   UNL A   1      41.709  25.681  25.538  1.00  0.00     0.022 A 
BRANCH  66  70
ATOM     70  S   UNL A   1      40.913  23.320  26.793  1.00  0.00     0.124 S 
ATOM     71  O   UNL A   1      41.293  23.070  28.183  1.00  0.00    -0.237 OA
ATOM     72  O   UNL A   1      39.500  23.148  26.477  1.00  0.00    -0.237 OA
ATOM     73  O   UNL A   1      41.846  22.797  25.797  1.00  0.00    -0.744 OA
ENDBRANCH  66  70
ENDBRANCH  49  63
BRANCH  50  74
ATOM     74  C   UNL A   1      39.278  32.596  36.085  1.00  0.00     0.023 A 
ATOM     75  C   UNL A   1      38.392  32.037  37.019  1.00  0.00     0.031 A 
ATOM     76  C   UNL A   1      39.819  33.864  36.363  1.00  0.00     0.131 A 
ATOM     77  C   UNL A   1      38.047  32.759  38.172  1.00  0.00     0.055 A 
ATOM     78  C   UNL A   1      39.505  34.560  37.530  1.00  0.00     0.041 A 
ATOM     79  F   UNL A   1      40.682  34.436  35.506  1.00  0.00    -0.206 F 
ATOM     80  C   UNL A   1      38.605  34.012  38.439  1.00  0.00     0.022 A 
BRANCH  77  81
ATOM     81  S   UNL A   1      36.810  32.059  39.298  1.00  0.00     0.124 S 
ATOM     82  O   UNL A   1      35.593  32.739  38.866  1.00  0.00    -0.237 OA
ATOM     83  O   UNL A   1      36.893  30.635  38.991  1.00  0.00    -0.237 OA
ATOM     84  O   UNL A   1      37.301  32.438  40.622  1.00  0.00    -0.744 OA
ENDBRANCH  77  81
ENDBRANCH  50  74
BRANCH  62  85
ATOM     85  C   UNL A   1      44.131  27.868  34.445  1.00  0.00     0.023 A 
ATOM     86  C   UNL A   1      43.969  26.704  35.216  1.00  0.00     0.031 A 
ATOM     87  C   UNL A   1      45.394  28.483  34.426  1.00  0.00     0.131 A 
ATOM     88  C   UNL A   1      45.042  26.214  35.973  1.00  0.00     0.055 A 
ATOM     89  C   UNL A   1      46.473  27.963  35.142  1.00  0.00     0.041 A 
ATOM     90  F   UNL A   1      45.600  29.598  33.708  1.00  0.00    -0.206 F 
ATOM     91  C   UNL A   1      46.298  26.828  35.929  1.00  0.00     0.022 A 
BRANCH  88  92
ATOM     92  S   UNL A   1      44.762  24.799  37.073  1.00  0.00     0.124 S 
ATOM     93  O   UNL A   1      46.005  24.761  37.838  1.00  0.00    -0.237 OA
ATOM     94  O   UNL A   1      43.572  25.207  37.811  1.00  0.00    -0.237 OA
ATOM     95  O   UNL A   1      44.566  23.682  36.151  1.00  0.00    -0.744 OA
ENDBRANCH  88  92
ENDBRANCH  62  85
ENDBRANCH  36  37
ENDBRANCH  28  31
ENDBRANCH  26  27
ENDBRANCH   1  26
TORSDOF 16
ENDMDL
MODEL 2
REMARK VINA RESULT:     -12.3      2.231      7.874
REMARK SMILES O=C(NCCCCNC(=O)c1ccc(-c2c3nc(c(-c4cc(S(=O)(=O)[O-])ccc4F)c4ccc([nH]4)c(-c4cc(S(=O)(=O)[O-])ccc4F)c4nc(c(-c5cc(S(=O)(=O)[O-])ccc5F)c5ccc2[nH]5)C=C4)C=C3)cc1)C1=Cc2cc(C(F)(F)F)ccc2O[C@@H]1C(F)(F)F
REMARK SMILES IDX 6 1 5 2 4 3 3 4 1 5 2 6 74 8 75 9 87 10 76 11 86 12 77 13
REMARK SMILES IDX 85 14 78 15 84 16 83 17 88 18 89 19 90 20 91 21 79 22 80 23
REMARK SMILES IDX 81 24 82 25 7 26 8 27 9 28 10 30 11 31 12 32 73 33 13 34
REMARK SMILES IDX 72 35 14 36 15 37 16 38 66 39 17 40 71 41 65 42 67 43 18 44
REMARK SMILES IDX 70 45 64 46 63 47 19 49 51 50 31 51 50 52 32 53 35 54 49 55
REMARK SMILES IDX 68 56 33 57 34 58 48 60 69 61 36 62 20 63 21 64 29 65 22 66
REMARK SMILES IDX 28 67 30 68 27 69 23 70 24 71 25 72 26 73 52 74 53 75 61 76
REMARK SMILES IDX 54 77 60 78 62 79 59 80 55 81 56 82 57 83 58 84 37 85 38 86
REMARK SMILES IDX 46 87 39 88 45 89 47 90 44 91 40 92 41 93 42 94 43 95
REMARK H PARENT 3 7 8 29 67 48 35 59
REMARK Flexibility Score: inf
ROOT
ATOM      1  C   UNL A   1      31.649  29.032  26.815  1.00  0.00     0.023 C 
ENDROOT
BRANCH   1   2
ATOM      2  C   UNL A   1      32.230  27.616  26.880  1.00  0.00     0.023 C 
BRANCH   2   3
ATOM      3  C   UNL A   1      31.380  26.562  26.160  1.00  0.00     0.116 C 
BRANCH   3   4
ATOM      4  N   UNL A   1      31.371  25.260  26.826  1.00  0.00    -0.352 N 
ATOM      5  O   UNL A   1      32.214  23.290  27.527  1.00  0.00    -0.270 OA
ATOM      6  C   UNL A   1      32.154  24.148  26.651  1.00  0.00     0.251 C 
ATOM      7  H   UNL A   1      30.680  25.164  27.522  1.00  0.00     0.163 HD
BRANCH   6   8
ATOM      8  C   UNL A   1      33.001  24.007  25.441  1.00  0.00     0.067 C 
ATOM      9  C   UNL A   1      34.162  24.668  25.399  1.00  0.00     0.025 C 
ATOM     10  C   UNL A   1      32.807  22.749  24.644  1.00  0.00     0.314 C 
ATOM     11  C   UNL A   1      35.336  23.822  25.246  1.00  0.00     0.018 A 
ATOM     12  O   UNL A   1      33.976  21.890  24.623  1.00  0.00    -0.475 OA
ATOM     13  C   UNL A   1      36.547  24.303  25.755  1.00  0.00     0.025 A 
ATOM     14  C   UNL A   1      35.177  22.460  24.962  1.00  0.00     0.128 A 
ATOM     15  C   UNL A   1      37.583  23.409  26.060  1.00  0.00     0.056 A 
ATOM     16  C   UNL A   1      36.232  21.580  25.184  1.00  0.00     0.048 A 
ATOM     17  C   UNL A   1      37.422  22.049  25.752  1.00  0.00     0.017 A 
BRANCH  10  18
ATOM     18  C   UNL A   1      32.386  23.113  23.205  1.00  0.00     0.429 C 
ATOM     19  F   UNL A   1      31.954  24.395  23.126  1.00  0.00    -0.167 F 
ATOM     20  F   UNL A   1      33.409  22.992  22.326  1.00  0.00    -0.167 F 
ATOM     21  F   UNL A   1      31.380  22.326  22.748  1.00  0.00    -0.167 F 
ENDBRANCH  10  18
BRANCH  15  22
ATOM     22  C   UNL A   1      38.818  23.912  26.769  1.00  0.00     0.416 C 
ATOM     23  F   UNL A   1      39.461  24.882  26.068  1.00  0.00    -0.166 F 
ATOM     24  F   UNL A   1      38.530  24.455  27.987  1.00  0.00    -0.166 F 
ATOM     25  F   UNL A   1      39.730  22.936  27.007  1.00  0.00    -0.166 F 
ENDBRANCH  15  22
ENDBRANCH   6   8
ENDBRANCH   3   4
ENDBRANCH   2   3
ENDBRANCH   1   2
BRANCH   1  26
ATOM     26  C   UNL A   1      32.539  30.107  26.194  1.00  0.00     0.116 C 
BRANCH  26  27
ATOM     27  N   UNL A   1      32.395  31.432  26.778  1.00  0.00    -0.352 N 
ATOM     28  C   UNL A   1      33.328  32.166  27.494  1.00  0.00     0.251 C 
ATOM     29  H   UNL A   1      31.520  31.864  26.646  1.00  0.00     0.163 HD
ATOM     30  O   UNL A   1      33.058  33.272  27.917  1.00  0.00    -0.269 OA
BRANCH  28  31
ATOM     31  C   UNL A   1      34.639  31.543  27.794  1.00  0.00     0.039 A 
ATOM     32  C   UNL A   1      35.740  32.378  28.002  1.00  0.00     0.014 A 
ATOM     33  C   UNL A   1      34.742  30.166  28.001  1.00  0.00     0.014 A 
ATOM     34  C   UNL A   1      36.908  31.848  28.554  1.00  0.00     0.010 A 
ATOM     35  C   UNL A   1      35.878  29.655  28.622  1.00  0.00     0.010 A 
ATOM     36  C   UNL A   1      36.955  30.499  28.942  1.00  0.00    -0.014 A 
BRANCH  36  37
ATOM     37  C   UNL A   1      38.077  29.971  29.761  1.00  0.00     0.031 A 
ATOM     38  C   UNL A   1      38.294  30.465  31.163  1.00  0.00     0.074 A 
ATOM     39  C   UNL A   1      38.970  29.132  29.194  1.00  0.00     0.049 A 
ATOM     40  N   UNL A   1      39.278  30.214  31.986  1.00  0.00    -0.248 NA
ATOM     41  C   UNL A   1      37.286  31.395  31.690  1.00  0.00     0.031 C 
ATOM     42  C   UNL A   1      38.907  28.637  27.817  1.00  0.00     0.029 A 
ATOM     43  N   UNL A   1      40.116  28.566  29.694  1.00  0.00    -0.354 N 
ATOM     44  C   UNL A   1      39.018  30.965  33.127  1.00  0.00     0.074 A 
ATOM     45  C   UNL A   1      37.815  31.727  32.857  1.00  0.00     0.031 C 
ATOM     46  C   UNL A   1      39.959  27.838  27.585  1.00  0.00     0.029 A 
ATOM     47  C   UNL A   1      40.796  27.795  28.779  1.00  0.00     0.049 A 
ATOM     48  H   UNL A   1      40.423  28.699  30.619  1.00  0.00     0.167 HD
ATOM     49  C   UNL A   1      39.706  31.000  34.295  1.00  0.00     0.034 A 
ATOM     50  C   UNL A   1      41.971  27.143  28.880  1.00  0.00     0.034 A 
ATOM     51  C   UNL A   1      40.899  30.228  34.547  1.00  0.00     0.049 A 
ATOM     52  C   UNL A   1      42.724  27.197  30.184  1.00  0.00     0.074 A 
ATOM     53  C   UNL A   1      41.631  30.125  35.717  1.00  0.00     0.029 A 
ATOM     54  N   UNL A   1      41.547  29.436  33.605  1.00  0.00    -0.354 N 
ATOM     55  N   UNL A   1      42.424  27.853  31.280  1.00  0.00    -0.248 NA
ATOM     56  C   UNL A   1      43.965  26.418  30.266  1.00  0.00     0.031 C 
ATOM     57  C   UNL A   1      42.752  29.322  35.466  1.00  0.00     0.029 A 
ATOM     58  C   UNL A   1      42.686  28.871  34.158  1.00  0.00     0.049 A 
ATOM     59  H   UNL A   1      41.240  29.297  32.680  1.00  0.00     0.167 HD
ATOM     60  C   UNL A   1      43.434  27.553  32.189  1.00  0.00     0.074 A 
ATOM     61  C   UNL A   1      44.341  26.645  31.515  1.00  0.00     0.031 C 
ATOM     62  C   UNL A   1      43.594  27.987  33.465  1.00  0.00     0.034 A 
BRANCH  49  63
ATOM     63  C   UNL A   1      39.187  31.924  35.370  1.00  0.00     0.023 A 
ATOM     64  C   UNL A   1      39.641  33.251  35.480  1.00  0.00     0.031 A 
ATOM     65  C   UNL A   1      38.274  31.462  36.332  1.00  0.00     0.131 A 
ATOM     66  C   UNL A   1      39.259  34.035  36.579  1.00  0.00     0.055 A 
ATOM     67  C   UNL A   1      37.828  32.276  37.376  1.00  0.00     0.041 A 
ATOM     68  F   UNL A   1      37.817  30.199  36.291  1.00  0.00    -0.206 F 
ATOM     69  C   UNL A   1      38.337  33.564  37.515  1.00  0.00     0.022 A 
BRANCH  66  70
ATOM     70  S   UNL A   1      40.117  35.609  36.854  1.00  0.00     0.124 S 
ATOM     71  O   UNL A   1      39.617  35.989  38.174  1.00  0.00    -0.237 OA
ATOM     72  O   UNL A   1      41.521  35.218  36.792  1.00  0.00    -0.237 OA
ATOM     73  O   UNL A   1      39.652  36.451  35.754  1.00  0.00    -0.744 OA
ENDBRANCH  66  70
ENDBRANCH  49  63
BRANCH  50  74
ATOM     74  C   UNL A   1      42.523  26.405  27.709  1.00  0.00     0.023 A 
ATOM     75  C   UNL A   1      42.476  25.004  27.645  1.00  0.00     0.031 A 
ATOM     76  C   UNL A   1      43.120  27.097  26.641  1.00  0.00     0.131 A 
ATOM     77  C   UNL A   1      43.047  24.336  26.550  1.00  0.00     0.055 A 
ATOM     78  C   UNL A   1      43.650  26.431  25.535  1.00  0.00     0.041 A 
ATOM     79  F   UNL A   1      43.178  28.439  26.649  1.00  0.00    -0.206 F 
ATOM     80  C   UNL A   1      43.624  25.040  25.491  1.00  0.00     0.022 A 
BRANCH  77  81
ATOM     81  S   UNL A   1      43.075  22.523  26.556  1.00  0.00     0.124 S 
ATOM     82  O   UNL A   1      42.465  22.219  27.845  1.00  0.00    -0.237 OA
ATOM     83  O   UNL A   1      42.276  22.206  25.376  1.00  0.00    -0.237 OA
ATOM     84  O   UNL A   1      44.497  22.203  26.446  1.00  0.00    -0.744 OA
ENDBRANCH  77  81
ENDBRANCH  50  74
BRANCH  62  85
ATOM     85  C   UNL A   1      44.788  27.457  34.217  1.00  0.00     0.023 A 
ATOM     86  C   UNL A   1      44.730  26.248  34.932  1.00  0.00     0.031 A 
ATOM     87  C   UNL A   1      45.996  28.174  34.222  1.00  0.00     0.131 A 
ATOM     88  C   UNL A   1      45.847  25.814  35.660  1.00  0.00     0.055 A 
ATOM     89  C   UNL A   1      47.120  27.713  34.907  1.00  0.00     0.041 A 
ATOM     90  F   UNL A   1      46.103  29.336  33.556  1.00  0.00    -0.206 F 
ATOM     91  C   UNL A   1      47.047  26.531  35.639  1.00  0.00     0.022 A 
BRANCH  88  92
ATOM     92  S   UNL A   1      45.695  24.330  36.692  1.00  0.00     0.124 S 
ATOM     93  O   UNL A   1      45.475  24.904  38.016  1.00  0.00    -0.237 OA
ATOM     94  O   UNL A   1      44.552  23.649  36.094  1.00  0.00    -0.237 OA
ATOM     95  O   UNL A   1      46.979  23.656  36.514  1.00  0.00    -0.744 OA
ENDBRANCH  88  92
ENDBRANCH  62  85
ENDBRANCH  36  37
ENDBRANCH  28  31
ENDBRANCH  26  27
ENDBRANCH   1  26
TORSDOF 16
ENDMDL
MODEL 3
REMARK VINA RESULT:     -12.3      1.750      3.472
REMARK SMILES O=C(NCCCCNC(=O)c1ccc(-c2c3nc(c(-c4cc(S(=O)(=O)[O-])ccc4F)c4ccc([nH]4)c(-c4cc(S(=O)(=O)[O-])ccc4F)c4nc(c(-c5cc(S(=O)(=O)[O-])ccc5F)c5ccc2[nH]5)C=C4)C=C3)cc1)C1=Cc2cc(C(F)(F)F)ccc2O[C@@H]1C(F)(F)F
REMARK SMILES IDX 6 1 5 2 4 3 3 4 1 5 2 6 74 8 75 9 87 10 76 11 86 12 77 13
REMARK SMILES IDX 85 14 78 15 84 16 83 17 88 18 89 19 90 20 91 21 79 22 80 23
REMARK SMILES IDX 81 24 82 25 7 26 8 27 9 28 10 30 11 31 12 32 73 33 13 34
REMARK SMILES IDX 72 35 14 36 15 37 16 38 66 39 17 40 71 41 65 42 67 43 18 44
REMARK SMILES IDX 70 45 64 46 63 47 19 49 51 50 31 51 50 52 32 53 35 54 49 55
REMARK SMILES IDX 68 56 33 57 34 58 48 60 69 61 36 62 20 63 21 64 29 65 22 66
REMARK SMILES IDX 28 67 30 68 27 69 23 70 24 71 25 72 26 73 52 74 53 75 61 76
REMARK SMILES IDX 54 77 60 78 62 79 59 80 55 81 56 82 57 83 58 84 37 85 38 86
REMARK SMILES IDX 46 87 39 88 45 89 47 90 44 91 40 92 41 93 42 94 43 95
REMARK H PARENT 3 7 8 29 67 48 35 59
REMARK Flexibility Score: inf
ROOT
ATOM      1  C   UNL A   1      31.394  30.522  26.877  1.00  0.00     0.023 C 
ENDROOT
BRANCH   1   2
ATOM      2  C   UNL A   1      32.095  29.236  27.327  1.00  0.00     0.023 C 
BRANCH   2   3
ATOM      3  C   UNL A   1      32.013  28.095  26.308  1.00  0.00     0.116 C 
BRANCH   3   4
ATOM      4  N   UNL A   1      31.627  26.811  26.892  1.00  0.00    -0.352 N 
ATOM      5  O   UNL A   1      31.384  24.572  26.986  1.00  0.00    -0.270 OA
ATOM      6  C   UNL A   1      31.355  25.598  26.314  1.00  0.00     0.251 C 
ATOM      7  H   UNL A   1      31.548  26.819  27.875  1.00  0.00     0.163 HD
BRANCH   6   8
ATOM      8  C   UNL A   1      31.104  25.500  24.855  1.00  0.00     0.067 C 
ATOM      9  C   UNL A   1      29.906  25.867  24.391  1.00  0.00     0.025 C 
ATOM     10  C   UNL A   1      32.318  25.559  23.972  1.00  0.00     0.314 C 
ATOM     11  C   UNL A   1      29.938  26.953  23.423  1.00  0.00     0.018 A 
ATOM     12  O   UNL A   1      32.350  26.726  23.109  1.00  0.00    -0.475 OA
ATOM     13  C   UNL A   1      28.804  27.766  23.329  1.00  0.00     0.025 A 
ATOM     14  C   UNL A   1      31.166  27.387  22.908  1.00  0.00     0.128 A 
ATOM     15  C   UNL A   1      28.908  29.056  22.790  1.00  0.00     0.056 A 
ATOM     16  C   UNL A   1      31.256  28.633  22.295  1.00  0.00     0.048 A 
ATOM     17  C   UNL A   1      30.138  29.473  22.257  1.00  0.00     0.017 A 
BRANCH  10  18
ATOM     18  C   UNL A   1      32.404  24.270  23.130  1.00  0.00     0.429 C 
ATOM     19  F   UNL A   1      31.334  23.465  23.346  1.00  0.00    -0.167 F 
ATOM     20  F   UNL A   1      32.435  24.527  21.800  1.00  0.00    -0.167 F 
ATOM     21  F   UNL A   1      33.512  23.540  23.415  1.00  0.00    -0.167 F 
ENDBRANCH  10  18
BRANCH  15  22
ATOM     22  C   UNL A   1      27.722  29.989  22.851  1.00  0.00     0.416 C 
ATOM     23  F   UNL A   1      26.561  29.337  23.119  1.00  0.00    -0.166 F 
ATOM     24  F   UNL A   1      27.858  30.934  23.825  1.00  0.00    -0.166 F 
ATOM     25  F   UNL A   1      27.524  30.674  21.697  1.00  0.00    -0.166 F 
ENDBRANCH  15  22
ENDBRANCH   6   8
ENDBRANCH   3   4
ENDBRANCH   2   3
ENDBRANCH   1   2
BRANCH   1  26
ATOM     26  C   UNL A   1      32.294  31.657  26.392  1.00  0.00     0.116 C 
BRANCH  26  27
ATOM     27  N   UNL A   1      32.192  32.889  27.161  1.00  0.00    -0.352 N 
ATOM     28  C   UNL A   1      33.141  33.472  27.985  1.00  0.00     0.251 C 
ATOM     29  H   UNL A   1      31.338  33.371  27.084  1.00  0.00     0.163 HD
ATOM     30  O   UNL A   1      32.908  34.515  28.561  1.00  0.00    -0.269 OA
BRANCH  28  31
ATOM     31  C   UNL A   1      34.422  32.759  28.206  1.00  0.00     0.039 A 
ATOM     32  C   UNL A   1      35.613  33.483  28.103  1.00  0.00     0.014 A 
ATOM     33  C   UNL A   1      34.432  31.433  28.641  1.00  0.00     0.014 A 
ATOM     34  C   UNL A   1      36.801  32.919  28.572  1.00  0.00     0.010 A 
ATOM     35  C   UNL A   1      35.602  30.902  29.178  1.00  0.00     0.010 A 
ATOM     36  C   UNL A   1      36.787  31.656  29.187  1.00  0.00    -0.014 A 
BRANCH  36  37
ATOM     37  C   UNL A   1      37.973  31.143  29.922  1.00  0.00     0.031 A 
ATOM     38  C   UNL A   1      38.857  30.098  29.304  1.00  0.00     0.074 A 
ATOM     39  C   UNL A   1      38.182  31.540  31.195  1.00  0.00     0.049 A 
ATOM     40  N   UNL A   1      39.861  29.447  29.831  1.00  0.00    -0.248 NA
ATOM     41  C   UNL A   1      38.541  29.709  27.923  1.00  0.00     0.031 C 
ATOM     42  C   UNL A   1      37.350  32.497  31.929  1.00  0.00     0.029 A 
ATOM     43  N   UNL A   1      39.139  31.172  32.106  1.00  0.00    -0.354 N 
ATOM     44  C   UNL A   1      40.291  28.559  28.852  1.00  0.00     0.074 A 
ATOM     45  C   UNL A   1      39.394  28.717  27.725  1.00  0.00     0.031 C 
ATOM     46  C   UNL A   1      37.837  32.645  33.170  1.00  0.00     0.029 A 
ATOM     47  C   UNL A   1      38.988  31.766  33.338  1.00  0.00     0.049 A 
ATOM     48  H   UNL A   1      39.866  30.542  31.898  1.00  0.00     0.167 HD
ATOM     49  C   UNL A   1      41.348  27.709  28.882  1.00  0.00     0.034 A 
ATOM     50  C   UNL A   1      39.683  31.607  34.482  1.00  0.00     0.034 A 
ATOM     51  C   UNL A   1      42.234  27.570  30.013  1.00  0.00     0.049 A 
ATOM     52  C   UNL A   1      40.849  30.654  34.499  1.00  0.00     0.074 A 
ATOM     53  C   UNL A   1      43.379  26.800  30.125  1.00  0.00     0.029 A 
ATOM     54  N   UNL A   1      42.066  28.208  31.237  1.00  0.00    -0.354 N 
ATOM     55  N   UNL A   1      41.289  29.876  33.538  1.00  0.00    -0.248 NA
ATOM     56  C   UNL A   1      41.615  30.565  35.748  1.00  0.00     0.031 C 
ATOM     57  C   UNL A   1      43.867  26.924  31.432  1.00  0.00     0.029 A 
ATOM     58  C   UNL A   1      43.065  27.822  32.118  1.00  0.00     0.049 A 
ATOM     59  H   UNL A   1      41.343  28.843  31.446  1.00  0.00     0.167 HD
ATOM     60  C   UNL A   1      42.395  29.215  34.063  1.00  0.00     0.074 A 
ATOM     61  C   UNL A   1      42.561  29.698  35.420  1.00  0.00     0.031 C 
ATOM     62  C   UNL A   1      43.201  28.294  33.476  1.00  0.00     0.034 A 
BRANCH  49  63
ATOM     63  C   UNL A   1      41.573  26.850  27.661  1.00  0.00     0.023 A 
ATOM     64  C   UNL A   1      41.162  25.506  27.620  1.00  0.00     0.031 A 
ATOM     65  C   UNL A   1      42.260  27.360  26.545  1.00  0.00     0.131 A 
ATOM     66  C   UNL A   1      41.523  24.693  26.536  1.00  0.00     0.055 A 
ATOM     67  C   UNL A   1      42.540  26.569  25.429  1.00  0.00     0.041 A 
ATOM     68  F   UNL A   1      42.694  28.631  26.531  1.00  0.00    -0.206 F 
ATOM     69  C   UNL A   1      42.189  25.222  25.428  1.00  0.00     0.022 A 
BRANCH  66  70
ATOM     70  S   UNL A   1      41.260  22.904  26.674  1.00  0.00     0.124 S 
ATOM     71  O   UNL A   1      41.741  22.640  28.029  1.00  0.00    -0.237 OA
ATOM     72  O   UNL A   1      39.821  22.781  26.472  1.00  0.00    -0.237 OA
ATOM     73  O   UNL A   1      42.091  22.352  25.606  1.00  0.00    -0.744 OA
ENDBRANCH  66  70
ENDBRANCH  49  63
BRANCH  50  74
ATOM     74  C   UNL A   1      39.282  32.345  35.712  1.00  0.00     0.023 A 
ATOM     75  C   UNL A   1      38.507  31.731  36.708  1.00  0.00     0.031 A 
ATOM     76  C   UNL A   1      39.659  33.687  35.900  1.00  0.00     0.131 A 
ATOM     77  C   UNL A   1      38.105  32.469  37.833  1.00  0.00     0.055 A 
ATOM     78  C   UNL A   1      39.291  34.404  37.039  1.00  0.00     0.041 A 
ATOM     79  F   UNL A   1      40.411  34.316  34.982  1.00  0.00    -0.206 F 
ATOM     80  C   UNL A   1      38.500  33.797  38.010  1.00  0.00     0.022 A 
BRANCH  77  81
ATOM     81  S   UNL A   1      37.006  31.681  39.042  1.00  0.00     0.124 S 
ATOM     82  O   UNL A   1      36.868  30.338  38.490  1.00  0.00    -0.237 OA
ATOM     83  O   UNL A   1      37.783  31.792  40.273  1.00  0.00    -0.237 OA
ATOM     84  O   UNL A   1      35.799  32.504  38.994  1.00  0.00    -0.744 OA
ENDBRANCH  77  81
ENDBRANCH  50  74
BRANCH  62  85
ATOM     85  C   UNL A   1      44.351  27.773  34.301  1.00  0.00     0.023 A 
ATOM     86  C   UNL A   1      44.226  26.616  35.088  1.00  0.00     0.031 A 
ATOM     87  C   UNL A   1      45.583  28.449  34.302  1.00  0.00     0.131 A 
ATOM     88  C   UNL A   1      45.303  26.192  35.880  1.00  0.00     0.055 A 
ATOM     89  C   UNL A   1      46.667  27.995  35.053  1.00  0.00     0.041 A 
ATOM     90  F   UNL A   1      45.752  29.562  33.569  1.00  0.00    -0.206 F 
ATOM     91  C   UNL A   1      46.529  26.866  35.855  1.00  0.00     0.022 A 
BRANCH  88  92
ATOM     92  S   UNL A   1      45.065  24.783  36.996  1.00  0.00     0.124 S 
ATOM     93  O   UNL A   1      46.409  24.593  37.534  1.00  0.00    -0.237 OA
ATOM     94  O   UNL A   1      44.070  25.291  37.934  1.00  0.00    -0.237 OA
ATOM     95  O   UNL A   1      44.595  23.719  36.111  1.00  0.00    -0.744 OA
ENDBRANCH  88  92
ENDBRANCH  62  85
ENDBRANCH  36  37
ENDBRANCH  28  31
ENDBRANCH  26  27
ENDBRANCH   1  26
TORSDOF 16
ENDMDL
