MODEL 1
REMARK VINA RESULT:     -13.5      0.000      0.000
REMARK SMILES Cc1ccc(-c2cnnc(-n3nc(C)c4c3NC(=O)C[C@@H]4c3ccc(C(=O)NCCCCNC(=O)c4ccc(-c5c6nc(c(-c7cc(S(=O)(=O)[O-])ccc7F)c7ccc([nH]7)c(-c7cc(S(=O)(=O)[O-])ccc7F)c7nc(c(-c8cc(S(=O)(=O)[O-])ccc8F)c8ccc5[nH]8)C=C7)C=C6)cc4)cc3)n2)cc1
REMARK SMILES IDX 30 1 29 2 28 3 26 4 27 5 25 7 22 8 23 9 100 10 24 11 99 12
REMARK SMILES IDX 21 13 11 14 12 15 16 16 13 17 15 18 17 19 14 20 18 21 20 23
REMARK SMILES IDX 19 24 10 25 6 26 7 27 101 28 8 29 9 30 5 31 1 32 2 33 3 34
REMARK SMILES IDX 103 35 4 36 102 37 31 38 32 39 33 40 34 41 35 43 36 44 37 45
REMARK SMILES IDX 98 46 38 47 97 48 39 49 40 50 41 51 91 52 42 53 96 54 90 55
REMARK SMILES IDX 92 56 43 57 95 58 89 59 88 60 44 62 76 63 56 64 75 65 57 66
REMARK SMILES IDX 60 67 74 68 93 69 58 70 59 71 73 73 94 74 61 75 45 76 46 77
REMARK SMILES IDX 54 78 47 79 53 80 55 81 52 82 48 83 49 84 50 85 51 86 77 87
REMARK SMILES IDX 78 88 86 89 79 90 85 91 87 92 84 93 80 94 81 95 82 96 83 97
REMARK SMILES IDX 62 98 63 99 71 100 64 101 70 102 72 103 69 104 65 105 66 106
REMARK SMILES IDX 67 107 68 108
REMARK H PARENT 28 6 17 22 33 42 92 61 60 72
REMARK Flexibility Score: inf
ROOT
ATOM      1  C   UNL A   1      32.582  29.693  25.187  1.00  0.00     0.023 C 
ENDROOT
BRANCH   1   2
ATOM      2  C   UNL A   1      31.053  29.854  25.216  1.00  0.00     0.116 C 
BRANCH   2   3
ATOM      3  N   UNL A   1      30.488  30.098  23.884  1.00  0.00    -0.352 N 
ATOM      4  C   UNL A   1      30.188  29.237  22.854  1.00  0.00     0.251 C 
ATOM      5  O   UNL A   1      29.581  29.653  21.869  1.00  0.00    -0.269 OA
ATOM      6  H   UNL A   1      30.289  31.043  23.694  1.00  0.00     0.163 HD
BRANCH   4   7
ATOM      7  C   UNL A   1      30.538  27.799  22.921  1.00  0.00     0.039 A 
ATOM      8  C   UNL A   1      31.441  25.170  23.334  1.00  0.00    -0.040 A 
ATOM      9  C   UNL A   1      30.365  25.686  24.083  1.00  0.00     0.005 A 
ATOM     10  C   UNL A   1      31.908  25.923  22.255  1.00  0.00     0.005 A 
ATOM     11  C   UNL A   1      29.912  26.991  23.874  1.00  0.00     0.014 A 
ATOM     12  C   UNL A   1      31.466  27.224  22.062  1.00  0.00     0.014 A 
BRANCH   8  13
ATOM     13  C   UNL A   1      32.061  23.864  23.772  1.00  0.00     0.064 C 
ATOM     14  N   UNL A   1      35.558  23.677  24.675  1.00  0.00    -0.180 N 
ATOM     15  N   UNL A   1      35.273  24.708  25.503  1.00  0.00    -0.168 NA
ATOM     16  C   UNL A   1      34.576  23.599  23.703  1.00  0.00     0.143 A 
ATOM     17  C   UNL A   1      33.961  24.910  25.361  1.00  0.00     0.066 A 
ATOM     18  C   UNL A   1      33.437  24.094  24.315  1.00  0.00     0.026 A 
ATOM     19  N   UNL A   1      34.544  23.183  22.386  1.00  0.00    -0.310 N 
ATOM     20  C   UNL A   1      33.333  25.983  26.179  1.00  0.00     0.069 C 
ATOM     21  C   UNL A   1      33.266  23.073  21.735  1.00  0.00     0.226 C 
ATOM     22  H   UNL A   1      35.375  22.968  21.904  1.00  0.00     0.171 HD
ATOM     23  C   UNL A   1      32.088  22.826  22.651  1.00  0.00     0.113 C 
ATOM     24  O   UNL A   1      33.242  23.047  20.530  1.00  0.00    -0.275 OA
BRANCH  14  25
ATOM     25  C   UNL A   1      36.451  22.648  25.099  1.00  0.00     0.272 A 
ATOM     26  C   UNL A   1      38.462  21.848  25.823  1.00  0.00     0.095 A 
ATOM     27  C   UNL A   1      38.082  20.572  25.439  1.00  0.00     0.164 A 
ATOM     28  N   UNL A   1      37.671  22.939  25.609  1.00  0.00    -0.208 NA
ATOM     29  N   UNL A   1      36.882  20.342  24.904  1.00  0.00    -0.153 NA
ATOM     30  N   UNL A   1      36.044  21.390  24.776  1.00  0.00    -0.109 NA
BRANCH  26  31
ATOM     31  C   UNL A   1      39.700  22.039  26.589  1.00  0.00     0.002 A 
ATOM     32  C   UNL A   1      43.195  22.540  29.096  1.00  0.00     0.044 C 
ATOM     33  C   UNL A   1      41.972  22.365  28.245  1.00  0.00    -0.051 A 
ATOM     34  C   UNL A   1      41.787  21.184  27.521  1.00  0.00     0.004 A 
ATOM     35  C   UNL A   1      41.013  23.377  28.149  1.00  0.00     0.004 A 
ATOM     36  C   UNL A   1      40.664  21.022  26.703  1.00  0.00     0.011 A 
ATOM     37  C   UNL A   1      39.894  23.216  27.328  1.00  0.00     0.011 A 
ENDBRANCH  26  31
ENDBRANCH  14  25
ENDBRANCH   8  13
ENDBRANCH   4   7
ENDBRANCH   2   3
ENDBRANCH   1   2
BRANCH   1  38
ATOM     38  C   UNL A   1      33.248  29.474  26.540  1.00  0.00     0.023 C 
BRANCH  38  39
ATOM     39  C   UNL A   1      34.757  29.626  26.525  1.00  0.00     0.116 C 
BRANCH  39  40
ATOM     40  N   UNL A   1      35.307  30.680  27.362  1.00  0.00    -0.352 N 
ATOM     41  C   UNL A   1      36.388  30.620  28.231  1.00  0.00     0.251 C 
ATOM     42  H   UNL A   1      34.851  31.550  27.306  1.00  0.00     0.163 HD
ATOM     43  O   UNL A   1      36.604  31.522  29.039  1.00  0.00    -0.269 OA
BRANCH  41  44
ATOM     44  C   UNL A   1      37.426  29.567  28.039  1.00  0.00     0.039 A 
ATOM     45  C   UNL A   1      37.482  28.566  29.023  1.00  0.00     0.014 A 
ATOM     46  C   UNL A   1      38.517  29.777  27.207  1.00  0.00     0.014 A 
ATOM     47  C   UNL A   1      38.713  28.043  29.389  1.00  0.00     0.010 A 
ATOM     48  C   UNL A   1      39.750  29.402  27.664  1.00  0.00     0.010 A 
ATOM     49  C   UNL A   1      39.840  28.590  28.792  1.00  0.00    -0.014 A 
BRANCH  49  50
ATOM     50  C   UNL A   1      41.198  28.357  29.224  1.00  0.00     0.031 A 
ATOM     51  C   UNL A   1      41.945  27.320  28.509  1.00  0.00     0.074 A 
ATOM     52  C   UNL A   1      41.728  29.228  30.108  1.00  0.00     0.049 A 
ATOM     53  N   UNL A   1      42.946  26.674  28.978  1.00  0.00    -0.248 NA
ATOM     54  C   UNL A   1      41.548  26.872  27.175  1.00  0.00     0.031 C 
ATOM     55  C   UNL A   1      43.118  29.411  30.506  1.00  0.00     0.029 A 
ATOM     56  N   UNL A   1      41.009  30.017  31.004  1.00  0.00    -0.354 N 
ATOM     57  C   UNL A   1      43.523  25.998  27.921  1.00  0.00     0.074 A 
ATOM     58  C   UNL A   1      42.542  26.039  26.869  1.00  0.00     0.031 C 
ATOM     59  C   UNL A   1      43.143  30.006  31.715  1.00  0.00     0.029 A 
ATOM     60  C   UNL A   1      41.767  30.093  32.185  1.00  0.00     0.049 A 
ATOM     61  H   UNL A   1      40.136  30.440  30.841  1.00  0.00     0.167 HD
ATOM     62  C   UNL A   1      44.838  25.661  28.013  1.00  0.00     0.034 A 
ATOM     63  C   UNL A   1      41.280  29.481  33.308  1.00  0.00     0.034 A 
ATOM     64  C   UNL A   1      45.342  26.029  29.342  1.00  0.00     0.049 A 
ATOM     65  C   UNL A   1      42.111  28.265  33.670  1.00  0.00     0.074 A 
ATOM     66  C   UNL A   1      46.021  27.150  29.791  1.00  0.00     0.029 A 
ATOM     67  N   UNL A   1      44.808  25.412  30.468  1.00  0.00    -0.354 N 
ATOM     68  N   UNL A   1      42.854  27.602  32.822  1.00  0.00    -0.248 NA
ATOM     69  C   UNL A   1      42.227  27.762  35.034  1.00  0.00     0.031 C 
ATOM     70  C   UNL A   1      45.766  27.275  31.185  1.00  0.00     0.029 A 
ATOM     71  C   UNL A   1      44.975  26.210  31.585  1.00  0.00     0.049 A 
ATOM     72  H   UNL A   1      44.371  24.529  30.469  1.00  0.00     0.167 HD
ATOM     73  C   UNL A   1      43.560  26.636  33.489  1.00  0.00     0.074 A 
ATOM     74  C   UNL A   1      43.138  26.787  34.874  1.00  0.00     0.031 C 
ATOM     75  C   UNL A   1      44.450  25.792  32.877  1.00  0.00     0.034 A 
BRANCH  62  76
ATOM     76  C   UNL A   1      45.746  25.343  26.844  1.00  0.00     0.023 A 
ATOM     77  C   UNL A   1      46.296  26.423  26.123  1.00  0.00     0.031 A 
ATOM     78  C   UNL A   1      46.069  24.066  26.338  1.00  0.00     0.131 A 
ATOM     79  C   UNL A   1      47.034  26.230  24.941  1.00  0.00     0.055 A 
ATOM     80  C   UNL A   1      46.780  23.871  25.145  1.00  0.00     0.041 A 
ATOM     81  F   UNL A   1      45.761  22.940  26.987  1.00  0.00    -0.206 F 
ATOM     82  C   UNL A   1      47.261  24.957  24.433  1.00  0.00     0.022 A 
BRANCH  79  83
ATOM     83  S   UNL A   1      47.686  27.681  24.078  1.00  0.00     0.124 S 
ATOM     84  O   UNL A   1      48.001  27.137  22.760  1.00  0.00    -0.237 OA
ATOM     85  O   UNL A   1      46.564  28.611  24.142  1.00  0.00    -0.237 OA
ATOM     86  O   UNL A   1      48.847  28.061  24.883  1.00  0.00    -0.744 OA
ENDBRANCH  79  83
ENDBRANCH  62  76
BRANCH  63  87
ATOM     87  C   UNL A   1      39.787  29.622  33.411  1.00  0.00     0.023 A 
ATOM     88  C   UNL A   1      39.302  30.937  33.622  1.00  0.00     0.031 A 
ATOM     89  C   UNL A   1      38.909  28.691  32.842  1.00  0.00     0.131 A 
ATOM     90  C   UNL A   1      38.084  31.346  33.055  1.00  0.00     0.055 A 
ATOM     91  C   UNL A   1      37.646  29.084  32.369  1.00  0.00     0.041 A 
ATOM     92  F   UNL A   1      39.303  27.433  32.601  1.00  0.00    -0.206 F 
ATOM     93  C   UNL A   1      37.256  30.425  32.413  1.00  0.00     0.022 A 
BRANCH  90  94
ATOM     94  S   UNL A   1      37.763  33.132  32.885  1.00  0.00     0.124 S 
ATOM     95  O   UNL A   1      38.750  33.714  33.787  1.00  0.00    -0.237 OA
ATOM     96  O   UNL A   1      37.988  33.376  31.460  1.00  0.00    -0.237 OA
ATOM     97  O   UNL A   1      36.367  33.284  33.294  1.00  0.00    -0.744 OA
ENDBRANCH  90  94
ENDBRANCH  63  87
BRANCH  75  98
ATOM     98  C   UNL A   1      44.985  24.531  33.510  1.00  0.00     0.023 A 
ATOM     99  C   UNL A   1      46.191  24.512  34.217  1.00  0.00     0.031 A 
ATOM    100  C   UNL A   1      44.264  23.314  33.494  1.00  0.00     0.131 A 
ATOM    101  C   UNL A   1      46.718  23.316  34.718  1.00  0.00     0.055 A 
ATOM    102  C   UNL A   1      44.728  22.150  34.114  1.00  0.00     0.041 A 
ATOM    103  F   UNL A   1      43.076  23.200  32.882  1.00  0.00    -0.206 F 
ATOM    104  C   UNL A   1      45.983  22.136  34.702  1.00  0.00     0.022 A 
BRANCH 101 105
ATOM    105  S   UNL A   1      48.447  23.332  35.246  1.00  0.00     0.124 S 
ATOM    106  O   UNL A   1      48.309  23.349  36.701  1.00  0.00    -0.237 OA
ATOM    107  O   UNL A   1      48.963  22.092  34.677  1.00  0.00    -0.237 OA
ATOM    108  O   UNL A   1      48.975  24.560  34.657  1.00  0.00    -0.744 OA
ENDBRANCH 101 105
ENDBRANCH  75  98
ENDBRANCH  49  50
ENDBRANCH  41  44
ENDBRANCH  39  40
ENDBRANCH  38  39
ENDBRANCH   1  38
TORSDOF 17
ENDMDL
MODEL 2
REMARK VINA RESULT:     -13.3      3.188      4.263
REMARK SMILES Cc1ccc(-c2cnnc(-n3nc(C)c4c3NC(=O)C[C@@H]4c3ccc(C(=O)NCCCCNC(=O)c4ccc(-c5c6nc(c(-c7cc(S(=O)(=O)[O-])ccc7F)c7ccc([nH]7)c(-c7cc(S(=O)(=O)[O-])ccc7F)c7nc(c(-c8cc(S(=O)(=O)[O-])ccc8F)c8ccc5[nH]8)C=C7)C=C6)cc4)cc3)n2)cc1
REMARK SMILES IDX 30 1 29 2 28 3 26 4 27 5 25 7 22 8 23 9 100 10 24 11 99 12
REMARK SMILES IDX 21 13 11 14 12 15 16 16 13 17 15 18 17 19 14 20 18 21 20 23
REMARK SMILES IDX 19 24 10 25 6 26 7 27 101 28 8 29 9 30 5 31 1 32 2 33 3 34
REMARK SMILES IDX 103 35 4 36 102 37 31 38 32 39 33 40 34 41 35 43 36 44 37 45
REMARK SMILES IDX 98 46 38 47 97 48 39 49 40 50 41 51 91 52 42 53 96 54 90 55
REMARK SMILES IDX 92 56 43 57 95 58 89 59 88 60 44 62 76 63 56 64 75 65 57 66
REMARK SMILES IDX 60 67 74 68 93 69 58 70 59 71 73 73 94 74 61 75 45 76 46 77
REMARK SMILES IDX 54 78 47 79 53 80 55 81 52 82 48 83 49 84 50 85 51 86 77 87
REMARK SMILES IDX 78 88 86 89 79 90 85 91 87 92 84 93 80 94 81 95 82 96 83 97
REMARK SMILES IDX 62 98 63 99 71 100 64 101 70 102 72 103 69 104 65 105 66 106
REMARK SMILES IDX 67 107 68 108
REMARK H PARENT 28 6 17 22 33 42 92 61 60 72
REMARK Flexibility Score: inf
ROOT
ATOM      1  C   UNL A   1      31.615  32.399  26.948  1.00  0.00     0.023 C 
ENDROOT
BRANCH   1   2
ATOM      2  C   UNL A   1      31.141  31.284  26.002  1.00  0.00     0.116 C 
BRANCH   2   3
ATOM      3  N   UNL A   1      30.184  31.766  25.000  1.00  0.00    -0.352 N 
ATOM      4  C   UNL A   1      29.603  31.138  23.923  1.00  0.00     0.251 C 
ATOM      5  O   UNL A   1      28.708  31.702  23.297  1.00  0.00    -0.269 OA
ATOM      6  H   UNL A   1      29.910  32.704  25.119  1.00  0.00     0.163 HD
BRANCH   4   7
ATOM      7  C   UNL A   1      29.996  29.766  23.524  1.00  0.00     0.039 A 
ATOM      8  C   UNL A   1      30.805  27.102  23.141  1.00  0.00    -0.040 A 
ATOM      9  C   UNL A   1      29.464  27.408  23.443  1.00  0.00     0.005 A 
ATOM     10  C   UNL A   1      31.666  28.159  22.842  1.00  0.00     0.005 A 
ATOM     11  C   UNL A   1      29.060  28.734  23.627  1.00  0.00     0.014 A 
ATOM     12  C   UNL A   1      31.265  29.472  23.042  1.00  0.00     0.014 A 
BRANCH   8  13
ATOM     13  C   UNL A   1      31.247  25.659  23.211  1.00  0.00     0.064 C 
ATOM     14  N   UNL A   1      34.446  24.761  24.638  1.00  0.00    -0.180 N 
ATOM     15  N   UNL A   1      34.040  25.493  25.701  1.00  0.00    -0.168 NA
ATOM     16  C   UNL A   1      33.698  25.125  23.532  1.00  0.00     0.143 A 
ATOM     17  C   UNL A   1      32.803  25.890  25.391  1.00  0.00     0.066 A 
ATOM     18  C   UNL A   1      32.479  25.529  24.050  1.00  0.00     0.026 A 
ATOM     19  N   UNL A   1      33.935  25.168  22.171  1.00  0.00    -0.310 N 
ATOM     20  C   UNL A   1      32.067  26.706  26.395  1.00  0.00     0.069 C 
ATOM     21  C   UNL A   1      32.827  25.433  21.293  1.00  0.00     0.226 C 
ATOM     22  H   UNL A   1      34.838  25.020  21.810  1.00  0.00     0.171 HD
ATOM     23  C   UNL A   1      31.465  25.048  21.828  1.00  0.00     0.113 C 
ATOM     24  O   UNL A   1      33.066  25.804  20.172  1.00  0.00    -0.275 OA
BRANCH  14  25
ATOM     25  C   UNL A   1      35.170  23.548  24.842  1.00  0.00     0.272 A 
ATOM     26  C   UNL A   1      35.348  21.309  25.246  1.00  0.00     0.095 A 
ATOM     27  C   UNL A   1      36.666  21.492  25.630  1.00  0.00     0.164 A 
ATOM     28  N   UNL A   1      34.540  22.350  24.893  1.00  0.00    -0.208 NA
ATOM     29  N   UNL A   1      37.231  22.701  25.601  1.00  0.00    -0.153 NA
ATOM     30  N   UNL A   1      36.482  23.729  25.158  1.00  0.00    -0.109 NA
BRANCH  26  31
ATOM     31  C   UNL A   1      34.815  19.949  25.097  1.00  0.00     0.002 A 
ATOM     32  C   UNL A   1      33.147  16.017  24.386  1.00  0.00     0.044 C 
ATOM     33  C   UNL A   1      33.716  17.386  24.615  1.00  0.00    -0.051 A 
ATOM     34  C   UNL A   1      35.087  17.608  24.461  1.00  0.00     0.004 A 
ATOM     35  C   UNL A   1      32.894  18.449  24.999  1.00  0.00     0.004 A 
ATOM     36  C   UNL A   1      35.631  18.876  24.698  1.00  0.00     0.011 A 
ATOM     37  C   UNL A   1      33.440  19.713  25.241  1.00  0.00     0.011 A 
ENDBRANCH  26  31
ENDBRANCH  14  25
ENDBRANCH   8  13
ENDBRANCH   4   7
ENDBRANCH   2   3
ENDBRANCH   1   2
BRANCH   1  38
ATOM     38  C   UNL A   1      33.124  32.516  27.128  1.00  0.00     0.023 C 
BRANCH  38  39
ATOM     39  C   UNL A   1      33.699  31.605  28.195  1.00  0.00     0.116 C 
BRANCH  39  40
ATOM     40  N   UNL A   1      34.496  32.247  29.228  1.00  0.00    -0.352 N 
ATOM     41  C   UNL A   1      35.532  31.711  29.980  1.00  0.00     0.251 C 
ATOM     42  H   UNL A   1      34.270  33.185  29.420  1.00  0.00     0.163 HD
ATOM     43  O   UNL A   1      35.969  32.296  30.969  1.00  0.00    -0.269 OA
BRANCH  41  44
ATOM     44  C   UNL A   1      36.277  30.526  29.464  1.00  0.00     0.039 A 
ATOM     45  C   UNL A   1      36.601  29.538  30.409  1.00  0.00     0.014 A 
ATOM     46  C   UNL A   1      36.963  30.578  28.259  1.00  0.00     0.014 A 
ATOM     47  C   UNL A   1      37.805  28.859  30.295  1.00  0.00     0.010 A 
ATOM     48  C   UNL A   1      38.222  30.047  28.218  1.00  0.00     0.010 A 
ATOM     49  C   UNL A   1      38.658  29.244  29.270  1.00  0.00    -0.014 A 
BRANCH  49  50
ATOM     50  C   UNL A   1      40.038  28.837  29.148  1.00  0.00     0.031 A 
ATOM     51  C   UNL A   1      40.279  27.443  28.767  1.00  0.00     0.074 A 
ATOM     52  C   UNL A   1      40.978  29.802  29.205  1.00  0.00     0.049 A 
ATOM     53  N   UNL A   1      41.347  26.783  29.017  1.00  0.00    -0.248 NA
ATOM     54  C   UNL A   1      39.251  26.641  28.105  1.00  0.00     0.031 C 
ATOM     55  C   UNL A   1      42.390  29.740  28.848  1.00  0.00     0.029 A 
ATOM     56  N   UNL A   1      40.839  31.039  29.831  1.00  0.00    -0.354 N 
ATOM     57  C   UNL A   1      41.289  25.623  28.271  1.00  0.00     0.074 A 
ATOM     58  C   UNL A   1      39.920  25.518  27.843  1.00  0.00     0.031 C 
ATOM     59  C   UNL A   1      43.041  30.724  29.498  1.00  0.00     0.029 A 
ATOM     60  C   UNL A   1      42.084  31.357  30.398  1.00  0.00     0.049 A 
ATOM     61  H   UNL A   1      40.022  31.586  29.870  1.00  0.00     0.167 HD
ATOM     62  C   UNL A   1      42.460  25.004  27.952  1.00  0.00     0.034 A 
ATOM     63  C   UNL A   1      42.189  31.383  31.762  1.00  0.00     0.034 A 
ATOM     64  C   UNL A   1      43.573  25.704  28.602  1.00  0.00     0.049 A 
ATOM     65  C   UNL A   1      43.028  30.226  32.268  1.00  0.00     0.074 A 
ATOM     66  C   UNL A   1      44.440  26.682  28.141  1.00  0.00     0.029 A 
ATOM     67  N   UNL A   1      43.637  25.741  29.991  1.00  0.00    -0.354 N 
ATOM     68  N   UNL A   1      43.219  29.112  31.609  1.00  0.00    -0.248 NA
ATOM     69  C   UNL A   1      43.780  30.278  33.516  1.00  0.00     0.031 C 
ATOM     70  C   UNL A   1      44.916  27.401  29.273  1.00  0.00     0.029 A 
ATOM     71  C   UNL A   1      44.375  26.831  30.415  1.00  0.00     0.049 A 
ATOM     72  H   UNL A   1      43.215  25.082  30.589  1.00  0.00     0.167 HD
ATOM     73  C   UNL A   1      44.114  28.327  32.287  1.00  0.00     0.074 A 
ATOM     74  C   UNL A   1      44.442  29.109  33.469  1.00  0.00     0.031 C 
ATOM     75  C   UNL A   1      44.540  27.104  31.835  1.00  0.00     0.034 A 
BRANCH  62  76
ATOM     76  C   UNL A   1      42.651  24.025  26.813  1.00  0.00     0.023 A 
ATOM     77  C   UNL A   1      42.132  22.723  26.969  1.00  0.00     0.031 A 
ATOM     78  C   UNL A   1      43.353  24.243  25.609  1.00  0.00     0.131 A 
ATOM     79  C   UNL A   1      42.380  21.706  26.030  1.00  0.00     0.055 A 
ATOM     80  C   UNL A   1      43.626  23.224  24.685  1.00  0.00     0.041 A 
ATOM     81  F   UNL A   1      43.772  25.455  25.234  1.00  0.00    -0.206 F 
ATOM     82  C   UNL A   1      43.146  21.943  24.895  1.00  0.00     0.022 A 
BRANCH  79  83
ATOM     83  S   UNL A   1      41.684  20.061  26.326  1.00  0.00     0.124 S 
ATOM     84  O   UNL A   1      40.249  20.316  26.236  1.00  0.00    -0.237 OA
ATOM     85  O   UNL A   1      42.271  19.277  25.245  1.00  0.00    -0.237 OA
ATOM     86  O   UNL A   1      42.168  19.724  27.665  1.00  0.00    -0.744 OA
ENDBRANCH  79  83
ENDBRANCH  62  76
BRANCH  63  87
ATOM     87  C   UNL A   1      40.953  31.953  32.399  1.00  0.00     0.023 A 
ATOM     88  C   UNL A   1      40.346  31.154  33.400  1.00  0.00     0.031 A 
ATOM     89  C   UNL A   1      40.693  33.329  32.424  1.00  0.00     0.131 A 
ATOM     90  C   UNL A   1      39.722  31.752  34.508  1.00  0.00     0.055 A 
ATOM     91  C   UNL A   1      39.977  33.912  33.483  1.00  0.00     0.041 A 
ATOM     92  F   UNL A   1      41.243  34.148  31.517  1.00  0.00    -0.206 F 
ATOM     93  C   UNL A   1      39.547  33.135  34.561  1.00  0.00     0.022 A 
BRANCH  90  94
ATOM     94  S   UNL A   1      39.446  30.740  35.998  1.00  0.00     0.124 S 
ATOM     95  O   UNL A   1      39.642  31.705  37.073  1.00  0.00    -0.237 OA
ATOM     96  O   UNL A   1      38.074  30.259  35.824  1.00  0.00    -0.237 OA
ATOM     97  O   UNL A   1      40.454  29.685  35.905  1.00  0.00    -0.744 OA
ENDBRANCH  90  94
ENDBRANCH  63  87
BRANCH  75  98
ATOM     98  C   UNL A   1      45.255  26.093  32.697  1.00  0.00     0.023 A 
ATOM     99  C   UNL A   1      44.563  25.122  33.429  1.00  0.00     0.031 A 
ATOM    100  C   UNL A   1      46.666  26.016  32.757  1.00  0.00     0.131 A 
ATOM    101  C   UNL A   1      45.236  24.252  34.295  1.00  0.00     0.055 A 
ATOM    102  C   UNL A   1      47.341  25.057  33.517  1.00  0.00     0.041 A 
ATOM    103  F   UNL A   1      47.454  26.863  32.077  1.00  0.00    -0.206 F 
ATOM    104  C   UNL A   1      46.625  24.187  34.324  1.00  0.00     0.022 A 
BRANCH 101 105
ATOM    105  S   UNL A   1      44.233  23.327  35.480  1.00  0.00     0.124 S 
ATOM    106  O   UNL A   1      44.902  22.028  35.480  1.00  0.00    -0.237 OA
ATOM    107  O   UNL A   1      44.381  24.112  36.701  1.00  0.00    -0.237 OA
ATOM    108  O   UNL A   1      42.899  23.340  34.885  1.00  0.00    -0.744 OA
ENDBRANCH 101 105
ENDBRANCH  75  98
ENDBRANCH  49  50
ENDBRANCH  41  44
ENDBRANCH  39  40
ENDBRANCH  38  39
ENDBRANCH   1  38
TORSDOF 17
ENDMDL
MODEL 3
REMARK VINA RESULT:     -12.4      2.458      3.733
REMARK SMILES Cc1ccc(-c2cnnc(-n3nc(C)c4c3NC(=O)C[C@@H]4c3ccc(C(=O)NCCCCNC(=O)c4ccc(-c5c6nc(c(-c7cc(S(=O)(=O)[O-])ccc7F)c7ccc([nH]7)c(-c7cc(S(=O)(=O)[O-])ccc7F)c7nc(c(-c8cc(S(=O)(=O)[O-])ccc8F)c8ccc5[nH]8)C=C7)C=C6)cc4)cc3)n2)cc1
REMARK SMILES IDX 30 1 29 2 28 3 26 4 27 5 25 7 22 8 23 9 100 10 24 11 99 12
REMARK SMILES IDX 21 13 11 14 12 15 16 16 13 17 15 18 17 19 14 20 18 21 20 23
REMARK SMILES IDX 19 24 10 25 6 26 7 27 101 28 8 29 9 30 5 31 1 32 2 33 3 34
REMARK SMILES IDX 103 35 4 36 102 37 31 38 32 39 33 40 34 41 35 43 36 44 37 45
REMARK SMILES IDX 98 46 38 47 97 48 39 49 40 50 41 51 91 52 42 53 96 54 90 55
REMARK SMILES IDX 92 56 43 57 95 58 89 59 88 60 44 62 76 63 56 64 75 65 57 66
REMARK SMILES IDX 60 67 74 68 93 69 58 70 59 71 73 73 94 74 61 75 45 76 46 77
REMARK SMILES IDX 54 78 47 79 53 80 55 81 52 82 48 83 49 84 50 85 51 86 77 87
REMARK SMILES IDX 78 88 86 89 79 90 85 91 87 92 84 93 80 94 81 95 82 96 83 97
REMARK SMILES IDX 62 98 63 99 71 100 64 101 70 102 72 103 69 104 65 105 66 106
REMARK SMILES IDX 67 107 68 108
REMARK H PARENT 28 6 17 22 33 42 92 61 60 72
REMARK Flexibility Score: inf
ROOT
ATOM      1  C   UNL A   1      31.267  30.905  26.300  1.00  0.00     0.023 C 
ENDROOT
BRANCH   1   2
ATOM      2  C   UNL A   1      31.181  31.955  25.179  1.00  0.00     0.116 C 
BRANCH   2   3
ATOM      3  N   UNL A   1      29.824  32.089  24.639  1.00  0.00    -0.352 N 
ATOM      4  C   UNL A   1      29.028  31.201  23.954  1.00  0.00     0.251 C 
ATOM      5  O   UNL A   1      27.854  31.487  23.721  1.00  0.00    -0.269 OA
ATOM      6  H   UNL A   1      29.410  32.969  24.795  1.00  0.00     0.163 HD
BRANCH   4   7
ATOM      7  C   UNL A   1      29.537  29.877  23.525  1.00  0.00     0.039 A 
ATOM      8  C   UNL A   1      30.545  27.291  23.089  1.00  0.00    -0.040 A 
ATOM      9  C   UNL A   1      29.170  27.497  23.312  1.00  0.00     0.005 A 
ATOM     10  C   UNL A   1      31.352  28.413  22.893  1.00  0.00     0.005 A 
ATOM     11  C   UNL A   1      28.667  28.784  23.523  1.00  0.00     0.014 A 
ATOM     12  C   UNL A   1      30.851  29.687  23.120  1.00  0.00     0.014 A 
BRANCH   8  13
ATOM     13  C   UNL A   1      31.077  25.877  23.130  1.00  0.00     0.064 C 
ATOM     14  N   UNL A   1      34.175  25.103  24.826  1.00  0.00    -0.180 N 
ATOM     15  N   UNL A   1      33.618  25.746  25.878  1.00  0.00    -0.168 NA
ATOM     16  C   UNL A   1      33.516  25.482  23.670  1.00  0.00     0.143 A 
ATOM     17  C   UNL A   1      32.392  26.080  25.466  1.00  0.00     0.066 A 
ATOM     18  C   UNL A   1      32.227  25.778  24.082  1.00  0.00     0.026 A 
ATOM     19  N   UNL A   1      33.881  25.619  22.344  1.00  0.00    -0.310 N 
ATOM     20  C   UNL A   1      31.507  26.789  26.430  1.00  0.00     0.069 C 
ATOM     21  C   UNL A   1      32.848  25.864  21.373  1.00  0.00     0.226 C 
ATOM     22  H   UNL A   1      34.823  25.551  22.070  1.00  0.00     0.171 HD
ATOM     23  C   UNL A   1      31.471  25.362  21.746  1.00  0.00     0.113 C 
ATOM     24  O   UNL A   1      33.170  26.313  20.302  1.00  0.00    -0.275 OA
BRANCH  14  25
ATOM     25  C   UNL A   1      34.958  23.930  25.041  1.00  0.00     0.272 A 
ATOM     26  C   UNL A   1      35.263  21.677  25.246  1.00  0.00     0.095 A 
ATOM     27  C   UNL A   1      36.469  21.908  25.886  1.00  0.00     0.164 A 
ATOM     28  N   UNL A   1      34.440  22.693  24.853  1.00  0.00    -0.208 NA
ATOM     29  N   UNL A   1      36.919  23.149  26.083  1.00  0.00    -0.153 NA
ATOM     30  N   UNL A   1      36.170  24.166  25.613  1.00  0.00    -0.109 NA
BRANCH  26  31
ATOM     31  C   UNL A   1      34.892  20.309  24.865  1.00  0.00     0.002 A 
ATOM     32  C   UNL A   1      33.803  16.202  24.030  1.00  0.00     0.044 C 
ATOM     33  C   UNL A   1      34.184  17.620  24.339  1.00  0.00    -0.051 A 
ATOM     34  C   UNL A   1      33.207  18.619  24.353  1.00  0.00     0.004 A 
ATOM     35  C   UNL A   1      35.512  17.965  24.600  1.00  0.00     0.004 A 
ATOM     36  C   UNL A   1      33.556  19.949  24.613  1.00  0.00     0.011 A 
ATOM     37  C   UNL A   1      35.861  19.295  24.855  1.00  0.00     0.011 A 
ENDBRANCH  26  31
ENDBRANCH  14  25
ENDBRANCH   8  13
ENDBRANCH   4   7
ENDBRANCH   2   3
ENDBRANCH   1   2
BRANCH   1  38
ATOM     38  C   UNL A   1      32.609  30.196  26.439  1.00  0.00     0.023 C 
BRANCH  38  39
ATOM     39  C   UNL A   1      33.323  30.462  27.750  1.00  0.00     0.116 C 
BRANCH  39  40
ATOM     40  N   UNL A   1      34.300  31.539  27.743  1.00  0.00    -0.352 N 
ATOM     41  C   UNL A   1      35.622  31.513  28.167  1.00  0.00     0.251 C 
ATOM     42  H   UNL A   1      33.981  32.402  27.393  1.00  0.00     0.163 HD
ATOM     43  O   UNL A   1      36.264  32.551  28.310  1.00  0.00    -0.269 OA
BRANCH  41  44
ATOM     44  C   UNL A   1      36.344  30.210  28.237  1.00  0.00     0.039 A 
ATOM     45  C   UNL A   1      36.645  29.737  29.525  1.00  0.00     0.014 A 
ATOM     46  C   UNL A   1      37.033  29.711  27.141  1.00  0.00     0.014 A 
ATOM     47  C   UNL A   1      37.836  29.058  29.737  1.00  0.00     0.010 A 
ATOM     48  C   UNL A   1      38.282  29.196  27.354  1.00  0.00     0.010 A 
ATOM     49  C   UNL A   1      38.699  28.934  28.657  1.00  0.00    -0.014 A 
BRANCH  49  50
ATOM     50  C   UNL A   1      40.071  28.492  28.743  1.00  0.00     0.031 A 
ATOM     51  C   UNL A   1      40.301  27.048  28.649  1.00  0.00     0.074 A 
ATOM     52  C   UNL A   1      41.032  29.437  28.711  1.00  0.00     0.049 A 
ATOM     53  N   UNL A   1      41.321  26.431  29.116  1.00  0.00    -0.248 NA
ATOM     54  C   UNL A   1      39.312  26.152  28.051  1.00  0.00     0.031 C 
ATOM     55  C   UNL A   1      42.467  29.290  28.507  1.00  0.00     0.029 A 
ATOM     56  N   UNL A   1      40.876  30.771  29.083  1.00  0.00    -0.354 N 
ATOM     57  C   UNL A   1      41.294  25.153  28.594  1.00  0.00     0.074 A 
ATOM     58  C   UNL A   1      39.967  24.991  28.065  1.00  0.00     0.031 C 
ATOM     59  C   UNL A   1      43.088  30.368  29.024  1.00  0.00     0.029 A 
ATOM     60  C   UNL A   1      42.074  31.171  29.698  1.00  0.00     0.049 A 
ATOM     61  H   UNL A   1      40.076  31.327  28.944  1.00  0.00     0.167 HD
ATOM     62  C   UNL A   1      42.469  24.470  28.506  1.00  0.00     0.034 A 
ATOM     63  C   UNL A   1      42.056  31.448  31.037  1.00  0.00     0.034 A 
ATOM     64  C   UNL A   1      43.540  25.262  29.119  1.00  0.00     0.049 A 
ATOM     65  C   UNL A   1      42.808  30.393  31.824  1.00  0.00     0.074 A 
ATOM     66  C   UNL A   1      44.476  26.125  28.571  1.00  0.00     0.029 A 
ATOM     67  N   UNL A   1      43.479  25.556  30.477  1.00  0.00    -0.354 N 
ATOM     68  N   UNL A   1      43.024  29.174  31.402  1.00  0.00    -0.248 NA
ATOM     69  C   UNL A   1      43.446  30.665  33.107  1.00  0.00     0.031 C 
ATOM     70  C   UNL A   1      44.870  27.034  29.592  1.00  0.00     0.029 A 
ATOM     71  C   UNL A   1      44.210  26.695  30.762  1.00  0.00     0.049 A 
ATOM     72  H   UNL A   1      42.985  25.025  31.143  1.00  0.00     0.167 HD
ATOM     73  C   UNL A   1      43.828  28.516  32.294  1.00  0.00     0.074 A 
ATOM     74  C   UNL A   1      44.073  29.499  33.339  1.00  0.00     0.031 C 
ATOM     75  C   UNL A   1      44.254  27.224  32.117  1.00  0.00     0.034 A 
BRANCH  62  76
ATOM     76  C   UNL A   1      42.731  23.293  27.589  1.00  0.00     0.023 A 
ATOM     77  C   UNL A   1      43.728  23.436  26.603  1.00  0.00     0.031 A 
ATOM     78  C   UNL A   1      42.042  22.063  27.562  1.00  0.00     0.131 A 
ATOM     79  C   UNL A   1      43.948  22.456  25.619  1.00  0.00     0.055 A 
ATOM     80  C   UNL A   1      42.238  21.095  26.566  1.00  0.00     0.041 A 
ATOM     81  F   UNL A   1      41.179  21.704  28.517  1.00  0.00    -0.206 F 
ATOM     82  C   UNL A   1      43.190  21.291  25.580  1.00  0.00     0.022 A 
BRANCH  79  83
ATOM     83  S   UNL A   1      45.242  22.737  24.385  1.00  0.00     0.124 S 
ATOM     84  O   UNL A   1      45.427  24.183  24.460  1.00  0.00    -0.237 OA
ATOM     85  O   UNL A   1      46.337  21.918  24.892  1.00  0.00    -0.237 OA
ATOM     86  O   UNL A   1      44.637  22.256  23.143  1.00  0.00    -0.744 OA
ENDBRANCH  79  83
ENDBRANCH  62  76
BRANCH  63  87
ATOM     87  C   UNL A   1      40.785  32.144  31.439  1.00  0.00     0.023 A 
ATOM     88  C   UNL A   1      39.824  31.344  32.105  1.00  0.00     0.031 A 
ATOM     89  C   UNL A   1      40.725  33.530  31.637  1.00  0.00     0.131 A 
ATOM     90  C   UNL A   1      39.013  31.896  33.111  1.00  0.00     0.055 A 
ATOM     91  C   UNL A   1      39.837  34.088  32.572  1.00  0.00     0.041 A 
ATOM     92  F   UNL A   1      41.610  34.347  31.050  1.00  0.00    -0.206 F 
ATOM     93  C   UNL A   1      39.026  33.268  33.359  1.00  0.00     0.022 A 
BRANCH  90  94
ATOM     94  S   UNL A   1      38.203  30.765  34.289  1.00  0.00     0.124 S 
ATOM     95  O   UNL A   1      39.339  30.119  34.935  1.00  0.00    -0.237 OA
ATOM     96  O   UNL A   1      37.424  31.669  35.136  1.00  0.00    -0.237 OA
ATOM     97  O   UNL A   1      37.381  29.899  33.444  1.00  0.00    -0.744 OA
ENDBRANCH  90  94
ENDBRANCH  63  87
BRANCH  75  98
ATOM     98  C   UNL A   1      44.856  26.380  33.214  1.00  0.00     0.023 A 
ATOM     99  C   UNL A   1      46.235  26.166  33.311  1.00  0.00     0.031 A 
ATOM    100  C   UNL A   1      44.074  25.819  34.250  1.00  0.00     0.131 A 
ATOM    101  C   UNL A   1      46.767  25.306  34.278  1.00  0.00     0.055 A 
ATOM    102  C   UNL A   1      44.624  25.072  35.295  1.00  0.00     0.041 A 
ATOM    103  F   UNL A   1      42.742  25.976  34.300  1.00  0.00    -0.206 F 
ATOM    104  C   UNL A   1      45.979  24.779  35.294  1.00  0.00     0.022 A 
BRANCH 101 105
ATOM    105  S   UNL A   1      48.486  24.786  34.064  1.00  0.00     0.124 S 
ATOM    106  O   UNL A   1      49.168  25.615  35.055  1.00  0.00    -0.237 OA
ATOM    107  O   UNL A   1      48.425  23.361  34.371  1.00  0.00    -0.237 OA
ATOM    108  O   UNL A   1      48.774  25.116  32.671  1.00  0.00    -0.744 OA
ENDBRANCH 101 105
ENDBRANCH  75  98
ENDBRANCH  49  50
ENDBRANCH  41  44
ENDBRANCH  39  40
ENDBRANCH  38  39
ENDBRANCH   1  38
TORSDOF 17
ENDMDL
