MODEL 1
REMARK VINA RESULT:     -11.3      0.000      0.000
REMARK SMILES C[C@]1(C(=O)NCc2ccc(C(=O)NCCCCNC(=O)c3ccc(-c4c5nc(c(-c6cc(S(=O)(=O)[O-])ccc6F)c6ccc([nH]6)c(-c6cc(S(=O)(=O)[O-])ccc6F)c6nc(c(-c7cc(S(=O)(=O)[O-])ccc7F)c7ccc4[nH]7)C=C6)C=C5)cc3)o2)CCC[NH2+]C1
REMARK SMILES IDX 15 1 14 2 13 3 11 4 12 5 10 7 7 8 8 9 84 10 9 11 6 12 5 13
REMARK SMILES IDX 3 14 4 15 2 17 1 18 85 19 89 20 86 21 88 22 87 23 16 26
REMARK SMILES IDX 17 27 18 28 19 29 20 31 21 32 22 33 83 34 23 35 82 36 24 37
REMARK SMILES IDX 25 38 26 39 76 40 27 41 81 42 75 43 77 44 28 45 80 46 74 47
REMARK SMILES IDX 73 48 29 50 61 51 41 52 60 53 42 54 45 55 59 56 78 57 43 58
REMARK SMILES IDX 44 59 58 61 79 62 46 63 30 64 31 65 39 66 32 67 38 68 40 69
REMARK SMILES IDX 37 70 33 71 34 72 35 73 36 74 62 75 63 76 71 77 64 78 70 79
REMARK SMILES IDX 72 80 69 81 65 82 66 83 67 84 68 85 47 86 48 87 56 88 49 89
REMARK SMILES IDX 55 90 57 91 54 92 50 93 51 94 52 95 53 96
REMARK H PARENT 13 6 5 16 88 24 88 25 18 30 77 49 45 60
REMARK Flexibility Score: inf
ROOT
ATOM      1  C   UNL A   1      34.748  30.555  27.718  1.00  0.00     0.023 C 
ENDROOT
BRANCH   1   2
ATOM      2  C   UNL A   1      34.400  29.233  27.035  1.00  0.00     0.116 C 
BRANCH   2   3
ATOM      3  N   UNL A   1      33.287  28.590  27.689  1.00  0.00    -0.349 N 
ATOM      4  C   UNL A   1      32.003  28.366  27.258  1.00  0.00     0.286 C 
ATOM      5  O   UNL A   1      31.260  27.810  28.072  1.00  0.00    -0.266 OA
ATOM      6  H   UNL A   1      33.480  28.256  28.595  1.00  0.00     0.163 HD
BRANCH   4   7
ATOM      7  C   UNL A   1      31.556  28.751  25.929  1.00  0.00     0.191 A 
ATOM      8  C   UNL A   1      30.866  28.215  23.889  1.00  0.00     0.124 A 
ATOM      9  C   UNL A   1      30.937  29.587  23.918  1.00  0.00     0.048 A 
ATOM     10  O   UNL A   1      31.236  27.709  25.092  1.00  0.00    -0.454 OA
ATOM     11  C   UNL A   1      31.350  29.930  25.229  1.00  0.00     0.056 A 
BRANCH   8  12
ATOM     12  C   UNL A   1      30.477  27.209  22.881  1.00  0.00     0.191 C 
BRANCH  12  13
ATOM     13  N   UNL A   1      31.608  26.876  22.050  1.00  0.00    -0.348 N 
ATOM     14  C   UNL A   1      32.687  26.078  22.160  1.00  0.00     0.232 C 
ATOM     15  O   UNL A   1      33.502  26.218  21.232  1.00  0.00    -0.274 OA
ATOM     16  H   UNL A   1      31.587  27.352  21.188  1.00  0.00     0.163 HD
BRANCH  14  17
ATOM     17  C   UNL A   1      33.017  25.097  23.311  1.00  0.00     0.095 C 
ATOM     18  C   UNL A   1      33.968  25.874  24.258  1.00  0.00     0.028 C 
ATOM     19  C   UNL A   1      31.901  24.494  24.180  1.00  0.00     0.028 C 
ATOM     20  C   UNL A   1      33.813  23.925  22.670  1.00  0.00     0.277 C 
ATOM     21  C   UNL A   1      31.086  23.412  23.467  1.00  0.00     0.063 C 
ATOM     22  N   UNL A   1      32.951  22.986  21.938  1.00  0.00    -0.345 N 
ATOM     23  C   UNL A   1      31.979  22.359  22.826  1.00  0.00     0.260 C 
ATOM     24  H   UNL A   1      32.454  23.495  21.205  1.00  0.00     0.346 HD
ATOM     25  H   UNL A   1      33.539  22.256  21.534  1.00  0.00     0.346 HD
ENDBRANCH  14  17
ENDBRANCH  12  13
ENDBRANCH   8  12
ENDBRANCH   4   7
ENDBRANCH   2   3
ENDBRANCH   1   2
BRANCH   1  26
ATOM     26  C   UNL A   1      33.590  31.559  27.739  1.00  0.00     0.023 C 
BRANCH  26  27
ATOM     27  C   UNL A   1      33.979  32.994  27.393  1.00  0.00     0.116 C 
BRANCH  27  28
ATOM     28  N   UNL A   1      33.195  33.991  28.106  1.00  0.00    -0.352 N 
ATOM     29  C   UNL A   1      33.382  34.462  29.385  1.00  0.00     0.251 C 
ATOM     30  H   UNL A   1      32.435  34.377  27.611  1.00  0.00     0.163 HD
ATOM     31  O   UNL A   1      32.569  35.224  29.888  1.00  0.00    -0.269 OA
BRANCH  29  32
ATOM     32  C   UNL A   1      34.555  33.987  30.144  1.00  0.00     0.039 A 
ATOM     33  C   UNL A   1      34.366  33.024  31.137  1.00  0.00     0.014 A 
ATOM     34  C   UNL A   1      35.837  34.438  29.820  1.00  0.00     0.014 A 
ATOM     35  C   UNL A   1      35.479  32.459  31.759  1.00  0.00     0.010 A 
ATOM     36  C   UNL A   1      36.945  33.820  30.388  1.00  0.00     0.010 A 
ATOM     37  C   UNL A   1      36.777  32.821  31.359  1.00  0.00    -0.014 A 
BRANCH  37  38
ATOM     38  C   UNL A   1      37.969  32.152  31.942  1.00  0.00     0.031 A 
ATOM     39  C   UNL A   1      38.647  31.038  31.196  1.00  0.00     0.074 A 
ATOM     40  C   UNL A   1      38.400  32.518  33.166  1.00  0.00     0.049 A 
ATOM     41  N   UNL A   1      39.668  30.304  31.556  1.00  0.00    -0.248 NA
ATOM     42  C   UNL A   1      38.083  30.681  29.885  1.00  0.00     0.031 C 
ATOM     43  C   UNL A   1      37.787  33.551  34.004  1.00  0.00     0.029 A 
ATOM     44  N   UNL A   1      39.449  32.061  33.922  1.00  0.00    -0.354 N 
ATOM     45  C   UNL A   1      39.865  29.396  30.522  1.00  0.00     0.074 A 
ATOM     46  C   UNL A   1      38.814  29.628  29.555  1.00  0.00     0.031 C 
ATOM     47  C   UNL A   1      38.490  33.671  35.141  1.00  0.00     0.029 A 
ATOM     48  C   UNL A   1      39.574  32.694  35.137  1.00  0.00     0.049 A 
ATOM     49  H   UNL A   1      40.057  31.346  33.623  1.00  0.00     0.167 HD
ATOM     50  C   UNL A   1      40.848  28.472  30.382  1.00  0.00     0.034 A 
ATOM     51  C   UNL A   1      40.458  32.504  36.136  1.00  0.00     0.034 A 
ATOM     52  C   UNL A   1      41.893  28.263  31.354  1.00  0.00     0.049 A 
ATOM     53  C   UNL A   1      41.530  31.457  35.964  1.00  0.00     0.074 A 
ATOM     54  C   UNL A   1      42.970  27.397  31.289  1.00  0.00     0.029 A 
ATOM     55  N   UNL A   1      41.988  28.922  32.574  1.00  0.00    -0.354 N 
ATOM     56  N   UNL A   1      41.741  30.648  34.952  1.00  0.00    -0.248 NA
ATOM     57  C   UNL A   1      42.491  31.308  37.064  1.00  0.00     0.031 C 
ATOM     58  C   UNL A   1      43.674  27.479  32.495  1.00  0.00     0.029 A 
ATOM     59  C   UNL A   1      43.086  28.455  33.283  1.00  0.00     0.049 A 
ATOM     60  H   UNL A   1      41.368  29.617  32.889  1.00  0.00     0.167 HD
ATOM     61  C   UNL A   1      42.877  29.914  35.282  1.00  0.00     0.074 A 
ATOM     62  C   UNL A   1      43.316  30.393  36.577  1.00  0.00     0.031 C 
ATOM     63  C   UNL A   1      43.502  28.933  34.582  1.00  0.00     0.034 A 
BRANCH  50  64
ATOM     64  C   UNL A   1      40.819  27.609  29.143  1.00  0.00     0.023 A 
ATOM     65  C   UNL A   1      41.735  27.792  28.092  1.00  0.00     0.031 A 
ATOM     66  C   UNL A   1      39.848  26.602  28.998  1.00  0.00     0.131 A 
ATOM     67  C   UNL A   1      41.615  27.037  26.916  1.00  0.00     0.055 A 
ATOM     68  C   UNL A   1      39.786  25.796  27.859  1.00  0.00     0.041 A 
ATOM     69  F   UNL A   1      38.930  26.393  29.956  1.00  0.00    -0.206 F 
ATOM     70  C   UNL A   1      40.665  26.021  26.803  1.00  0.00     0.022 A 
BRANCH  67  71
ATOM     71  S   UNL A   1      42.628  27.499  25.483  1.00  0.00     0.124 S 
ATOM     72  O   UNL A   1      43.918  27.775  26.111  1.00  0.00    -0.237 OA
ATOM     73  O   UNL A   1      42.564  26.301  24.653  1.00  0.00    -0.237 OA
ATOM     74  O   UNL A   1      41.942  28.670  24.943  1.00  0.00    -0.744 OA
ENDBRANCH  67  71
ENDBRANCH  50  64
BRANCH  51  75
ATOM     75  C   UNL A   1      40.373  33.309  37.390  1.00  0.00     0.023 A 
ATOM     76  C   UNL A   1      39.730  32.804  38.531  1.00  0.00     0.031 A 
ATOM     77  C   UNL A   1      40.889  34.616  37.448  1.00  0.00     0.131 A 
ATOM     78  C   UNL A   1      39.572  33.619  39.664  1.00  0.00     0.055 A 
ATOM     79  C   UNL A   1      40.779  35.402  38.597  1.00  0.00     0.041 A 
ATOM     80  F   UNL A   1      41.518  35.146  36.387  1.00  0.00    -0.206 F 
ATOM     81  C   UNL A   1      40.104  34.909  39.709  1.00  0.00     0.022 A 
BRANCH  78  82
ATOM     82  S   UNL A   1      38.574  33.000  41.046  1.00  0.00     0.124 S 
ATOM     83  O   UNL A   1      37.447  33.926  41.036  1.00  0.00    -0.237 OA
ATOM     84  O   UNL A   1      38.286  31.634  40.623  1.00  0.00    -0.237 OA
ATOM     85  O   UNL A   1      39.471  33.118  42.194  1.00  0.00    -0.744 OA
ENDBRANCH  78  82
ENDBRANCH  51  75
BRANCH  63  86
ATOM     86  C   UNL A   1      44.751  28.347  35.193  1.00  0.00     0.023 A 
ATOM     87  C   UNL A   1      44.710  27.192  35.993  1.00  0.00     0.031 A 
ATOM     88  C   UNL A   1      45.997  28.966  34.989  1.00  0.00     0.131 A 
ATOM     89  C   UNL A   1      45.880  26.730  36.614  1.00  0.00     0.055 A 
ATOM     90  C   UNL A   1      47.170  28.462  35.554  1.00  0.00     0.041 A 
ATOM     91  F   UNL A   1      46.096  30.074  34.237  1.00  0.00    -0.206 F 
ATOM     92  C   UNL A   1      47.112  27.346  36.385  1.00  0.00     0.022 A 
BRANCH  89  93
ATOM     93  S   UNL A   1      45.752  25.374  37.812  1.00  0.00     0.124 S 
ATOM     94  O   UNL A   1      46.019  24.207  36.977  1.00  0.00    -0.237 OA
ATOM     95  O   UNL A   1      46.790  25.715  38.781  1.00  0.00    -0.237 OA
ATOM     96  O   UNL A   1      44.381  25.482  38.308  1.00  0.00    -0.744 OA
ENDBRANCH  89  93
ENDBRANCH  63  86
ENDBRANCH  37  38
ENDBRANCH  29  32
ENDBRANCH  27  28
ENDBRANCH  26  27
ENDBRANCH   1  26
TORSDOF 17
ENDMDL
MODEL 2
REMARK VINA RESULT:     -11.3      2.826      4.017
REMARK SMILES C[C@]1(C(=O)NCc2ccc(C(=O)NCCCCNC(=O)c3ccc(-c4c5nc(c(-c6cc(S(=O)(=O)[O-])ccc6F)c6ccc([nH]6)c(-c6cc(S(=O)(=O)[O-])ccc6F)c6nc(c(-c7cc(S(=O)(=O)[O-])ccc7F)c7ccc4[nH]7)C=C6)C=C5)cc3)o2)CCC[NH2+]C1
REMARK SMILES IDX 15 1 14 2 13 3 11 4 12 5 10 7 7 8 8 9 84 10 9 11 6 12 5 13
REMARK SMILES IDX 3 14 4 15 2 17 1 18 85 19 89 20 86 21 88 22 87 23 16 26
REMARK SMILES IDX 17 27 18 28 19 29 20 31 21 32 22 33 83 34 23 35 82 36 24 37
REMARK SMILES IDX 25 38 26 39 76 40 27 41 81 42 75 43 77 44 28 45 80 46 74 47
REMARK SMILES IDX 73 48 29 50 61 51 41 52 60 53 42 54 45 55 59 56 78 57 43 58
REMARK SMILES IDX 44 59 58 61 79 62 46 63 30 64 31 65 39 66 32 67 38 68 40 69
REMARK SMILES IDX 37 70 33 71 34 72 35 73 36 74 62 75 63 76 71 77 64 78 70 79
REMARK SMILES IDX 72 80 69 81 65 82 66 83 67 84 68 85 47 86 48 87 56 88 49 89
REMARK SMILES IDX 55 90 57 91 54 92 50 93 51 94 52 95 53 96
REMARK H PARENT 13 6 5 16 88 24 88 25 18 30 77 49 45 60
REMARK Flexibility Score: inf
ROOT
ATOM      1  C   UNL A   1      31.376  28.341  24.370  1.00  0.00     0.023 C 
ENDROOT
BRANCH   1   2
ATOM      2  C   UNL A   1      31.320  26.825  24.186  1.00  0.00     0.116 C 
BRANCH   2   3
ATOM      3  N   UNL A   1      30.491  26.212  25.195  1.00  0.00    -0.349 N 
ATOM      4  C   UNL A   1      30.746  25.170  26.052  1.00  0.00     0.286 C 
ATOM      5  O   UNL A   1      29.810  24.849  26.790  1.00  0.00    -0.266 OA
ATOM      6  H   UNL A   1      29.593  26.606  25.284  1.00  0.00     0.163 HD
BRANCH   4   7
ATOM      7  C   UNL A   1      32.036  24.500  26.091  1.00  0.00     0.191 A 
ATOM      8  C   UNL A   1      33.262  22.678  26.411  1.00  0.00     0.124 A 
ATOM      9  C   UNL A   1      34.151  23.692  26.141  1.00  0.00     0.048 A 
ATOM     10  O   UNL A   1      31.993  23.158  26.382  1.00  0.00    -0.454 OA
ATOM     11  C   UNL A   1      33.366  24.849  25.909  1.00  0.00     0.056 A 
BRANCH   8  12
ATOM     12  C   UNL A   1      33.378  21.235  26.699  1.00  0.00     0.191 C 
BRANCH  12  13
ATOM     13  N   UNL A   1      34.422  20.650  25.892  1.00  0.00    -0.348 N 
ATOM     14  C   UNL A   1      34.494  19.682  24.959  1.00  0.00     0.232 C 
ATOM     15  O   UNL A   1      35.658  19.403  24.627  1.00  0.00    -0.274 OA
ATOM     16  H   UNL A   1      35.299  21.061  26.067  1.00  0.00     0.163 HD
BRANCH  14  17
ATOM     17  C   UNL A   1      33.322  18.881  24.342  1.00  0.00     0.095 C 
ATOM     18  C   UNL A   1      32.423  19.933  23.643  1.00  0.00     0.028 C 
ATOM     19  C   UNL A   1      33.583  17.756  23.327  1.00  0.00     0.028 C 
ATOM     20  C   UNL A   1      32.530  18.276  25.537  1.00  0.00     0.277 C 
ATOM     21  C   UNL A   1      34.148  16.480  23.957  1.00  0.00     0.063 C 
ATOM     22  N   UNL A   1      33.197  17.106  26.126  1.00  0.00    -0.345 N 
ATOM     23  C   UNL A   1      33.325  16.026  25.154  1.00  0.00     0.260 C 
ATOM     24  H   UNL A   1      34.128  17.380  26.443  1.00  0.00     0.346 HD
ATOM     25  H   UNL A   1      32.633  16.773  26.908  1.00  0.00     0.346 HD
ENDBRANCH  14  17
ENDBRANCH  12  13
ENDBRANCH   8  12
ENDBRANCH   4   7
ENDBRANCH   2   3
ENDBRANCH   1   2
BRANCH   1  26
ATOM     26  C   UNL A   1      31.664  28.774  25.811  1.00  0.00     0.023 C 
BRANCH  26  27
ATOM     27  C   UNL A   1      32.874  29.690  25.975  1.00  0.00     0.116 C 
BRANCH  27  28
ATOM     28  N   UNL A   1      32.523  31.043  26.380  1.00  0.00    -0.352 N 
ATOM     29  C   UNL A   1      33.203  31.875  27.239  1.00  0.00     0.251 C 
ATOM     30  H   UNL A   1      31.695  31.407  25.991  1.00  0.00     0.163 HD
ATOM     31  O   UNL A   1      32.721  32.949  27.568  1.00  0.00    -0.269 OA
BRANCH  29  32
ATOM     32  C   UNL A   1      34.496  31.418  27.785  1.00  0.00     0.039 A 
ATOM     33  C   UNL A   1      35.481  32.368  28.057  1.00  0.00     0.014 A 
ATOM     34  C   UNL A   1      34.696  30.071  28.093  1.00  0.00     0.014 A 
ATOM     35  C   UNL A   1      36.648  31.971  28.710  1.00  0.00     0.010 A 
ATOM     36  C   UNL A   1      35.827  29.692  28.809  1.00  0.00     0.010 A 
ATOM     37  C   UNL A   1      36.811  30.640  29.129  1.00  0.00    -0.014 A 
BRANCH  37  38
ATOM     38  C   UNL A   1      38.003  30.227  29.913  1.00  0.00     0.031 A 
ATOM     39  C   UNL A   1      38.979  29.241  29.336  1.00  0.00     0.074 A 
ATOM     40  C   UNL A   1      38.169  30.702  31.164  1.00  0.00     0.049 A 
ATOM     41  N   UNL A   1      40.051  28.724  29.880  1.00  0.00    -0.248 NA
ATOM     42  C   UNL A   1      38.695  28.745  27.980  1.00  0.00     0.031 C 
ATOM     43  C   UNL A   1      37.258  31.624  31.845  1.00  0.00     0.029 A 
ATOM     44  N   UNL A   1      39.158  30.475  32.086  1.00  0.00    -0.354 N 
ATOM     45  C   UNL A   1      40.565  27.840  28.937  1.00  0.00     0.074 A 
ATOM     46  C   UNL A   1      39.648  27.841  27.818  1.00  0.00     0.031 C 
ATOM     47  C   UNL A   1      37.747  31.908  33.063  1.00  0.00     0.029 A 
ATOM     48  C   UNL A   1      38.980  31.155  33.269  1.00  0.00     0.049 A 
ATOM     49  H   UNL A   1      39.925  29.880  31.918  1.00  0.00     0.167 HD
ATOM     50  C   UNL A   1      41.710  27.116  28.993  1.00  0.00     0.034 A 
ATOM     51  C   UNL A   1      39.722  31.165  34.394  1.00  0.00     0.034 A 
ATOM     52  C   UNL A   1      42.617  27.137  30.115  1.00  0.00     0.049 A 
ATOM     53  C   UNL A   1      40.981  30.336  34.437  1.00  0.00     0.074 A 
ATOM     54  C   UNL A   1      43.831  26.490  30.253  1.00  0.00     0.029 A 
ATOM     55  N   UNL A   1      42.404  27.837  31.296  1.00  0.00    -0.354 N 
ATOM     56  N   UNL A   1      41.487  29.553  33.512  1.00  0.00    -0.248 NA
ATOM     57  C   UNL A   1      41.775  30.403  35.670  1.00  0.00     0.031 C 
ATOM     58  C   UNL A   1      44.317  26.738  31.542  1.00  0.00     0.029 A 
ATOM     59  C   UNL A   1      43.448  27.607  32.180  1.00  0.00     0.049 A 
ATOM     60  H   UNL A   1      41.626  28.411  31.479  1.00  0.00     0.167 HD
ATOM     61  C   UNL A   1      42.675  29.057  34.043  1.00  0.00     0.074 A 
ATOM     62  C   UNL A   1      42.818  29.648  35.358  1.00  0.00     0.031 C 
ATOM     63  C   UNL A   1      43.568  28.193  33.496  1.00  0.00     0.034 A 
BRANCH  50  64
ATOM     64  C   UNL A   1      42.028  26.228  27.813  1.00  0.00     0.023 A 
ATOM     65  C   UNL A   1      41.603  24.888  27.760  1.00  0.00     0.031 A 
ATOM     66  C   UNL A   1      42.785  26.719  26.734  1.00  0.00     0.131 A 
ATOM     67  C   UNL A   1      42.000  24.068  26.693  1.00  0.00     0.055 A 
ATOM     68  C   UNL A   1      43.106  25.920  25.635  1.00  0.00     0.041 A 
ATOM     69  F   UNL A   1      43.240  27.983  26.737  1.00  0.00    -0.206 F 
ATOM     70  C   UNL A   1      42.726  24.582  25.617  1.00  0.00     0.022 A 
BRANCH  67  71
ATOM     71  S   UNL A   1      41.677  22.286  26.804  1.00  0.00     0.124 S 
ATOM     72  O   UNL A   1      42.542  21.899  27.916  1.00  0.00    -0.237 OA
ATOM     73  O   UNL A   1      40.243  22.242  27.066  1.00  0.00    -0.237 OA
ATOM     74  O   UNL A   1      42.088  21.781  25.497  1.00  0.00    -0.744 OA
ENDBRANCH  67  71
ENDBRANCH  50  64
BRANCH  51  75
ATOM     75  C   UNL A   1      39.302  31.974  35.575  1.00  0.00     0.023 A 
ATOM     76  C   UNL A   1      38.581  31.395  36.630  1.00  0.00     0.031 A 
ATOM     77  C   UNL A   1      39.572  33.353  35.641  1.00  0.00     0.131 A 
ATOM     78  C   UNL A   1      38.108  32.198  37.681  1.00  0.00     0.055 A 
ATOM     79  C   UNL A   1      39.148  34.138  36.716  1.00  0.00     0.041 A 
ATOM     80  F   UNL A   1      40.262  33.958  34.661  1.00  0.00    -0.206 F 
ATOM     81  C   UNL A   1      38.398  33.563  37.736  1.00  0.00     0.022 A 
BRANCH  78  82
ATOM     82  S   UNL A   1      37.022  31.449  38.925  1.00  0.00     0.124 S 
ATOM     83  O   UNL A   1      35.856  32.324  38.867  1.00  0.00    -0.237 OA
ATOM     84  O   UNL A   1      36.840  30.102  38.396  1.00  0.00    -0.237 OA
ATOM     85  O   UNL A   1      37.806  31.533  40.155  1.00  0.00    -0.744 OA
ENDBRANCH  78  82
ENDBRANCH  51  75
BRANCH  63  86
ATOM     86  C   UNL A   1      44.796  27.872  34.312  1.00  0.00     0.023 A 
ATOM     87  C   UNL A   1      44.838  26.768  35.181  1.00  0.00     0.031 A 
ATOM     88  C   UNL A   1      45.933  28.696  34.235  1.00  0.00     0.131 A 
ATOM     89  C   UNL A   1      45.967  26.555  35.987  1.00  0.00     0.055 A 
ATOM     90  C   UNL A   1      47.079  28.440  34.989  1.00  0.00     0.041 A 
ATOM     91  F   UNL A   1      45.949  29.767  33.425  1.00  0.00    -0.206 F 
ATOM     92  C   UNL A   1      47.095  27.373  35.883  1.00  0.00     0.022 A 
BRANCH  89  93
ATOM     93  S   UNL A   1      45.901  25.257  37.251  1.00  0.00     0.124 S 
ATOM     94  O   UNL A   1      47.034  25.604  38.102  1.00  0.00    -0.237 OA
ATOM     95  O   UNL A   1      44.579  25.459  37.838  1.00  0.00    -0.237 OA
ATOM     96  O   UNL A   1      46.056  24.022  36.485  1.00  0.00    -0.744 OA
ENDBRANCH  89  93
ENDBRANCH  63  86
ENDBRANCH  37  38
ENDBRANCH  29  32
ENDBRANCH  27  28
ENDBRANCH  26  27
ENDBRANCH   1  26
TORSDOF 17
ENDMDL
MODEL 3
REMARK VINA RESULT:     -11.2      2.507      7.990
REMARK SMILES C[C@]1(C(=O)NCc2ccc(C(=O)NCCCCNC(=O)c3ccc(-c4c5nc(c(-c6cc(S(=O)(=O)[O-])ccc6F)c6ccc([nH]6)c(-c6cc(S(=O)(=O)[O-])ccc6F)c6nc(c(-c7cc(S(=O)(=O)[O-])ccc7F)c7ccc4[nH]7)C=C6)C=C5)cc3)o2)CCC[NH2+]C1
REMARK SMILES IDX 15 1 14 2 13 3 11 4 12 5 10 7 7 8 8 9 84 10 9 11 6 12 5 13
REMARK SMILES IDX 3 14 4 15 2 17 1 18 85 19 89 20 86 21 88 22 87 23 16 26
REMARK SMILES IDX 17 27 18 28 19 29 20 31 21 32 22 33 83 34 23 35 82 36 24 37
REMARK SMILES IDX 25 38 26 39 76 40 27 41 81 42 75 43 77 44 28 45 80 46 74 47
REMARK SMILES IDX 73 48 29 50 61 51 41 52 60 53 42 54 45 55 59 56 78 57 43 58
REMARK SMILES IDX 44 59 58 61 79 62 46 63 30 64 31 65 39 66 32 67 38 68 40 69
REMARK SMILES IDX 37 70 33 71 34 72 35 73 36 74 62 75 63 76 71 77 64 78 70 79
REMARK SMILES IDX 72 80 69 81 65 82 66 83 67 84 68 85 47 86 48 87 56 88 49 89
REMARK SMILES IDX 55 90 57 91 54 92 50 93 51 94 52 95 53 96
REMARK H PARENT 13 6 5 16 88 24 88 25 18 30 77 49 45 60
REMARK Flexibility Score: inf
ROOT
ATOM      1  C   UNL A   1      31.774  28.725  26.295  1.00  0.00     0.023 C 
ENDROOT
BRANCH   1   2
ATOM      2  C   UNL A   1      32.451  28.422  24.959  1.00  0.00     0.116 C 
BRANCH   2   3
ATOM      3  N   UNL A   1      31.565  28.700  23.855  1.00  0.00    -0.349 N 
ATOM      4  C   UNL A   1      30.860  27.851  23.038  1.00  0.00     0.286 C 
ATOM      5  O   UNL A   1      30.202  28.397  22.147  1.00  0.00    -0.266 OA
ATOM      6  H   UNL A   1      31.445  29.656  23.654  1.00  0.00     0.163 HD
BRANCH   4   7
ATOM      7  C   UNL A   1      30.880  26.408  23.220  1.00  0.00     0.191 A 
ATOM      8  C   UNL A   1      31.817  24.427  22.873  1.00  0.00     0.124 A 
ATOM      9  C   UNL A   1      30.673  24.185  23.595  1.00  0.00     0.048 A 
ATOM     10  O   UNL A   1      31.946  25.759  22.645  1.00  0.00    -0.454 OA
ATOM     11  C   UNL A   1      30.090  25.453  23.841  1.00  0.00     0.056 A 
BRANCH   8  12
ATOM     12  C   UNL A   1      32.904  23.591  22.323  1.00  0.00     0.191 C 
BRANCH  12  13
ATOM     13  N   UNL A   1      32.880  22.284  22.933  1.00  0.00    -0.348 N 
ATOM     14  C   UNL A   1      33.470  21.701  23.993  1.00  0.00     0.232 C 
ATOM     15  O   UNL A   1      33.267  20.477  24.060  1.00  0.00    -0.274 OA
ATOM     16  H   UNL A   1      32.286  21.663  22.452  1.00  0.00     0.163 HD
BRANCH  14  17
ATOM     17  C   UNL A   1      34.383  22.372  25.047  1.00  0.00     0.095 C 
ATOM     18  C   UNL A   1      35.685  22.743  24.292  1.00  0.00     0.028 C 
ATOM     19  C   UNL A   1      33.923  23.627  25.807  1.00  0.00     0.028 C 
ATOM     20  C   UNL A   1      34.721  21.273  26.095  1.00  0.00     0.277 C 
ATOM     21  C   UNL A   1      32.865  23.342  26.877  1.00  0.00     0.063 C 
ATOM     22  N   UNL A   1      33.611  21.014  27.024  1.00  0.00    -0.345 N 
ATOM     23  C   UNL A   1      33.282  22.205  27.799  1.00  0.00     0.260 C 
ATOM     24  H   UNL A   1      32.790  20.728  26.489  1.00  0.00     0.346 HD
ATOM     25  H   UNL A   1      33.896  20.277  27.669  1.00  0.00     0.346 HD
ENDBRANCH  14  17
ENDBRANCH  12  13
ENDBRANCH   8  12
ENDBRANCH   4   7
ENDBRANCH   2   3
ENDBRANCH   1   2
BRANCH   1  26
ATOM     26  C   UNL A   1      31.400  30.200  26.474  1.00  0.00     0.023 C 
BRANCH  26  27
ATOM     27  C   UNL A   1      32.510  31.189  26.127  1.00  0.00     0.116 C 
BRANCH  27  28
ATOM     28  N   UNL A   1      32.298  32.514  26.690  1.00  0.00    -0.352 N 
ATOM     29  C   UNL A   1      33.062  33.170  27.628  1.00  0.00     0.251 C 
ATOM     30  H   UNL A   1      31.509  33.002  26.360  1.00  0.00     0.163 HD
ATOM     31  O   UNL A   1      32.692  34.240  28.087  1.00  0.00    -0.269 OA
BRANCH  29  32
ATOM     32  C   UNL A   1      34.306  32.527  28.096  1.00  0.00     0.039 A 
ATOM     33  C   UNL A   1      35.447  33.314  28.258  1.00  0.00     0.014 A 
ATOM     34  C   UNL A   1      34.315  31.174  28.441  1.00  0.00     0.014 A 
ATOM     35  C   UNL A   1      36.584  32.753  28.839  1.00  0.00     0.010 A 
ATOM     36  C   UNL A   1      35.424  30.638  29.087  1.00  0.00     0.010 A 
ATOM     37  C   UNL A   1      36.567  31.425  29.297  1.00  0.00    -0.014 A 
BRANCH  37  38
ATOM     38  C   UNL A   1      37.737  30.848  30.008  1.00  0.00     0.031 A 
ATOM     39  C   UNL A   1      38.033  31.255  31.424  1.00  0.00     0.074 A 
ATOM     40  C   UNL A   1      38.558  30.001  29.354  1.00  0.00     0.049 A 
ATOM     41  N   UNL A   1      39.027  30.899  32.196  1.00  0.00    -0.248 NA
ATOM     42  C   UNL A   1      37.106  32.214  32.044  1.00  0.00     0.031 C 
ATOM     43  C   UNL A   1      38.397  29.576  27.962  1.00  0.00     0.029 A 
ATOM     44  N   UNL A   1      39.690  29.349  29.769  1.00  0.00    -0.354 N 
ATOM     45  C   UNL A   1      38.850  31.593  33.388  1.00  0.00     0.074 A 
ATOM     46  C   UNL A   1      37.692  32.443  33.209  1.00  0.00     0.031 C 
ATOM     47  C   UNL A   1      39.375  28.711  27.649  1.00  0.00     0.029 A 
ATOM     48  C   UNL A   1      40.259  28.554  28.800  1.00  0.00     0.049 A 
ATOM     49  H   UNL A   1      40.063  29.441  30.676  1.00  0.00     0.167 HD
ATOM     50  C   UNL A   1      39.572  31.509  34.532  1.00  0.00     0.034 A 
ATOM     51  C   UNL A   1      41.369  27.791  28.834  1.00  0.00     0.034 A 
ATOM     52  C   UNL A   1      40.718  30.647  34.693  1.00  0.00     0.049 A 
ATOM     53  C   UNL A   1      42.165  27.729  30.113  1.00  0.00     0.074 A 
ATOM     54  C   UNL A   1      41.487  30.440  35.824  1.00  0.00     0.029 A 
ATOM     55  N   UNL A   1      41.266  29.857  33.691  1.00  0.00    -0.354 N 
ATOM     56  N   UNL A   1      41.948  28.344  31.253  1.00  0.00    -0.248 NA
ATOM     57  C   UNL A   1      43.348  26.860  30.115  1.00  0.00     0.031 C 
ATOM     58  C   UNL A   1      42.540  29.582  35.488  1.00  0.00     0.029 A 
ATOM     59  C   UNL A   1      42.383  29.188  34.169  1.00  0.00     0.049 A 
ATOM     60  H   UNL A   1      40.913  29.782  32.775  1.00  0.00     0.167 HD
ATOM     61  C   UNL A   1      42.952  27.912  32.115  1.00  0.00     0.074 A 
ATOM     62  C   UNL A   1      43.759  26.969  31.369  1.00  0.00     0.031 C 
ATOM     63  C   UNL A   1      43.188  28.261  33.406  1.00  0.00     0.034 A 
BRANCH  50  64
ATOM     64  C   UNL A   1      39.150  32.388  35.686  1.00  0.00     0.023 A 
ATOM     65  C   UNL A   1      39.585  33.721  35.798  1.00  0.00     0.031 A 
ATOM     66  C   UNL A   1      38.319  31.882  36.701  1.00  0.00     0.131 A 
ATOM     67  C   UNL A   1      39.251  34.475  36.933  1.00  0.00     0.055 A 
ATOM     68  C   UNL A   1      37.922  32.664  37.787  1.00  0.00     0.041 A 
ATOM     69  F   UNL A   1      37.890  30.610  36.663  1.00  0.00    -0.206 F 
ATOM     70  C   UNL A   1      38.400  33.965  37.915  1.00  0.00     0.022 A 
BRANCH  67  71
ATOM     71  S   UNL A   1      40.062  36.080  37.175  1.00  0.00     0.124 S 
ATOM     72  O   UNL A   1      41.414  35.672  37.552  1.00  0.00    -0.237 OA
ATOM     73  O   UNL A   1      39.925  36.703  35.864  1.00  0.00    -0.237 OA
ATOM     74  O   UNL A   1      39.284  36.699  38.245  1.00  0.00    -0.744 OA
ENDBRANCH  67  71
ENDBRANCH  50  64
BRANCH  51  75
ATOM     75  C   UNL A   1      41.804  27.029  27.628  1.00  0.00     0.023 A 
ATOM     76  C   UNL A   1      41.597  25.643  27.532  1.00  0.00     0.031 A 
ATOM     77  C   UNL A   1      42.481  27.667  26.573  1.00  0.00     0.131 A 
ATOM     78  C   UNL A   1      42.106  24.933  26.434  1.00  0.00     0.055 A 
ATOM     79  C   UNL A   1      42.936  26.964  25.455  1.00  0.00     0.041 A 
ATOM     80  F   UNL A   1      42.702  28.991  26.610  1.00  0.00    -0.206 F 
ATOM     81  C   UNL A   1      42.763  25.586  25.389  1.00  0.00     0.022 A 
BRANCH  78  82
ATOM     82  S   UNL A   1      41.984  23.123  26.439  1.00  0.00     0.124 S 
ATOM     83  O   UNL A   1      40.540  22.924  26.499  1.00  0.00    -0.237 OA
ATOM     84  O   UNL A   1      42.627  22.773  25.177  1.00  0.00    -0.237 OA
ATOM     85  O   UNL A   1      42.720  22.735  27.640  1.00  0.00    -0.744 OA
ENDBRANCH  78  82
ENDBRANCH  51  75
BRANCH  63  86
ATOM     86  C   UNL A   1      44.346  27.583  34.097  1.00  0.00     0.023 A 
ATOM     87  C   UNL A   1      44.183  26.375  34.797  1.00  0.00     0.031 A 
ATOM     88  C   UNL A   1      45.625  28.164  34.071  1.00  0.00     0.131 A 
ATOM     89  C   UNL A   1      45.265  25.823  35.500  1.00  0.00     0.055 A 
ATOM     90  C   UNL A   1      46.714  27.574  34.714  1.00  0.00     0.041 A 
ATOM     91  F   UNL A   1      45.839  29.319  33.419  1.00  0.00    -0.206 F 
ATOM     92  C   UNL A   1      46.534  26.404  35.447  1.00  0.00     0.022 A 
BRANCH  89  93
ATOM     93  S   UNL A   1      44.967  24.390  36.570  1.00  0.00     0.124 S 
ATOM     94  O   UNL A   1      46.322  24.021  36.966  1.00  0.00    -0.237 OA
ATOM     95  O   UNL A   1      44.128  24.955  37.622  1.00  0.00    -0.237 OA
ATOM     96  O   UNL A   1      44.297  23.435  35.689  1.00  0.00    -0.744 OA
ENDBRANCH  89  93
ENDBRANCH  63  86
ENDBRANCH  37  38
ENDBRANCH  29  32
ENDBRANCH  27  28
ENDBRANCH  26  27
ENDBRANCH   1  26
TORSDOF 17
ENDMDL
