MODEL 1
REMARK VINA RESULT:     -12.6      0.000      0.000
REMARK SMILES CS(=O)(=O)c1ccc(C2=NN(c3ccc(C(=O)NCCCCNC(=O)c4ccc(-c5c6nc(c(-c7cc(S(=O)(=O)[O-])ccc7F)c7ccc([nH]7)c(-c7cc(S(=O)(=O)[O-])ccc7F)c7nc(c(-c8cc(S(=O)(=O)[O-])ccc8F)c8ccc5[nH]8)C=C7)C=C6)cc4)cc3)[C@H](c3ccc(Cl)cc3)C2)cc1
REMARK SMILES IDX 20 1 19 2 18 3 16 4 17 5 15 7 12 8 13 9 90 10 14 11 89 12
REMARK SMILES IDX 11 13 9 14 10 15 99 16 91 17 8 18 5 19 6 20 101 21 7 22
REMARK SMILES IDX 100 23 2 24 1 25 3 26 4 27 92 28 93 29 98 30 94 31 97 32
REMARK SMILES IDX 95 33 96 34 21 35 22 36 23 37 24 38 25 40 26 41 27 42 88 43
REMARK SMILES IDX 28 44 87 45 29 46 30 47 31 48 81 49 32 50 86 51 80 52 82 53
REMARK SMILES IDX 33 54 85 55 79 56 78 57 34 59 66 60 46 61 65 62 47 63 50 64
REMARK SMILES IDX 64 65 83 66 48 67 49 68 63 70 84 71 51 72 35 73 36 74 44 75
REMARK SMILES IDX 37 76 43 77 45 78 42 79 38 80 39 81 40 82 41 83 67 84 68 85
REMARK SMILES IDX 76 86 69 87 75 88 77 89 74 90 70 91 71 92 72 93 73 94 52 95
REMARK SMILES IDX 53 96 61 97 54 98 60 99 62 100 59 101 55 102 56 103 57 104
REMARK SMILES IDX 58 105
REMARK H PARENT 18 6 23 39 82 58 50 69
REMARK Flexibility Score: inf
ROOT
ATOM      1  C   UNL A   1      33.781  33.379  27.669  1.00  0.00     0.023 C 
ENDROOT
BRANCH   1   2
ATOM      2  C   UNL A   1      33.431  31.890  27.720  1.00  0.00     0.116 C 
BRANCH   2   3
ATOM      3  N   UNL A   1      34.462  31.130  28.403  1.00  0.00    -0.352 N 
ATOM      4  C   UNL A   1      34.887  29.836  28.226  1.00  0.00     0.251 C 
ATOM      5  O   UNL A   1      35.867  29.441  28.857  1.00  0.00    -0.269 OA
ATOM      6  H   UNL A   1      34.936  31.624  29.111  1.00  0.00     0.163 HD
BRANCH   4   7
ATOM      7  C   UNL A   1      34.235  28.918  27.255  1.00  0.00     0.039 A 
ATOM      8  C   UNL A   1      32.943  27.109  25.524  1.00  0.00     0.060 A 
ATOM      9  C   UNL A   1      32.390  27.413  26.773  1.00  0.00     0.029 A 
ATOM     10  C   UNL A   1      34.109  27.766  25.129  1.00  0.00     0.029 A 
ATOM     11  C   UNL A   1      33.031  28.310  27.633  1.00  0.00     0.016 A 
ATOM     12  C   UNL A   1      34.737  28.675  25.977  1.00  0.00     0.016 A 
BRANCH   8  13
ATOM     13  N   UNL A   1      32.371  26.185  24.664  1.00  0.00    -0.257 N 
ATOM     14  C   UNL A   1      32.364  24.227  23.847  1.00  0.00     0.071 C 
ATOM     15  N   UNL A   1      32.507  24.874  24.959  1.00  0.00    -0.176 NA
ATOM     16  C   UNL A   1      32.164  25.066  22.616  1.00  0.00     0.091 C 
ATOM     17  C   UNL A   1      32.151  26.472  23.243  1.00  0.00     0.144 C 
BRANCH  14  18
ATOM     18  C   UNL A   1      32.383  22.758  23.811  1.00  0.00    -0.002 A 
ATOM     19  C   UNL A   1      32.544  19.982  23.836  1.00  0.00     0.067 A 
ATOM     20  C   UNL A   1      32.845  20.696  24.997  1.00  0.00     0.021 A 
ATOM     21  C   UNL A   1      32.171  20.653  22.661  1.00  0.00     0.021 A 
ATOM     22  C   UNL A   1      32.776  22.087  24.977  1.00  0.00     0.011 A 
ATOM     23  C   UNL A   1      32.078  22.048  22.651  1.00  0.00     0.011 A 
BRANCH  19  24
ATOM     24  S   UNL A   1      32.644  18.209  23.785  1.00  0.00     0.175 S 
ATOM     25  C   UNL A   1      34.332  17.771  24.098  1.00  0.00     0.163 C 
ATOM     26  O   UNL A   1      32.344  17.816  22.423  1.00  0.00    -0.224 OA
ATOM     27  O   UNL A   1      31.845  17.728  24.898  1.00  0.00    -0.224 OA
ENDBRANCH  19  24
ENDBRANCH  14  18
BRANCH  17  28
ATOM     28  C   UNL A   1      30.900  27.332  23.074  1.00  0.00    -0.023 A 
ATOM     29  C   UNL A   1      29.623  26.955  23.519  1.00  0.00     0.007 A 
ATOM     30  C   UNL A   1      31.044  28.617  22.508  1.00  0.00     0.007 A 
ATOM     31  C   UNL A   1      28.530  27.823  23.384  1.00  0.00     0.021 A 
ATOM     32  C   UNL A   1      29.960  29.493  22.397  1.00  0.00     0.021 A 
ATOM     33  C   UNL A   1      28.704  29.089  22.831  1.00  0.00     0.041 A 
ATOM     34  Cl  UNL A   1      27.365  30.158  22.700  1.00  0.00    -0.084 Cl
ENDBRANCH  17  28
ENDBRANCH   8  13
ENDBRANCH   4   7
ENDBRANCH   2   3
ENDBRANCH   1   2
BRANCH   1  35
ATOM     35  C   UNL A   1      32.881  34.275  28.518  1.00  0.00     0.023 C 
BRANCH  35  36
ATOM     36  C   UNL A   1      33.619  35.217  29.458  1.00  0.00     0.116 C 
BRANCH  36  37
ATOM     37  N   UNL A   1      32.756  35.813  30.467  1.00  0.00    -0.352 N 
ATOM     38  C   UNL A   1      32.869  35.738  31.835  1.00  0.00     0.251 C 
ATOM     39  H   UNL A   1      31.995  36.337  30.127  1.00  0.00     0.163 HD
ATOM     40  O   UNL A   1      31.988  36.203  32.550  1.00  0.00    -0.269 OA
BRANCH  38  41
ATOM     41  C   UNL A   1      34.036  35.048  32.424  1.00  0.00     0.039 A 
ATOM     42  C   UNL A   1      33.861  33.777  32.975  1.00  0.00     0.014 A 
ATOM     43  C   UNL A   1      35.304  35.634  32.383  1.00  0.00     0.014 A 
ATOM     44  C   UNL A   1      34.974  33.064  33.424  1.00  0.00     0.010 A 
ATOM     45  C   UNL A   1      36.418  34.893  32.760  1.00  0.00     0.010 A 
ATOM     46  C   UNL A   1      36.265  33.600  33.284  1.00  0.00    -0.014 A 
BRANCH  46  47
ATOM     47  C   UNL A   1      37.467  32.830  33.691  1.00  0.00     0.031 A 
ATOM     48  C   UNL A   1      38.231  33.228  34.923  1.00  0.00     0.074 A 
ATOM     49  C   UNL A   1      37.905  31.817  32.918  1.00  0.00     0.049 A 
ATOM     50  N   UNL A   1      39.339  32.732  35.408  1.00  0.00    -0.248 NA
ATOM     51  C   UNL A   1      37.691  34.359  35.690  1.00  0.00     0.031 C 
ATOM     52  C   UNL A   1      37.270  31.362  31.679  1.00  0.00     0.029 A 
ATOM     53  N   UNL A   1      38.988  30.987  33.057  1.00  0.00    -0.354 N 
ATOM     54  C   UNL A   1      39.633  33.494  36.534  1.00  0.00     0.074 A 
ATOM     55  C   UNL A   1      38.628  34.532  36.608  1.00  0.00     0.031 C 
ATOM     56  C   UNL A   1      37.953  30.315  31.193  1.00  0.00     0.029 A 
ATOM     57  C   UNL A   1      39.100  30.051  32.057  1.00  0.00     0.049 A 
ATOM     58  H   UNL A   1      39.626  31.055  33.805  1.00  0.00     0.167 HD
ATOM     59  C   UNL A   1      40.630  33.325  37.439  1.00  0.00     0.034 A 
ATOM     60  C   UNL A   1      40.025  29.092  31.857  1.00  0.00     0.034 A 
ATOM     61  C   UNL A   1      41.623  32.282  37.349  1.00  0.00     0.049 A 
ATOM     62  C   UNL A   1      41.152  28.951  32.848  1.00  0.00     0.074 A 
ATOM     63  C   UNL A   1      42.654  31.991  38.225  1.00  0.00     0.029 A 
ATOM     64  N   UNL A   1      41.717  31.362  36.310  1.00  0.00    -0.354 N 
ATOM     65  N   UNL A   1      41.392  29.650  33.933  1.00  0.00    -0.248 NA
ATOM     66  C   UNL A   1      42.126  27.883  32.590  1.00  0.00     0.031 C 
ATOM     67  C   UNL A   1      43.406  30.940  37.687  1.00  0.00     0.029 A 
ATOM     68  C   UNL A   1      42.803  30.523  36.511  1.00  0.00     0.049 A 
ATOM     69  H   UNL A   1      41.101  31.312  35.545  1.00  0.00     0.167 HD
ATOM     70  C   UNL A   1      42.527  29.082  34.506  1.00  0.00     0.074 A 
ATOM     71  C   UNL A   1      42.914  27.978  33.650  1.00  0.00     0.031 C 
ATOM     72  C   UNL A   1      43.185  29.435  35.640  1.00  0.00     0.034 A 
BRANCH  59  73
ATOM     73  C   UNL A   1      40.694  34.313  38.582  1.00  0.00     0.023 A 
ATOM     74  C   UNL A   1      40.051  34.059  39.808  1.00  0.00     0.031 A 
ATOM     75  C   UNL A   1      41.347  35.547  38.429  1.00  0.00     0.131 A 
ATOM     76  C   UNL A   1      39.986  35.062  40.787  1.00  0.00     0.055 A 
ATOM     77  C   UNL A   1      41.360  36.505  39.446  1.00  0.00     0.041 A 
ATOM     78  F   UNL A   1      41.962  35.859  37.277  1.00  0.00    -0.206 F 
ATOM     79  C   UNL A   1      40.658  36.274  40.625  1.00  0.00     0.022 A 
BRANCH  76  80
ATOM     80  S   UNL A   1      38.857  34.827  42.188  1.00  0.00     0.124 S 
ATOM     81  O   UNL A   1      38.805  33.370  42.282  1.00  0.00    -0.237 OA
ATOM     82  O   UNL A   1      39.552  35.514  43.270  1.00  0.00    -0.237 OA
ATOM     83  O   UNL A   1      37.619  35.458  41.739  1.00  0.00    -0.744 OA
ENDBRANCH  76  80
ENDBRANCH  59  73
BRANCH  60  84
ATOM     84  C   UNL A   1      39.928  28.181  30.681  1.00  0.00     0.023 A 
ATOM     85  C   UNL A   1      40.684  28.423  29.523  1.00  0.00     0.031 A 
ATOM     86  C   UNL A   1      39.054  27.080  30.682  1.00  0.00     0.131 A 
ATOM     87  C   UNL A   1      40.521  27.601  28.397  1.00  0.00     0.055 A 
ATOM     88  C   UNL A   1      38.932  26.236  29.577  1.00  0.00     0.041 A 
ATOM     89  F   UNL A   1      38.314  26.801  31.767  1.00  0.00    -0.206 F 
ATOM     90  C   UNL A   1      39.659  26.502  28.421  1.00  0.00     0.022 A 
BRANCH  87  91
ATOM     91  S   UNL A   1      41.402  28.035  26.872  1.00  0.00     0.124 S 
ATOM     92  O   UNL A   1      42.743  28.313  27.372  1.00  0.00    -0.237 OA
ATOM     93  O   UNL A   1      41.252  26.818  26.081  1.00  0.00    -0.237 OA
ATOM     94  O   UNL A   1      40.666  29.194  26.373  1.00  0.00    -0.744 OA
ENDBRANCH  87  91
ENDBRANCH  60  84
BRANCH  72  95
ATOM     95  C   UNL A   1      44.363  28.580  36.040  1.00  0.00     0.023 A 
ATOM     96  C   UNL A   1      44.255  27.582  37.024  1.00  0.00     0.031 A 
ATOM     97  C   UNL A   1      45.618  28.783  35.437  1.00  0.00     0.131 A 
ATOM     98  C   UNL A   1      45.396  26.863  37.418  1.00  0.00     0.055 A 
ATOM     99  C   UNL A   1      46.734  28.024  35.789  1.00  0.00     0.041 A 
ATOM    100  F   UNL A   1      45.778  29.724  34.493  1.00  0.00    -0.206 F 
ATOM    101  C   UNL A   1      46.630  27.067  36.795  1.00  0.00     0.022 A 
BRANCH  98 102
ATOM    102  S   UNL A   1      45.265  25.723  38.822  1.00  0.00     0.124 S 
ATOM    103  O   UNL A   1      46.588  25.832  39.427  1.00  0.00    -0.237 OA
ATOM    104  O   UNL A   1      44.163  26.296  39.589  1.00  0.00    -0.237 OA
ATOM    105  O   UNL A   1      44.976  24.435  38.192  1.00  0.00    -0.744 OA
ENDBRANCH  98 102
ENDBRANCH  72  95
ENDBRANCH  46  47
ENDBRANCH  38  41
ENDBRANCH  36  37
ENDBRANCH  35  36
ENDBRANCH   1  35
TORSDOF 18
ENDMDL
MODEL 2
REMARK VINA RESULT:     -12.3      5.427      9.687
REMARK SMILES CS(=O)(=O)c1ccc(C2=NN(c3ccc(C(=O)NCCCCNC(=O)c4ccc(-c5c6nc(c(-c7cc(S(=O)(=O)[O-])ccc7F)c7ccc([nH]7)c(-c7cc(S(=O)(=O)[O-])ccc7F)c7nc(c(-c8cc(S(=O)(=O)[O-])ccc8F)c8ccc5[nH]8)C=C7)C=C6)cc4)cc3)[C@H](c3ccc(Cl)cc3)C2)cc1
REMARK SMILES IDX 20 1 19 2 18 3 16 4 17 5 15 7 12 8 13 9 90 10 14 11 89 12
REMARK SMILES IDX 11 13 9 14 10 15 99 16 91 17 8 18 5 19 6 20 101 21 7 22
REMARK SMILES IDX 100 23 2 24 1 25 3 26 4 27 92 28 93 29 98 30 94 31 97 32
REMARK SMILES IDX 95 33 96 34 21 35 22 36 23 37 24 38 25 40 26 41 27 42 88 43
REMARK SMILES IDX 28 44 87 45 29 46 30 47 31 48 81 49 32 50 86 51 80 52 82 53
REMARK SMILES IDX 33 54 85 55 79 56 78 57 34 59 66 60 46 61 65 62 47 63 50 64
REMARK SMILES IDX 64 65 83 66 48 67 49 68 63 70 84 71 51 72 35 73 36 74 44 75
REMARK SMILES IDX 37 76 43 77 45 78 42 79 38 80 39 81 40 82 41 83 67 84 68 85
REMARK SMILES IDX 76 86 69 87 75 88 77 89 74 90 70 91 71 92 72 93 73 94 52 95
REMARK SMILES IDX 53 96 61 97 54 98 60 99 62 100 59 101 55 102 56 103 57 104
REMARK SMILES IDX 58 105
REMARK H PARENT 18 6 23 39 82 58 50 69
REMARK Flexibility Score: inf
ROOT
ATOM      1  C   UNL A   1      35.316  32.322  31.875  1.00  0.00     0.023 C 
ENDROOT
BRANCH   1   2
ATOM      2  C   UNL A   1      36.819  32.427  32.146  1.00  0.00     0.116 C 
BRANCH   2   3
ATOM      3  N   UNL A   1      37.100  33.417  33.170  1.00  0.00    -0.352 N 
ATOM      4  C   UNL A   1      38.129  34.322  33.284  1.00  0.00     0.251 C 
ATOM      5  O   UNL A   1      38.096  35.147  34.196  1.00  0.00    -0.269 OA
ATOM      6  H   UNL A   1      36.447  33.446  33.906  1.00  0.00     0.163 HD
BRANCH   4   7
ATOM      7  C   UNL A   1      39.247  34.370  32.306  1.00  0.00     0.039 A 
ATOM      8  C   UNL A   1      41.287  34.390  30.362  1.00  0.00     0.060 A 
ATOM      9  C   UNL A   1      39.943  34.343  29.978  1.00  0.00     0.029 A 
ATOM     10  C   UNL A   1      41.593  34.490  31.720  1.00  0.00     0.029 A 
ATOM     11  C   UNL A   1      38.929  34.332  30.942  1.00  0.00     0.016 A 
ATOM     12  C   UNL A   1      40.585  34.501  32.680  1.00  0.00     0.016 A 
BRANCH   8  13
ATOM     13  N   UNL A   1      42.324  34.346  29.443  1.00  0.00    -0.257 N 
ATOM     14  C   UNL A   1      43.867  33.238  28.499  1.00  0.00     0.071 C 
ATOM     15  N   UNL A   1      42.639  33.151  28.898  1.00  0.00    -0.176 NA
ATOM     16  C   UNL A   1      44.567  34.535  28.794  1.00  0.00     0.091 C 
ATOM     17  C   UNL A   1      43.419  35.320  29.455  1.00  0.00     0.144 C 
BRANCH  14  18
ATOM     18  C   UNL A   1      44.518  32.129  27.788  1.00  0.00    -0.002 A 
ATOM     19  C   UNL A   1      45.699  29.935  26.553  1.00  0.00     0.067 A 
ATOM     20  C   UNL A   1      44.466  29.782  27.187  1.00  0.00     0.021 A 
ATOM     21  C   UNL A   1      46.348  31.181  26.542  1.00  0.00     0.021 A 
ATOM     22  C   UNL A   1      43.883  30.880  27.815  1.00  0.00     0.011 A 
ATOM     23  C   UNL A   1      45.749  32.287  27.152  1.00  0.00     0.011 A 
BRANCH  19  24
ATOM     24  S   UNL A   1      46.512  28.568  25.760  1.00  0.00     0.175 S 
ATOM     25  C   UNL A   1      46.499  27.217  26.906  1.00  0.00     0.163 C 
ATOM     26  O   UNL A   1      47.894  28.959  25.574  1.00  0.00    -0.224 OA
ATOM     27  O   UNL A   1      45.676  28.202  24.630  1.00  0.00    -0.224 OA
ENDBRANCH  19  24
ENDBRANCH  14  18
BRANCH  17  28
ATOM     28  C   UNL A   1      42.962  36.624  28.804  1.00  0.00    -0.023 A 
ATOM     29  C   UNL A   1      43.246  37.899  29.319  1.00  0.00     0.007 A 
ATOM     30  C   UNL A   1      42.280  36.552  27.571  1.00  0.00     0.007 A 
ATOM     31  C   UNL A   1      42.845  39.055  28.634  1.00  0.00     0.021 A 
ATOM     32  C   UNL A   1      41.903  37.704  26.875  1.00  0.00     0.021 A 
ATOM     33  C   UNL A   1      42.183  38.953  27.414  1.00  0.00     0.041 A 
ATOM     34  Cl  UNL A   1      41.725  40.377  26.566  1.00  0.00    -0.084 Cl
ENDBRANCH  17  28
ENDBRANCH   8  13
ENDBRANCH   4   7
ENDBRANCH   2   3
ENDBRANCH   1   2
BRANCH   1  35
ATOM     35  C   UNL A   1      34.791  33.287  30.814  1.00  0.00     0.023 C 
BRANCH  35  36
ATOM     36  C   UNL A   1      35.314  33.039  29.407  1.00  0.00     0.116 C 
BRANCH  36  37
ATOM     37  N   UNL A   1      34.431  32.206  28.605  1.00  0.00    -0.352 N 
ATOM     38  C   UNL A   1      34.676  30.955  28.091  1.00  0.00     0.251 C 
ATOM     39  H   UNL A   1      33.545  32.586  28.407  1.00  0.00     0.163 HD
ATOM     40  O   UNL A   1      33.865  30.433  27.334  1.00  0.00    -0.269 OA
BRANCH  38  41
ATOM     41  C   UNL A   1      35.947  30.277  28.421  1.00  0.00     0.039 A 
ATOM     42  C   UNL A   1      37.041  30.440  27.569  1.00  0.00     0.014 A 
ATOM     43  C   UNL A   1      36.070  29.528  29.595  1.00  0.00     0.014 A 
ATOM     44  C   UNL A   1      38.280  29.908  27.931  1.00  0.00     0.010 A 
ATOM     45  C   UNL A   1      37.319  29.066  29.990  1.00  0.00     0.010 A 
ATOM     46  C   UNL A   1      38.437  29.250  29.162  1.00  0.00    -0.014 A 
BRANCH  46  47
ATOM     47  C   UNL A   1      39.761  28.737  29.598  1.00  0.00     0.031 A 
ATOM     48  C   UNL A   1      40.498  29.418  30.716  1.00  0.00     0.074 A 
ATOM     49  C   UNL A   1      40.323  27.701  28.946  1.00  0.00     0.049 A 
ATOM     50  N   UNL A   1      41.688  29.170  31.198  1.00  0.00    -0.248 NA
ATOM     51  C   UNL A   1      39.815  30.553  31.353  1.00  0.00     0.031 C 
ATOM     52  C   UNL A   1      39.722  26.983  27.820  1.00  0.00     0.029 A 
ATOM     53  N   UNL A   1      41.528  27.073  29.131  1.00  0.00    -0.354 N 
ATOM     54  C   UNL A   1      41.900  30.122  32.191  1.00  0.00     0.074 A 
ATOM     55  C   UNL A   1      40.746  30.996  32.182  1.00  0.00     0.031 C 
ATOM     56  C   UNL A   1      40.544  25.991  27.441  1.00  0.00     0.029 A 
ATOM     57  C   UNL A   1      41.749  26.031  28.263  1.00  0.00     0.049 A 
ATOM     58  H   UNL A   1      42.175  27.344  29.824  1.00  0.00     0.167 HD
ATOM     59  C   UNL A   1      42.944  30.237  33.049  1.00  0.00     0.034 A 
ATOM     60  C   UNL A   1      42.806  25.205  28.141  1.00  0.00     0.034 A 
ATOM     61  C   UNL A   1      44.086  29.354  33.043  1.00  0.00     0.049 A 
ATOM     62  C   UNL A   1      43.977  25.379  29.073  1.00  0.00     0.074 A 
ATOM     63  C   UNL A   1      45.181  29.352  33.888  1.00  0.00     0.029 A 
ATOM     64  N   UNL A   1      44.284  28.320  32.135  1.00  0.00    -0.354 N 
ATOM     65  N   UNL A   1      44.145  26.254  30.037  1.00  0.00    -0.248 NA
ATOM     66  C   UNL A   1      45.098  24.444  28.905  1.00  0.00     0.031 C 
ATOM     67  C   UNL A   1      46.070  28.360  33.454  1.00  0.00     0.029 A 
ATOM     68  C   UNL A   1      45.496  27.692  32.383  1.00  0.00     0.049 A 
ATOM     69  H   UNL A   1      43.655  28.068  31.422  1.00  0.00     0.167 HD
ATOM     70  C   UNL A   1      45.376  25.953  30.613  1.00  0.00     0.074 A 
ATOM     71  C   UNL A   1      45.900  24.809  29.894  1.00  0.00     0.031 C 
ATOM     72  C   UNL A   1      46.012  26.561  31.648  1.00  0.00     0.034 A 
BRANCH  59  73
ATOM     73  C   UNL A   1      42.894  31.377  34.041  1.00  0.00     0.023 A 
ATOM     74  C   UNL A   1      42.039  31.341  35.158  1.00  0.00     0.031 A 
ATOM     75  C   UNL A   1      43.657  32.539  33.839  1.00  0.00     0.131 A 
ATOM     76  C   UNL A   1      41.890  32.479  35.966  1.00  0.00     0.055 A 
ATOM     77  C   UNL A   1      43.576  33.634  34.703  1.00  0.00     0.041 A 
ATOM     78  F   UNL A   1      44.477  32.645  32.781  1.00  0.00    -0.206 F 
ATOM     79  C   UNL A   1      42.673  33.616  35.762  1.00  0.00     0.022 A 
BRANCH  76  80
ATOM     80  S   UNL A   1      40.530  32.512  37.166  1.00  0.00     0.124 S 
ATOM     81  O   UNL A   1      39.639  31.486  36.630  1.00  0.00    -0.237 OA
ATOM     82  O   UNL A   1      41.206  32.183  38.416  1.00  0.00    -0.237 OA
ATOM     83  O   UNL A   1      40.023  33.878  37.071  1.00  0.00    -0.744 OA
ENDBRANCH  76  80
ENDBRANCH  59  73
BRANCH  60  84
ATOM     84  C   UNL A   1      42.810  24.130  27.108  1.00  0.00     0.023 A 
ATOM     85  C   UNL A   1      42.199  22.891  27.361  1.00  0.00     0.031 A 
ATOM     86  C   UNL A   1      43.453  24.309  25.870  1.00  0.00     0.131 A 
ATOM     87  C   UNL A   1      42.280  21.864  26.408  1.00  0.00     0.055 A 
ATOM     88  C   UNL A   1      43.489  23.301  24.906  1.00  0.00     0.041 A 
ATOM     89  F   UNL A   1      44.046  25.477  25.577  1.00  0.00    -0.206 F 
ATOM     90  C   UNL A   1      42.910  22.065  25.178  1.00  0.00     0.022 A 
BRANCH  87  91
ATOM     91  S   UNL A   1      41.611  20.233  26.833  1.00  0.00     0.124 S 
ATOM     92  O   UNL A   1      40.402  20.589  27.567  1.00  0.00    -0.237 OA
ATOM     93  O   UNL A   1      41.410  19.637  25.516  1.00  0.00    -0.237 OA
ATOM     94  O   UNL A   1      42.673  19.627  27.632  1.00  0.00    -0.744 OA
ENDBRANCH  87  91
ENDBRANCH  60  84
BRANCH  72  95
ATOM     95  C   UNL A   1      47.325  25.959  32.089  1.00  0.00     0.023 A 
ATOM     96  C   UNL A   1      47.405  25.066  33.172  1.00  0.00     0.031 A 
ATOM     97  C   UNL A   1      48.516  26.304  31.425  1.00  0.00     0.131 A 
ATOM     98  C   UNL A   1      48.657  24.592  33.595  1.00  0.00     0.055 A 
ATOM     99  C   UNL A   1      49.750  25.782  31.812  1.00  0.00     0.041 A 
ATOM    100  F   UNL A   1      48.498  27.154  30.387  1.00  0.00    -0.206 F 
ATOM    101  C   UNL A   1      49.827  24.931  32.912  1.00  0.00     0.022 A 
BRANCH  98 102
ATOM    102  S   UNL A   1      48.746  23.599  35.110  1.00  0.00     0.124 S 
ATOM    103  O   UNL A   1      48.985  24.617  36.127  1.00  0.00    -0.237 OA
ATOM    104  O   UNL A   1      47.433  22.960  35.142  1.00  0.00    -0.237 OA
ATOM    105  O   UNL A   1      49.867  22.694  34.861  1.00  0.00    -0.744 OA
ENDBRANCH  98 102
ENDBRANCH  72  95
ENDBRANCH  46  47
ENDBRANCH  38  41
ENDBRANCH  36  37
ENDBRANCH  35  36
ENDBRANCH   1  35
TORSDOF 18
ENDMDL
MODEL 3
REMARK VINA RESULT:     -12.3      0.522      7.291
REMARK SMILES CS(=O)(=O)c1ccc(C2=NN(c3ccc(C(=O)NCCCCNC(=O)c4ccc(-c5c6nc(c(-c7cc(S(=O)(=O)[O-])ccc7F)c7ccc([nH]7)c(-c7cc(S(=O)(=O)[O-])ccc7F)c7nc(c(-c8cc(S(=O)(=O)[O-])ccc8F)c8ccc5[nH]8)C=C7)C=C6)cc4)cc3)[C@H](c3ccc(Cl)cc3)C2)cc1
REMARK SMILES IDX 20 1 19 2 18 3 16 4 17 5 15 7 12 8 13 9 90 10 14 11 89 12
REMARK SMILES IDX 11 13 9 14 10 15 99 16 91 17 8 18 5 19 6 20 101 21 7 22
REMARK SMILES IDX 100 23 2 24 1 25 3 26 4 27 92 28 93 29 98 30 94 31 97 32
REMARK SMILES IDX 95 33 96 34 21 35 22 36 23 37 24 38 25 40 26 41 27 42 88 43
REMARK SMILES IDX 28 44 87 45 29 46 30 47 31 48 81 49 32 50 86 51 80 52 82 53
REMARK SMILES IDX 33 54 85 55 79 56 78 57 34 59 66 60 46 61 65 62 47 63 50 64
REMARK SMILES IDX 64 65 83 66 48 67 49 68 63 70 84 71 51 72 35 73 36 74 44 75
REMARK SMILES IDX 37 76 43 77 45 78 42 79 38 80 39 81 40 82 41 83 67 84 68 85
REMARK SMILES IDX 76 86 69 87 75 88 77 89 74 90 70 91 71 92 72 93 73 94 52 95
REMARK SMILES IDX 53 96 61 97 54 98 60 99 62 100 59 101 55 102 56 103 57 104
REMARK SMILES IDX 58 105
REMARK H PARENT 18 6 23 39 82 58 50 69
REMARK Flexibility Score: inf
ROOT
ATOM      1  C   UNL A   1      33.622  33.343  27.406  1.00  0.00     0.023 C 
ENDROOT
BRANCH   1   2
ATOM      2  C   UNL A   1      33.246  31.873  27.607  1.00  0.00     0.116 C 
BRANCH   2   3
ATOM      3  N   UNL A   1      34.300  31.150  28.295  1.00  0.00    -0.352 N 
ATOM      4  C   UNL A   1      34.755  29.863  28.135  1.00  0.00     0.251 C 
ATOM      5  O   UNL A   1      35.748  29.503  28.766  1.00  0.00    -0.269 OA
ATOM      6  H   UNL A   1      34.765  31.665  28.993  1.00  0.00     0.163 HD
BRANCH   4   7
ATOM      7  C   UNL A   1      34.121  28.915  27.182  1.00  0.00     0.039 A 
ATOM      8  C   UNL A   1      32.859  27.053  25.485  1.00  0.00     0.060 A 
ATOM      9  C   UNL A   1      32.280  27.402  26.709  1.00  0.00     0.029 A 
ATOM     10  C   UNL A   1      34.038  27.690  25.095  1.00  0.00     0.029 A 
ATOM     11  C   UNL A   1      32.905  28.326  27.553  1.00  0.00     0.016 A 
ATOM     12  C   UNL A   1      34.651  28.625  25.925  1.00  0.00     0.016 A 
BRANCH   8  13
ATOM     13  N   UNL A   1      32.302  26.102  24.644  1.00  0.00    -0.257 N 
ATOM     14  C   UNL A   1      32.338  24.133  23.856  1.00  0.00     0.071 C 
ATOM     15  N   UNL A   1      32.476  24.799  24.956  1.00  0.00    -0.176 NA
ATOM     16  C   UNL A   1      32.103  24.949  22.615  1.00  0.00     0.091 C 
ATOM     17  C   UNL A   1      32.060  26.363  23.222  1.00  0.00     0.144 C 
BRANCH  14  18
ATOM     18  C   UNL A   1      32.396  22.665  23.840  1.00  0.00    -0.002 A 
ATOM     19  C   UNL A   1      32.639  19.895  23.887  1.00  0.00     0.067 A 
ATOM     20  C   UNL A   1      33.062  20.638  24.990  1.00  0.00     0.021 A 
ATOM     21  C   UNL A   1      32.102  20.534  22.758  1.00  0.00     0.021 A 
ATOM     22  C   UNL A   1      32.950  22.027  24.957  1.00  0.00     0.011 A 
ATOM     23  C   UNL A   1      31.968  21.925  22.738  1.00  0.00     0.011 A 
BRANCH  19  24
ATOM     24  S   UNL A   1      32.783  18.125  23.851  1.00  0.00     0.175 S 
ATOM     25  C   UNL A   1      34.466  17.729  24.240  1.00  0.00     0.163 C 
ATOM     26  O   UNL A   1      32.553  17.718  22.480  1.00  0.00    -0.224 OA
ATOM     27  O   UNL A   1      31.948  17.630  24.931  1.00  0.00    -0.224 OA
ENDBRANCH  19  24
ENDBRANCH  14  18
BRANCH  17  28
ATOM     28  C   UNL A   1      30.785  27.187  23.055  1.00  0.00    -0.023 A 
ATOM     29  C   UNL A   1      29.524  26.786  23.525  1.00  0.00     0.007 A 
ATOM     30  C   UNL A   1      30.888  28.465  22.464  1.00  0.00     0.007 A 
ATOM     31  C   UNL A   1      28.408  27.624  23.390  1.00  0.00     0.021 A 
ATOM     32  C   UNL A   1      29.781  29.311  22.352  1.00  0.00     0.021 A 
ATOM     33  C   UNL A   1      28.542  28.883  22.812  1.00  0.00     0.041 A 
ATOM     34  Cl  UNL A   1      27.174  29.915  22.680  1.00  0.00    -0.084 Cl
ENDBRANCH  17  28
ENDBRANCH   8  13
ENDBRANCH   4   7
ENDBRANCH   2   3
ENDBRANCH   1   2
BRANCH   1  35
ATOM     35  C   UNL A   1      32.886  34.320  28.320  1.00  0.00     0.023 C 
BRANCH  35  36
ATOM     36  C   UNL A   1      33.593  34.628  29.632  1.00  0.00     0.116 C 
BRANCH  36  37
ATOM     37  N   UNL A   1      32.769  35.379  30.565  1.00  0.00    -0.352 N 
ATOM     38  C   UNL A   1      32.939  35.528  31.921  1.00  0.00     0.251 C 
ATOM     39  H   UNL A   1      31.990  35.840  30.177  1.00  0.00     0.163 HD
ATOM     40  O   UNL A   1      32.085  36.103  32.588  1.00  0.00    -0.269 OA
BRANCH  38  41
ATOM     41  C   UNL A   1      34.134  34.945  32.565  1.00  0.00     0.039 A 
ATOM     42  C   UNL A   1      34.012  33.728  33.239  1.00  0.00     0.014 A 
ATOM     43  C   UNL A   1      35.379  35.572  32.457  1.00  0.00     0.014 A 
ATOM     44  C   UNL A   1      35.154  33.105  33.745  1.00  0.00     0.010 A 
ATOM     45  C   UNL A   1      36.523  34.915  32.894  1.00  0.00     0.010 A 
ATOM     46  C   UNL A   1      36.423  33.675  33.543  1.00  0.00    -0.014 A 
BRANCH  46  47
ATOM     47  C   UNL A   1      37.656  32.996  34.013  1.00  0.00     0.031 A 
ATOM     48  C   UNL A   1      38.220  31.842  33.232  1.00  0.00     0.074 A 
ATOM     49  C   UNL A   1      38.229  33.377  35.171  1.00  0.00     0.049 A 
ATOM     50  N   UNL A   1      39.243  31.074  33.507  1.00  0.00    -0.248 NA
ATOM     51  C   UNL A   1      37.516  31.484  31.993  1.00  0.00     0.031 C 
ATOM     52  C   UNL A   1      37.752  34.458  36.036  1.00  0.00     0.029 A 
ATOM     53  N   UNL A   1      39.336  32.896  35.825  1.00  0.00    -0.354 N 
ATOM     54  C   UNL A   1      39.301  30.139  32.480  1.00  0.00     0.074 A 
ATOM     55  C   UNL A   1      38.163  30.391  31.623  1.00  0.00     0.031 C 
ATOM     56  C   UNL A   1      38.580  34.581  37.085  1.00  0.00     0.029 A 
ATOM     57  C   UNL A   1      39.620  33.561  36.994  1.00  0.00     0.049 A 
ATOM     58  H   UNL A   1      39.876  32.145  35.487  1.00  0.00     0.167 HD
ATOM     59  C   UNL A   1      40.234  29.179  32.255  1.00  0.00     0.034 A 
ATOM     60  C   UNL A   1      40.605  33.365  37.892  1.00  0.00     0.034 A 
ATOM     61  C   UNL A   1      41.364  28.944  33.121  1.00  0.00     0.049 A 
ATOM     62  C   UNL A   1      41.604  32.264  37.648  1.00  0.00     0.074 A 
ATOM     63  C   UNL A   1      42.391  28.028  32.973  1.00  0.00     0.029 A 
ATOM     64  N   UNL A   1      41.610  29.625  34.308  1.00  0.00    -0.354 N 
ATOM     65  N   UNL A   1      41.673  31.415  36.649  1.00  0.00    -0.248 NA
ATOM     66  C   UNL A   1      42.663  32.101  38.652  1.00  0.00     0.031 C 
ATOM     67  C   UNL A   1      43.221  28.112  34.098  1.00  0.00     0.029 A 
ATOM     68  C   UNL A   1      42.755  29.131  34.915  1.00  0.00     0.049 A 
ATOM     69  H   UNL A   1      41.053  30.354  34.665  1.00  0.00     0.167 HD
ATOM     70  C   UNL A   1      42.805  30.641  36.887  1.00  0.00     0.074 A 
ATOM     71  C   UNL A   1      43.391  31.132  38.118  1.00  0.00     0.031 C 
ATOM     72  C   UNL A   1      43.319  29.622  36.150  1.00  0.00     0.034 A 
BRANCH  59  73
ATOM     73  C   UNL A   1      40.041  28.307  31.035  1.00  0.00     0.023 A 
ATOM     74  C   UNL A   1      40.740  28.554  29.838  1.00  0.00     0.031 A 
ATOM     75  C   UNL A   1      39.104  27.260  31.041  1.00  0.00     0.131 A 
ATOM     76  C   UNL A   1      40.418  27.836  28.677  1.00  0.00     0.055 A 
ATOM     77  C   UNL A   1      38.857  26.485  29.905  1.00  0.00     0.041 A 
ATOM     78  F   UNL A   1      38.390  26.986  32.145  1.00  0.00    -0.206 F 
ATOM     79  C   UNL A   1      39.500  26.785  28.708  1.00  0.00     0.022 A 
BRANCH  76  80
ATOM     80  S   UNL A   1      41.080  28.420  27.092  1.00  0.00     0.124 S 
ATOM     81  O   UNL A   1      41.419  27.162  26.432  1.00  0.00    -0.237 OA
ATOM     82  O   UNL A   1      39.951  29.154  26.530  1.00  0.00    -0.237 OA
ATOM     83  O   UNL A   1      42.226  29.239  27.481  1.00  0.00    -0.744 OA
ENDBRANCH  76  80
ENDBRANCH  59  73
BRANCH  60  84
ATOM     84  C   UNL A   1      40.709  34.233  39.099  1.00  0.00     0.023 A 
ATOM     85  C   UNL A   1      39.926  33.976  40.237  1.00  0.00     0.031 A 
ATOM     86  C   UNL A   1      41.562  35.350  39.124  1.00  0.00     0.131 A 
ATOM     87  C   UNL A   1      39.979  34.848  41.334  1.00  0.00     0.055 A 
ATOM     88  C   UNL A   1      41.647  36.188  40.237  1.00  0.00     0.041 A 
ATOM     89  F   UNL A   1      42.336  35.637  38.065  1.00  0.00    -0.206 F 
ATOM     90  C   UNL A   1      40.843  35.945  41.347  1.00  0.00     0.022 A 
BRANCH  87  91
ATOM     91  S   UNL A   1      38.843  34.568  42.720  1.00  0.00     0.124 S 
ATOM     92  O   UNL A   1      37.607  35.153  42.214  1.00  0.00    -0.237 OA
ATOM     93  O   UNL A   1      38.864  33.114  42.838  1.00  0.00    -0.237 OA
ATOM     94  O   UNL A   1      39.471  35.289  43.825  1.00  0.00    -0.744 OA
ENDBRANCH  87  91
ENDBRANCH  60  84
BRANCH  72  95
ATOM     95  C   UNL A   1      44.608  29.009  36.642  1.00  0.00     0.023 A 
ATOM     96  C   UNL A   1      44.620  27.901  37.507  1.00  0.00     0.031 A 
ATOM     97  C   UNL A   1      45.843  29.557  36.251  1.00  0.00     0.131 A 
ATOM     98  C   UNL A   1      45.841  27.412  37.999  1.00  0.00     0.055 A 
ATOM     99  C   UNL A   1      47.055  29.029  36.695  1.00  0.00     0.041 A 
ATOM    100  F   UNL A   1      45.891  30.617  35.429  1.00  0.00    -0.206 F 
ATOM    101  C   UNL A   1      47.058  27.959  37.586  1.00  0.00     0.022 A 
BRANCH  98 102
ATOM    102  S   UNL A   1      45.813  26.110  39.262  1.00  0.00     0.124 S 
ATOM    103  O   UNL A   1      44.985  25.090  38.627  1.00  0.00    -0.237 OA
ATOM    104  O   UNL A   1      47.229  25.785  39.406  1.00  0.00    -0.237 OA
ATOM    105  O   UNL A   1      45.208  26.768  40.419  1.00  0.00    -0.744 OA
ENDBRANCH  98 102
ENDBRANCH  72  95
ENDBRANCH  46  47
ENDBRANCH  38  41
ENDBRANCH  36  37
ENDBRANCH  35  36
ENDBRANCH   1  35
TORSDOF 18
ENDMDL
