MODEL 1
REMARK VINA RESULT:     -12.6      0.000      0.000
REMARK SMILES O=C(NCCCCNC(=O)c1cc(=O)[nH]c2c(Br)cccc12)c1ccc(-c2c3nc(c(-c4cc(S(=O)(=O)[O-])ccc4F)c4ccc([nH]4)c(-c4cc(S(=O)(=O)[O-])ccc4F)c4nc(c(-c5cc(S(=O)(=O)[O-])ccc5F)c5ccc2[nH]5)C=C4)C=C3)cc1
REMARK SMILES IDX 4 1 3 2 1 3 2 4 23 6 24 7 85 8 25 9 84 10 26 11 27 12 28 13
REMARK SMILES IDX 78 14 29 15 83 16 77 17 79 18 30 19 82 20 76 21 75 22 31 24
REMARK SMILES IDX 63 25 43 26 62 27 44 28 47 29 61 30 80 31 45 32 46 33 60 35
REMARK SMILES IDX 81 36 48 37 32 38 33 39 41 40 34 41 40 42 42 43 39 44 35 45
REMARK SMILES IDX 36 46 37 47 38 48 64 49 65 50 73 51 66 52 72 53 74 54 71 55
REMARK SMILES IDX 67 56 68 57 69 58 70 59 49 60 50 61 58 62 51 63 57 64 59 65
REMARK SMILES IDX 56 66 52 67 53 68 54 69 55 70 5 71 6 72 7 73 8 74 9 75 10 77
REMARK SMILES IDX 11 78 12 79 22 80 13 81 16 82 21 83 14 84 15 85 17 86 20 87
REMARK SMILES IDX 18 89 19 90
REMARK H PARENT 3 5 79 23 47 34 8 76 15 88
REMARK Flexibility Score: inf
ROOT
ATOM      1  C   UNL A   1      37.293  22.457  25.229  1.00  0.00     0.116 C 
ENDROOT
BRANCH   1   2
ATOM      2  N   UNL A   1      38.258  21.442  25.618  1.00  0.00    -0.352 N 
ATOM      3  O   UNL A   1      40.214  20.598  26.323  1.00  0.00    -0.269 OA
ATOM      4  C   UNL A   1      39.482  21.579  26.227  1.00  0.00     0.251 C 
ATOM      5  H   UNL A   1      37.995  20.516  25.413  1.00  0.00     0.163 HD
BRANCH   4   6
ATOM      6  C   UNL A   1      39.923  22.891  26.752  1.00  0.00     0.039 A 
ATOM      7  C   UNL A   1      39.450  24.055  26.141  1.00  0.00     0.014 A 
ATOM      8  C   UNL A   1      40.832  22.985  27.809  1.00  0.00     0.014 A 
ATOM      9  C   UNL A   1      39.876  25.304  26.601  1.00  0.00     0.010 A 
ATOM     10  C   UNL A   1      41.163  24.228  28.340  1.00  0.00     0.010 A 
ATOM     11  C   UNL A   1      40.733  25.402  27.711  1.00  0.00    -0.014 A 
BRANCH  11  12
ATOM     12  C   UNL A   1      41.272  26.715  28.153  1.00  0.00     0.031 A 
ATOM     13  C   UNL A   1      42.701  27.078  27.831  1.00  0.00     0.074 A 
ATOM     14  C   UNL A   1      40.494  27.576  28.840  1.00  0.00     0.049 A 
ATOM     15  N   UNL A   1      43.355  28.176  28.111  1.00  0.00    -0.248 NA
ATOM     16  C   UNL A   1      43.512  26.070  27.127  1.00  0.00     0.031 C 
ATOM     17  C   UNL A   1      39.111  27.319  29.242  1.00  0.00     0.029 A 
ATOM     18  N   UNL A   1      40.747  28.842  29.309  1.00  0.00    -0.354 N 
ATOM     19  C   UNL A   1      44.647  27.979  27.634  1.00  0.00     0.074 A 
ATOM     20  C   UNL A   1      44.710  26.634  27.117  1.00  0.00     0.031 C 
ATOM     21  C   UNL A   1      38.621  28.412  29.848  1.00  0.00     0.029 A 
ATOM     22  C   UNL A   1      39.664  29.434  29.917  1.00  0.00     0.049 A 
ATOM     23  H   UNL A   1      41.622  29.284  29.218  1.00  0.00     0.167 HD
ATOM     24  C   UNL A   1      45.676  28.856  27.592  1.00  0.00     0.034 A 
ATOM     25  C   UNL A   1      39.521  30.665  30.453  1.00  0.00     0.034 A 
ATOM     26  C   UNL A   1      45.584  30.212  28.061  1.00  0.00     0.049 A 
ATOM     27  C   UNL A   1      40.682  31.630  30.380  1.00  0.00     0.074 A 
ATOM     28  C   UNL A   1      46.551  31.199  28.007  1.00  0.00     0.029 A 
ATOM     29  N   UNL A   1      44.465  30.779  28.653  1.00  0.00    -0.354 N 
ATOM     30  N   UNL A   1      41.869  31.457  29.846  1.00  0.00    -0.248 NA
ATOM     31  C   UNL A   1      40.482  32.966  30.961  1.00  0.00     0.031 C 
ATOM     32  C   UNL A   1      46.046  32.336  28.634  1.00  0.00     0.029 A 
ATOM     33  C   UNL A   1      44.728  32.095  28.988  1.00  0.00     0.049 A 
ATOM     34  H   UNL A   1      43.611  30.314  28.811  1.00  0.00     0.167 HD
ATOM     35  C   UNL A   1      42.532  32.675  29.977  1.00  0.00     0.074 A 
ATOM     36  C   UNL A   1      41.611  33.579  30.631  1.00  0.00     0.031 C 
ATOM     37  C   UNL A   1      43.789  33.011  29.590  1.00  0.00     0.034 A 
BRANCH  24  38
ATOM     38  C   UNL A   1      46.989  28.416  26.993  1.00  0.00     0.023 A 
ATOM     39  C   UNL A   1      47.120  28.326  25.594  1.00  0.00     0.031 A 
ATOM     40  C   UNL A   1      48.043  27.936  27.791  1.00  0.00     0.131 A 
ATOM     41  C   UNL A   1      48.250  27.717  25.039  1.00  0.00     0.055 A 
ATOM     42  C   UNL A   1      49.194  27.382  27.230  1.00  0.00     0.041 A 
ATOM     43  F   UNL A   1      47.969  27.999  29.130  1.00  0.00    -0.206 F 
ATOM     44  C   UNL A   1      49.292  27.254  25.849  1.00  0.00     0.022 A 
BRANCH  41  45
ATOM     45  S   UNL A   1      48.370  27.423  23.254  1.00  0.00     0.124 S 
ATOM     46  O   UNL A   1      47.211  28.159  22.750  1.00  0.00    -0.237 OA
ATOM     47  O   UNL A   1      49.668  28.011  22.937  1.00  0.00    -0.237 OA
ATOM     48  O   UNL A   1      48.283  25.973  23.130  1.00  0.00    -0.744 OA
ENDBRANCH  41  45
ENDBRANCH  24  38
BRANCH  25  49
ATOM     49  C   UNL A   1      38.198  31.080  31.009  1.00  0.00     0.023 A 
ATOM     50  C   UNL A   1      37.215  31.674  30.196  1.00  0.00     0.031 A 
ATOM     51  C   UNL A   1      37.928  30.962  32.385  1.00  0.00     0.131 A 
ATOM     52  C   UNL A   1      36.040  32.176  30.774  1.00  0.00     0.055 A 
ATOM     53  C   UNL A   1      36.723  31.393  32.943  1.00  0.00     0.041 A 
ATOM     54  F   UNL A   1      38.839  30.420  33.208  1.00  0.00    -0.206 F 
ATOM     55  C   UNL A   1      35.778  32.018  32.138  1.00  0.00     0.022 A 
BRANCH  52  56
ATOM     56  S   UNL A   1      34.870  33.159  29.797  1.00  0.00     0.124 S 
ATOM     57  O   UNL A   1      34.259  32.147  28.941  1.00  0.00    -0.237 OA
ATOM     58  O   UNL A   1      34.005  33.712  30.836  1.00  0.00    -0.237 OA
ATOM     59  O   UNL A   1      35.720  34.131  29.118  1.00  0.00    -0.744 OA
ENDBRANCH  52  56
ENDBRANCH  25  49
BRANCH  37  60
ATOM     60  C   UNL A   1      44.268  34.430  29.788  1.00  0.00     0.023 A 
ATOM     61  C   UNL A   1      44.128  35.359  28.736  1.00  0.00     0.031 A 
ATOM     62  C   UNL A   1      45.010  34.816  30.916  1.00  0.00     0.131 A 
ATOM     63  C   UNL A   1      44.761  36.605  28.813  1.00  0.00     0.055 A 
ATOM     64  C   UNL A   1      45.588  36.083  31.015  1.00  0.00     0.041 A 
ATOM     65  F   UNL A   1      45.195  33.963  31.937  1.00  0.00    -0.206 F 
ATOM     66  C   UNL A   1      45.479  36.977  29.953  1.00  0.00     0.022 A 
BRANCH  63  67
ATOM     67  S   UNL A   1      44.774  37.736  27.394  1.00  0.00     0.124 S 
ATOM     68  O   UNL A   1      45.089  39.013  28.031  1.00  0.00    -0.237 OA
ATOM     69  O   UNL A   1      45.837  37.175  26.564  1.00  0.00    -0.237 OA
ATOM     70  O   UNL A   1      43.427  37.630  26.845  1.00  0.00    -0.744 OA
ENDBRANCH  63  67
ENDBRANCH  37  60
ENDBRANCH  11  12
ENDBRANCH   4   6
ENDBRANCH   1   2
BRANCH   1  71
ATOM     71  C   UNL A   1      36.069  21.876  24.535  1.00  0.00     0.023 C 
BRANCH  71  72
ATOM     72  C   UNL A   1      35.443  20.668  25.225  1.00  0.00     0.023 C 
BRANCH  72  73
ATOM     73  C   UNL A   1      33.933  20.741  25.412  1.00  0.00     0.116 C 
BRANCH  73  74
ATOM     74  N   UNL A   1      33.216  20.931  24.159  1.00  0.00    -0.352 N 
ATOM     75  C   UNL A   1      32.277  21.871  23.838  1.00  0.00     0.252 C 
ATOM     76  H   UNL A   1      33.438  20.293  23.443  1.00  0.00     0.163 HD
ATOM     77  O   UNL A   1      31.726  21.860  22.742  1.00  0.00    -0.269 OA
BRANCH  75  78
ATOM     78  C   UNL A   1      31.916  22.872  24.869  1.00  0.00     0.054 A 
ATOM     79  C   UNL A   1      31.005  22.487  25.777  1.00  0.00     0.086 A 
ATOM     80  C   UNL A   1      32.502  24.221  24.917  1.00  0.00     0.012 A 
ATOM     81  C   UNL A   1      30.461  23.448  26.753  1.00  0.00     0.249 A 
ATOM     82  C   UNL A   1      31.996  25.132  25.858  1.00  0.00     0.063 A 
ATOM     83  C   UNL A   1      33.531  24.633  24.059  1.00  0.00     0.011 A 
ATOM     84  O   UNL A   1      29.564  23.119  27.522  1.00  0.00    -0.270 OA
ATOM     85  N   UNL A   1      30.976  24.711  26.729  1.00  0.00    -0.321 N 
ATOM     86  C   UNL A   1      32.507  26.435  25.928  1.00  0.00     0.042 A 
ATOM     87  C   UNL A   1      34.046  25.929  24.139  1.00  0.00     0.002 A 
ATOM     88  H   UNL A   1      30.610  25.370  27.363  1.00  0.00     0.170 HD
ATOM     89  Br  UNL A   1      31.840  27.696  27.180  1.00  0.00    -0.049 Br
ATOM     90  C   UNL A   1      33.533  26.832  25.070  1.00  0.00     0.018 A 
ENDBRANCH  75  78
ENDBRANCH  73  74
ENDBRANCH  72  73
ENDBRANCH  71  72
ENDBRANCH   1  71
TORSDOF 14
ENDMDL
MODEL 2
REMARK VINA RESULT:     -12.4      5.133     10.250
REMARK SMILES O=C(NCCCCNC(=O)c1cc(=O)[nH]c2c(Br)cccc12)c1ccc(-c2c3nc(c(-c4cc(S(=O)(=O)[O-])ccc4F)c4ccc([nH]4)c(-c4cc(S(=O)(=O)[O-])ccc4F)c4nc(c(-c5cc(S(=O)(=O)[O-])ccc5F)c5ccc2[nH]5)C=C4)C=C3)cc1
REMARK SMILES IDX 4 1 3 2 1 3 2 4 23 6 24 7 85 8 25 9 84 10 26 11 27 12 28 13
REMARK SMILES IDX 78 14 29 15 83 16 77 17 79 18 30 19 82 20 76 21 75 22 31 24
REMARK SMILES IDX 63 25 43 26 62 27 44 28 47 29 61 30 80 31 45 32 46 33 60 35
REMARK SMILES IDX 81 36 48 37 32 38 33 39 41 40 34 41 40 42 42 43 39 44 35 45
REMARK SMILES IDX 36 46 37 47 38 48 64 49 65 50 73 51 66 52 72 53 74 54 71 55
REMARK SMILES IDX 67 56 68 57 69 58 70 59 49 60 50 61 58 62 51 63 57 64 59 65
REMARK SMILES IDX 56 66 52 67 53 68 54 69 55 70 5 71 6 72 7 73 8 74 9 75 10 77
REMARK SMILES IDX 11 78 12 79 22 80 13 81 16 82 21 83 14 84 15 85 17 86 20 87
REMARK SMILES IDX 18 89 19 90
REMARK H PARENT 3 5 79 23 47 34 8 76 15 88
REMARK Flexibility Score: inf
ROOT
ATOM      1  C   UNL A   1      32.610  30.327  27.021  1.00  0.00     0.116 C 
ENDROOT
BRANCH   1   2
ATOM      2  N   UNL A   1      32.665  31.778  27.086  1.00  0.00    -0.352 N 
ATOM      3  O   UNL A   1      33.382  33.802  27.739  1.00  0.00    -0.269 OA
ATOM      4  C   UNL A   1      33.610  32.598  27.654  1.00  0.00     0.251 C 
ATOM      5  H   UNL A   1      31.910  32.243  26.660  1.00  0.00     0.163 HD
BRANCH   4   6
ATOM      6  C   UNL A   1      34.882  32.043  28.169  1.00  0.00     0.039 A 
ATOM      7  C   UNL A   1      34.901  30.730  28.648  1.00  0.00     0.014 A 
ATOM      8  C   UNL A   1      36.044  32.817  28.226  1.00  0.00     0.014 A 
ATOM      9  C   UNL A   1      36.083  30.196  29.165  1.00  0.00     0.010 A 
ATOM     10  C   UNL A   1      37.246  32.245  28.632  1.00  0.00     0.010 A 
ATOM     11  C   UNL A   1      37.271  30.948  29.157  1.00  0.00    -0.014 A 
BRANCH  11  12
ATOM     12  C   UNL A   1      38.513  30.431  29.790  1.00  0.00     0.031 A 
ATOM     13  C   UNL A   1      38.878  30.879  31.184  1.00  0.00     0.074 A 
ATOM     14  C   UNL A   1      39.311  29.572  29.125  1.00  0.00     0.049 A 
ATOM     15  N   UNL A   1      39.904  30.536  31.918  1.00  0.00    -0.248 NA
ATOM     16  C   UNL A   1      37.991  31.862  31.832  1.00  0.00     0.031 C 
ATOM     17  C   UNL A   1      39.083  29.099  27.759  1.00  0.00     0.029 A 
ATOM     18  N   UNL A   1      40.466  28.935  29.509  1.00  0.00    -0.354 N 
ATOM     19  C   UNL A   1      39.792  31.268  33.095  1.00  0.00     0.074 A 
ATOM     20  C   UNL A   1      38.645  32.131  32.951  1.00  0.00     0.031 C 
ATOM     21  C   UNL A   1      40.033  28.207  27.441  1.00  0.00     0.029 A 
ATOM     22  C   UNL A   1      40.965  28.073  28.559  1.00  0.00     0.049 A 
ATOM     23  H   UNL A   1      40.897  29.082  30.382  1.00  0.00     0.167 HD
ATOM     24  C   UNL A   1      40.552  31.197  34.212  1.00  0.00     0.034 A 
ATOM     25  C   UNL A   1      42.038  27.255  28.592  1.00  0.00     0.034 A 
ATOM     26  C   UNL A   1      41.659  30.293  34.363  1.00  0.00     0.049 A 
ATOM     27  C   UNL A   1      42.862  27.184  29.857  1.00  0.00     0.074 A 
ATOM     28  C   UNL A   1      42.454  30.100  35.478  1.00  0.00     0.029 A 
ATOM     29  N   UNL A   1      42.120  29.424  33.386  1.00  0.00    -0.354 N 
ATOM     30  N   UNL A   1      42.689  27.819  30.993  1.00  0.00    -0.248 NA
ATOM     31  C   UNL A   1      44.014  26.270  29.858  1.00  0.00     0.031 C 
ATOM     32  C   UNL A   1      43.442  29.173  35.151  1.00  0.00     0.029 A 
ATOM     33  C   UNL A   1      43.204  28.709  33.867  1.00  0.00     0.049 A 
ATOM     34  H   UNL A   1      41.735  29.328  32.484  1.00  0.00     0.167 HD
ATOM     35  C   UNL A   1      43.672  27.341  31.856  1.00  0.00     0.074 A 
ATOM     36  C   UNL A   1      44.429  26.356  31.115  1.00  0.00     0.031 C 
ATOM     37  C   UNL A   1      43.922  27.688  33.144  1.00  0.00     0.034 A 
BRANCH  24  38
ATOM     38  C   UNL A   1      40.212  32.082  35.386  1.00  0.00     0.023 A 
ATOM     39  C   UNL A   1      39.243  31.662  36.316  1.00  0.00     0.031 A 
ATOM     40  C   UNL A   1      40.716  33.390  35.496  1.00  0.00     0.131 A 
ATOM     41  C   UNL A   1      38.766  32.560  37.278  1.00  0.00     0.055 A 
ATOM     42  C   UNL A   1      40.280  34.263  36.494  1.00  0.00     0.041 A 
ATOM     43  F   UNL A   1      41.642  33.841  34.635  1.00  0.00    -0.206 F 
ATOM     44  C   UNL A   1      39.287  33.854  37.378  1.00  0.00     0.022 A 
BRANCH  41  45
ATOM     45  S   UNL A   1      37.394  32.110  38.374  1.00  0.00     0.124 S 
ATOM     46  O   UNL A   1      37.247  30.681  38.102  1.00  0.00    -0.237 OA
ATOM     47  O   UNL A   1      37.936  32.443  39.689  1.00  0.00    -0.237 OA
ATOM     48  O   UNL A   1      36.290  32.945  37.914  1.00  0.00    -0.744 OA
ENDBRANCH  41  45
ENDBRANCH  24  38
BRANCH  25  49
ATOM     49  C   UNL A   1      42.328  26.368  27.424  1.00  0.00     0.023 A 
ATOM     50  C   UNL A   1      41.863  25.041  27.380  1.00  0.00     0.031 A 
ATOM     51  C   UNL A   1      43.145  26.813  26.369  1.00  0.00     0.131 A 
ATOM     52  C   UNL A   1      42.265  24.194  26.337  1.00  0.00     0.055 A 
ATOM     53  C   UNL A   1      43.480  25.989  25.293  1.00  0.00     0.041 A 
ATOM     54  F   UNL A   1      43.630  28.064  26.372  1.00  0.00    -0.206 F 
ATOM     55  C   UNL A   1      43.052  24.667  25.281  1.00  0.00     0.022 A 
BRANCH  52  56
ATOM     56  S   UNL A   1      41.886  22.421  26.379  1.00  0.00     0.124 S 
ATOM     57  O   UNL A   1      40.429  22.418  26.314  1.00  0.00    -0.237 OA
ATOM     58  O   UNL A   1      42.573  21.940  25.183  1.00  0.00    -0.237 OA
ATOM     59  O   UNL A   1      42.462  21.976  27.644  1.00  0.00    -0.744 OA
ENDBRANCH  52  56
ENDBRANCH  25  49
BRANCH  37  60
ATOM     60  C   UNL A   1      45.019  26.976  33.901  1.00  0.00     0.023 A 
ATOM     61  C   UNL A   1      44.728  25.766  34.564  1.00  0.00     0.031 A 
ATOM     62  C   UNL A   1      46.277  27.563  34.119  1.00  0.00     0.131 A 
ATOM     63  C   UNL A   1      45.659  25.210  35.449  1.00  0.00     0.055 A 
ATOM     64  C   UNL A   1      47.226  26.972  34.955  1.00  0.00     0.041 A 
ATOM     65  F   UNL A   1      46.598  28.727  33.531  1.00  0.00    -0.206 F 
ATOM     66  C   UNL A   1      46.911  25.800  35.638  1.00  0.00     0.022 A 
BRANCH  63  67
ATOM     67  S   UNL A   1      45.233  23.774  36.473  1.00  0.00     0.124 S 
ATOM     68  O   UNL A   1      44.141  23.173  35.710  1.00  0.00    -0.237 OA
ATOM     69  O   UNL A   1      46.482  23.017  36.475  1.00  0.00    -0.237 OA
ATOM     70  O   UNL A   1      44.850  24.355  37.756  1.00  0.00    -0.744 OA
ENDBRANCH  63  67
ENDBRANCH  37  60
ENDBRANCH  11  12
ENDBRANCH   4   6
ENDBRANCH   1   2
BRANCH   1  71
ATOM     71  C   UNL A   1      32.229  29.810  25.640  1.00  0.00     0.023 C 
BRANCH  71  72
ATOM     72  C   UNL A   1      33.294  28.967  24.945  1.00  0.00     0.023 C 
BRANCH  72  73
ATOM     73  C   UNL A   1      33.304  29.064  23.425  1.00  0.00     0.116 C 
BRANCH  73  74
ATOM     74  N   UNL A   1      31.968  29.148  22.854  1.00  0.00    -0.352 N 
ATOM     75  C   UNL A   1      31.126  28.138  22.480  1.00  0.00     0.252 C 
ATOM     76  H   UNL A   1      31.622  30.059  22.717  1.00  0.00     0.163 HD
ATOM     77  O   UNL A   1      30.042  28.383  21.961  1.00  0.00    -0.269 OA
BRANCH  75  78
ATOM     78  C   UNL A   1      31.584  26.743  22.682  1.00  0.00     0.054 A 
ATOM     79  C   UNL A   1      32.330  26.216  21.698  1.00  0.00     0.086 A 
ATOM     80  C   UNL A   1      31.249  25.954  23.877  1.00  0.00     0.012 A 
ATOM     81  C   UNL A   1      32.711  24.792  21.722  1.00  0.00     0.249 A 
ATOM     82  C   UNL A   1      31.627  24.602  23.908  1.00  0.00     0.063 A 
ATOM     83  C   UNL A   1      30.565  26.493  24.976  1.00  0.00     0.011 A 
ATOM     84  O   UNL A   1      33.316  24.290  20.780  1.00  0.00    -0.270 OA
ATOM     85  N   UNL A   1      32.329  24.069  22.813  1.00  0.00    -0.321 N 
ATOM     86  C   UNL A   1      31.312  23.804  25.016  1.00  0.00     0.042 A 
ATOM     87  C   UNL A   1      30.263  25.698  26.084  1.00  0.00     0.002 A 
ATOM     88  H   UNL A   1      32.560  23.112  22.836  1.00  0.00     0.170 HD
ATOM     89  Br  UNL A   1      31.798  21.971  25.088  1.00  0.00    -0.049 Br
ATOM     90  C   UNL A   1      30.632  24.353  26.105  1.00  0.00     0.018 A 
ENDBRANCH  75  78
ENDBRANCH  73  74
ENDBRANCH  72  73
ENDBRANCH  71  72
ENDBRANCH   1  71
TORSDOF 14
ENDMDL
MODEL 3
REMARK VINA RESULT:     -12.4      5.295     10.150
REMARK SMILES O=C(NCCCCNC(=O)c1cc(=O)[nH]c2c(Br)cccc12)c1ccc(-c2c3nc(c(-c4cc(S(=O)(=O)[O-])ccc4F)c4ccc([nH]4)c(-c4cc(S(=O)(=O)[O-])ccc4F)c4nc(c(-c5cc(S(=O)(=O)[O-])ccc5F)c5ccc2[nH]5)C=C4)C=C3)cc1
REMARK SMILES IDX 4 1 3 2 1 3 2 4 23 6 24 7 85 8 25 9 84 10 26 11 27 12 28 13
REMARK SMILES IDX 78 14 29 15 83 16 77 17 79 18 30 19 82 20 76 21 75 22 31 24
REMARK SMILES IDX 63 25 43 26 62 27 44 28 47 29 61 30 80 31 45 32 46 33 60 35
REMARK SMILES IDX 81 36 48 37 32 38 33 39 41 40 34 41 40 42 42 43 39 44 35 45
REMARK SMILES IDX 36 46 37 47 38 48 64 49 65 50 73 51 66 52 72 53 74 54 71 55
REMARK SMILES IDX 67 56 68 57 69 58 70 59 49 60 50 61 58 62 51 63 57 64 59 65
REMARK SMILES IDX 56 66 52 67 53 68 54 69 55 70 5 71 6 72 7 73 8 74 9 75 10 77
REMARK SMILES IDX 11 78 12 79 22 80 13 81 16 82 21 83 14 84 15 85 17 86 20 87
REMARK SMILES IDX 18 89 19 90
REMARK H PARENT 3 5 79 23 47 34 8 76 15 88
REMARK Flexibility Score: inf
ROOT
ATOM      1  C   UNL A   1      32.660  29.483  26.069  1.00  0.00     0.116 C 
ENDROOT
BRANCH   1   2
ATOM      2  N   UNL A   1      32.417  30.888  26.353  1.00  0.00    -0.352 N 
ATOM      3  O   UNL A   1      32.641  32.868  27.387  1.00  0.00    -0.269 OA
ATOM      4  C   UNL A   1      33.111  31.756  27.161  1.00  0.00     0.251 C 
ATOM      5  H   UNL A   1      31.635  31.276  25.898  1.00  0.00     0.163 HD
BRANCH   4   6
ATOM      6  C   UNL A   1      34.405  31.359  27.762  1.00  0.00     0.039 A 
ATOM      7  C   UNL A   1      34.589  30.028  28.147  1.00  0.00     0.014 A 
ATOM      8  C   UNL A   1      35.418  32.292  27.993  1.00  0.00     0.014 A 
ATOM      9  C   UNL A   1      35.791  29.637  28.743  1.00  0.00     0.010 A 
ATOM     10  C   UNL A   1      36.655  31.878  28.478  1.00  0.00     0.010 A 
ATOM     11  C   UNL A   1      36.838  30.558  28.910  1.00  0.00    -0.014 A 
BRANCH  11  12
ATOM     12  C   UNL A   1      38.085  30.185  29.629  1.00  0.00     0.031 A 
ATOM     13  C   UNL A   1      38.303  30.671  31.040  1.00  0.00     0.074 A 
ATOM     14  C   UNL A   1      39.017  29.420  29.025  1.00  0.00     0.049 A 
ATOM     15  N   UNL A   1      39.310  30.444  31.844  1.00  0.00    -0.248 NA
ATOM     16  C   UNL A   1      37.270  31.548  31.620  1.00  0.00     0.031 C 
ATOM     17  C   UNL A   1      38.936  28.924  27.651  1.00  0.00     0.029 A 
ATOM     18  N   UNL A   1      40.208  28.916  29.490  1.00  0.00    -0.354 N 
ATOM     19  C   UNL A   1      39.037  31.159  33.005  1.00  0.00     0.074 A 
ATOM     20  C   UNL A   1      37.813  31.888  32.778  1.00  0.00     0.031 C 
ATOM     21  C   UNL A   1      39.999  28.144  27.403  1.00  0.00     0.029 A 
ATOM     22  C   UNL A   1      40.863  28.115  28.582  1.00  0.00     0.049 A 
ATOM     23  H   UNL A   1      40.560  29.111  30.389  1.00  0.00     0.167 HD
ATOM     24  C   UNL A   1      39.723  31.174  34.171  1.00  0.00     0.034 A 
ATOM     25  C   UNL A   1      42.016  27.423  28.693  1.00  0.00     0.034 A 
ATOM     26  C   UNL A   1      40.912  30.399  34.403  1.00  0.00     0.049 A 
ATOM     27  C   UNL A   1      42.755  27.445  30.011  1.00  0.00     0.074 A 
ATOM     28  C   UNL A   1      41.647  30.297  35.570  1.00  0.00     0.029 A 
ATOM     29  N   UNL A   1      41.532  29.588  33.465  1.00  0.00    -0.354 N 
ATOM     30  N   UNL A   1      42.437  28.057  31.128  1.00  0.00    -0.248 NA
ATOM     31  C   UNL A   1      43.999  26.666  30.096  1.00  0.00     0.031 C 
ATOM     32  C   UNL A   1      42.752  29.487  35.316  1.00  0.00     0.029 A 
ATOM     33  C   UNL A   1      42.653  28.999  34.023  1.00  0.00     0.049 A 
ATOM     34  H   UNL A   1      41.222  29.449  32.540  1.00  0.00     0.167 HD
ATOM     35  C   UNL A   1      43.406  27.691  32.058  1.00  0.00     0.074 A 
ATOM     36  C   UNL A   1      44.317  26.797  31.377  1.00  0.00     0.031 C 
ATOM     37  C   UNL A   1      43.529  28.064  33.357  1.00  0.00     0.034 A 
BRANCH  24  38
ATOM     38  C   UNL A   1      39.208  32.015  35.313  1.00  0.00     0.023 A 
ATOM     39  C   UNL A   1      39.625  33.353  35.435  1.00  0.00     0.031 A 
ATOM     40  C   UNL A   1      38.445  31.459  36.356  1.00  0.00     0.131 A 
ATOM     41  C   UNL A   1      39.329  34.071  36.599  1.00  0.00     0.055 A 
ATOM     42  C   UNL A   1      38.103  32.197  37.489  1.00  0.00     0.041 A 
ATOM     43  F   UNL A   1      38.021  30.186  36.289  1.00  0.00    -0.206 F 
ATOM     44  C   UNL A   1      38.562  33.504  37.622  1.00  0.00     0.022 A 
BRANCH  41  45
ATOM     45  S   UNL A   1      40.002  35.733  36.867  1.00  0.00     0.124 S 
ATOM     46  O   UNL A   1      39.282  36.160  38.066  1.00  0.00    -0.237 OA
ATOM     47  O   UNL A   1      41.424  35.457  37.057  1.00  0.00    -0.237 OA
ATOM     48  O   UNL A   1      39.655  36.453  35.647  1.00  0.00    -0.744 OA
ENDBRANCH  41  45
ENDBRANCH  24  38
BRANCH  25  49
ATOM     49  C   UNL A   1      42.481  26.574  27.554  1.00  0.00     0.023 A 
ATOM     50  C   UNL A   1      42.030  25.251  27.395  1.00  0.00     0.031 A 
ATOM     51  C   UNL A   1      43.449  27.050  26.652  1.00  0.00     0.131 A 
ATOM     52  C   UNL A   1      42.587  24.438  26.397  1.00  0.00     0.055 A 
ATOM     53  C   UNL A   1      43.945  26.261  25.612  1.00  0.00     0.041 A 
ATOM     54  F   UNL A   1      43.927  28.298  26.770  1.00  0.00    -0.206 F 
ATOM     55  C   UNL A   1      43.524  24.942  25.490  1.00  0.00     0.022 A 
BRANCH  52  56
ATOM     56  S   UNL A   1      42.207  22.666  26.323  1.00  0.00     0.124 S 
ATOM     57  O   UNL A   1      42.686  22.306  24.992  1.00  0.00    -0.237 OA
ATOM     58  O   UNL A   1      42.992  22.145  27.439  1.00  0.00    -0.237 OA
ATOM     59  O   UNL A   1      40.760  22.616  26.507  1.00  0.00    -0.744 OA
ENDBRANCH  52  56
ENDBRANCH  25  49
BRANCH  37  60
ATOM     60  C   UNL A   1      44.645  27.480  34.191  1.00  0.00     0.023 A 
ATOM     61  C   UNL A   1      44.408  26.306  34.937  1.00  0.00     0.031 A 
ATOM     62  C   UNL A   1      45.858  28.158  34.394  1.00  0.00     0.131 A 
ATOM     63  C   UNL A   1      45.346  25.876  35.883  1.00  0.00     0.055 A 
ATOM     64  C   UNL A   1      46.817  27.691  35.294  1.00  0.00     0.041 A 
ATOM     65  F   UNL A   1      46.125  29.293  33.728  1.00  0.00    -0.206 F 
ATOM     66  C   UNL A   1      46.555  26.555  36.056  1.00  0.00     0.022 A 
BRANCH  63  67
ATOM     67  S   UNL A   1      44.979  24.496  37.002  1.00  0.00     0.124 S 
ATOM     68  O   UNL A   1      43.958  25.077  37.872  1.00  0.00    -0.237 OA
ATOM     69  O   UNL A   1      44.501  23.470  36.079  1.00  0.00    -0.237 OA
ATOM     70  O   UNL A   1      46.258  24.214  37.646  1.00  0.00    -0.744 OA
ENDBRANCH  63  67
ENDBRANCH  37  60
ENDBRANCH  11  12
ENDBRANCH   4   6
ENDBRANCH   1   2
BRANCH   1  71
ATOM     71  C   UNL A   1      31.759  28.553  26.869  1.00  0.00     0.023 C 
BRANCH  71  72
ATOM     72  C   UNL A   1      31.874  27.074  26.515  1.00  0.00     0.023 C 
BRANCH  72  73
ATOM     73  C   UNL A   1      30.547  26.356  26.300  1.00  0.00     0.116 C 
BRANCH  73  74
ATOM     74  N   UNL A   1      30.604  25.368  25.233  1.00  0.00    -0.352 N 
ATOM     75  C   UNL A   1      30.668  25.563  23.882  1.00  0.00     0.252 C 
ATOM     76  H   UNL A   1      30.594  24.428  25.525  1.00  0.00     0.163 HD
ATOM     77  O   UNL A   1      30.658  24.611  23.108  1.00  0.00    -0.269 OA
BRANCH  75  78
ATOM     78  C   UNL A   1      30.708  26.958  23.382  1.00  0.00     0.054 A 
ATOM     79  C   UNL A   1      31.912  27.421  23.011  1.00  0.00     0.086 A 
ATOM     80  C   UNL A   1      29.514  27.813  23.294  1.00  0.00     0.012 A 
ATOM     81  C   UNL A   1      32.095  28.837  22.644  1.00  0.00     0.249 A 
ATOM     82  C   UNL A   1      29.685  29.157  22.927  1.00  0.00     0.063 A 
ATOM     83  C   UNL A   1      28.222  27.344  23.568  1.00  0.00     0.011 A 
ATOM     84  O   UNL A   1      33.211  29.278  22.392  1.00  0.00    -0.270 OA
ATOM     85  N   UNL A   1      30.980  29.621  22.636  1.00  0.00    -0.321 N 
ATOM     86  C   UNL A   1      28.581  30.016  22.850  1.00  0.00     0.042 A 
ATOM     87  C   UNL A   1      27.122  28.199  23.480  1.00  0.00     0.002 A 
ATOM     88  H   UNL A   1      31.088  30.573  22.411  1.00  0.00     0.170 HD
ATOM     89  Br  UNL A   1      28.776  31.842  22.369  1.00  0.00    -0.049 Br
ATOM     90  C   UNL A   1      27.299  29.536  23.124  1.00  0.00     0.018 A 
ENDBRANCH  75  78
ENDBRANCH  73  74
ENDBRANCH  72  73
ENDBRANCH  71  72
ENDBRANCH   1  71
TORSDOF 14
ENDMDL
