MODEL 1
REMARK VINA RESULT:     -13.1      0.000      0.000
REMARK SMILES Cc1cccc(C(=O)NCCCCNC(=O)c2ccc(-c3c4nc(c(-c5cc(S(=O)(=O)[O-])ccc5F)c5ccc([nH]5)c(-c5cc(S(=O)(=O)[O-])ccc5F)c5nc(c(-c6cc(S(=O)(=O)[O-])ccc6F)c6ccc3[nH]6)C=C5)C=C4)cc2)c1OC[C@@H]1C[C@H]2CC[C@@H]1C2
REMARK SMILES IDX 11 1 10 2 9 3 7 4 8 5 6 7 1 8 2 9 3 10 80 11 4 12 5 13 81 14
REMARK SMILES IDX 82 15 83 16 84 17 88 18 85 19 87 20 89 21 86 22 12 23 13 24
REMARK SMILES IDX 14 25 15 26 16 28 17 29 18 30 79 31 19 32 78 33 20 34 21 35
REMARK SMILES IDX 22 36 72 37 23 38 77 39 71 40 73 41 24 42 76 43 70 44 69 45
REMARK SMILES IDX 25 47 57 48 37 49 56 50 38 51 41 52 55 53 74 54 39 55 40 56
REMARK SMILES IDX 54 58 75 59 42 60 26 61 27 62 35 63 28 64 34 65 36 66 33 67
REMARK SMILES IDX 29 68 30 69 31 70 32 71 58 72 59 73 67 74 60 75 66 76 68 77
REMARK SMILES IDX 65 78 61 79 62 80 63 81 64 82 43 83 44 84 52 85 45 86 51 87
REMARK SMILES IDX 53 88 50 89 46 90 47 91 48 92 49 93
REMARK H PARENT 9 6 14 27 73 46 41 57
REMARK Flexibility Score: inf
ROOT
ATOM      1  C   UNL A   1      31.809  29.825  26.910  1.00  0.00     0.023 C 
ENDROOT
BRANCH   1   2
ATOM      2  C   UNL A   1      32.124  28.499  27.627  1.00  0.00     0.116 C 
BRANCH   2   3
ATOM      3  N   UNL A   1      31.195  27.455  27.251  1.00  0.00    -0.352 N 
ATOM      4  C   UNL A   1      31.230  26.434  26.344  1.00  0.00     0.255 C 
ATOM      5  O   UNL A   1      30.219  25.716  26.350  1.00  0.00    -0.269 OA
ATOM      6  H   UNL A   1      30.353  27.488  27.759  1.00  0.00     0.163 HD
BRANCH   4   7
ATOM      7  C   UNL A   1      32.320  26.081  25.368  1.00  0.00     0.082 A 
ATOM      8  C   UNL A   1      33.248  26.004  21.660  1.00  0.00     0.048 C 
ATOM      9  C   UNL A   1      33.309  25.817  23.154  1.00  0.00    -0.008 A 
ATOM     10  C   UNL A   1      34.028  24.696  23.605  1.00  0.00     0.007 A 
ATOM     11  C   UNL A   1      32.548  26.584  24.067  1.00  0.00     0.134 A 
ATOM     12  C   UNL A   1      33.935  24.283  24.922  1.00  0.00     0.001 A 
ATOM     13  C   UNL A   1      33.064  24.948  25.779  1.00  0.00     0.018 A 
BRANCH  11  14
ATOM     14  O   UNL A   1      31.930  27.719  23.651  1.00  0.00    -0.492 OA
BRANCH  14  15
ATOM     15  C   UNL A   1      30.551  27.684  23.194  1.00  0.00     0.233 C 
BRANCH  15  16
ATOM     16  C   UNL A   1      29.552  28.753  23.703  1.00  0.00     0.030 C 
ATOM     17  C   UNL A   1      28.123  28.557  23.119  1.00  0.00     0.011 C 
ATOM     18  C   UNL A   1      29.897  30.162  23.142  1.00  0.00    -0.004 C 
ATOM     19  C   UNL A   1      27.861  29.847  22.318  1.00  0.00    -0.010 C 
ATOM     20  C   UNL A   1      29.058  31.220  23.878  1.00  0.00     0.004 C 
ATOM     21  C   UNL A   1      29.244  30.152  21.758  1.00  0.00     0.007 C 
ATOM     22  C   UNL A   1      27.654  31.012  23.296  1.00  0.00     0.004 C 
ENDBRANCH  15  16
ENDBRANCH  14  15
ENDBRANCH  11  14
ENDBRANCH   4   7
ENDBRANCH   2   3
ENDBRANCH   1   2
BRANCH   1  23
ATOM     23  C   UNL A   1      32.913  30.878  26.978  1.00  0.00     0.023 C 
BRANCH  23  24
ATOM     24  C   UNL A   1      34.209  30.344  27.575  1.00  0.00     0.116 C 
BRANCH  24  25
ATOM     25  N   UNL A   1      34.975  31.297  28.355  1.00  0.00    -0.352 N 
ATOM     26  C   UNL A   1      36.163  31.081  29.057  1.00  0.00     0.251 C 
ATOM     27  H   UNL A   1      34.612  32.210  28.395  1.00  0.00     0.163 HD
ATOM     28  O   UNL A   1      36.628  31.941  29.789  1.00  0.00    -0.269 OA
BRANCH  26  29
ATOM     29  C   UNL A   1      36.914  29.831  28.807  1.00  0.00     0.039 A 
ATOM     30  C   UNL A   1      37.116  28.971  29.892  1.00  0.00     0.014 A 
ATOM     31  C   UNL A   1      37.621  29.642  27.619  1.00  0.00     0.014 A 
ATOM     32  C   UNL A   1      38.204  28.104  29.882  1.00  0.00     0.010 A 
ATOM     33  C   UNL A   1      38.764  28.865  27.648  1.00  0.00     0.010 A 
ATOM     34  C   UNL A   1      39.095  28.161  28.810  1.00  0.00    -0.014 A 
BRANCH  34  35
ATOM     35  C   UNL A   1      40.465  27.660  28.891  1.00  0.00     0.031 A 
ATOM     36  C   UNL A   1      40.782  26.270  28.506  1.00  0.00     0.074 A 
ATOM     37  C   UNL A   1      41.451  28.489  29.303  1.00  0.00     0.049 A 
ATOM     38  N   UNL A   1      41.876  25.664  28.824  1.00  0.00    -0.248 NA
ATOM     39  C   UNL A   1      39.836  25.402  27.810  1.00  0.00     0.031 C 
ATOM     40  C   UNL A   1      42.895  28.286  29.207  1.00  0.00     0.029 A 
ATOM     41  N   UNL A   1      41.326  29.597  30.130  1.00  0.00    -0.354 N 
ATOM     42  C   UNL A   1      41.903  24.460  28.167  1.00  0.00     0.074 A 
ATOM     43  C   UNL A   1      40.565  24.292  27.661  1.00  0.00     0.031 C 
ATOM     44  C   UNL A   1      43.506  29.068  30.113  1.00  0.00     0.029 A 
ATOM     45  C   UNL A   1      42.471  29.680  30.928  1.00  0.00     0.049 A 
ATOM     46  H   UNL A   1      40.561  30.216  30.153  1.00  0.00     0.167 HD
ATOM     47  C   UNL A   1      43.093  23.813  28.032  1.00  0.00     0.034 A 
ATOM     48  C   UNL A   1      42.389  29.563  32.286  1.00  0.00     0.034 A 
ATOM     49  C   UNL A   1      44.085  24.350  28.971  1.00  0.00     0.049 A 
ATOM     50  C   UNL A   1      43.144  28.371  32.843  1.00  0.00     0.074 A 
ATOM     51  C   UNL A   1      45.213  25.139  28.831  1.00  0.00     0.029 A 
ATOM     52  N   UNL A   1      43.818  24.289  30.338  1.00  0.00    -0.354 N 
ATOM     53  N   UNL A   1      43.556  27.351  32.136  1.00  0.00    -0.248 NA
ATOM     54  C   UNL A   1      43.469  28.234  34.259  1.00  0.00     0.031 C 
ATOM     55  C   UNL A   1      45.562  25.630  30.122  1.00  0.00     0.029 A 
ATOM     56  C   UNL A   1      44.682  25.099  31.050  1.00  0.00     0.049 A 
ATOM     57  H   UNL A   1      43.109  23.740  30.743  1.00  0.00     0.167 HD
ATOM     58  C   UNL A   1      44.135  26.419  32.966  1.00  0.00     0.074 A 
ATOM     59  C   UNL A   1      44.091  27.043  34.277  1.00  0.00     0.031 C 
ATOM     60  C   UNL A   1      44.573  25.206  32.504  1.00  0.00     0.034 A 
BRANCH  47  61
ATOM     61  C   UNL A   1      43.439  22.823  26.926  1.00  0.00     0.023 A 
ATOM     62  C   UNL A   1      42.822  21.551  26.930  1.00  0.00     0.031 A 
ATOM     63  C   UNL A   1      44.442  22.988  25.942  1.00  0.00     0.131 A 
ATOM     64  C   UNL A   1      43.211  20.535  26.029  1.00  0.00     0.055 A 
ATOM     65  C   UNL A   1      44.790  21.998  25.015  1.00  0.00     0.041 A 
ATOM     66  F   UNL A   1      45.196  24.087  25.848  1.00  0.00    -0.206 F 
ATOM     67  C   UNL A   1      44.183  20.759  25.059  1.00  0.00     0.022 A 
BRANCH  64  68
ATOM     68  S   UNL A   1      42.499  18.873  26.186  1.00  0.00     0.124 S 
ATOM     69  O   UNL A   1      41.121  19.087  25.753  1.00  0.00    -0.237 OA
ATOM     70  O   UNL A   1      43.346  18.086  25.298  1.00  0.00    -0.237 OA
ATOM     71  O   UNL A   1      42.652  18.573  27.611  1.00  0.00    -0.744 OA
ENDBRANCH  64  68
ENDBRANCH  47  61
BRANCH  48  72
ATOM     72  C   UNL A   1      41.123  30.108  32.862  1.00  0.00     0.023 A 
ATOM     73  C   UNL A   1      40.980  31.509  32.941  1.00  0.00     0.031 A 
ATOM     74  C   UNL A   1      39.967  29.326  32.989  1.00  0.00     0.131 A 
ATOM     75  C   UNL A   1      39.704  32.089  32.991  1.00  0.00     0.055 A 
ATOM     76  C   UNL A   1      38.698  29.910  33.101  1.00  0.00     0.041 A 
ATOM     77  F   UNL A   1      40.031  27.991  32.885  1.00  0.00    -0.206 F 
ATOM     78  C   UNL A   1      38.558  31.298  33.068  1.00  0.00     0.022 A 
BRANCH  75  79
ATOM     79  S   UNL A   1      39.558  33.888  32.793  1.00  0.00     0.124 S 
ATOM     80  O   UNL A   1      40.946  34.332  32.868  1.00  0.00    -0.237 OA
ATOM     81  O   UNL A   1      38.935  33.991  31.475  1.00  0.00    -0.237 OA
ATOM     82  O   UNL A   1      38.718  34.291  33.917  1.00  0.00    -0.744 OA
ENDBRANCH  75  79
ENDBRANCH  48  72
BRANCH  60  83
ATOM     83  C   UNL A   1      45.000  24.027  33.370  1.00  0.00     0.023 A 
ATOM     84  C   UNL A   1      46.263  23.912  33.973  1.00  0.00     0.031 A 
ATOM     85  C   UNL A   1      44.092  22.983  33.682  1.00  0.00     0.131 A 
ATOM     86  C   UNL A   1      46.615  22.787  34.745  1.00  0.00     0.055 A 
ATOM     87  C   UNL A   1      44.414  21.907  34.517  1.00  0.00     0.041 A 
ATOM     88  F   UNL A   1      42.840  22.967  33.200  1.00  0.00    -0.206 F 
ATOM     89  C   UNL A   1      45.691  21.792  35.040  1.00  0.00     0.022 A 
BRANCH  86  90
ATOM     90  S   UNL A   1      48.336  22.626  35.295  1.00  0.00     0.124 S 
ATOM     91  O   UNL A   1      48.203  22.766  36.742  1.00  0.00    -0.237 OA
ATOM     92  O   UNL A   1      48.694  21.294  34.819  1.00  0.00    -0.237 OA
ATOM     93  O   UNL A   1      49.019  23.731  34.625  1.00  0.00    -0.744 OA
ENDBRANCH  86  90
ENDBRANCH  60  83
ENDBRANCH  34  35
ENDBRANCH  26  29
ENDBRANCH  24  25
ENDBRANCH  23  24
ENDBRANCH   1  23
TORSDOF 17
ENDMDL
MODEL 2
REMARK VINA RESULT:     -13.0      4.656     11.055
REMARK SMILES Cc1cccc(C(=O)NCCCCNC(=O)c2ccc(-c3c4nc(c(-c5cc(S(=O)(=O)[O-])ccc5F)c5ccc([nH]5)c(-c5cc(S(=O)(=O)[O-])ccc5F)c5nc(c(-c6cc(S(=O)(=O)[O-])ccc6F)c6ccc3[nH]6)C=C5)C=C4)cc2)c1OC[C@@H]1C[C@H]2CC[C@@H]1C2
REMARK SMILES IDX 11 1 10 2 9 3 7 4 8 5 6 7 1 8 2 9 3 10 80 11 4 12 5 13 81 14
REMARK SMILES IDX 82 15 83 16 84 17 88 18 85 19 87 20 89 21 86 22 12 23 13 24
REMARK SMILES IDX 14 25 15 26 16 28 17 29 18 30 79 31 19 32 78 33 20 34 21 35
REMARK SMILES IDX 22 36 72 37 23 38 77 39 71 40 73 41 24 42 76 43 70 44 69 45
REMARK SMILES IDX 25 47 57 48 37 49 56 50 38 51 41 52 55 53 74 54 39 55 40 56
REMARK SMILES IDX 54 58 75 59 42 60 26 61 27 62 35 63 28 64 34 65 36 66 33 67
REMARK SMILES IDX 29 68 30 69 31 70 32 71 58 72 59 73 67 74 60 75 66 76 68 77
REMARK SMILES IDX 65 78 61 79 62 80 63 81 64 82 43 83 44 84 52 85 45 86 51 87
REMARK SMILES IDX 53 88 50 89 46 90 47 91 48 92 49 93
REMARK H PARENT 9 6 14 27 73 46 41 57
REMARK Flexibility Score: inf
ROOT
ATOM      1  C   UNL A   1      37.165  21.357  25.162  1.00  0.00     0.023 C 
ENDROOT
BRANCH   1   2
ATOM      2  C   UNL A   1      36.295  22.504  25.706  1.00  0.00     0.116 C 
BRANCH   2   3
ATOM      3  N   UNL A   1      35.391  22.045  26.739  1.00  0.00    -0.352 N 
ATOM      4  C   UNL A   1      34.044  22.150  26.938  1.00  0.00     0.255 C 
ATOM      5  O   UNL A   1      33.636  21.576  27.959  1.00  0.00    -0.269 OA
ATOM      6  H   UNL A   1      35.847  21.550  27.457  1.00  0.00     0.163 HD
BRANCH   4   7
ATOM      7  C   UNL A   1      33.021  22.857  26.090  1.00  0.00     0.082 A 
ATOM      8  C   UNL A   1      32.191  23.979  22.531  1.00  0.00     0.048 C 
ATOM      9  C   UNL A   1      32.116  23.784  24.023  1.00  0.00    -0.008 A 
ATOM     10  C   UNL A   1      31.513  24.826  24.750  1.00  0.00     0.007 A 
ATOM     11  C   UNL A   1      32.769  22.731  24.705  1.00  0.00     0.134 A 
ATOM     12  C   UNL A   1      31.620  24.877  26.128  1.00  0.00     0.001 A 
ATOM     13  C   UNL A   1      32.395  23.924  26.781  1.00  0.00     0.018 A 
BRANCH  11  14
ATOM     14  O   UNL A   1      33.270  21.679  24.009  1.00  0.00    -0.492 OA
BRANCH  14  15
ATOM     15  C   UNL A   1      32.538  20.426  23.935  1.00  0.00     0.233 C 
BRANCH  15  16
ATOM     16  C   UNL A   1      32.991  19.226  24.803  1.00  0.00     0.030 C 
ATOM     17  C   UNL A   1      34.500  18.892  24.615  1.00  0.00     0.011 C 
ATOM     18  C   UNL A   1      32.345  17.898  24.315  1.00  0.00    -0.004 C 
ATOM     19  C   UNL A   1      34.503  17.459  24.050  1.00  0.00    -0.010 C 
ATOM     20  C   UNL A   1      32.604  16.795  25.354  1.00  0.00     0.004 C 
ATOM     21  C   UNL A   1      33.262  17.469  23.168  1.00  0.00     0.007 C 
ATOM     22  C   UNL A   1      34.093  16.481  25.160  1.00  0.00     0.004 C 
ENDBRANCH  15  16
ENDBRANCH  14  15
ENDBRANCH  11  14
ENDBRANCH   4   7
ENDBRANCH   2   3
ENDBRANCH   1   2
BRANCH   1  23
ATOM     23  C   UNL A   1      38.634  21.402  25.581  1.00  0.00     0.023 C 
BRANCH  23  24
ATOM     24  C   UNL A   1      39.045  22.747  26.167  1.00  0.00     0.116 C 
BRANCH  24  25
ATOM     25  N   UNL A   1      40.459  22.897  26.452  1.00  0.00    -0.352 N 
ATOM     26  C   UNL A   1      41.162  24.068  26.743  1.00  0.00     0.251 C 
ATOM     27  H   UNL A   1      40.991  22.069  26.437  1.00  0.00     0.163 HD
ATOM     28  O   UNL A   1      42.381  24.069  26.825  1.00  0.00    -0.269 OA
BRANCH  26  29
ATOM     29  C   UNL A   1      40.393  25.290  27.067  1.00  0.00     0.039 A 
ATOM     30  C   UNL A   1      40.697  26.453  26.350  1.00  0.00     0.014 A 
ATOM     31  C   UNL A   1      39.599  25.358  28.212  1.00  0.00     0.014 A 
ATOM     32  C   UNL A   1      40.435  27.695  26.922  1.00  0.00     0.010 A 
ATOM     33  C   UNL A   1      39.437  26.582  28.832  1.00  0.00     0.010 A 
ATOM     34  C   UNL A   1      39.929  27.740  28.221  1.00  0.00    -0.014 A 
BRANCH  34  35
ATOM     35  C   UNL A   1      40.040  28.920  29.074  1.00  0.00     0.031 A 
ATOM     36  C   UNL A   1      39.008  29.977  29.035  1.00  0.00     0.074 A 
ATOM     37  C   UNL A   1      41.089  29.031  29.920  1.00  0.00     0.049 A 
ATOM     38  N   UNL A   1      39.172  31.164  29.513  1.00  0.00    -0.248 NA
ATOM     39  C   UNL A   1      37.727  29.812  28.353  1.00  0.00     0.031 C 
ATOM     40  C   UNL A   1      41.257  29.971  31.027  1.00  0.00     0.029 A 
ATOM     41  N   UNL A   1      42.344  28.455  29.782  1.00  0.00    -0.354 N 
ATOM     42  C   UNL A   1      37.966  31.818  29.454  1.00  0.00     0.074 A 
ATOM     43  C   UNL A   1      37.144  30.987  28.612  1.00  0.00     0.031 C 
ATOM     44  C   UNL A   1      42.566  30.084  31.309  1.00  0.00     0.029 A 
ATOM     45  C   UNL A   1      43.294  29.345  30.292  1.00  0.00     0.049 A 
ATOM     46  H   UNL A   1      42.534  27.572  29.389  1.00  0.00     0.167 HD
ATOM     47  C   UNL A   1      37.781  32.923  30.227  1.00  0.00     0.034 A 
ATOM     48  C   UNL A   1      44.252  29.886  29.484  1.00  0.00     0.034 A 
ATOM     49  C   UNL A   1      39.067  33.444  30.703  1.00  0.00     0.049 A 
ATOM     50  C   UNL A   1      44.173  31.397  29.368  1.00  0.00     0.074 A 
ATOM     51  C   UNL A   1      39.702  33.462  31.932  1.00  0.00     0.029 A 
ATOM     52  N   UNL A   1      40.019  33.843  29.765  1.00  0.00    -0.354 N 
ATOM     53  N   UNL A   1      43.134  32.117  29.700  1.00  0.00    -0.248 NA
ATOM     54  C   UNL A   1      45.267  32.207  28.841  1.00  0.00     0.031 C 
ATOM     55  C   UNL A   1      41.073  33.780  31.708  1.00  0.00     0.029 A 
ATOM     56  C   UNL A   1      41.259  34.008  30.355  1.00  0.00     0.049 A 
ATOM     57  H   UNL A   1      39.834  33.988  28.810  1.00  0.00     0.167 HD
ATOM     58  C   UNL A   1      43.373  33.437  29.397  1.00  0.00     0.074 A 
ATOM     59  C   UNL A   1      44.739  33.440  28.902  1.00  0.00     0.031 C 
ATOM     60  C   UNL A   1      42.416  34.405  29.554  1.00  0.00     0.034 A 
BRANCH  47  61
ATOM     61  C   UNL A   1      36.435  33.435  30.723  1.00  0.00     0.023 A 
ATOM     62  C   UNL A   1      35.561  34.062  29.805  1.00  0.00     0.031 A 
ATOM     63  C   UNL A   1      36.004  33.480  32.070  1.00  0.00     0.131 A 
ATOM     64  C   UNL A   1      34.371  34.695  30.228  1.00  0.00     0.055 A 
ATOM     65  C   UNL A   1      34.798  34.062  32.481  1.00  0.00     0.041 A 
ATOM     66  F   UNL A   1      36.742  33.024  33.086  1.00  0.00    -0.206 F 
ATOM     67  C   UNL A   1      33.977  34.683  31.562  1.00  0.00     0.022 A 
BRANCH  64  68
ATOM     68  S   UNL A   1      33.372  35.621  29.028  1.00  0.00     0.124 S 
ATOM     69  O   UNL A   1      32.516  34.579  28.470  1.00  0.00    -0.237 OA
ATOM     70  O   UNL A   1      32.721  36.618  29.870  1.00  0.00    -0.237 OA
ATOM     71  O   UNL A   1      34.369  36.157  28.099  1.00  0.00    -0.744 OA
ENDBRANCH  64  68
ENDBRANCH  47  61
BRANCH  48  72
ATOM     72  C   UNL A   1      44.700  28.976  28.387  1.00  0.00     0.023 A 
ATOM     73  C   UNL A   1      45.534  27.890  28.727  1.00  0.00     0.031 A 
ATOM     74  C   UNL A   1      44.060  28.942  27.141  1.00  0.00     0.131 A 
ATOM     75  C   UNL A   1      45.590  26.755  27.903  1.00  0.00     0.055 A 
ATOM     76  C   UNL A   1      44.169  27.832  26.293  1.00  0.00     0.041 A 
ATOM     77  F   UNL A   1      43.225  29.926  26.775  1.00  0.00    -0.206 F 
ATOM     78  C   UNL A   1      44.908  26.717  26.687  1.00  0.00     0.022 A 
BRANCH  75  79
ATOM     79  S   UNL A   1      46.437  25.273  28.521  1.00  0.00     0.124 S 
ATOM     80  O   UNL A   1      47.303  25.811  29.565  1.00  0.00    -0.237 OA
ATOM     81  O   UNL A   1      45.314  24.464  28.991  1.00  0.00    -0.237 OA
ATOM     82  O   UNL A   1      47.132  24.758  27.345  1.00  0.00    -0.744 OA
ENDBRANCH  75  79
ENDBRANCH  48  72
BRANCH  60  83
ATOM     83  C   UNL A   1      42.500  35.832  29.027  1.00  0.00     0.023 A 
ATOM     84  C   UNL A   1      43.255  36.850  29.633  1.00  0.00     0.031 A 
ATOM     85  C   UNL A   1      41.858  36.204  27.819  1.00  0.00     0.131 A 
ATOM     86  C   UNL A   1      43.278  38.160  29.117  1.00  0.00     0.055 A 
ATOM     87  C   UNL A   1      41.949  37.485  27.261  1.00  0.00     0.041 A 
ATOM     88  F   UNL A   1      41.120  35.334  27.113  1.00  0.00    -0.206 F 
ATOM     89  C   UNL A   1      42.647  38.481  27.922  1.00  0.00     0.022 A 
BRANCH  86  90
ATOM     90  S   UNL A   1      44.099  39.453  30.090  1.00  0.00     0.124 S 
ATOM     91  O   UNL A   1      43.174  40.573  29.942  1.00  0.00    -0.237 OA
ATOM     92  O   UNL A   1      44.159  38.854  31.419  1.00  0.00    -0.237 OA
ATOM     93  O   UNL A   1      45.389  39.621  29.424  1.00  0.00    -0.744 OA
ENDBRANCH  86  90
ENDBRANCH  60  83
ENDBRANCH  34  35
ENDBRANCH  26  29
ENDBRANCH  24  25
ENDBRANCH  23  24
ENDBRANCH   1  23
TORSDOF 17
ENDMDL
MODEL 3
REMARK VINA RESULT:     -12.8      1.038      3.168
REMARK SMILES Cc1cccc(C(=O)NCCCCNC(=O)c2ccc(-c3c4nc(c(-c5cc(S(=O)(=O)[O-])ccc5F)c5ccc([nH]5)c(-c5cc(S(=O)(=O)[O-])ccc5F)c5nc(c(-c6cc(S(=O)(=O)[O-])ccc6F)c6ccc3[nH]6)C=C5)C=C4)cc2)c1OC[C@@H]1C[C@H]2CC[C@@H]1C2
REMARK SMILES IDX 11 1 10 2 9 3 7 4 8 5 6 7 1 8 2 9 3 10 80 11 4 12 5 13 81 14
REMARK SMILES IDX 82 15 83 16 84 17 88 18 85 19 87 20 89 21 86 22 12 23 13 24
REMARK SMILES IDX 14 25 15 26 16 28 17 29 18 30 79 31 19 32 78 33 20 34 21 35
REMARK SMILES IDX 22 36 72 37 23 38 77 39 71 40 73 41 24 42 76 43 70 44 69 45
REMARK SMILES IDX 25 47 57 48 37 49 56 50 38 51 41 52 55 53 74 54 39 55 40 56
REMARK SMILES IDX 54 58 75 59 42 60 26 61 27 62 35 63 28 64 34 65 36 66 33 67
REMARK SMILES IDX 29 68 30 69 31 70 32 71 58 72 59 73 67 74 60 75 66 76 68 77
REMARK SMILES IDX 65 78 61 79 62 80 63 81 64 82 43 83 44 84 52 85 45 86 51 87
REMARK SMILES IDX 53 88 50 89 46 90 47 91 48 92 49 93
REMARK H PARENT 9 6 14 27 73 46 41 57
REMARK Flexibility Score: inf
ROOT
ATOM      1  C   UNL A   1      31.855  29.614  26.807  1.00  0.00     0.023 C 
ENDROOT
BRANCH   1   2
ATOM      2  C   UNL A   1      32.493  28.220  26.948  1.00  0.00     0.116 C 
BRANCH   2   3
ATOM      3  N   UNL A   1      31.490  27.185  27.080  1.00  0.00    -0.352 N 
ATOM      4  C   UNL A   1      30.803  26.409  26.190  1.00  0.00     0.255 C 
ATOM      5  O   UNL A   1      30.034  25.593  26.719  1.00  0.00    -0.269 OA
ATOM      6  H   UNL A   1      31.249  26.999  28.016  1.00  0.00     0.163 HD
BRANCH   4   7
ATOM      7  C   UNL A   1      30.868  26.422  24.687  1.00  0.00     0.082 A 
ATOM      8  C   UNL A   1      32.940  25.331  21.666  1.00  0.00     0.048 C 
ATOM      9  C   UNL A   1      31.867  25.971  22.508  1.00  0.00    -0.008 A 
ATOM     10  C   UNL A   1      31.320  27.164  22.006  1.00  0.00     0.007 A 
ATOM     11  C   UNL A   1      31.541  25.537  23.815  1.00  0.00     0.134 A 
ATOM     12  C   UNL A   1      30.526  27.967  22.805  1.00  0.00     0.001 A 
ATOM     13  C   UNL A   1      30.335  27.615  24.138  1.00  0.00     0.018 A 
BRANCH  11  14
ATOM     14  O   UNL A   1      31.994  24.341  24.266  1.00  0.00    -0.492 OA
BRANCH  14  15
ATOM     15  C   UNL A   1      33.139  24.273  25.157  1.00  0.00     0.233 C 
BRANCH  15  16
ATOM     16  C   UNL A   1      34.547  24.004  24.570  1.00  0.00     0.030 C 
ATOM     17  C   UNL A   1      34.616  22.666  23.777  1.00  0.00     0.011 C 
ATOM     18  C   UNL A   1      35.584  23.720  25.694  1.00  0.00    -0.004 C 
ATOM     19  C   UNL A   1      35.650  21.823  24.546  1.00  0.00    -0.010 C 
ATOM     20  C   UNL A   1      36.999  23.728  25.093  1.00  0.00     0.004 C 
ATOM     21  C   UNL A   1      35.377  22.232  25.986  1.00  0.00     0.007 C 
ATOM     22  C   UNL A   1      37.050  22.408  24.312  1.00  0.00     0.004 C 
ENDBRANCH  15  16
ENDBRANCH  14  15
ENDBRANCH  11  14
ENDBRANCH   4   7
ENDBRANCH   2   3
ENDBRANCH   1   2
BRANCH   1  23
ATOM     23  C   UNL A   1      32.755  30.783  27.205  1.00  0.00     0.023 C 
BRANCH  23  24
ATOM     24  C   UNL A   1      34.155  30.343  27.614  1.00  0.00     0.116 C 
BRANCH  24  25
ATOM     25  N   UNL A   1      34.907  31.305  28.397  1.00  0.00    -0.352 N 
ATOM     26  C   UNL A   1      36.081  31.098  29.125  1.00  0.00     0.251 C 
ATOM     27  H   UNL A   1      34.544  32.219  28.419  1.00  0.00     0.163 HD
ATOM     28  O   UNL A   1      36.532  31.967  29.856  1.00  0.00    -0.269 OA
BRANCH  26  29
ATOM     29  C   UNL A   1      36.835  29.844  28.905  1.00  0.00     0.039 A 
ATOM     30  C   UNL A   1      37.083  29.036  30.020  1.00  0.00     0.014 A 
ATOM     31  C   UNL A   1      37.504  29.608  27.703  1.00  0.00     0.014 A 
ATOM     32  C   UNL A   1      38.180  28.178  30.011  1.00  0.00     0.010 A 
ATOM     33  C   UNL A   1      38.655  28.844  27.727  1.00  0.00     0.010 A 
ATOM     34  C   UNL A   1      39.032  28.195  28.907  1.00  0.00    -0.014 A 
BRANCH  34  35
ATOM     35  C   UNL A   1      40.409  27.711  28.963  1.00  0.00     0.031 A 
ATOM     36  C   UNL A   1      40.735  26.321  28.582  1.00  0.00     0.074 A 
ATOM     37  C   UNL A   1      41.394  28.554  29.347  1.00  0.00     0.049 A 
ATOM     38  N   UNL A   1      41.842  25.731  28.881  1.00  0.00    -0.248 NA
ATOM     39  C   UNL A   1      39.783  25.437  27.913  1.00  0.00     0.031 C 
ATOM     40  C   UNL A   1      42.839  28.367  29.222  1.00  0.00     0.029 A 
ATOM     41  N   UNL A   1      41.275  29.667  30.168  1.00  0.00    -0.354 N 
ATOM     42  C   UNL A   1      41.869  24.521  28.233  1.00  0.00     0.074 A 
ATOM     43  C   UNL A   1      40.522  24.334  27.757  1.00  0.00     0.031 C 
ATOM     44  C   UNL A   1      43.460  29.163  30.108  1.00  0.00     0.029 A 
ATOM     45  C   UNL A   1      42.435  29.770  30.940  1.00  0.00     0.049 A 
ATOM     46  H   UNL A   1      40.503  30.278  30.202  1.00  0.00     0.167 HD
ATOM     47  C   UNL A   1      43.063  23.887  28.078  1.00  0.00     0.034 A 
ATOM     48  C   UNL A   1      42.383  29.663  32.300  1.00  0.00     0.034 A 
ATOM     49  C   UNL A   1      44.068  24.443  28.991  1.00  0.00     0.049 A 
ATOM     50  C   UNL A   1      43.164  28.484  32.851  1.00  0.00     0.074 A 
ATOM     51  C   UNL A   1      45.184  25.243  28.821  1.00  0.00     0.029 A 
ATOM     52  N   UNL A   1      43.832  24.389  30.364  1.00  0.00    -0.354 N 
ATOM     53  N   UNL A   1      43.573  27.463  32.143  1.00  0.00    -0.248 NA
ATOM     54  C   UNL A   1      43.521  28.362  34.260  1.00  0.00     0.031 C 
ATOM     55  C   UNL A   1      45.555  25.749  30.100  1.00  0.00     0.029 A 
ATOM     56  C   UNL A   1      44.701  25.215  31.051  1.00  0.00     0.049 A 
ATOM     57  H   UNL A   1      43.138  23.836  30.788  1.00  0.00     0.167 HD
ATOM     58  C   UNL A   1      44.180  26.545  32.968  1.00  0.00     0.074 A 
ATOM     59  C   UNL A   1      44.156  27.179  34.274  1.00  0.00     0.031 C 
ATOM     60  C   UNL A   1      44.622  25.332  32.506  1.00  0.00     0.034 A 
BRANCH  47  61
ATOM     61  C   UNL A   1      43.396  22.892  26.973  1.00  0.00     0.023 A 
ATOM     62  C   UNL A   1      42.758  21.630  26.974  1.00  0.00     0.031 A 
ATOM     63  C   UNL A   1      44.406  23.041  25.993  1.00  0.00     0.131 A 
ATOM     64  C   UNL A   1      43.134  20.608  26.073  1.00  0.00     0.055 A 
ATOM     65  C   UNL A   1      44.741  22.045  25.066  1.00  0.00     0.041 A 
ATOM     66  F   UNL A   1      45.178  24.127  25.902  1.00  0.00    -0.206 F 
ATOM     67  C   UNL A   1      44.113  20.817  25.107  1.00  0.00     0.022 A 
BRANCH  64  68
ATOM     68  S   UNL A   1      42.394  18.959  26.227  1.00  0.00     0.124 S 
ATOM     69  O   UNL A   1      42.516  18.699  27.658  1.00  0.00    -0.237 OA
ATOM     70  O   UNL A   1      41.045  19.175  25.718  1.00  0.00    -0.237 OA
ATOM     71  O   UNL A   1      43.246  18.124  25.379  1.00  0.00    -0.744 OA
ENDBRANCH  64  68
ENDBRANCH  47  61
BRANCH  48  72
ATOM     72  C   UNL A   1      41.124  30.198  32.899  1.00  0.00     0.023 A 
ATOM     73  C   UNL A   1      40.906  31.591  32.850  1.00  0.00     0.031 A 
ATOM     74  C   UNL A   1      40.024  29.375  33.175  1.00  0.00     0.131 A 
ATOM     75  C   UNL A   1      39.604  32.107  32.923  1.00  0.00     0.055 A 
ATOM     76  C   UNL A   1      38.733  29.902  33.309  1.00  0.00     0.041 A 
ATOM     77  F   UNL A   1      40.157  28.041  33.198  1.00  0.00    -0.206 F 
ATOM     78  C   UNL A   1      38.512  31.270  33.149  1.00  0.00     0.022 A 
BRANCH  75  79
ATOM     79  S   UNL A   1      39.344  33.866  32.560  1.00  0.00     0.124 S 
ATOM     80  O   UNL A   1      40.049  34.039  31.293  1.00  0.00    -0.237 OA
ATOM     81  O   UNL A   1      37.886  33.942  32.483  1.00  0.00    -0.237 OA
ATOM     82  O   UNL A   1      39.948  34.547  33.701  1.00  0.00    -0.744 OA
ENDBRANCH  75  79
ENDBRANCH  48  72
BRANCH  60  83
ATOM     83  C   UNL A   1      45.081  24.166  33.372  1.00  0.00     0.023 A 
ATOM     84  C   UNL A   1      46.341  24.092  33.988  1.00  0.00     0.031 A 
ATOM     85  C   UNL A   1      44.206  23.090  33.670  1.00  0.00     0.131 A 
ATOM     86  C   UNL A   1      46.723  22.977  34.759  1.00  0.00     0.055 A 
ATOM     87  C   UNL A   1      44.557  22.021  34.504  1.00  0.00     0.041 A 
ATOM     88  F   UNL A   1      42.961  23.031  33.174  1.00  0.00    -0.206 F 
ATOM     89  C   UNL A   1      45.832  21.949  35.040  1.00  0.00     0.022 A 
BRANCH  86  90
ATOM     90  S   UNL A   1      48.443  22.874  35.327  1.00  0.00     0.124 S 
ATOM     91  O   UNL A   1      49.168  23.439  34.193  1.00  0.00    -0.237 OA
ATOM     92  O   UNL A   1      48.424  23.691  36.536  1.00  0.00    -0.237 OA
ATOM     93  O   UNL A   1      48.650  21.444  35.545  1.00  0.00    -0.744 OA
ENDBRANCH  86  90
ENDBRANCH  60  83
ENDBRANCH  34  35
ENDBRANCH  26  29
ENDBRANCH  24  25
ENDBRANCH  23  24
ENDBRANCH   1  23
TORSDOF 17
ENDMDL
