MODEL 1
REMARK VINA RESULT:     -10.9      0.000      0.000
REMARK SMILES C#CCN(CC(=O)NCCCCNC(=O)c1ccc(-c2c3nc(c(-c4cc(S(=O)(=O)[O-])ccc4F)c4ccc([nH]4)c(-c4cc(S(=O)(=O)[O-])ccc4F)c4nc(c(-c5cc(S(=O)(=O)[O-])ccc5F)c5ccc2[nH]5)C=C4)C=C3)cc1)C(=O)[C@H](c1ccc(Cl)cc1)C(C)C
REMARK SMILES IDX 10 1 9 2 8 3 6 4 7 5 5 7 4 8 3 9 2 10 1 11 79 12 80 13 81 14
REMARK SMILES IDX 89 15 90 16 91 17 82 18 83 19 88 20 84 21 87 22 85 23 86 24
REMARK SMILES IDX 11 25 12 26 13 27 14 28 15 30 16 31 17 32 78 33 18 34 77 35
REMARK SMILES IDX 19 36 20 37 21 38 71 39 22 40 76 41 70 42 72 43 23 44 75 45
REMARK SMILES IDX 69 46 68 47 24 49 56 50 36 51 55 52 37 53 40 54 54 55 73 56
REMARK SMILES IDX 38 57 39 58 53 60 74 61 41 62 25 63 26 64 34 65 27 66 33 67
REMARK SMILES IDX 35 68 32 69 28 70 29 71 30 72 31 73 57 74 58 75 66 76 59 77
REMARK SMILES IDX 65 78 67 79 64 80 60 81 61 82 62 83 63 84 42 85 43 86 51 87
REMARK SMILES IDX 44 88 50 89 52 90 49 91 45 92 46 93 47 94 48 95
REMARK H PARENT 8 6 13 29 72 48 40 59
REMARK Flexibility Score: inf
ROOT
ATOM      1  C   UNL A   1      31.530  30.971  25.868  1.00  0.00     0.023 C 
ENDROOT
BRANCH   1   2
ATOM      2  C   UNL A   1      32.083  29.605  25.469  1.00  0.00     0.116 C 
BRANCH   2   3
ATOM      3  N   UNL A   1      33.001  29.668  24.351  1.00  0.00    -0.355 N 
ATOM      4  C   UNL A   1      33.681  28.656  23.739  1.00  0.00     0.239 C 
ATOM      5  O   UNL A   1      34.196  28.869  22.639  1.00  0.00    -0.273 OA
ATOM      6  H   UNL A   1      33.156  30.567  23.981  1.00  0.00     0.163 HD
BRANCH   4   7
ATOM      7  C   UNL A   1      33.708  27.252  24.348  1.00  0.00     0.220 C 
BRANCH   7   8
ATOM      8  N   UNL A   1      32.951  26.233  23.619  1.00  0.00    -0.322 N 
BRANCH   8   9
ATOM      9  C   UNL A   1      31.527  26.512  23.396  1.00  0.00     0.209 C 
BRANCH   9  10
ATOM     10  C   UNL A   1      30.691  26.185  24.623  1.00  0.00    -0.085 C 
ATOM     11  C   UNL A   1      29.973  25.905  25.675  1.00  0.00     0.006 C 
ENDBRANCH   9  10
ENDBRANCH   8   9
BRANCH   8  12
ATOM     12  C   UNL A   1      33.467  25.048  23.092  1.00  0.00     0.231 C 
ATOM     13  O   UNL A   1      33.894  25.034  21.926  1.00  0.00    -0.274 OA
BRANCH  12  14
ATOM     14  C   UNL A   1      33.491  23.683  23.869  1.00  0.00     0.111 C 
BRANCH  14  15
ATOM     15  C   UNL A   1      32.663  22.548  23.172  1.00  0.00    -0.000 C 
ATOM     16  C   UNL A   1      32.746  21.159  23.833  1.00  0.00     0.008 C 
ATOM     17  C   UNL A   1      31.166  22.921  23.139  1.00  0.00     0.008 C 
ENDBRANCH  14  15
BRANCH  14  18
ATOM     18  C   UNL A   1      34.877  23.434  24.496  1.00  0.00    -0.035 A 
ATOM     19  C   UNL A   1      35.312  24.002  25.700  1.00  0.00     0.006 A 
ATOM     20  C   UNL A   1      35.828  22.673  23.782  1.00  0.00     0.006 A 
ATOM     21  C   UNL A   1      36.610  23.790  26.189  1.00  0.00     0.021 A 
ATOM     22  C   UNL A   1      37.117  22.440  24.275  1.00  0.00     0.021 A 
ATOM     23  C   UNL A   1      37.500  22.993  25.486  1.00  0.00     0.041 A 
ATOM     24  Cl  UNL A   1      39.068  22.685  26.113  1.00  0.00    -0.084 Cl
ENDBRANCH  14  18
ENDBRANCH  12  14
ENDBRANCH   8  12
ENDBRANCH   7   8
ENDBRANCH   4   7
ENDBRANCH   2   3
ENDBRANCH   1   2
BRANCH   1  25
ATOM     25  C   UNL A   1      31.966  31.456  27.247  1.00  0.00     0.023 C 
BRANCH  25  26
ATOM     26  C   UNL A   1      33.116  32.447  27.256  1.00  0.00     0.116 C 
BRANCH  26  27
ATOM     27  N   UNL A   1      32.707  33.803  27.580  1.00  0.00    -0.352 N 
ATOM     28  C   UNL A   1      33.189  34.626  28.576  1.00  0.00     0.251 C 
ATOM     29  H   UNL A   1      31.994  34.182  27.016  1.00  0.00     0.163 HD
ATOM     30  O   UNL A   1      32.653  35.701  28.789  1.00  0.00    -0.269 OA
BRANCH  28  31
ATOM     31  C   UNL A   1      34.326  34.164  29.406  1.00  0.00     0.039 A 
ATOM     32  C   UNL A   1      34.070  33.337  30.500  1.00  0.00     0.014 A 
ATOM     33  C   UNL A   1      35.640  34.506  29.074  1.00  0.00     0.014 A 
ATOM     34  C   UNL A   1      35.138  32.797  31.222  1.00  0.00     0.010 A 
ATOM     35  C   UNL A   1      36.701  33.893  29.733  1.00  0.00     0.010 A 
ATOM     36  C   UNL A   1      36.462  33.040  30.820  1.00  0.00    -0.014 A 
BRANCH  36  37
ATOM     37  C   UNL A   1      37.614  32.439  31.544  1.00  0.00     0.031 A 
ATOM     38  C   UNL A   1      38.367  31.292  30.926  1.00  0.00     0.074 A 
ATOM     39  C   UNL A   1      37.944  32.883  32.772  1.00  0.00     0.049 A 
ATOM     40  N   UNL A   1      39.350  30.582  31.417  1.00  0.00    -0.248 NA
ATOM     41  C   UNL A   1      37.929  30.866  29.588  1.00  0.00     0.031 C 
ATOM     42  C   UNL A   1      37.264  33.962  33.494  1.00  0.00     0.029 A 
ATOM     43  N   UNL A   1      38.935  32.484  33.633  1.00  0.00    -0.354 N 
ATOM     44  C   UNL A   1      39.639  29.619  30.455  1.00  0.00     0.074 A 
ATOM     45  C   UNL A   1      38.671  29.788  29.392  1.00  0.00     0.031 C 
ATOM     46  C   UNL A   1      37.883  34.162  34.668  1.00  0.00     0.029 A 
ATOM     47  C   UNL A   1      38.971  33.199  34.807  1.00  0.00     0.049 A 
ATOM     48  H   UNL A   1      39.562  31.753  33.429  1.00  0.00     0.167 HD
ATOM     49  C   UNL A   1      40.638  28.701  30.443  1.00  0.00     0.034 A 
ATOM     50  C   UNL A   1      39.787  33.088  35.875  1.00  0.00     0.034 A 
ATOM     51  C   UNL A   1      41.600  28.555  31.508  1.00  0.00     0.049 A 
ATOM     52  C   UNL A   1      40.866  32.035  35.858  1.00  0.00     0.074 A 
ATOM     53  C   UNL A   1      42.678  27.689  31.586  1.00  0.00     0.029 A 
ATOM     54  N   UNL A   1      41.596  29.289  32.688  1.00  0.00    -0.354 N 
ATOM     55  N   UNL A   1      41.154  31.160  34.923  1.00  0.00    -0.248 NA
ATOM     56  C   UNL A   1      41.734  31.962  37.040  1.00  0.00     0.031 C 
ATOM     57  C   UNL A   1      43.285  27.856  32.836  1.00  0.00     0.029 A 
ATOM     58  C   UNL A   1      42.635  28.877  33.510  1.00  0.00     0.049 A 
ATOM     59  H   UNL A   1      40.950  29.999  32.908  1.00  0.00     0.167 HD
ATOM     60  C   UNL A   1      42.260  30.456  35.392  1.00  0.00     0.074 A 
ATOM     61  C   UNL A   1      42.592  31.018  36.684  1.00  0.00     0.031 C 
ATOM     62  C   UNL A   1      42.945  29.442  34.803  1.00  0.00     0.034 A 
BRANCH  49  63
ATOM     63  C   UNL A   1      40.712  27.783  29.245  1.00  0.00     0.023 A 
ATOM     64  C   UNL A   1      41.653  27.986  28.219  1.00  0.00     0.031 A 
ATOM     65  C   UNL A   1      39.797  26.726  29.093  1.00  0.00     0.131 A 
ATOM     66  C   UNL A   1      41.594  27.217  27.048  1.00  0.00     0.055 A 
ATOM     67  C   UNL A   1      39.806  25.900  27.966  1.00  0.00     0.041 A 
ATOM     68  F   UNL A   1      38.862  26.492  30.027  1.00  0.00    -0.206 F 
ATOM     69  C   UNL A   1      40.693  26.156  26.925  1.00  0.00     0.022 A 
BRANCH  66  70
ATOM     70  S   UNL A   1      42.587  27.736  25.622  1.00  0.00     0.124 S 
ATOM     71  O   UNL A   1      41.844  28.905  25.156  1.00  0.00    -0.237 OA
ATOM     72  O   UNL A   1      43.887  28.004  26.224  1.00  0.00    -0.237 OA
ATOM     73  O   UNL A   1      42.537  26.579  24.729  1.00  0.00    -0.744 OA
ENDBRANCH  66  70
ENDBRANCH  49  63
BRANCH  50  74
ATOM     74  C   UNL A   1      39.628  33.996  37.047  1.00  0.00     0.023 A 
ATOM     75  C   UNL A   1      39.073  33.526  38.248  1.00  0.00     0.031 A 
ATOM     76  C   UNL A   1      39.992  35.351  36.975  1.00  0.00     0.131 A 
ATOM     77  C   UNL A   1      38.853  34.414  39.312  1.00  0.00     0.055 A 
ATOM     78  C   UNL A   1      39.819  36.220  38.054  1.00  0.00     0.041 A 
ATOM     79  F   UNL A   1      40.532  35.850  35.852  1.00  0.00    -0.206 F 
ATOM     80  C   UNL A   1      39.235  35.754  39.229  1.00  0.00     0.022 A 
BRANCH  77  81
ATOM     81  S   UNL A   1      37.987  33.806  40.786  1.00  0.00     0.124 S 
ATOM     82  O   UNL A   1      39.039  33.052  41.459  1.00  0.00    -0.237 OA
ATOM     83  O   UNL A   1      37.575  35.049  41.430  1.00  0.00    -0.237 OA
ATOM     84  O   UNL A   1      36.898  33.002  40.233  1.00  0.00    -0.744 OA
ENDBRANCH  77  81
ENDBRANCH  50  74
BRANCH  62  85
ATOM     85  C   UNL A   1      44.152  28.914  35.539  1.00  0.00     0.023 A 
ATOM     86  C   UNL A   1      44.050  27.873  36.479  1.00  0.00     0.031 A 
ATOM     87  C   UNL A   1      45.421  29.472  35.305  1.00  0.00     0.131 A 
ATOM     88  C   UNL A   1      45.188  27.462  37.191  1.00  0.00     0.055 A 
ATOM     89  C   UNL A   1      46.559  29.018  35.971  1.00  0.00     0.041 A 
ATOM     90  F   UNL A   1      45.575  30.469  34.418  1.00  0.00    -0.206 F 
ATOM     91  C   UNL A   1      46.444  28.015  36.931  1.00  0.00     0.022 A 
BRANCH  88  92
ATOM     92  S   UNL A   1      44.989  26.254  38.529  1.00  0.00     0.124 S 
ATOM     93  O   UNL A   1      44.201  27.004  39.502  1.00  0.00    -0.237 OA
ATOM     94  O   UNL A   1      44.297  25.157  37.860  1.00  0.00    -0.237 OA
ATOM     95  O   UNL A   1      46.363  25.962  38.936  1.00  0.00    -0.744 OA
ENDBRANCH  88  92
ENDBRANCH  62  85
ENDBRANCH  36  37
ENDBRANCH  28  31
ENDBRANCH  26  27
ENDBRANCH  25  26
ENDBRANCH   1  25
TORSDOF 21
ENDMDL
MODEL 2
REMARK VINA RESULT:     -10.6      1.858      2.492
REMARK SMILES C#CCN(CC(=O)NCCCCNC(=O)c1ccc(-c2c3nc(c(-c4cc(S(=O)(=O)[O-])ccc4F)c4ccc([nH]4)c(-c4cc(S(=O)(=O)[O-])ccc4F)c4nc(c(-c5cc(S(=O)(=O)[O-])ccc5F)c5ccc2[nH]5)C=C4)C=C3)cc1)C(=O)[C@H](c1ccc(Cl)cc1)C(C)C
REMARK SMILES IDX 10 1 9 2 8 3 6 4 7 5 5 7 4 8 3 9 2 10 1 11 79 12 80 13 81 14
REMARK SMILES IDX 89 15 90 16 91 17 82 18 83 19 88 20 84 21 87 22 85 23 86 24
REMARK SMILES IDX 11 25 12 26 13 27 14 28 15 30 16 31 17 32 78 33 18 34 77 35
REMARK SMILES IDX 19 36 20 37 21 38 71 39 22 40 76 41 70 42 72 43 23 44 75 45
REMARK SMILES IDX 69 46 68 47 24 49 56 50 36 51 55 52 37 53 40 54 54 55 73 56
REMARK SMILES IDX 38 57 39 58 53 60 74 61 41 62 25 63 26 64 34 65 27 66 33 67
REMARK SMILES IDX 35 68 32 69 28 70 29 71 30 72 31 73 57 74 58 75 66 76 59 77
REMARK SMILES IDX 65 78 67 79 64 80 60 81 61 82 62 83 63 84 42 85 43 86 51 87
REMARK SMILES IDX 44 88 50 89 52 90 49 91 45 92 46 93 47 94 48 95
REMARK H PARENT 8 6 13 29 72 48 40 59
REMARK Flexibility Score: inf
ROOT
ATOM      1  C   UNL A   1      31.621  30.484  25.507  1.00  0.00     0.023 C 
ENDROOT
BRANCH   1   2
ATOM      2  C   UNL A   1      32.693  29.408  25.348  1.00  0.00     0.116 C 
BRANCH   2   3
ATOM      3  N   UNL A   1      33.335  29.433  24.051  1.00  0.00    -0.355 N 
ATOM      4  C   UNL A   1      33.771  28.390  23.287  1.00  0.00     0.239 C 
ATOM      5  O   UNL A   1      34.039  28.596  22.101  1.00  0.00    -0.273 OA
ATOM      6  H   UNL A   1      33.478  30.328  23.666  1.00  0.00     0.163 HD
BRANCH   4   7
ATOM      7  C   UNL A   1      33.817  26.970  23.857  1.00  0.00     0.220 C 
BRANCH   7   8
ATOM      8  N   UNL A   1      33.107  25.954  23.078  1.00  0.00    -0.322 N 
BRANCH   8   9
ATOM      9  C   UNL A   1      31.796  26.340  22.543  1.00  0.00     0.209 C 
BRANCH   9  10
ATOM     10  C   UNL A   1      30.713  26.282  23.609  1.00  0.00    -0.085 C 
ATOM     11  C   UNL A   1      29.785  26.232  24.523  1.00  0.00     0.006 C 
ENDBRANCH   9  10
ENDBRANCH   8   9
BRANCH   8  12
ATOM     12  C   UNL A   1      33.578  24.676  22.774  1.00  0.00     0.231 C 
ATOM     13  O   UNL A   1      33.695  24.336  21.586  1.00  0.00    -0.274 OA
BRANCH  12  14
ATOM     14  C   UNL A   1      33.920  23.590  23.857  1.00  0.00     0.111 C 
BRANCH  14  15
ATOM     15  C   UNL A   1      35.418  23.620  24.324  1.00  0.00    -0.000 C 
ATOM     16  C   UNL A   1      35.713  22.913  25.661  1.00  0.00     0.008 C 
ATOM     17  C   UNL A   1      36.320  22.945  23.271  1.00  0.00     0.008 C 
ENDBRANCH  14  15
BRANCH  14  18
ATOM     18  C   UNL A   1      32.747  23.408  24.839  1.00  0.00    -0.035 A 
ATOM     19  C   UNL A   1      32.607  24.113  26.041  1.00  0.00     0.006 A 
ATOM     20  C   UNL A   1      31.791  22.398  24.589  1.00  0.00     0.006 A 
ATOM     21  C   UNL A   1      31.550  23.858  26.928  1.00  0.00     0.021 A 
ATOM     22  C   UNL A   1      30.722  22.154  25.459  1.00  0.00     0.021 A 
ATOM     23  C   UNL A   1      30.600  22.894  26.624  1.00  0.00     0.041 A 
ATOM     24  Cl  UNL A   1      29.274  22.623  27.679  1.00  0.00    -0.084 Cl
ENDBRANCH  14  18
ENDBRANCH  12  14
ENDBRANCH   8  12
ENDBRANCH   7   8
ENDBRANCH   4   7
ENDBRANCH   2   3
ENDBRANCH   1   2
BRANCH   1  25
ATOM     25  C   UNL A   1      31.709  31.284  26.803  1.00  0.00     0.023 C 
BRANCH  25  26
ATOM     26  C   UNL A   1      32.917  32.196  26.925  1.00  0.00     0.116 C 
BRANCH  26  27
ATOM     27  N   UNL A   1      32.576  33.562  27.283  1.00  0.00    -0.352 N 
ATOM     28  C   UNL A   1      33.128  34.350  28.271  1.00  0.00     0.251 C 
ATOM     29  H   UNL A   1      31.858  33.978  26.753  1.00  0.00     0.163 HD
ATOM     30  O   UNL A   1      32.644  35.442  28.520  1.00  0.00    -0.269 OA
BRANCH  28  31
ATOM     31  C   UNL A   1      34.277  33.830  29.049  1.00  0.00     0.039 A 
ATOM     32  C   UNL A   1      34.039  32.902  30.064  1.00  0.00     0.014 A 
ATOM     33  C   UNL A   1      35.583  34.220  28.745  1.00  0.00     0.014 A 
ATOM     34  C   UNL A   1      35.119  32.314  30.728  1.00  0.00     0.010 A 
ATOM     35  C   UNL A   1      36.657  33.565  29.340  1.00  0.00     0.010 A 
ATOM     36  C   UNL A   1      36.437  32.612  30.345  1.00  0.00    -0.014 A 
BRANCH  36  37
ATOM     37  C   UNL A   1      37.601  31.964  31.004  1.00  0.00     0.031 A 
ATOM     38  C   UNL A   1      38.406  30.936  30.256  1.00  0.00     0.074 A 
ATOM     39  C   UNL A   1      37.899  32.257  32.286  1.00  0.00     0.049 A 
ATOM     40  N   UNL A   1      39.409  30.204  30.669  1.00  0.00    -0.248 NA
ATOM     41  C   UNL A   1      38.001  30.671  28.867  1.00  0.00     0.031 C 
ATOM     42  C   UNL A   1      37.169  33.208  33.128  1.00  0.00     0.029 A 
ATOM     43  N   UNL A   1      38.893  31.786  33.104  1.00  0.00    -0.354 N 
ATOM     44  C   UNL A   1      39.746  29.385  29.596  1.00  0.00     0.074 A 
ATOM     45  C   UNL A   1      38.787  29.656  28.547  1.00  0.00     0.031 C 
ATOM     46  C   UNL A   1      37.765  33.276  34.330  1.00  0.00     0.029 A 
ATOM     47  C   UNL A   1      38.887  32.343  34.362  1.00  0.00     0.049 A 
ATOM     48  H   UNL A   1      39.551  31.110  32.819  1.00  0.00     0.167 HD
ATOM     49  C   UNL A   1      40.780  28.514  29.482  1.00  0.00     0.034 A 
ATOM     50  C   UNL A   1      39.693  32.124  35.421  1.00  0.00     0.034 A 
ATOM     51  C   UNL A   1      41.733  28.265  30.536  1.00  0.00     0.049 A 
ATOM     52  C   UNL A   1      40.811  31.121  35.287  1.00  0.00     0.074 A 
ATOM     53  C   UNL A   1      42.842  27.436  30.520  1.00  0.00     0.029 A 
ATOM     54  N   UNL A   1      41.686  28.839  31.801  1.00  0.00    -0.354 N 
ATOM     55  N   UNL A   1      41.145  30.386  34.251  1.00  0.00    -0.248 NA
ATOM     56  C   UNL A   1      41.666  30.927  36.464  1.00  0.00     0.031 C 
ATOM     57  C   UNL A   1      43.426  27.461  31.792  1.00  0.00     0.029 A 
ATOM     58  C   UNL A   1      42.729  28.362  32.581  1.00  0.00     0.049 A 
ATOM     59  H   UNL A   1      41.010  29.490  32.100  1.00  0.00     0.167 HD
ATOM     60  C   UNL A   1      42.271  29.667  34.644  1.00  0.00     0.074 A 
ATOM     61  C   UNL A   1      42.564  30.068  36.004  1.00  0.00     0.031 C 
ATOM     62  C   UNL A   1      43.001  28.764  33.941  1.00  0.00     0.034 A 
BRANCH  49  63
ATOM     63  C   UNL A   1      40.905  27.762  28.177  1.00  0.00     0.023 A 
ATOM     64  C   UNL A   1      40.507  26.418  28.060  1.00  0.00     0.031 A 
ATOM     65  C   UNL A   1      41.479  28.375  27.049  1.00  0.00     0.131 A 
ATOM     66  C   UNL A   1      40.781  25.703  26.886  1.00  0.00     0.055 A 
ATOM     67  C   UNL A   1      41.661  27.684  25.848  1.00  0.00     0.041 A 
ATOM     68  F   UNL A   1      41.898  29.649  27.100  1.00  0.00    -0.206 F 
ATOM     69  C   UNL A   1      41.331  26.334  25.767  1.00  0.00     0.022 A 
BRANCH  66  70
ATOM     70  S   UNL A   1      40.573  23.901  26.903  1.00  0.00     0.124 S 
ATOM     71  O   UNL A   1      41.585  23.479  25.937  1.00  0.00    -0.237 OA
ATOM     72  O   UNL A   1      40.840  23.566  28.296  1.00  0.00    -0.237 OA
ATOM     73  O   UNL A   1      39.190  23.711  26.466  1.00  0.00    -0.744 OA
ENDBRANCH  66  70
ENDBRANCH  49  63
BRANCH  50  74
ATOM     74  C   UNL A   1      39.485  32.865  36.697  1.00  0.00     0.023 A 
ATOM     75  C   UNL A   1      38.687  32.325  37.719  1.00  0.00     0.031 A 
ATOM     76  C   UNL A   1      40.046  34.137  36.902  1.00  0.00     0.131 A 
ATOM     77  C   UNL A   1      38.433  33.072  38.879  1.00  0.00     0.055 A 
ATOM     78  C   UNL A   1      39.833  34.856  38.080  1.00  0.00     0.041 A 
ATOM     79  F   UNL A   1      40.820  34.697  35.960  1.00  0.00    -0.206 F 
ATOM     80  C   UNL A   1      39.011  34.328  39.072  1.00  0.00     0.022 A 
BRANCH  77  81
ATOM     81  S   UNL A   1      37.269  32.409  40.102  1.00  0.00     0.124 S 
ATOM     82  O   UNL A   1      35.984  32.795  39.530  1.00  0.00    -0.237 OA
ATOM     83  O   UNL A   1      37.581  30.983  40.075  1.00  0.00    -0.237 OA
ATOM     84  O   UNL A   1      37.639  33.102  41.334  1.00  0.00    -0.744 OA
ENDBRANCH  77  81
ENDBRANCH  50  74
BRANCH  62  85
ATOM     85  C   UNL A   1      44.218  28.189  34.624  1.00  0.00     0.023 A 
ATOM     86  C   UNL A   1      44.150  27.016  35.396  1.00  0.00     0.031 A 
ATOM     87  C   UNL A   1      45.462  28.835  34.510  1.00  0.00     0.131 A 
ATOM     88  C   UNL A   1      45.292  26.557  36.071  1.00  0.00     0.055 A 
ATOM     89  C   UNL A   1      46.607  28.339  35.133  1.00  0.00     0.041 A 
ATOM     90  F   UNL A   1      45.584  29.959  33.786  1.00  0.00    -0.206 F 
ATOM     91  C   UNL A   1      46.524  27.200  35.930  1.00  0.00     0.022 A 
BRANCH  88  92
ATOM     92  S   UNL A   1      45.126  25.154  37.209  1.00  0.00     0.124 S 
ATOM     93  O   UNL A   1      44.291  25.717  38.266  1.00  0.00    -0.237 OA
ATOM     94  O   UNL A   1      44.494  24.142  36.369  1.00  0.00    -0.237 OA
ATOM     95  O   UNL A   1      46.505  24.863  37.598  1.00  0.00    -0.744 OA
ENDBRANCH  88  92
ENDBRANCH  62  85
ENDBRANCH  36  37
ENDBRANCH  28  31
ENDBRANCH  26  27
ENDBRANCH  25  26
ENDBRANCH   1  25
TORSDOF 21
ENDMDL
MODEL 3
REMARK VINA RESULT:     -10.5      2.425      3.359
REMARK SMILES C#CCN(CC(=O)NCCCCNC(=O)c1ccc(-c2c3nc(c(-c4cc(S(=O)(=O)[O-])ccc4F)c4ccc([nH]4)c(-c4cc(S(=O)(=O)[O-])ccc4F)c4nc(c(-c5cc(S(=O)(=O)[O-])ccc5F)c5ccc2[nH]5)C=C4)C=C3)cc1)C(=O)[C@H](c1ccc(Cl)cc1)C(C)C
REMARK SMILES IDX 10 1 9 2 8 3 6 4 7 5 5 7 4 8 3 9 2 10 1 11 79 12 80 13 81 14
REMARK SMILES IDX 89 15 90 16 91 17 82 18 83 19 88 20 84 21 87 22 85 23 86 24
REMARK SMILES IDX 11 25 12 26 13 27 14 28 15 30 16 31 17 32 78 33 18 34 77 35
REMARK SMILES IDX 19 36 20 37 21 38 71 39 22 40 76 41 70 42 72 43 23 44 75 45
REMARK SMILES IDX 69 46 68 47 24 49 56 50 36 51 55 52 37 53 40 54 54 55 73 56
REMARK SMILES IDX 38 57 39 58 53 60 74 61 41 62 25 63 26 64 34 65 27 66 33 67
REMARK SMILES IDX 35 68 32 69 28 70 29 71 30 72 31 73 57 74 58 75 66 76 59 77
REMARK SMILES IDX 65 78 67 79 64 80 60 81 61 82 62 83 63 84 42 85 43 86 51 87
REMARK SMILES IDX 44 88 50 89 52 90 49 91 45 92 46 93 47 94 48 95
REMARK H PARENT 8 6 13 29 72 48 40 59
REMARK Flexibility Score: inf
ROOT
ATOM      1  C   UNL A   1      32.535  28.587  23.708  1.00  0.00     0.023 C 
ENDROOT
BRANCH   1   2
ATOM      2  C   UNL A   1      31.684  27.664  22.839  1.00  0.00     0.116 C 
BRANCH   2   3
ATOM      3  N   UNL A   1      32.444  27.006  21.796  1.00  0.00    -0.355 N 
ATOM      4  C   UNL A   1      32.624  25.672  21.576  1.00  0.00     0.239 C 
ATOM      5  O   UNL A   1      33.072  25.306  20.486  1.00  0.00    -0.273 OA
ATOM      6  H   UNL A   1      32.893  27.605  21.157  1.00  0.00     0.163 HD
BRANCH   4   7
ATOM      7  C   UNL A   1      32.173  24.640  22.613  1.00  0.00     0.220 C 
BRANCH   7   8
ATOM      8  N   UNL A   1      33.057  23.486  22.781  1.00  0.00    -0.322 N 
BRANCH   8   9
ATOM      9  C   UNL A   1      32.484  22.173  22.460  1.00  0.00     0.209 C 
BRANCH   9  10
ATOM     10  C   UNL A   1      32.530  21.232  23.654  1.00  0.00    -0.085 C 
ATOM     11  C   UNL A   1      32.570  20.426  24.677  1.00  0.00     0.006 C 
ENDBRANCH   9  10
ENDBRANCH   8   9
BRANCH   8  12
ATOM     12  C   UNL A   1      34.393  23.527  23.180  1.00  0.00     0.231 C 
ATOM     13  O   UNL A   1      35.286  23.310  22.346  1.00  0.00    -0.274 OA
BRANCH  12  14
ATOM     14  C   UNL A   1      34.855  23.777  24.661  1.00  0.00     0.111 C 
BRANCH  14  15
ATOM     15  C   UNL A   1      33.668  24.022  25.657  1.00  0.00    -0.000 C 
ATOM     16  C   UNL A   1      33.745  23.252  26.989  1.00  0.00     0.008 C 
ATOM     17  C   UNL A   1      33.581  25.518  26.028  1.00  0.00     0.008 C 
ENDBRANCH  14  15
BRANCH  14  18
ATOM     18  C   UNL A   1      36.065  22.890  25.014  1.00  0.00    -0.035 A 
ATOM     19  C   UNL A   1      37.277  23.374  25.524  1.00  0.00     0.006 A 
ATOM     20  C   UNL A   1      36.016  21.510  24.717  1.00  0.00     0.006 A 
ATOM     21  C   UNL A   1      38.367  22.526  25.766  1.00  0.00     0.021 A 
ATOM     22  C   UNL A   1      37.093  20.655  24.976  1.00  0.00     0.021 A 
ATOM     23  C   UNL A   1      38.265  21.166  25.511  1.00  0.00     0.041 A 
ATOM     24  Cl  UNL A   1      39.578  20.118  25.863  1.00  0.00    -0.084 Cl
ENDBRANCH  14  18
ENDBRANCH  12  14
ENDBRANCH   8  12
ENDBRANCH   7   8
ENDBRANCH   4   7
ENDBRANCH   2   3
ENDBRANCH   1   2
BRANCH   1  25
ATOM     25  C   UNL A   1      31.906  28.961  25.046  1.00  0.00     0.023 C 
BRANCH  25  26
ATOM     26  C   UNL A   1      32.849  29.585  26.058  1.00  0.00     0.116 C 
BRANCH  26  27
ATOM     27  N   UNL A   1      32.516  30.960  26.387  1.00  0.00    -0.352 N 
ATOM     28  C   UNL A   1      33.190  31.828  27.220  1.00  0.00     0.251 C 
ATOM     29  H   UNL A   1      31.705  31.319  25.959  1.00  0.00     0.163 HD
ATOM     30  O   UNL A   1      32.710  32.918  27.481  1.00  0.00    -0.269 OA
BRANCH  28  31
ATOM     31  C   UNL A   1      34.472  31.395  27.827  1.00  0.00     0.039 A 
ATOM     32  C   UNL A   1      35.501  32.327  27.964  1.00  0.00     0.014 A 
ATOM     33  C   UNL A   1      34.636  30.090  28.300  1.00  0.00     0.014 A 
ATOM     34  C   UNL A   1      36.671  31.968  28.639  1.00  0.00     0.010 A 
ATOM     35  C   UNL A   1      35.759  29.764  29.053  1.00  0.00     0.010 A 
ATOM     36  C   UNL A   1      36.793  30.696  29.223  1.00  0.00    -0.014 A 
BRANCH  36  37
ATOM     37  C   UNL A   1      38.009  30.306  29.986  1.00  0.00     0.031 A 
ATOM     38  C   UNL A   1      39.008  29.367  29.368  1.00  0.00     0.074 A 
ATOM     39  C   UNL A   1      38.184  30.750  31.246  1.00  0.00     0.049 A 
ATOM     40  N   UNL A   1      40.092  28.847  29.886  1.00  0.00    -0.248 NA
ATOM     41  C   UNL A   1      38.729  28.924  27.994  1.00  0.00     0.031 C 
ATOM     42  C   UNL A   1      37.265  31.634  31.968  1.00  0.00     0.029 A 
ATOM     43  N   UNL A   1      39.194  30.520  32.144  1.00  0.00    -0.354 N 
ATOM     44  C   UNL A   1      40.615  28.009  28.907  1.00  0.00     0.074 A 
ATOM     45  C   UNL A   1      39.684  28.029  27.800  1.00  0.00     0.031 C 
ATOM     46  C   UNL A   1      37.775  31.900  33.181  1.00  0.00     0.029 A 
ATOM     47  C   UNL A   1      39.030  31.171  33.345  1.00  0.00     0.049 A 
ATOM     48  H   UNL A   1      39.967  29.941  31.948  1.00  0.00     0.167 HD
ATOM     49  C   UNL A   1      41.781  27.314  28.916  1.00  0.00     0.034 A 
ATOM     50  C   UNL A   1      39.800  31.177  34.451  1.00  0.00     0.034 A 
ATOM     51  C   UNL A   1      42.702  27.315  30.026  1.00  0.00     0.049 A 
ATOM     52  C   UNL A   1      41.071  30.366  34.455  1.00  0.00     0.074 A 
ATOM     53  C   UNL A   1      43.929  26.683  30.131  1.00  0.00     0.029 A 
ATOM     54  N   UNL A   1      42.493  27.977  31.230  1.00  0.00    -0.354 N 
ATOM     55  N   UNL A   1      41.575  29.612  33.505  1.00  0.00    -0.248 NA
ATOM     56  C   UNL A   1      41.880  30.415  35.679  1.00  0.00     0.031 C 
ATOM     57  C   UNL A   1      44.430  26.910  31.418  1.00  0.00     0.029 A 
ATOM     58  C   UNL A   1      43.555  27.746  32.092  1.00  0.00     0.049 A 
ATOM     59  H   UNL A   1      41.706  28.530  31.441  1.00  0.00     0.167 HD
ATOM     60  C   UNL A   1      42.779  29.125  34.007  1.00  0.00     0.074 A 
ATOM     61  C   UNL A   1      42.929  29.681  35.336  1.00  0.00     0.031 C 
ATOM     62  C   UNL A   1      43.683  28.300  33.420  1.00  0.00     0.034 A 
BRANCH  49  63
ATOM     63  C   UNL A   1      42.096  26.488  27.691  1.00  0.00     0.023 A 
ATOM     64  C   UNL A   1      41.928  25.091  27.682  1.00  0.00     0.031 A 
ATOM     65  C   UNL A   1      42.626  27.090  26.536  1.00  0.00     0.131 A 
ATOM     66  C   UNL A   1      42.378  24.336  26.589  1.00  0.00     0.055 A 
ATOM     67  C   UNL A   1      42.982  26.341  25.412  1.00  0.00     0.041 A 
ATOM     68  F   UNL A   1      42.830  28.416  26.487  1.00  0.00    -0.206 F 
ATOM     69  C   UNL A   1      42.879  24.953  25.441  1.00  0.00     0.022 A 
BRANCH  66  70
ATOM     70  S   UNL A   1      42.463  22.532  26.763  1.00  0.00     0.124 S 
ATOM     71  O   UNL A   1      42.267  22.095  25.382  1.00  0.00    -0.237 OA
ATOM     72  O   UNL A   1      43.797  22.330  27.313  1.00  0.00    -0.237 OA
ATOM     73  O   UNL A   1      41.357  22.222  27.668  1.00  0.00    -0.744 OA
ENDBRANCH  66  70
ENDBRANCH  49  63
BRANCH  50  74
ATOM     74  C   UNL A   1      39.405  31.978  35.645  1.00  0.00     0.023 A 
ATOM     75  C   UNL A   1      39.995  33.227  35.898  1.00  0.00     0.031 A 
ATOM     76  C   UNL A   1      38.465  31.493  36.569  1.00  0.00     0.131 A 
ATOM     77  C   UNL A   1      39.674  33.928  37.070  1.00  0.00     0.055 A 
ATOM     78  C   UNL A   1      38.109  32.218  37.709  1.00  0.00     0.041 A 
ATOM     79  F   UNL A   1      37.868  30.307  36.372  1.00  0.00    -0.206 F 
ATOM     80  C   UNL A   1      38.725  33.439  37.970  1.00  0.00     0.022 A 
BRANCH  77  81
ATOM     81  S   UNL A   1      40.574  35.459  37.441  1.00  0.00     0.124 S 
ATOM     82  O   UNL A   1      39.649  36.474  36.951  1.00  0.00    -0.237 OA
ATOM     83  O   UNL A   1      40.729  35.376  38.890  1.00  0.00    -0.237 OA
ATOM     84  O   UNL A   1      41.812  35.320  36.676  1.00  0.00    -0.744 OA
ENDBRANCH  77  81
ENDBRANCH  50  74
BRANCH  62  85
ATOM     85  C   UNL A   1      44.937  27.993  34.202  1.00  0.00     0.023 A 
ATOM     86  C   UNL A   1      45.027  26.875  35.051  1.00  0.00     0.031 A 
ATOM     87  C   UNL A   1      46.054  28.841  34.104  1.00  0.00     0.131 A 
ATOM     88  C   UNL A   1      46.187  26.669  35.812  1.00  0.00     0.055 A 
ATOM     89  C   UNL A   1      47.228  28.595  34.817  1.00  0.00     0.041 A 
ATOM     90  F   UNL A   1      46.024  29.922  33.308  1.00  0.00    -0.206 F 
ATOM     91  C   UNL A   1      47.295  27.511  35.687  1.00  0.00     0.022 A 
BRANCH  88  92
ATOM     92  S   UNL A   1      46.199  25.331  37.038  1.00  0.00     0.124 S 
ATOM     93  O   UNL A   1      47.347  24.537  36.610  1.00  0.00    -0.237 OA
ATOM     94  O   UNL A   1      46.361  26.058  38.293  1.00  0.00    -0.237 OA
ATOM     95  O   UNL A   1      44.899  24.688  36.857  1.00  0.00    -0.744 OA
ENDBRANCH  88  92
ENDBRANCH  62  85
ENDBRANCH  36  37
ENDBRANCH  28  31
ENDBRANCH  26  27
ENDBRANCH  25  26
ENDBRANCH   1  25
TORSDOF 21
ENDMDL
