MODEL 1
REMARK VINA RESULT:     -13.0      0.000      0.000
REMARK SMILES C[C@H]1[C@H](C(=O)NCCCCNC(=O)c2ccc(-c3c4nc(c(-c5cc(S(=O)(=O)[O-])ccc5F)c5ccc([nH]5)c(-c5cc(S(=O)(=O)[O-])ccc5F)c5nc(c(-c6cc(S(=O)(=O)[O-])ccc6F)c6ccc3[nH]6)C=C5)C=C4)cc2)CC[N@@H+]1Cc1cnn(-c2ccccc2)c1
REMARK SMILES IDX 8 1 7 2 6 3 4 4 5 5 3 7 1 8 2 9 79 10 77 11 78 12 80 14
REMARK SMILES IDX 81 15 82 16 91 17 83 18 84 19 85 20 86 21 90 22 87 23 89 24
REMARK SMILES IDX 88 25 9 26 10 27 11 28 12 29 13 31 14 32 15 33 76 34 16 35
REMARK SMILES IDX 75 36 17 37 18 38 19 39 69 40 20 41 74 42 68 43 70 44 21 45
REMARK SMILES IDX 73 46 67 47 66 48 22 50 54 51 34 52 53 53 35 54 38 55 52 56
REMARK SMILES IDX 71 57 36 58 37 59 51 61 72 62 39 63 23 64 24 65 32 66 25 67
REMARK SMILES IDX 31 68 33 69 30 70 26 71 27 72 28 73 29 74 55 75 56 76 64 77
REMARK SMILES IDX 57 78 63 79 65 80 62 81 58 82 59 83 60 84 61 85 40 86 41 87
REMARK SMILES IDX 49 88 42 89 48 90 50 91 47 92 43 93 44 94 45 95 46 96
REMARK H PARENT 6 6 79 13 11 30 70 49 38 60
REMARK Flexibility Score: inf
ROOT
ATOM      1  C   UNL A   1      31.320  27.766  26.397  1.00  0.00     0.023 C 
ENDROOT
BRANCH   1   2
ATOM      2  C   UNL A   1      32.065  26.437  26.567  1.00  0.00     0.116 C 
BRANCH   2   3
ATOM      3  N   UNL A   1      31.399  25.158  26.636  1.00  0.00    -0.356 N 
ATOM      4  C   UNL A   1      32.038  23.940  26.715  1.00  0.00     0.229 C 
ATOM      5  O   UNL A   1      31.514  23.074  27.425  1.00  0.00    -0.275 OA
ATOM      6  H   UNL A   1      30.414  25.156  26.626  1.00  0.00     0.163 HD
BRANCH   4   7
ATOM      7  C   UNL A   1      33.315  23.585  25.937  1.00  0.00     0.142 C 
ATOM      8  C   UNL A   1      33.948  21.316  25.120  1.00  0.00     0.076 C 
ATOM      9  C   UNL A   1      33.217  22.624  24.742  1.00  0.00     0.193 C 
ATOM     10  N   UNL A   1      33.867  23.315  23.597  1.00  0.00    -0.328 N 
ATOM     11  C   UNL A   1      34.165  24.757  25.441  1.00  0.00     0.081 C 
ATOM     12  C   UNL A   1      34.856  24.206  24.197  1.00  0.00     0.263 C 
ATOM     13  H   UNL A   1      34.275  22.596  23.000  1.00  0.00     0.348 HD
BRANCH  10  14
ATOM     14  C   UNL A   1      33.022  23.952  22.542  1.00  0.00     0.302 C 
BRANCH  14  15
ATOM     15  C   UNL A   1      31.818  24.800  22.952  1.00  0.00     0.045 A 
ATOM     16  C   UNL A   1      30.559  24.412  23.479  1.00  0.00     0.145 A 
ATOM     17  C   UNL A   1      31.718  26.179  23.087  1.00  0.00     0.124 A 
ATOM     18  N   UNL A   1      29.714  25.433  23.693  1.00  0.00    -0.176 NA
ATOM     19  N   UNL A   1      30.376  26.515  23.218  1.00  0.00    -0.240 N 
BRANCH  19  20
ATOM     20  C   UNL A   1      29.719  27.773  22.967  1.00  0.00     0.065 A 
ATOM     21  C   UNL A   1      30.436  28.819  22.392  1.00  0.00     0.028 A 
ATOM     22  C   UNL A   1      28.361  28.018  23.258  1.00  0.00     0.028 A 
ATOM     23  C   UNL A   1      29.776  30.005  22.016  1.00  0.00     0.002 A 
ATOM     24  C   UNL A   1      27.695  29.181  22.862  1.00  0.00     0.002 A 
ATOM     25  C   UNL A   1      28.405  30.174  22.222  1.00  0.00     0.000 A 
ENDBRANCH  19  20
ENDBRANCH  14  15
ENDBRANCH  10  14
ENDBRANCH   4   7
ENDBRANCH   2   3
ENDBRANCH   1   2
BRANCH   1  26
ATOM     26  C   UNL A   1      31.802  29.107  27.036  1.00  0.00     0.023 C 
BRANCH  26  27
ATOM     27  C   UNL A   1      32.316  30.383  26.309  1.00  0.00     0.116 C 
BRANCH  27  28
ATOM     28  N   UNL A   1      32.094  31.710  26.853  1.00  0.00    -0.352 N 
ATOM     29  C   UNL A   1      33.067  32.513  27.459  1.00  0.00     0.251 C 
ATOM     30  H   UNL A   1      31.182  32.077  26.789  1.00  0.00     0.163 HD
ATOM     31  O   UNL A   1      32.833  33.687  27.705  1.00  0.00    -0.269 OA
BRANCH  29  32
ATOM     32  C   UNL A   1      34.390  31.930  27.842  1.00  0.00     0.039 A 
ATOM     33  C   UNL A   1      35.498  32.761  28.000  1.00  0.00     0.014 A 
ATOM     34  C   UNL A   1      34.557  30.559  28.027  1.00  0.00     0.014 A 
ATOM     35  C   UNL A   1      36.723  32.234  28.459  1.00  0.00     0.010 A 
ATOM     36  C   UNL A   1      35.766  30.050  28.554  1.00  0.00     0.010 A 
ATOM     37  C   UNL A   1      36.859  30.881  28.838  1.00  0.00    -0.014 A 
BRANCH  37  38
ATOM     38  C   UNL A   1      38.075  30.408  29.616  1.00  0.00     0.031 A 
ATOM     39  C   UNL A   1      38.384  30.830  31.045  1.00  0.00     0.074 A 
ATOM     40  C   UNL A   1      38.991  29.623  28.998  1.00  0.00     0.049 A 
ATOM     41  N   UNL A   1      39.391  30.474  31.815  1.00  0.00    -0.248 NA
ATOM     42  C   UNL A   1      37.487  31.805  31.674  1.00  0.00     0.031 C 
ATOM     43  C   UNL A   1      38.947  29.225  27.590  1.00  0.00     0.029 A 
ATOM     44  N   UNL A   1      40.134  29.005  29.466  1.00  0.00    -0.354 N 
ATOM     45  C   UNL A   1      39.259  31.193  33.002  1.00  0.00     0.074 A 
ATOM     46  C   UNL A   1      38.115  32.063  32.814  1.00  0.00     0.031 C 
ATOM     47  C   UNL A   1      39.946  28.368  27.334  1.00  0.00     0.029 A 
ATOM     48  C   UNL A   1      40.756  28.198  28.535  1.00  0.00     0.049 A 
ATOM     49  H   UNL A   1      40.475  29.129  30.381  1.00  0.00     0.167 HD
ATOM     50  C   UNL A   1      39.985  31.120  34.152  1.00  0.00     0.034 A 
ATOM     51  C   UNL A   1      41.845  27.402  28.614  1.00  0.00     0.034 A 
ATOM     52  C   UNL A   1      41.104  30.227  34.368  1.00  0.00     0.049 A 
ATOM     53  C   UNL A   1      42.610  27.300  29.910  1.00  0.00     0.074 A 
ATOM     54  C   UNL A   1      41.819  30.009  35.537  1.00  0.00     0.029 A 
ATOM     55  N   UNL A   1      41.682  29.413  33.404  1.00  0.00    -0.354 N 
ATOM     56  N   UNL A   1      42.389  27.910  31.049  1.00  0.00    -0.248 NA
ATOM     57  C   UNL A   1      43.769  26.394  29.929  1.00  0.00     0.031 C 
ATOM     58  C   UNL A   1      42.869  29.126  35.263  1.00  0.00     0.029 A 
ATOM     59  C   UNL A   1      42.759  28.721  33.945  1.00  0.00     0.049 A 
ATOM     60  H   UNL A   1      41.373  29.337  32.473  1.00  0.00     0.167 HD
ATOM     61  C   UNL A   1      43.362  27.434  31.928  1.00  0.00     0.074 A 
ATOM     62  C   UNL A   1      44.156  26.474  31.193  1.00  0.00     0.031 C 
ATOM     63  C   UNL A   1      43.570  27.765  33.227  1.00  0.00     0.034 A 
BRANCH  50  64
ATOM     64  C   UNL A   1      39.587  32.031  35.299  1.00  0.00     0.023 A 
ATOM     65  C   UNL A   1      38.872  31.547  36.408  1.00  0.00     0.031 A 
ATOM     66  C   UNL A   1      39.938  33.395  35.298  1.00  0.00     0.131 A 
ATOM     67  C   UNL A   1      38.450  32.426  37.415  1.00  0.00     0.055 A 
ATOM     68  C   UNL A   1      39.597  34.248  36.353  1.00  0.00     0.041 A 
ATOM     69  F   UNL A   1      40.619  33.926  34.270  1.00  0.00    -0.206 F 
ATOM     70  C   UNL A   1      38.832  33.769  37.410  1.00  0.00     0.022 A 
BRANCH  67  71
ATOM     71  S   UNL A   1      37.261  31.820  38.641  1.00  0.00     0.124 S 
ATOM     72  O   UNL A   1      38.014  31.982  39.884  1.00  0.00    -0.237 OA
ATOM     73  O   UNL A   1      36.130  32.723  38.458  1.00  0.00    -0.237 OA
ATOM     74  O   UNL A   1      37.028  30.435  38.240  1.00  0.00    -0.744 OA
ENDBRANCH  67  71
ENDBRANCH  50  64
BRANCH  51  75
ATOM     75  C   UNL A   1      42.294  26.613  27.424  1.00  0.00     0.023 A 
ATOM     76  C   UNL A   1      41.958  25.256  27.288  1.00  0.00     0.031 A 
ATOM     77  C   UNL A   1      43.112  27.190  26.437  1.00  0.00     0.131 A 
ATOM     78  C   UNL A   1      42.482  24.507  26.222  1.00  0.00     0.055 A 
ATOM     79  C   UNL A   1      43.577  26.457  25.343  1.00  0.00     0.041 A 
ATOM     80  F   UNL A   1      43.461  28.485  26.514  1.00  0.00    -0.206 F 
ATOM     81  C   UNL A   1      43.276  25.103  25.240  1.00  0.00     0.022 A 
BRANCH  78  82
ATOM     82  S   UNL A   1      42.196  22.715  26.193  1.00  0.00     0.124 S 
ATOM     83  O   UNL A   1      42.785  22.343  24.913  1.00  0.00    -0.237 OA
ATOM     84  O   UNL A   1      42.913  22.274  27.384  1.00  0.00    -0.237 OA
ATOM     85  O   UNL A   1      40.741  22.604  26.268  1.00  0.00    -0.744 OA
ENDBRANCH  78  82
ENDBRANCH  51  75
BRANCH  63  86
ATOM     86  C   UNL A   1      44.675  27.044  33.965  1.00  0.00     0.023 A 
ATOM     87  C   UNL A   1      44.487  25.771  34.535  1.00  0.00     0.031 A 
ATOM     88  C   UNL A   1      45.938  27.647  34.113  1.00  0.00     0.131 A 
ATOM     89  C   UNL A   1      45.521  25.170  35.271  1.00  0.00     0.055 A 
ATOM     90  C   UNL A   1      46.984  27.016  34.790  1.00  0.00     0.041 A 
ATOM     91  F   UNL A   1      46.178  28.864  33.600  1.00  0.00    -0.206 F 
ATOM     92  C   UNL A   1      46.774  25.776  35.385  1.00  0.00     0.022 A 
BRANCH  89  93
ATOM     93  S   UNL A   1      45.178  23.626  36.162  1.00  0.00     0.124 S 
ATOM     94  O   UNL A   1      46.390  22.854  35.908  1.00  0.00    -0.237 OA
ATOM     95  O   UNL A   1      44.995  24.092  37.533  1.00  0.00    -0.237 OA
ATOM     96  O   UNL A   1      43.971  23.116  35.516  1.00  0.00    -0.744 OA
ENDBRANCH  89  93
ENDBRANCH  63  86
ENDBRANCH  37  38
ENDBRANCH  29  32
ENDBRANCH  27  28
ENDBRANCH  26  27
ENDBRANCH   1  26
TORSDOF 17
ENDMDL
MODEL 2
REMARK VINA RESULT:     -13.0      1.296      1.457
REMARK SMILES C[C@H]1[C@H](C(=O)NCCCCNC(=O)c2ccc(-c3c4nc(c(-c5cc(S(=O)(=O)[O-])ccc5F)c5ccc([nH]5)c(-c5cc(S(=O)(=O)[O-])ccc5F)c5nc(c(-c6cc(S(=O)(=O)[O-])ccc6F)c6ccc3[nH]6)C=C5)C=C4)cc2)CC[N@@H+]1Cc1cnn(-c2ccccc2)c1
REMARK SMILES IDX 8 1 7 2 6 3 4 4 5 5 3 7 1 8 2 9 79 10 77 11 78 12 80 14
REMARK SMILES IDX 81 15 82 16 91 17 83 18 84 19 85 20 86 21 90 22 87 23 89 24
REMARK SMILES IDX 88 25 9 26 10 27 11 28 12 29 13 31 14 32 15 33 76 34 16 35
REMARK SMILES IDX 75 36 17 37 18 38 19 39 69 40 20 41 74 42 68 43 70 44 21 45
REMARK SMILES IDX 73 46 67 47 66 48 22 50 54 51 34 52 53 53 35 54 38 55 52 56
REMARK SMILES IDX 71 57 36 58 37 59 51 61 72 62 39 63 23 64 24 65 32 66 25 67
REMARK SMILES IDX 31 68 33 69 30 70 26 71 27 72 28 73 29 74 55 75 56 76 64 77
REMARK SMILES IDX 57 78 63 79 65 80 62 81 58 82 59 83 60 84 61 85 40 86 41 87
REMARK SMILES IDX 49 88 42 89 48 90 50 91 47 92 43 93 44 94 45 95 46 96
REMARK H PARENT 6 6 79 13 11 30 70 49 38 60
REMARK Flexibility Score: inf
ROOT
ATOM      1  C   UNL A   1      31.308  27.764  26.329  1.00  0.00     0.023 C 
ENDROOT
BRANCH   1   2
ATOM      2  C   UNL A   1      32.100  26.460  26.484  1.00  0.00     0.116 C 
BRANCH   2   3
ATOM      3  N   UNL A   1      31.476  25.167  26.627  1.00  0.00    -0.356 N 
ATOM      4  C   UNL A   1      32.153  23.970  26.711  1.00  0.00     0.229 C 
ATOM      5  O   UNL A   1      31.692  23.113  27.475  1.00  0.00    -0.275 OA
ATOM      6  H   UNL A   1      30.492  25.137  26.668  1.00  0.00     0.163 HD
BRANCH   4   7
ATOM      7  C   UNL A   1      33.399  23.625  25.879  1.00  0.00     0.142 C 
ATOM      8  C   UNL A   1      34.061  21.347  25.110  1.00  0.00     0.076 C 
ATOM      9  C   UNL A   1      33.270  22.619  24.726  1.00  0.00     0.193 C 
ATOM     10  N   UNL A   1      33.837  23.287  23.524  1.00  0.00    -0.328 N 
ATOM     11  C   UNL A   1      34.185  24.803  25.299  1.00  0.00     0.081 C 
ATOM     12  C   UNL A   1      34.828  24.228  24.040  1.00  0.00     0.263 C 
ATOM     13  H   UNL A   1      34.237  22.559  22.932  1.00  0.00     0.348 HD
BRANCH  10  14
ATOM     14  C   UNL A   1      32.920  23.859  22.494  1.00  0.00     0.302 C 
BRANCH  14  15
ATOM     15  C   UNL A   1      31.758  24.751  22.933  1.00  0.00     0.045 A 
ATOM     16  C   UNL A   1      30.525  24.415  23.549  1.00  0.00     0.145 A 
ATOM     17  C   UNL A   1      31.693  26.136  23.009  1.00  0.00     0.124 A 
ATOM     18  N   UNL A   1      29.713  25.462  23.764  1.00  0.00    -0.176 NA
ATOM     19  N   UNL A   1      30.367  26.507  23.202  1.00  0.00    -0.240 N 
BRANCH  19  20
ATOM     20  C   UNL A   1      29.721  27.766  22.930  1.00  0.00     0.065 A 
ATOM     21  C   UNL A   1      30.459  28.813  22.384  1.00  0.00     0.028 A 
ATOM     22  C   UNL A   1      28.353  28.012  23.173  1.00  0.00     0.028 A 
ATOM     23  C   UNL A   1      29.813  30.000  21.988  1.00  0.00     0.002 A 
ATOM     24  C   UNL A   1      27.703  29.176  22.757  1.00  0.00     0.002 A 
ATOM     25  C   UNL A   1      28.435  30.170  22.145  1.00  0.00     0.000 A 
ENDBRANCH  19  20
ENDBRANCH  14  15
ENDBRANCH  10  14
ENDBRANCH   4   7
ENDBRANCH   2   3
ENDBRANCH   1   2
BRANCH   1  26
ATOM     26  C   UNL A   1      31.761  29.122  26.954  1.00  0.00     0.023 C 
BRANCH  26  27
ATOM     27  C   UNL A   1      32.176  30.425  26.213  1.00  0.00     0.116 C 
BRANCH  27  28
ATOM     28  N   UNL A   1      31.922  31.737  26.779  1.00  0.00    -0.352 N 
ATOM     29  C   UNL A   1      32.872  32.545  27.415  1.00  0.00     0.251 C 
ATOM     30  H   UNL A   1      31.005  32.088  26.709  1.00  0.00     0.163 HD
ATOM     31  O   UNL A   1      32.613  33.709  27.680  1.00  0.00    -0.269 OA
BRANCH  29  32
ATOM     32  C   UNL A   1      34.199  31.978  27.805  1.00  0.00     0.039 A 
ATOM     33  C   UNL A   1      35.294  32.825  27.979  1.00  0.00     0.014 A 
ATOM     34  C   UNL A   1      34.385  30.609  27.982  1.00  0.00     0.014 A 
ATOM     35  C   UNL A   1      36.523  32.312  28.444  1.00  0.00     0.010 A 
ATOM     36  C   UNL A   1      35.597  30.114  28.516  1.00  0.00     0.010 A 
ATOM     37  C   UNL A   1      36.675  30.959  28.815  1.00  0.00    -0.014 A 
BRANCH  37  38
ATOM     38  C   UNL A   1      37.891  30.498  29.600  1.00  0.00     0.031 A 
ATOM     39  C   UNL A   1      38.187  30.923  31.031  1.00  0.00     0.074 A 
ATOM     40  C   UNL A   1      38.819  29.723  28.988  1.00  0.00     0.049 A 
ATOM     41  N   UNL A   1      39.193  30.577  31.807  1.00  0.00    -0.248 NA
ATOM     42  C   UNL A   1      37.277  31.889  31.655  1.00  0.00     0.031 C 
ATOM     43  C   UNL A   1      38.788  29.324  27.579  1.00  0.00     0.029 A 
ATOM     44  N   UNL A   1      39.965  29.116  29.463  1.00  0.00    -0.354 N 
ATOM     45  C   UNL A   1      39.047  31.295  32.993  1.00  0.00     0.074 A 
ATOM     46  C   UNL A   1      37.895  32.153  32.798  1.00  0.00     0.031 C 
ATOM     47  C   UNL A   1      39.796  28.477  27.329  1.00  0.00     0.029 A 
ATOM     48  C   UNL A   1      40.601  28.315  28.536  1.00  0.00     0.049 A 
ATOM     49  H   UNL A   1      40.299  29.244  30.380  1.00  0.00     0.167 HD
ATOM     50  C   UNL A   1      39.767  31.229  34.148  1.00  0.00     0.034 A 
ATOM     51  C   UNL A   1      41.698  27.530  28.621  1.00  0.00     0.034 A 
ATOM     52  C   UNL A   1      40.894  30.348  34.371  1.00  0.00     0.049 A 
ATOM     53  C   UNL A   1      42.456  27.436  29.921  1.00  0.00     0.074 A 
ATOM     54  C   UNL A   1      41.604  30.137  35.544  1.00  0.00     0.029 A 
ATOM     55  N   UNL A   1      41.486  29.540  33.410  1.00  0.00    -0.354 N 
ATOM     56  N   UNL A   1      42.222  28.044  31.060  1.00  0.00    -0.248 NA
ATOM     57  C   UNL A   1      43.624  26.542  29.948  1.00  0.00     0.031 C 
ATOM     58  C   UNL A   1      42.664  29.265  35.276  1.00  0.00     0.029 A 
ATOM     59  C   UNL A   1      42.566  28.859  33.957  1.00  0.00     0.049 A 
ATOM     60  H   UNL A   1      41.183  29.460  32.477  1.00  0.00     0.167 HD
ATOM     61  C   UNL A   1      43.194  27.577  31.944  1.00  0.00     0.074 A 
ATOM     62  C   UNL A   1      44.002  26.625  31.214  1.00  0.00     0.031 C 
ATOM     63  C   UNL A   1      43.391  27.911  33.244  1.00  0.00     0.034 A 
BRANCH  50  64
ATOM     64  C   UNL A   1      39.353  32.137  35.292  1.00  0.00     0.023 A 
ATOM     65  C   UNL A   1      39.868  33.439  35.419  1.00  0.00     0.031 A 
ATOM     66  C   UNL A   1      38.423  31.709  36.258  1.00  0.00     0.131 A 
ATOM     67  C   UNL A   1      39.528  34.227  36.528  1.00  0.00     0.055 A 
ATOM     68  C   UNL A   1      38.014  32.536  37.309  1.00  0.00     0.041 A 
ATOM     69  F   UNL A   1      37.892  30.477  36.199  1.00  0.00    -0.206 F 
ATOM     70  C   UNL A   1      38.582  33.796  37.460  1.00  0.00     0.022 A 
BRANCH  67  71
ATOM     71  S   UNL A   1      40.463  35.752  36.817  1.00  0.00     0.124 S 
ATOM     72  O   UNL A   1      41.771  35.404  36.263  1.00  0.00    -0.237 OA
ATOM     73  O   UNL A   1      39.696  36.740  36.069  1.00  0.00    -0.237 OA
ATOM     74  O   UNL A   1      40.432  35.905  38.270  1.00  0.00    -0.744 OA
ENDBRANCH  67  71
ENDBRANCH  50  64
BRANCH  51  75
ATOM     75  C   UNL A   1      42.161  26.746  27.434  1.00  0.00     0.023 A 
ATOM     76  C   UNL A   1      41.869  25.378  27.313  1.00  0.00     0.031 A 
ATOM     77  C   UNL A   1      42.952  27.340  26.434  1.00  0.00     0.131 A 
ATOM     78  C   UNL A   1      42.408  24.637  26.249  1.00  0.00     0.055 A 
ATOM     79  C   UNL A   1      43.431  26.613  25.343  1.00  0.00     0.041 A 
ATOM     80  F   UNL A   1      43.258  28.647  26.497  1.00  0.00    -0.206 F 
ATOM     81  C   UNL A   1      43.173  25.250  25.254  1.00  0.00     0.022 A 
BRANCH  78  82
ATOM     82  S   UNL A   1      42.180  22.836  26.237  1.00  0.00     0.124 S 
ATOM     83  O   UNL A   1      42.695  22.482  24.921  1.00  0.00    -0.237 OA
ATOM     84  O   UNL A   1      42.989  22.422  27.378  1.00  0.00    -0.237 OA
ATOM     85  O   UNL A   1      40.738  22.676  26.408  1.00  0.00    -0.744 OA
ENDBRANCH  78  82
ENDBRANCH  51  75
BRANCH  63  86
ATOM     86  C   UNL A   1      44.499  27.201  33.989  1.00  0.00     0.023 A 
ATOM     87  C   UNL A   1      44.330  25.912  34.529  1.00  0.00     0.031 A 
ATOM     88  C   UNL A   1      45.744  27.831  34.174  1.00  0.00     0.131 A 
ATOM     89  C   UNL A   1      45.365  25.321  35.273  1.00  0.00     0.055 A 
ATOM     90  C   UNL A   1      46.792  27.211  34.858  1.00  0.00     0.041 A 
ATOM     91  F   UNL A   1      45.965  29.064  33.690  1.00  0.00    -0.206 F 
ATOM     92  C   UNL A   1      46.601  25.954  35.424  1.00  0.00     0.022 A 
BRANCH  89  93
ATOM     93  S   UNL A   1      45.043  23.751  36.126  1.00  0.00     0.124 S 
ATOM     94  O   UNL A   1      46.282  23.019  35.890  1.00  0.00    -0.237 OA
ATOM     95  O   UNL A   1      44.809  24.185  37.499  1.00  0.00    -0.237 OA
ATOM     96  O   UNL A   1      43.868  23.220  35.437  1.00  0.00    -0.744 OA
ENDBRANCH  89  93
ENDBRANCH  63  86
ENDBRANCH  37  38
ENDBRANCH  29  32
ENDBRANCH  27  28
ENDBRANCH  26  27
ENDBRANCH   1  26
TORSDOF 17
ENDMDL
MODEL 3
REMARK VINA RESULT:     -12.8      4.751      9.911
REMARK SMILES C[C@H]1[C@H](C(=O)NCCCCNC(=O)c2ccc(-c3c4nc(c(-c5cc(S(=O)(=O)[O-])ccc5F)c5ccc([nH]5)c(-c5cc(S(=O)(=O)[O-])ccc5F)c5nc(c(-c6cc(S(=O)(=O)[O-])ccc6F)c6ccc3[nH]6)C=C5)C=C4)cc2)CC[N@@H+]1Cc1cnn(-c2ccccc2)c1
REMARK SMILES IDX 8 1 7 2 6 3 4 4 5 5 3 7 1 8 2 9 79 10 77 11 78 12 80 14
REMARK SMILES IDX 81 15 82 16 91 17 83 18 84 19 85 20 86 21 90 22 87 23 89 24
REMARK SMILES IDX 88 25 9 26 10 27 11 28 12 29 13 31 14 32 15 33 76 34 16 35
REMARK SMILES IDX 75 36 17 37 18 38 19 39 69 40 20 41 74 42 68 43 70 44 21 45
REMARK SMILES IDX 73 46 67 47 66 48 22 50 54 51 34 52 53 53 35 54 38 55 52 56
REMARK SMILES IDX 71 57 36 58 37 59 51 61 72 62 39 63 23 64 24 65 32 66 25 67
REMARK SMILES IDX 31 68 33 69 30 70 26 71 27 72 28 73 29 74 55 75 56 76 64 77
REMARK SMILES IDX 57 78 63 79 65 80 62 81 58 82 59 83 60 84 61 85 40 86 41 87
REMARK SMILES IDX 49 88 42 89 48 90 50 91 47 92 43 93 44 94 45 95 46 96
REMARK H PARENT 6 6 79 13 11 30 70 49 38 60
REMARK Flexibility Score: inf
ROOT
ATOM      1  C   UNL A   1      36.198  23.670  24.003  1.00  0.00     0.023 C 
ENDROOT
BRANCH   1   2
ATOM      2  C   UNL A   1      35.039  24.322  24.765  1.00  0.00     0.116 C 
BRANCH   2   3
ATOM      3  N   UNL A   1      34.697  23.985  26.127  1.00  0.00    -0.356 N 
ATOM      4  C   UNL A   1      33.918  22.911  26.501  1.00  0.00     0.229 C 
ATOM      5  O   UNL A   1      34.234  22.320  27.540  1.00  0.00    -0.275 OA
ATOM      6  H   UNL A   1      35.046  24.565  26.842  1.00  0.00     0.163 HD
BRANCH   4   7
ATOM      7  C   UNL A   1      32.665  22.449  25.740  1.00  0.00     0.142 C 
ATOM      8  C   UNL A   1      30.307  23.009  26.328  1.00  0.00     0.076 C 
ATOM      9  C   UNL A   1      31.529  23.455  25.494  1.00  0.00     0.193 C 
ATOM     10  N   UNL A   1      31.251  23.421  24.034  1.00  0.00    -0.328 N 
ATOM     11  C   UNL A   1      32.894  21.765  24.390  1.00  0.00     0.081 C 
ATOM     12  C   UNL A   1      31.624  22.077  23.603  1.00  0.00     0.263 C 
ATOM     13  H   UNL A   1      30.260  23.628  23.908  1.00  0.00     0.348 HD
BRANCH  10  14
ATOM     14  C   UNL A   1      31.766  24.516  23.157  1.00  0.00     0.302 C 
BRANCH  14  15
ATOM     15  C   UNL A   1      31.495  25.972  23.535  1.00  0.00     0.045 A 
ATOM     16  C   UNL A   1      31.949  26.732  24.644  1.00  0.00     0.145 A 
ATOM     17  C   UNL A   1      30.888  26.976  22.792  1.00  0.00     0.124 A 
ATOM     18  N   UNL A   1      31.479  27.989  24.680  1.00  0.00    -0.176 NA
ATOM     19  N   UNL A   1      30.624  28.051  23.632  1.00  0.00    -0.240 N 
BRANCH  19  20
ATOM     20  C   UNL A   1      29.667  29.118  23.478  1.00  0.00     0.065 A 
ATOM     21  C   UNL A   1      28.416  28.846  22.931  1.00  0.00     0.028 A 
ATOM     22  C   UNL A   1      29.913  30.451  23.868  1.00  0.00     0.028 A 
ATOM     23  C   UNL A   1      27.425  29.846  22.901  1.00  0.00     0.002 A 
ATOM     24  C   UNL A   1      28.926  31.440  23.866  1.00  0.00     0.002 A 
ATOM     25  C   UNL A   1      27.669  31.131  23.394  1.00  0.00     0.000 A 
ENDBRANCH  19  20
ENDBRANCH  14  15
ENDBRANCH  10  14
ENDBRANCH   4   7
ENDBRANCH   2   3
ENDBRANCH   1   2
BRANCH   1  26
ATOM     26  C   UNL A   1      36.610  22.175  24.182  1.00  0.00     0.023 C 
BRANCH  26  27
ATOM     27  C   UNL A   1      37.164  21.482  25.459  1.00  0.00     0.116 C 
BRANCH  27  28
ATOM     28  N   UNL A   1      38.310  20.594  25.408  1.00  0.00    -0.352 N 
ATOM     29  C   UNL A   1      39.534  20.808  26.053  1.00  0.00     0.251 C 
ATOM     30  H   UNL A   1      38.220  19.771  24.874  1.00  0.00     0.163 HD
ATOM     31  O   UNL A   1      40.365  19.914  26.113  1.00  0.00    -0.269 OA
BRANCH  29  32
ATOM     32  C   UNL A   1      39.848  22.145  26.644  1.00  0.00     0.039 A 
ATOM     33  C   UNL A   1      40.812  22.255  27.645  1.00  0.00     0.014 A 
ATOM     34  C   UNL A   1      39.181  23.298  26.235  1.00  0.00     0.014 A 
ATOM     35  C   UNL A   1      41.185  23.524  28.137  1.00  0.00     0.010 A 
ATOM     36  C   UNL A   1      39.611  24.569  26.680  1.00  0.00     0.010 A 
ATOM     37  C   UNL A   1      40.661  24.718  27.598  1.00  0.00    -0.014 A 
BRANCH  37  38
ATOM     38  C   UNL A   1      41.296  26.061  27.914  1.00  0.00     0.031 A 
ATOM     39  C   UNL A   1      42.699  26.459  27.478  1.00  0.00     0.074 A 
ATOM     40  C   UNL A   1      40.623  26.945  28.691  1.00  0.00     0.049 A 
ATOM     41  N   UNL A   1      43.340  27.591  27.681  1.00  0.00    -0.248 NA
ATOM     42  C   UNL A   1      43.501  25.454  26.773  1.00  0.00     0.031 C 
ATOM     43  C   UNL A   1      39.326  26.695  29.322  1.00  0.00     0.029 A 
ATOM     44  N   UNL A   1      40.920  28.236  29.079  1.00  0.00    -0.354 N 
ATOM     45  C   UNL A   1      44.619  27.425  27.150  1.00  0.00     0.074 A 
ATOM     46  C   UNL A   1      44.682  26.054  26.687  1.00  0.00     0.031 C 
ATOM     47  C   UNL A   1      38.900  27.810  29.931  1.00  0.00     0.029 A 
ATOM     48  C   UNL A   1      39.918  28.848  29.804  1.00  0.00     0.049 A 
ATOM     49  H   UNL A   1      41.771  28.681  28.858  1.00  0.00     0.167 HD
ATOM     50  C   UNL A   1      45.633  28.325  27.021  1.00  0.00     0.034 A 
ATOM     51  C   UNL A   1      39.803  30.095  30.313  1.00  0.00     0.034 A 
ATOM     52  C   UNL A   1      45.569  29.709  27.441  1.00  0.00     0.049 A 
ATOM     53  C   UNL A   1      40.919  31.091  30.120  1.00  0.00     0.074 A 
ATOM     54  C   UNL A   1      46.506  30.714  27.244  1.00  0.00     0.029 A 
ATOM     55  N   UNL A   1      44.526  30.288  28.150  1.00  0.00    -0.354 N 
ATOM     56  N   UNL A   1      42.070  30.935  29.513  1.00  0.00    -0.248 NA
ATOM     57  C   UNL A   1      40.713  32.437  30.678  1.00  0.00     0.031 C 
ATOM     58  C   UNL A   1      46.066  31.871  27.894  1.00  0.00     0.029 A 
ATOM     59  C   UNL A   1      44.813  31.620  28.423  1.00  0.00     0.049 A 
ATOM     60  H   UNL A   1      43.702  29.822  28.419  1.00  0.00     0.167 HD
ATOM     61  C   UNL A   1      42.708  32.172  29.588  1.00  0.00     0.074 A 
ATOM     62  C   UNL A   1      41.808  33.067  30.280  1.00  0.00     0.031 C 
ATOM     63  C   UNL A   1      43.931  32.527  29.120  1.00  0.00     0.034 A 
BRANCH  50  64
ATOM     64  C   UNL A   1      46.922  27.850  26.377  1.00  0.00     0.023 A 
ATOM     65  C   UNL A   1      47.169  28.033  25.005  1.00  0.00     0.031 A 
ATOM     66  C   UNL A   1      47.926  27.221  27.139  1.00  0.00     0.131 A 
ATOM     67  C   UNL A   1      48.334  27.515  24.422  1.00  0.00     0.055 A 
ATOM     68  C   UNL A   1      49.129  26.792  26.569  1.00  0.00     0.041 A 
ATOM     69  F   UNL A   1      47.756  27.011  28.454  1.00  0.00    -0.206 F 
ATOM     70  C   UNL A   1      49.330  26.920  25.199  1.00  0.00     0.022 A 
BRANCH  67  71
ATOM     71  S   UNL A   1      48.451  27.487  22.613  1.00  0.00     0.124 S 
ATOM     72  O   UNL A   1      49.728  28.163  22.391  1.00  0.00    -0.237 OA
ATOM     73  O   UNL A   1      48.424  26.059  22.317  1.00  0.00    -0.237 OA
ATOM     74  O   UNL A   1      47.274  28.237  22.181  1.00  0.00    -0.744 OA
ENDBRANCH  67  71
ENDBRANCH  50  64
BRANCH  51  75
ATOM     75  C   UNL A   1      38.571  30.496  31.060  1.00  0.00     0.023 A 
ATOM     76  C   UNL A   1      37.509  31.145  30.408  1.00  0.00     0.031 A 
ATOM     77  C   UNL A   1      38.462  30.290  32.447  1.00  0.00     0.131 A 
ATOM     78  C   UNL A   1      36.412  31.613  31.149  1.00  0.00     0.055 A 
ATOM     79  C   UNL A   1      37.339  30.699  33.168  1.00  0.00     0.041 A 
ATOM     80  F   UNL A   1      39.445  29.671  33.121  1.00  0.00    -0.206 F 
ATOM     81  C   UNL A   1      36.313  31.379  32.522  1.00  0.00     0.022 A 
BRANCH  78  82
ATOM     82  S   UNL A   1      35.161  32.624  30.308  1.00  0.00     0.124 S 
ATOM     83  O   UNL A   1      35.892  33.864  30.075  1.00  0.00    -0.237 OA
ATOM     84  O   UNL A   1      34.865  31.821  29.128  1.00  0.00    -0.237 OA
ATOM     85  O   UNL A   1      34.080  32.711  31.288  1.00  0.00    -0.744 OA
ENDBRANCH  78  82
ENDBRANCH  51  75
BRANCH  63  86
ATOM     86  C   UNL A   1      44.354  33.969  29.292  1.00  0.00     0.023 A 
ATOM     87  C   UNL A   1      43.975  34.974  28.382  1.00  0.00     0.031 A 
ATOM     88  C   UNL A   1      45.165  34.343  30.380  1.00  0.00     0.131 A 
ATOM     89  C   UNL A   1      44.449  36.286  28.545  1.00  0.00     0.055 A 
ATOM     90  C   UNL A   1      45.580  35.663  30.573  1.00  0.00     0.041 A 
ATOM     91  F   UNL A   1      45.568  33.430  31.278  1.00  0.00    -0.206 F 
ATOM     92  C   UNL A   1      45.233  36.640  29.645  1.00  0.00     0.022 A 
BRANCH  89  93
ATOM     93  S   UNL A   1      44.109  37.507  27.246  1.00  0.00     0.124 S 
ATOM     94  O   UNL A   1      43.798  38.700  28.025  1.00  0.00    -0.237 OA
ATOM     95  O   UNL A   1      45.369  37.537  26.509  1.00  0.00    -0.237 OA
ATOM     96  O   UNL A   1      42.981  36.930  26.518  1.00  0.00    -0.744 OA
ENDBRANCH  89  93
ENDBRANCH  63  86
ENDBRANCH  37  38
ENDBRANCH  29  32
ENDBRANCH  27  28
ENDBRANCH  26  27
ENDBRANCH   1  26
TORSDOF 17
ENDMDL
