MODEL 1
REMARK VINA RESULT:     -11.9      0.000      0.000
REMARK SMILES O=C(C[N@H+]1CCC[C@@H]1C(=O)NCCCCNC(=O)c1ccc(-c2c3nc(c(-c4cc(S(=O)(=O)[O-])ccc4F)c4ccc([nH]4)c(-c4cc(S(=O)(=O)[O-])ccc4F)c4nc(c(-c5cc(S(=O)(=O)[O-])ccc5F)c5ccc2[nH]5)C=C4)C=C3)cc1)NCc1ccc(Cl)cc1
REMARK SMILES IDX 13 1 12 2 11 3 9 4 10 5 8 7 4 8 5 9 6 11 7 12 3 13 2 14 1 15
REMARK SMILES IDX 82 16 83 18 84 19 85 20 90 21 86 22 89 23 87 24 88 25 14 26
REMARK SMILES IDX 15 27 16 28 17 29 18 31 19 32 20 33 81 34 21 35 80 36 22 37
REMARK SMILES IDX 23 38 24 39 74 40 25 41 79 42 73 43 75 44 26 45 78 46 72 47
REMARK SMILES IDX 71 48 27 50 59 51 39 52 58 53 40 54 43 55 57 56 76 57 41 58
REMARK SMILES IDX 42 59 56 61 77 62 44 63 28 64 29 65 37 66 30 67 36 68 38 69
REMARK SMILES IDX 35 70 31 71 32 72 33 73 34 74 60 75 61 76 69 77 62 78 68 79
REMARK SMILES IDX 70 80 67 81 63 82 64 83 65 84 66 85 45 86 46 87 54 88 47 89
REMARK SMILES IDX 53 90 55 91 52 92 48 93 49 94 50 95 51 96
REMARK H PARENT 11 6 4 10 82 17 16 30 75 49 43 60
REMARK Flexibility Score: inf
ROOT
ATOM      1  C   UNL A   1      35.665  22.930  23.307  1.00  0.00     0.023 C 
ENDROOT
BRANCH   1   2
ATOM      2  C   UNL A   1      34.684  23.953  23.857  1.00  0.00     0.116 C 
BRANCH   2   3
ATOM      3  N   UNL A   1      33.901  24.603  22.823  1.00  0.00    -0.351 N 
ATOM      4  C   UNL A   1      33.165  25.750  22.902  1.00  0.00     0.278 C 
ATOM      5  O   UNL A   1      32.686  26.206  21.858  1.00  0.00    -0.268 OA
ATOM      6  H   UNL A   1      33.902  24.157  21.946  1.00  0.00     0.163 HD
BRANCH   4   7
ATOM      7  C   UNL A   1      32.863  26.437  24.243  1.00  0.00     0.274 C 
ATOM      8  N   UNL A   1      31.454  26.799  24.434  1.00  0.00    -0.317 N 
ATOM      9  C   UNL A   1      31.427  27.822  25.463  1.00  0.00     0.263 C 
ATOM     10  H   UNL A   1      31.084  27.181  23.563  1.00  0.00     0.349 HD
ATOM     11  C   UNL A   1      32.529  28.738  24.962  1.00  0.00     0.068 C 
ATOM     12  C   UNL A   1      33.574  27.790  24.370  1.00  0.00     0.081 C 
BRANCH   8  13
ATOM     13  C   UNL A   1      30.479  25.722  24.523  1.00  0.00     0.364 C 
BRANCH  13  14
ATOM     14  C   UNL A   1      30.998  24.722  25.571  1.00  0.00     0.275 C 
ATOM     15  O   UNL A   1      31.234  25.047  26.733  1.00  0.00    -0.268 OA
ATOM     16  N   UNL A   1      31.281  23.470  25.070  1.00  0.00    -0.347 N 
ATOM     17  H   UNL A   1      30.974  23.234  24.164  1.00  0.00     0.164 HD
BRANCH  16  18
ATOM     18  C   UNL A   1      32.015  22.496  25.843  1.00  0.00     0.151 C 
BRANCH  18  19
ATOM     19  C   UNL A   1      32.347  21.227  25.098  1.00  0.00    -0.029 A 
ATOM     20  C   UNL A   1      32.872  20.148  25.828  1.00  0.00     0.007 A 
ATOM     21  C   UNL A   1      32.131  21.066  23.721  1.00  0.00     0.007 A 
ATOM     22  C   UNL A   1      33.189  18.944  25.197  1.00  0.00     0.021 A 
ATOM     23  C   UNL A   1      32.453  19.863  23.087  1.00  0.00     0.021 A 
ATOM     24  C   UNL A   1      32.983  18.809  23.827  1.00  0.00     0.041 A 
ATOM     25  Cl  UNL A   1      33.385  17.332  23.043  1.00  0.00    -0.084 Cl
ENDBRANCH  18  19
ENDBRANCH  16  18
ENDBRANCH  13  14
ENDBRANCH   8  13
ENDBRANCH   4   7
ENDBRANCH   2   3
ENDBRANCH   1   2
BRANCH   1  26
ATOM     26  C   UNL A   1      36.031  21.809  24.273  1.00  0.00     0.023 C 
BRANCH  26  27
ATOM     27  C   UNL A   1      37.162  22.124  25.247  1.00  0.00     0.116 C 
BRANCH  27  28
ATOM     28  N   UNL A   1      38.106  21.027  25.427  1.00  0.00    -0.352 N 
ATOM     29  C   UNL A   1      39.318  21.039  26.079  1.00  0.00     0.251 C 
ATOM     30  H   UNL A   1      37.842  20.165  25.029  1.00  0.00     0.163 HD
ATOM     31  O   UNL A   1      40.053  20.057  26.062  1.00  0.00    -0.269 OA
BRANCH  29  32
ATOM     32  C   UNL A   1      39.735  22.280  26.762  1.00  0.00     0.039 A 
ATOM     33  C   UNL A   1      40.781  22.229  27.684  1.00  0.00     0.014 A 
ATOM     34  C   UNL A   1      39.161  23.502  26.399  1.00  0.00     0.014 A 
ATOM     35  C   UNL A   1      41.327  23.420  28.165  1.00  0.00     0.010 A 
ATOM     36  C   UNL A   1      39.751  24.687  26.827  1.00  0.00     0.010 A 
ATOM     37  C   UNL A   1      40.856  24.657  27.694  1.00  0.00    -0.014 A 
BRANCH  37  38
ATOM     38  C   UNL A   1      41.526  25.933  28.052  1.00  0.00     0.031 A 
ATOM     39  C   UNL A   1      40.747  27.023  28.732  1.00  0.00     0.074 A 
ATOM     40  C   UNL A   1      42.802  26.144  27.672  1.00  0.00     0.049 A 
ATOM     41  N   UNL A   1      41.104  28.254  28.995  1.00  0.00    -0.248 NA
ATOM     42  C   UNL A   1      39.375  26.689  29.141  1.00  0.00     0.031 C 
ATOM     43  C   UNL A   1      43.647  25.177  26.965  1.00  0.00     0.029 A 
ATOM     44  N   UNL A   1      43.606  27.250  27.803  1.00  0.00    -0.354 N 
ATOM     45  C   UNL A   1      39.997  28.846  29.593  1.00  0.00     0.074 A 
ATOM     46  C   UNL A   1      38.942  27.854  29.598  1.00  0.00     0.031 C 
ATOM     47  C   UNL A   1      44.847  25.731  26.728  1.00  0.00     0.029 A 
ATOM     48  C   UNL A   1      44.846  27.104  27.221  1.00  0.00     0.049 A 
ATOM     49  H   UNL A   1      43.324  28.070  28.269  1.00  0.00     0.167 HD
ATOM     50  C   UNL A   1      39.881  30.094  30.112  1.00  0.00     0.034 A 
ATOM     51  C   UNL A   1      45.855  27.987  27.073  1.00  0.00     0.034 A 
ATOM     52  C   UNL A   1      40.944  31.068  30.104  1.00  0.00     0.049 A 
ATOM     53  C   UNL A   1      45.689  29.381  27.621  1.00  0.00     0.074 A 
ATOM     54  C   UNL A   1      40.953  32.340  30.649  1.00  0.00     0.029 A 
ATOM     55  N   UNL A   1      42.187  30.882  29.511  1.00  0.00    -0.354 N 
ATOM     56  N   UNL A   1      44.652  29.910  28.227  1.00  0.00    -0.248 NA
ATOM     57  C   UNL A   1      46.830  30.295  27.467  1.00  0.00     0.031 C 
ATOM     58  C   UNL A   1      42.176  32.943  30.338  1.00  0.00     0.029 A 
ATOM     59  C   UNL A   1      42.957  32.027  29.652  1.00  0.00     0.049 A 
ATOM     60  H   UNL A   1      42.479  30.059  29.058  1.00  0.00     0.167 HD
ATOM     61  C   UNL A   1      45.023  31.214  28.542  1.00  0.00     0.074 A 
ATOM     62  C   UNL A   1      46.384  31.385  28.074  1.00  0.00     0.031 C 
ATOM     63  C   UNL A   1      44.306  32.184  29.163  1.00  0.00     0.034 A 
BRANCH  50  64
ATOM     64  C   UNL A   1      38.550  30.470  30.711  1.00  0.00     0.023 A 
ATOM     65  C   UNL A   1      37.548  31.086  29.940  1.00  0.00     0.031 A 
ATOM     66  C   UNL A   1      38.285  30.237  32.071  1.00  0.00     0.131 A 
ATOM     67  C   UNL A   1      36.360  31.515  30.550  1.00  0.00     0.055 A 
ATOM     68  C   UNL A   1      37.069  30.597  32.656  1.00  0.00     0.041 A 
ATOM     69  F   UNL A   1      39.210  29.668  32.860  1.00  0.00    -0.206 F 
ATOM     70  C   UNL A   1      36.104  31.254  31.897  1.00  0.00     0.022 A 
BRANCH  67  71
ATOM     71  S   UNL A   1      35.213  32.535  29.585  1.00  0.00     0.124 S 
ATOM     72  O   UNL A   1      34.336  33.060  30.630  1.00  0.00    -0.237 OA
ATOM     73  O   UNL A   1      36.103  33.502  28.955  1.00  0.00    -0.237 OA
ATOM     74  O   UNL A   1      34.584  31.579  28.677  1.00  0.00    -0.744 OA
ENDBRANCH  67  71
ENDBRANCH  50  64
BRANCH  51  75
ATOM     75  C   UNL A   1      47.096  27.599  26.343  1.00  0.00     0.023 A 
ATOM     76  C   UNL A   1      47.245  27.866  24.974  1.00  0.00     0.031 A 
ATOM     77  C   UNL A   1      48.133  26.910  26.999  1.00  0.00     0.131 A 
ATOM     78  C   UNL A   1      48.385  27.409  24.293  1.00  0.00     0.055 A 
ATOM     79  C   UNL A   1      49.286  26.500  26.327  1.00  0.00     0.041 A 
ATOM     80  F   UNL A   1      48.041  26.633  28.309  1.00  0.00    -0.206 F 
ATOM     81  C   UNL A   1      49.410  26.738  24.962  1.00  0.00     0.022 A 
BRANCH  78  82
ATOM     82  S   UNL A   1      48.467  27.629  22.494  1.00  0.00     0.124 S 
ATOM     83  O   UNL A   1      47.175  28.240  22.208  1.00  0.00    -0.237 OA
ATOM     84  O   UNL A   1      49.633  28.494  22.349  1.00  0.00    -0.237 OA
ATOM     85  O   UNL A   1      48.638  26.267  21.992  1.00  0.00    -0.744 OA
ENDBRANCH  78  82
ENDBRANCH  51  75
BRANCH  63  86
ATOM     86  C   UNL A   1      44.997  33.502  29.393  1.00  0.00     0.023 A 
ATOM     87  C   UNL A   1      44.924  34.545  28.453  1.00  0.00     0.031 A 
ATOM     88  C   UNL A   1      45.736  33.717  30.569  1.00  0.00     0.131 A 
ATOM     89  C   UNL A   1      45.612  35.743  28.687  1.00  0.00     0.055 A 
ATOM     90  C   UNL A   1      46.380  34.930  30.819  1.00  0.00     0.041 A 
ATOM     91  F   UNL A   1      45.839  32.753  31.497  1.00  0.00    -0.206 F 
ATOM     92  C   UNL A   1      46.328  35.948  29.870  1.00  0.00     0.022 A 
BRANCH  89  93
ATOM     93  S   UNL A   1      45.610  37.018  27.397  1.00  0.00     0.124 S 
ATOM     94  O   UNL A   1      46.359  36.367  26.326  1.00  0.00    -0.237 OA
ATOM     95  O   UNL A   1      44.185  37.214  27.149  1.00  0.00    -0.237 OA
ATOM     96  O   UNL A   1      46.288  38.148  28.029  1.00  0.00    -0.744 OA
ENDBRANCH  89  93
ENDBRANCH  63  86
ENDBRANCH  37  38
ENDBRANCH  29  32
ENDBRANCH  27  28
ENDBRANCH  26  27
ENDBRANCH   1  26
TORSDOF 18
ENDMDL
MODEL 2
REMARK VINA RESULT:     -11.8      2.043      3.493
REMARK SMILES O=C(C[N@H+]1CCC[C@@H]1C(=O)NCCCCNC(=O)c1ccc(-c2c3nc(c(-c4cc(S(=O)(=O)[O-])ccc4F)c4ccc([nH]4)c(-c4cc(S(=O)(=O)[O-])ccc4F)c4nc(c(-c5cc(S(=O)(=O)[O-])ccc5F)c5ccc2[nH]5)C=C4)C=C3)cc1)NCc1ccc(Cl)cc1
REMARK SMILES IDX 13 1 12 2 11 3 9 4 10 5 8 7 4 8 5 9 6 11 7 12 3 13 2 14 1 15
REMARK SMILES IDX 82 16 83 18 84 19 85 20 90 21 86 22 89 23 87 24 88 25 14 26
REMARK SMILES IDX 15 27 16 28 17 29 18 31 19 32 20 33 81 34 21 35 80 36 22 37
REMARK SMILES IDX 23 38 24 39 74 40 25 41 79 42 73 43 75 44 26 45 78 46 72 47
REMARK SMILES IDX 71 48 27 50 59 51 39 52 58 53 40 54 43 55 57 56 76 57 41 58
REMARK SMILES IDX 42 59 56 61 77 62 44 63 28 64 29 65 37 66 30 67 36 68 38 69
REMARK SMILES IDX 35 70 31 71 32 72 33 73 34 74 60 75 61 76 69 77 62 78 68 79
REMARK SMILES IDX 70 80 67 81 63 82 64 83 65 84 66 85 45 86 46 87 54 88 47 89
REMARK SMILES IDX 53 90 55 91 52 92 48 93 49 94 50 95 51 96
REMARK H PARENT 11 6 4 10 82 17 16 30 75 49 43 60
REMARK Flexibility Score: inf
ROOT
ATOM      1  C   UNL A   1      36.396  23.019  23.531  1.00  0.00     0.023 C 
ENDROOT
BRANCH   1   2
ATOM      2  C   UNL A   1      35.144  23.656  24.113  1.00  0.00     0.116 C 
BRANCH   2   3
ATOM      3  N   UNL A   1      34.361  24.375  23.126  1.00  0.00    -0.351 N 
ATOM      4  C   UNL A   1      33.007  24.530  23.058  1.00  0.00     0.278 C 
ATOM      5  O   UNL A   1      32.553  25.304  22.207  1.00  0.00    -0.268 OA
ATOM      6  H   UNL A   1      34.876  24.810  22.409  1.00  0.00     0.163 HD
BRANCH   4   7
ATOM      7  C   UNL A   1      32.045  23.729  23.950  1.00  0.00     0.274 C 
ATOM      8  N   UNL A   1      32.293  23.871  25.388  1.00  0.00    -0.317 N 
ATOM      9  C   UNL A   1      31.661  22.732  26.029  1.00  0.00     0.263 C 
ATOM     10  H   UNL A   1      33.299  23.845  25.560  1.00  0.00     0.349 HD
ATOM     11  C   UNL A   1      32.161  21.609  25.138  1.00  0.00     0.068 C 
ATOM     12  C   UNL A   1      32.185  22.217  23.734  1.00  0.00     0.081 C 
BRANCH   8  13
ATOM     13  C   UNL A   1      32.097  25.182  25.989  1.00  0.00     0.364 C 
BRANCH  13  14
ATOM     14  C   UNL A   1      30.639  25.593  25.719  1.00  0.00     0.275 C 
ATOM     15  O   UNL A   1      29.706  25.220  26.426  1.00  0.00    -0.268 OA
ATOM     16  N   UNL A   1      30.459  26.316  24.559  1.00  0.00    -0.347 N 
ATOM     17  H   UNL A   1      31.247  26.677  24.091  1.00  0.00     0.164 HD
BRANCH  16  18
ATOM     18  C   UNL A   1      29.143  26.558  24.017  1.00  0.00     0.151 C 
BRANCH  18  19
ATOM     19  C   UNL A   1      29.001  27.865  23.277  1.00  0.00    -0.029 A 
ATOM     20  C   UNL A   1      27.716  28.418  23.149  1.00  0.00     0.007 A 
ATOM     21  C   UNL A   1      30.091  28.563  22.737  1.00  0.00     0.007 A 
ATOM     22  C   UNL A   1      27.522  29.630  22.484  1.00  0.00     0.021 A 
ATOM     23  C   UNL A   1      29.897  29.774  22.066  1.00  0.00     0.021 A 
ATOM     24  C   UNL A   1      28.614  30.300  21.941  1.00  0.00     0.041 A 
ATOM     25  Cl  UNL A   1      28.378  31.787  21.109  1.00  0.00    -0.084 Cl
ENDBRANCH  18  19
ENDBRANCH  16  18
ENDBRANCH  13  14
ENDBRANCH   8  13
ENDBRANCH   4   7
ENDBRANCH   2   3
ENDBRANCH   1   2
BRANCH   1  26
ATOM     26  C   UNL A   1      36.714  21.628  24.065  1.00  0.00     0.023 C 
BRANCH  26  27
ATOM     27  C   UNL A   1      37.336  21.585  25.459  1.00  0.00     0.116 C 
BRANCH  27  28
ATOM     28  N   UNL A   1      38.374  20.572  25.609  1.00  0.00    -0.352 N 
ATOM     29  C   UNL A   1      39.623  20.704  26.173  1.00  0.00     0.251 C 
ATOM     30  H   UNL A   1      38.154  19.678  25.261  1.00  0.00     0.163 HD
ATOM     31  O   UNL A   1      40.431  19.782  26.139  1.00  0.00    -0.269 OA
BRANCH  29  32
ATOM     32  C   UNL A   1      39.984  22.000  26.782  1.00  0.00     0.039 A 
ATOM     33  C   UNL A   1      40.880  22.022  27.852  1.00  0.00     0.014 A 
ATOM     34  C   UNL A   1      39.519  23.191  26.215  1.00  0.00     0.014 A 
ATOM     35  C   UNL A   1      41.397  23.243  28.286  1.00  0.00     0.010 A 
ATOM     36  C   UNL A   1      40.087  24.399  26.604  1.00  0.00     0.010 A 
ATOM     37  C   UNL A   1      41.050  24.434  27.626  1.00  0.00    -0.014 A 
BRANCH  37  38
ATOM     38  C   UNL A   1      41.711  25.724  27.950  1.00  0.00     0.031 A 
ATOM     39  C   UNL A   1      40.944  26.800  28.664  1.00  0.00     0.074 A 
ATOM     40  C   UNL A   1      42.964  25.959  27.510  1.00  0.00     0.049 A 
ATOM     41  N   UNL A   1      41.289  28.039  28.909  1.00  0.00    -0.248 NA
ATOM     42  C   UNL A   1      39.600  26.441  29.139  1.00  0.00     0.031 C 
ATOM     43  C   UNL A   1      43.793  25.007  26.765  1.00  0.00     0.029 A 
ATOM     44  N   UNL A   1      43.751  27.081  27.600  1.00  0.00    -0.354 N 
ATOM     45  C   UNL A   1      40.201  28.611  29.557  1.00  0.00     0.074 A 
ATOM     46  C   UNL A   1      39.166  27.598  29.614  1.00  0.00     0.031 C 
ATOM     47  C   UNL A   1      44.970  25.584  26.470  1.00  0.00     0.029 A 
ATOM     48  C   UNL A   1      44.965  26.958  26.960  1.00  0.00     0.049 A 
ATOM     49  H   UNL A   1      43.476  27.896  28.078  1.00  0.00     0.167 HD
ATOM     50  C   UNL A   1      40.084  29.857  30.079  1.00  0.00     0.034 A 
ATOM     51  C   UNL A   1      45.948  27.860  26.763  1.00  0.00     0.034 A 
ATOM     52  C   UNL A   1      41.126  30.852  30.019  1.00  0.00     0.049 A 
ATOM     53  C   UNL A   1      45.781  29.252  27.316  1.00  0.00     0.074 A 
ATOM     54  C   UNL A   1      41.136  32.125  30.561  1.00  0.00     0.029 A 
ATOM     55  N   UNL A   1      42.343  30.689  29.368  1.00  0.00    -0.354 N 
ATOM     56  N   UNL A   1      44.764  29.762  27.970  1.00  0.00    -0.248 NA
ATOM     57  C   UNL A   1      46.895  30.188  27.107  1.00  0.00     0.031 C 
ATOM     58  C   UNL A   1      42.331  32.752  30.191  1.00  0.00     0.029 A 
ATOM     59  C   UNL A   1      43.096  31.849  29.470  1.00  0.00     0.049 A 
ATOM     60  H   UNL A   1      42.629  29.871  28.903  1.00  0.00     0.167 HD
ATOM     61  C   UNL A   1      45.123  31.074  28.265  1.00  0.00     0.074 A 
ATOM     62  C   UNL A   1      46.456  31.270  27.733  1.00  0.00     0.031 C 
ATOM     63  C   UNL A   1      44.417  32.031  28.917  1.00  0.00     0.034 A 
BRANCH  50  64
ATOM     64  C   UNL A   1      38.776  30.209  30.740  1.00  0.00     0.023 A 
ATOM     65  C   UNL A   1      37.791  30.951  30.065  1.00  0.00     0.031 A 
ATOM     66  C   UNL A   1      38.518  29.823  32.066  1.00  0.00     0.131 A 
ATOM     67  C   UNL A   1      36.628  31.348  30.740  1.00  0.00     0.055 A 
ATOM     68  C   UNL A   1      37.323  30.156  32.709  1.00  0.00     0.041 A 
ATOM     69  F   UNL A   1      39.428  29.129  32.767  1.00  0.00    -0.206 F 
ATOM     70  C   UNL A   1      36.376  30.936  32.050  1.00  0.00     0.022 A 
BRANCH  67  71
ATOM     71  S   UNL A   1      35.511  32.520  29.924  1.00  0.00     0.124 S 
ATOM     72  O   UNL A   1      34.367  32.517  30.832  1.00  0.00    -0.237 OA
ATOM     73  O   UNL A   1      36.302  33.744  29.897  1.00  0.00    -0.237 OA
ATOM     74  O   UNL A   1      35.264  31.907  28.620  1.00  0.00    -0.744 OA
ENDBRANCH  67  71
ENDBRANCH  50  64
BRANCH  51  75
ATOM     75  C   UNL A   1      47.160  27.495  25.976  1.00  0.00     0.023 A 
ATOM     76  C   UNL A   1      47.259  27.805  24.611  1.00  0.00     0.031 A 
ATOM     77  C   UNL A   1      48.219  26.785  26.570  1.00  0.00     0.131 A 
ATOM     78  C   UNL A   1      48.372  27.369  23.874  1.00  0.00     0.055 A 
ATOM     79  C   UNL A   1      49.346  26.395  25.843  1.00  0.00     0.041 A 
ATOM     80  F   UNL A   1      48.176  26.466  27.874  1.00  0.00    -0.206 F 
ATOM     81  C   UNL A   1      49.420  26.676  24.483  1.00  0.00     0.022 A 
BRANCH  78  82
ATOM     82  S   UNL A   1      48.388  27.646  22.081  1.00  0.00     0.124 S 
ATOM     83  O   UNL A   1      49.516  28.557  21.929  1.00  0.00    -0.237 OA
ATOM     84  O   UNL A   1      48.582  26.293  21.569  1.00  0.00    -0.237 OA
ATOM     85  O   UNL A   1      47.074  28.228  21.815  1.00  0.00    -0.744 OA
ENDBRANCH  78  82
ENDBRANCH  51  75
BRANCH  63  86
ATOM     86  C   UNL A   1      45.092  33.363  29.112  1.00  0.00     0.023 A 
ATOM     87  C   UNL A   1      44.918  34.417  28.198  1.00  0.00     0.031 A 
ATOM     88  C   UNL A   1      45.919  33.581  30.228  1.00  0.00     0.131 A 
ATOM     89  C   UNL A   1      45.594  35.629  28.395  1.00  0.00     0.055 A 
ATOM     90  C   UNL A   1      46.551  34.806  30.445  1.00  0.00     0.041 A 
ATOM     91  F   UNL A   1      46.120  32.606  31.130  1.00  0.00    -0.206 F 
ATOM     92  C   UNL A   1      46.398  35.835  29.520  1.00  0.00     0.022 A 
BRANCH  89  93
ATOM     93  S   UNL A   1      45.456  36.922  27.130  1.00  0.00     0.124 S 
ATOM     94  O   UNL A   1      44.053  36.816  26.740  1.00  0.00    -0.237 OA
ATOM     95  O   UNL A   1      45.822  38.126  27.868  1.00  0.00    -0.237 OA
ATOM     96  O   UNL A   1      46.415  36.507  26.108  1.00  0.00    -0.744 OA
ENDBRANCH  89  93
ENDBRANCH  63  86
ENDBRANCH  37  38
ENDBRANCH  29  32
ENDBRANCH  27  28
ENDBRANCH  26  27
ENDBRANCH   1  26
TORSDOF 18
ENDMDL
MODEL 3
REMARK VINA RESULT:     -11.8      5.724     10.595
REMARK SMILES O=C(C[N@H+]1CCC[C@@H]1C(=O)NCCCCNC(=O)c1ccc(-c2c3nc(c(-c4cc(S(=O)(=O)[O-])ccc4F)c4ccc([nH]4)c(-c4cc(S(=O)(=O)[O-])ccc4F)c4nc(c(-c5cc(S(=O)(=O)[O-])ccc5F)c5ccc2[nH]5)C=C4)C=C3)cc1)NCc1ccc(Cl)cc1
REMARK SMILES IDX 13 1 12 2 11 3 9 4 10 5 8 7 4 8 5 9 6 11 7 12 3 13 2 14 1 15
REMARK SMILES IDX 82 16 83 18 84 19 85 20 90 21 86 22 89 23 87 24 88 25 14 26
REMARK SMILES IDX 15 27 16 28 17 29 18 31 19 32 20 33 81 34 21 35 80 36 22 37
REMARK SMILES IDX 23 38 24 39 74 40 25 41 79 42 73 43 75 44 26 45 78 46 72 47
REMARK SMILES IDX 71 48 27 50 59 51 39 52 58 53 40 54 43 55 57 56 76 57 41 58
REMARK SMILES IDX 42 59 56 61 77 62 44 63 28 64 29 65 37 66 30 67 36 68 38 69
REMARK SMILES IDX 35 70 31 71 32 72 33 73 34 74 60 75 61 76 69 77 62 78 68 79
REMARK SMILES IDX 70 80 67 81 63 82 64 83 65 84 66 85 45 86 46 87 54 88 47 89
REMARK SMILES IDX 53 90 55 91 52 92 48 93 49 94 50 95 51 96
REMARK H PARENT 11 6 4 10 82 17 16 30 75 49 43 60
REMARK Flexibility Score: inf
ROOT
ATOM      1  C   UNL A   1      31.543  30.940  26.353  1.00  0.00     0.023 C 
ENDROOT
BRANCH   1   2
ATOM      2  C   UNL A   1      31.489  30.043  25.127  1.00  0.00     0.116 C 
BRANCH   2   3
ATOM      3  N   UNL A   1      32.801  29.718  24.602  1.00  0.00    -0.351 N 
ATOM      4  C   UNL A   1      33.319  28.494  24.294  1.00  0.00     0.278 C 
ATOM      5  O   UNL A   1      34.415  28.453  23.723  1.00  0.00    -0.268 OA
ATOM      6  H   UNL A   1      33.398  30.485  24.445  1.00  0.00     0.163 HD
BRANCH   4   7
ATOM      7  C   UNL A   1      32.621  27.185  24.696  1.00  0.00     0.274 C 
ATOM      8  N   UNL A   1      31.418  26.877  23.916  1.00  0.00    -0.317 N 
ATOM      9  C   UNL A   1      30.648  25.930  24.702  1.00  0.00     0.263 C 
ATOM     10  H   UNL A   1      30.876  27.731  23.783  1.00  0.00     0.349 HD
ATOM     11  C   UNL A   1      30.690  26.612  26.059  1.00  0.00     0.068 C 
ATOM     12  C   UNL A   1      32.085  27.235  26.131  1.00  0.00     0.081 C 
BRANCH   8  13
ATOM     13  C   UNL A   1      31.576  26.606  22.495  1.00  0.00     0.364 C 
BRANCH  13  14
ATOM     14  C   UNL A   1      32.807  25.697  22.338  1.00  0.00     0.275 C 
ATOM     15  O   UNL A   1      33.752  25.985  21.608  1.00  0.00    -0.268 OA
ATOM     16  N   UNL A   1      32.707  24.489  22.995  1.00  0.00    -0.347 N 
ATOM     17  H   UNL A   1      31.982  24.355  23.648  1.00  0.00     0.164 HD
BRANCH  16  18
ATOM     18  C   UNL A   1      33.643  23.417  22.749  1.00  0.00     0.151 C 
BRANCH  18  19
ATOM     19  C   UNL A   1      34.834  23.400  23.674  1.00  0.00    -0.029 A 
ATOM     20  C   UNL A   1      36.035  22.847  23.199  1.00  0.00     0.007 A 
ATOM     21  C   UNL A   1      34.806  23.931  24.972  1.00  0.00     0.007 A 
ATOM     22  C   UNL A   1      37.174  22.813  24.004  1.00  0.00     0.021 A 
ATOM     23  C   UNL A   1      35.945  23.892  25.781  1.00  0.00     0.021 A 
ATOM     24  C   UNL A   1      37.122  23.331  25.294  1.00  0.00     0.041 A 
ATOM     25  Cl  UNL A   1      38.520  23.278  26.296  1.00  0.00    -0.084 Cl
ENDBRANCH  18  19
ENDBRANCH  16  18
ENDBRANCH  13  14
ENDBRANCH   8  13
ENDBRANCH   4   7
ENDBRANCH   2   3
ENDBRANCH   1   2
BRANCH   1  26
ATOM     26  C   UNL A   1      32.730  30.690  27.277  1.00  0.00     0.023 C 
BRANCH  26  27
ATOM     27  C   UNL A   1      33.707  31.854  27.422  1.00  0.00     0.116 C 
BRANCH  27  28
ATOM     28  N   UNL A   1      33.059  33.146  27.612  1.00  0.00    -0.352 N 
ATOM     29  C   UNL A   1      33.337  34.112  28.553  1.00  0.00     0.251 C 
ATOM     30  H   UNL A   1      32.327  33.354  26.988  1.00  0.00     0.163 HD
ATOM     31  O   UNL A   1      32.637  35.114  28.654  1.00  0.00    -0.269 OA
BRANCH  29  32
ATOM     32  C   UNL A   1      34.475  33.892  29.469  1.00  0.00     0.039 A 
ATOM     33  C   UNL A   1      34.285  33.117  30.613  1.00  0.00     0.014 A 
ATOM     34  C   UNL A   1      35.746  34.364  29.128  1.00  0.00     0.014 A 
ATOM     35  C   UNL A   1      35.394  32.720  31.362  1.00  0.00     0.010 A 
ATOM     36  C   UNL A   1      36.854  33.912  29.836  1.00  0.00     0.010 A 
ATOM     37  C   UNL A   1      36.691  33.065  30.945  1.00  0.00    -0.014 A 
BRANCH  37  38
ATOM     38  C   UNL A   1      37.897  32.518  31.618  1.00  0.00     0.031 A 
ATOM     39  C   UNL A   1      38.664  31.394  30.983  1.00  0.00     0.074 A 
ATOM     40  C   UNL A   1      38.235  32.966  32.844  1.00  0.00     0.049 A 
ATOM     41  N   UNL A   1      39.649  30.685  31.472  1.00  0.00    -0.248 NA
ATOM     42  C   UNL A   1      38.246  30.998  29.630  1.00  0.00     0.031 C 
ATOM     43  C   UNL A   1      37.537  34.023  33.582  1.00  0.00     0.029 A 
ATOM     44  N   UNL A   1      39.234  32.572  33.699  1.00  0.00    -0.354 N 
ATOM     45  C   UNL A   1      39.964  29.752  30.491  1.00  0.00     0.074 A 
ATOM     46  C   UNL A   1      39.025  29.950  29.406  1.00  0.00     0.031 C 
ATOM     47  C   UNL A   1      38.132  34.193  34.775  1.00  0.00     0.029 A 
ATOM     48  C   UNL A   1      39.219  33.230  34.909  1.00  0.00     0.049 A 
ATOM     49  H   UNL A   1      39.900  31.884  33.470  1.00  0.00     0.167 HD
ATOM     50  C   UNL A   1      40.959  28.831  30.486  1.00  0.00     0.034 A 
ATOM     51  C   UNL A   1      39.976  33.057  36.012  1.00  0.00     0.034 A 
ATOM     52  C   UNL A   1      41.890  28.650  31.572  1.00  0.00     0.049 A 
ATOM     53  C   UNL A   1      41.049  32.000  35.999  1.00  0.00     0.074 A 
ATOM     54  C   UNL A   1      42.968  27.786  31.650  1.00  0.00     0.029 A 
ATOM     55  N   UNL A   1      41.848  29.339  32.778  1.00  0.00    -0.354 N 
ATOM     56  N   UNL A   1      41.365  31.157  35.044  1.00  0.00    -0.248 NA
ATOM     57  C   UNL A   1      41.871  31.873  37.211  1.00  0.00     0.031 C 
ATOM     58  C   UNL A   1      43.542  27.911  32.919  1.00  0.00     0.029 A 
ATOM     59  C   UNL A   1      42.861  28.897  33.615  1.00  0.00     0.049 A 
ATOM     60  H   UNL A   1      41.193  30.039  33.005  1.00  0.00     0.167 HD
ATOM     61  C   UNL A   1      42.432  30.410  35.535  1.00  0.00     0.074 A 
ATOM     62  C   UNL A   1      42.717  30.915  36.863  1.00  0.00     0.031 C 
ATOM     63  C   UNL A   1      43.118  29.401  34.943  1.00  0.00     0.034 A 
BRANCH  50  64
ATOM     64  C   UNL A   1      41.071  27.943  29.273  1.00  0.00     0.023 A 
ATOM     65  C   UNL A   1      42.069  28.150  28.303  1.00  0.00     0.031 A 
ATOM     66  C   UNL A   1      40.158  26.896  29.065  1.00  0.00     0.131 A 
ATOM     67  C   UNL A   1      42.085  27.373  27.137  1.00  0.00     0.055 A 
ATOM     68  C   UNL A   1      40.226  26.074  27.938  1.00  0.00     0.041 A 
ATOM     69  F   UNL A   1      39.173  26.661  29.947  1.00  0.00    -0.206 F 
ATOM     70  C   UNL A   1      41.184  26.320  26.958  1.00  0.00     0.022 A 
BRANCH  67  71
ATOM     71  S   UNL A   1      43.215  27.841  25.800  1.00  0.00     0.124 S 
ATOM     72  O   UNL A   1      43.687  29.146  26.257  1.00  0.00    -0.237 OA
ATOM     73  O   UNL A   1      44.197  26.763  25.824  1.00  0.00    -0.237 OA
ATOM     74  O   UNL A   1      42.355  27.876  24.619  1.00  0.00    -0.744 OA
ENDBRANCH  67  71
ENDBRANCH  50  64
BRANCH  51  75
ATOM     75  C   UNL A   1      39.723  33.870  37.236  1.00  0.00     0.023 A 
ATOM     76  C   UNL A   1      38.995  33.348  38.315  1.00  0.00     0.031 A 
ATOM     77  C   UNL A   1      40.168  35.202  37.321  1.00  0.00     0.131 A 
ATOM     78  C   UNL A   1      38.694  34.167  39.416  1.00  0.00     0.055 A 
ATOM     79  C   UNL A   1      39.908  35.997  38.439  1.00  0.00     0.041 A 
ATOM     80  F   UNL A   1      40.872  35.748  36.317  1.00  0.00    -0.206 F 
ATOM     81  C   UNL A   1      39.154  35.483  39.490  1.00  0.00     0.022 A 
BRANCH  78  82
ATOM     82  S   UNL A   1      37.613  33.510  40.717  1.00  0.00     0.124 S 
ATOM     83  O   UNL A   1      36.522  32.937  39.937  1.00  0.00    -0.237 OA
ATOM     84  O   UNL A   1      38.492  32.558  41.387  1.00  0.00    -0.237 OA
ATOM     85  O   UNL A   1      37.266  34.693  41.501  1.00  0.00    -0.744 OA
ENDBRANCH  78  82
ENDBRANCH  51  75
BRANCH  63  86
ATOM     86  C   UNL A   1      44.258  28.801  35.722  1.00  0.00     0.023 A 
ATOM     87  C   UNL A   1      44.067  27.696  36.571  1.00  0.00     0.031 A 
ATOM     88  C   UNL A   1      45.551  29.341  35.614  1.00  0.00     0.131 A 
ATOM     89  C   UNL A   1      45.147  27.190  37.309  1.00  0.00     0.055 A 
ATOM     90  C   UNL A   1      46.632  28.803  36.313  1.00  0.00     0.041 A 
ATOM     91  F   UNL A   1      45.786  30.397  34.818  1.00  0.00    -0.206 F 
ATOM     92  C   UNL A   1      46.430  27.727  37.175  1.00  0.00     0.022 A 
BRANCH  89  93
ATOM     93  S   UNL A   1      44.843  25.853  38.496  1.00  0.00     0.124 S 
ATOM     94  O   UNL A   1      46.193  25.546  38.958  1.00  0.00    -0.237 OA
ATOM     95  O   UNL A   1      43.966  26.490  39.472  1.00  0.00    -0.237 OA
ATOM     96  O   UNL A   1      44.214  24.811  37.686  1.00  0.00    -0.744 OA
ENDBRANCH  89  93
ENDBRANCH  63  86
ENDBRANCH  37  38
ENDBRANCH  29  32
ENDBRANCH  27  28
ENDBRANCH  26  27
ENDBRANCH   1  26
TORSDOF 18
ENDMDL
