MODEL 1
REMARK VINA RESULT:     -11.6      0.000      0.000
REMARK SMILES Cc1cc(-c2cc(C(=O)NCCCCNC(=O)c3ccc(-c4c5nc(c(-c6cc(S(=O)(=O)[O-])ccc6F)c6ccc([nH]6)c(-c6cc(S(=O)(=O)[O-])ccc6F)c6nc(c(-c7cc(S(=O)(=O)[O-])ccc7F)c7ccc4[nH]7)C=C6)C=C5)cc3)c[nH]c2=O)ccc1Cl
REMARK SMILES IDX 13 1 12 2 11 3 10 4 8 5 9 6 7 8 5 9 6 10 83 11 82 12 84 13
REMARK SMILES IDX 81 14 4 16 1 17 2 18 3 19 87 20 86 21 88 22 85 23 14 24
REMARK SMILES IDX 15 25 16 26 17 28 18 29 19 30 80 31 20 32 79 33 21 34 22 35
REMARK SMILES IDX 23 36 73 37 24 38 78 39 72 40 74 41 25 42 77 43 71 44 70 45
REMARK SMILES IDX 26 47 58 48 38 49 57 50 39 51 42 52 56 53 75 54 40 55 41 56
REMARK SMILES IDX 55 58 76 59 43 60 27 61 28 62 36 63 29 64 35 65 37 66 34 67
REMARK SMILES IDX 30 68 31 69 32 70 33 71 59 72 60 73 68 74 61 75 67 76 69 77
REMARK SMILES IDX 66 78 62 79 63 80 64 81 65 82 44 83 45 84 53 85 46 86 52 87
REMARK SMILES IDX 54 88 51 89 47 90 48 91 49 92 50 93
REMARK H PARENT 10 7 82 15 15 27 74 46 42 57
REMARK Flexibility Score: inf
ROOT
ATOM      1  C   UNL A   1      34.918  34.524  28.269  1.00  0.00     0.023 C 
ENDROOT
BRANCH   1   2
ATOM      2  C   UNL A   1      34.204  35.839  28.603  1.00  0.00     0.023 C 
BRANCH   2   3
ATOM      3  C   UNL A   1      32.868  35.652  29.328  1.00  0.00     0.116 C 
BRANCH   3   4
ATOM      4  N   UNL A   1      32.749  36.594  30.426  1.00  0.00    -0.352 N 
ATOM      5  C   UNL A   1      33.176  36.578  31.718  1.00  0.00     0.252 C 
ATOM      6  O   UNL A   1      32.869  37.549  32.413  1.00  0.00    -0.269 OA
ATOM      7  H   UNL A   1      32.259  37.413  30.187  1.00  0.00     0.163 HD
BRANCH   5   8
ATOM      8  C   UNL A   1      34.033  35.484  32.291  1.00  0.00     0.056 A 
ATOM      9  C   UNL A   1      36.173  34.390  32.759  1.00  0.00     0.048 A 
ATOM     10  C   UNL A   1      35.449  35.289  32.065  1.00  0.00     0.029 A 
ATOM     11  C   UNL A   1      35.456  33.437  33.664  1.00  0.00     0.255 A 
ATOM     12  N   UNL A   1      34.093  33.612  33.743  1.00  0.00    -0.328 N 
ATOM     13  O   UNL A   1      36.030  32.548  34.284  1.00  0.00    -0.269 OA
ATOM     14  C   UNL A   1      33.403  34.611  33.099  1.00  0.00     0.099 A 
ATOM     15  H   UNL A   1      33.579  32.981  34.297  1.00  0.00     0.169 HD
BRANCH   9  16
ATOM     16  C   UNL A   1      37.633  34.385  32.594  1.00  0.00    -0.012 A 
ATOM     17  C   UNL A   1      40.219  34.368  29.802  1.00  0.00     0.046 C 
ATOM     18  C   UNL A   1      39.620  34.407  31.179  1.00  0.00    -0.032 A 
ATOM     19  C   UNL A   1      38.223  34.327  31.327  1.00  0.00     0.014 A 
ATOM     20  C   UNL A   1      40.419  34.530  32.328  1.00  0.00     0.044 A 
ATOM     21  C   UNL A   1      39.837  34.575  33.595  1.00  0.00     0.021 A 
ATOM     22  Cl  UNL A   1      42.140  34.638  32.227  1.00  0.00    -0.084 Cl
ATOM     23  C   UNL A   1      38.451  34.503  33.729  1.00  0.00     0.010 A 
ENDBRANCH   9  16
ENDBRANCH   5   8
ENDBRANCH   3   4
ENDBRANCH   2   3
ENDBRANCH   1   2
BRANCH   1  24
ATOM     24  C   UNL A   1      34.363  33.296  28.981  1.00  0.00     0.116 C 
BRANCH  24  25
ATOM     25  N   UNL A   1      33.766  32.331  28.074  1.00  0.00    -0.352 N 
ATOM     26  C   UNL A   1      34.275  31.123  27.651  1.00  0.00     0.251 C 
ATOM     27  H   UNL A   1      32.882  32.571  27.714  1.00  0.00     0.163 HD
ATOM     28  O   UNL A   1      33.697  30.489  26.784  1.00  0.00    -0.269 OA
BRANCH  26  29
ATOM     29  C   UNL A   1      35.548  30.635  28.229  1.00  0.00     0.039 A 
ATOM     30  C   UNL A   1      35.499  29.810  29.355  1.00  0.00     0.014 A 
ATOM     31  C   UNL A   1      36.776  30.969  27.653  1.00  0.00     0.014 A 
ATOM     32  C   UNL A   1      36.683  29.281  29.872  1.00  0.00     0.010 A 
ATOM     33  C   UNL A   1      37.945  30.377  28.120  1.00  0.00     0.010 A 
ATOM     34  C   UNL A   1      37.913  29.537  29.243  1.00  0.00    -0.014 A 
BRANCH  34  35
ATOM     35  C   UNL A   1      39.177  28.962  29.772  1.00  0.00     0.031 A 
ATOM     36  C   UNL A   1      39.817  29.560  30.997  1.00  0.00     0.074 A 
ATOM     37  C   UNL A   1      39.763  27.928  29.136  1.00  0.00     0.049 A 
ATOM     38  N   UNL A   1      40.940  29.240  31.587  1.00  0.00    -0.248 NA
ATOM     39  C   UNL A   1      39.115  30.693  31.620  1.00  0.00     0.031 C 
ATOM     40  C   UNL A   1      39.263  27.295  27.914  1.00  0.00     0.029 A 
ATOM     41  N   UNL A   1      40.909  27.231  29.424  1.00  0.00    -0.354 N 
ATOM     42  C   UNL A   1      41.077  30.128  32.649  1.00  0.00     0.074 A 
ATOM     43  C   UNL A   1      39.966  31.052  32.567  1.00  0.00     0.031 C 
ATOM     44  C   UNL A   1      40.083  26.287  27.573  1.00  0.00     0.029 A 
ATOM     45  C   UNL A   1      41.188  26.227  28.525  1.00  0.00     0.049 A 
ATOM     46  H   UNL A   1      41.479  27.429  30.202  1.00  0.00     0.167 HD
ATOM     47  C   UNL A   1      42.019  30.148  33.625  1.00  0.00     0.034 A 
ATOM     48  C   UNL A   1      42.220  25.361  28.470  1.00  0.00     0.034 A 
ATOM     49  C   UNL A   1      43.118  29.217  33.693  1.00  0.00     0.049 A 
ATOM     50  C   UNL A   1      43.265  25.412  29.559  1.00  0.00     0.074 A 
ATOM     51  C   UNL A   1      44.126  29.138  34.640  1.00  0.00     0.029 A 
ATOM     52  N   UNL A   1      43.354  28.198  32.778  1.00  0.00    -0.354 N 
ATOM     53  N   UNL A   1      43.360  26.237  30.577  1.00  0.00    -0.248 NA
ATOM     54  C   UNL A   1      44.326  24.400  29.504  1.00  0.00     0.031 C 
ATOM     55  C   UNL A   1      45.000  28.111  34.266  1.00  0.00     0.029 A 
ATOM     56  C   UNL A   1      44.496  27.494  33.133  1.00  0.00     0.049 A 
ATOM     57  H   UNL A   1      42.792  28.004  31.995  1.00  0.00     0.167 HD
ATOM     58  C   UNL A   1      44.469  25.813  31.305  1.00  0.00     0.074 A 
ATOM     59  C   UNL A   1      44.993  24.650  30.620  1.00  0.00     0.031 C 
ATOM     60  C   UNL A   1      45.007  26.335  32.439  1.00  0.00     0.034 A 
BRANCH  47  61
ATOM     61  C   UNL A   1      41.893  31.220  34.683  1.00  0.00     0.023 A 
ATOM     62  C   UNL A   1      40.840  31.211  35.614  1.00  0.00     0.031 A 
ATOM     63  C   UNL A   1      42.814  32.281  34.745  1.00  0.00     0.131 A 
ATOM     64  C   UNL A   1      40.685  32.279  36.510  1.00  0.00     0.055 A 
ATOM     65  C   UNL A   1      42.705  33.295  35.699  1.00  0.00     0.041 A 
ATOM     66  F   UNL A   1      43.828  32.359  33.869  1.00  0.00    -0.206 F 
ATOM     67  C   UNL A   1      41.626  33.308  36.579  1.00  0.00     0.022 A 
BRANCH  64  68
ATOM     68  S   UNL A   1      39.154  32.381  37.477  1.00  0.00     0.124 S 
ATOM     69  O   UNL A   1      39.671  32.408  38.844  1.00  0.00    -0.237 OA
ATOM     70  O   UNL A   1      38.556  33.620  36.996  1.00  0.00    -0.237 OA
ATOM     71  O   UNL A   1      38.438  31.159  37.115  1.00  0.00    -0.744 OA
ENDBRANCH  64  68
ENDBRANCH  47  61
BRANCH  48  72
ATOM     72  C   UNL A   1      42.330  24.378  27.353  1.00  0.00     0.023 A 
ATOM     73  C   UNL A   1      41.578  23.192  27.349  1.00  0.00     0.031 A 
ATOM     74  C   UNL A   1      43.239  24.581  26.299  1.00  0.00     0.131 A 
ATOM     75  C   UNL A   1      41.794  22.227  26.352  1.00  0.00     0.055 A 
ATOM     76  C   UNL A   1      43.405  23.648  25.274  1.00  0.00     0.041 A 
ATOM     77  F   UNL A   1      43.980  25.700  26.248  1.00  0.00    -0.206 F 
ATOM     78  C   UNL A   1      42.693  22.454  25.308  1.00  0.00     0.022 A 
BRANCH  75  79
ATOM     79  S   UNL A   1      40.966  20.621  26.503  1.00  0.00     0.124 S 
ATOM     80  O   UNL A   1      41.845  19.759  25.722  1.00  0.00    -0.237 OA
ATOM     81  O   UNL A   1      40.977  20.410  27.947  1.00  0.00    -0.237 OA
ATOM     82  O   UNL A   1      39.648  20.862  25.920  1.00  0.00    -0.744 OA
ENDBRANCH  75  79
ENDBRANCH  48  72
BRANCH  60  83
ATOM     83  C   UNL A   1      46.184  25.603  33.039  1.00  0.00     0.023 A 
ATOM     84  C   UNL A   1      46.019  24.563  33.970  1.00  0.00     0.031 A 
ATOM     85  C   UNL A   1      47.496  25.981  32.697  1.00  0.00     0.131 A 
ATOM     86  C   UNL A   1      47.143  23.990  34.585  1.00  0.00     0.055 A 
ATOM     87  C   UNL A   1      48.611  25.357  33.257  1.00  0.00     0.041 A 
ATOM     88  F   UNL A   1      47.715  26.968  31.814  1.00  0.00    -0.206 F 
ATOM     89  C   UNL A   1      48.438  24.368  34.222  1.00  0.00     0.022 A 
BRANCH  86  90
ATOM     90  S   UNL A   1      46.887  22.836  35.961  1.00  0.00     0.124 S 
ATOM     91  O   UNL A   1      47.800  23.360  36.970  1.00  0.00    -0.237 OA
ATOM     92  O   UNL A   1      45.464  22.998  36.241  1.00  0.00    -0.237 OA
ATOM     93  O   UNL A   1      47.263  21.541  35.396  1.00  0.00    -0.744 OA
ENDBRANCH  86  90
ENDBRANCH  60  83
ENDBRANCH  34  35
ENDBRANCH  26  29
ENDBRANCH  24  25
ENDBRANCH   1  24
TORSDOF 15
ENDMDL
MODEL 2
REMARK VINA RESULT:     -10.7      3.890      6.483
REMARK SMILES Cc1cc(-c2cc(C(=O)NCCCCNC(=O)c3ccc(-c4c5nc(c(-c6cc(S(=O)(=O)[O-])ccc6F)c6ccc([nH]6)c(-c6cc(S(=O)(=O)[O-])ccc6F)c6nc(c(-c7cc(S(=O)(=O)[O-])ccc7F)c7ccc4[nH]7)C=C6)C=C5)cc3)c[nH]c2=O)ccc1Cl
REMARK SMILES IDX 13 1 12 2 11 3 10 4 8 5 9 6 7 8 5 9 6 10 83 11 82 12 84 13
REMARK SMILES IDX 81 14 4 16 1 17 2 18 3 19 87 20 86 21 88 22 85 23 14 24
REMARK SMILES IDX 15 25 16 26 17 28 18 29 19 30 80 31 20 32 79 33 21 34 22 35
REMARK SMILES IDX 23 36 73 37 24 38 78 39 72 40 74 41 25 42 77 43 71 44 70 45
REMARK SMILES IDX 26 47 58 48 38 49 57 50 39 51 42 52 56 53 75 54 40 55 41 56
REMARK SMILES IDX 55 58 76 59 43 60 27 61 28 62 36 63 29 64 35 65 37 66 34 67
REMARK SMILES IDX 30 68 31 69 32 70 33 71 59 72 60 73 68 74 61 75 67 76 69 77
REMARK SMILES IDX 66 78 62 79 63 80 64 81 65 82 44 83 45 84 53 85 46 86 52 87
REMARK SMILES IDX 54 88 51 89 47 90 48 91 49 92 50 93
REMARK H PARENT 10 7 82 15 15 27 74 46 42 57
REMARK Flexibility Score: inf
ROOT
ATOM      1  C   UNL A   1      33.770  28.375  25.872  1.00  0.00     0.023 C 
ENDROOT
BRANCH   1   2
ATOM      2  C   UNL A   1      33.216  29.226  24.724  1.00  0.00     0.023 C 
BRANCH   2   3
ATOM      3  C   UNL A   1      31.711  29.491  24.818  1.00  0.00     0.116 C 
BRANCH   3   4
ATOM      4  N   UNL A   1      31.012  28.854  23.717  1.00  0.00    -0.352 N 
ATOM      5  C   UNL A   1      30.695  27.560  23.438  1.00  0.00     0.252 C 
ATOM      6  O   UNL A   1      30.111  27.351  22.371  1.00  0.00    -0.269 OA
ATOM      7  H   UNL A   1      30.704  29.487  23.030  1.00  0.00     0.163 HD
BRANCH   5   8
ATOM      8  C   UNL A   1      30.967  26.422  24.381  1.00  0.00     0.056 A 
ATOM      9  C   UNL A   1      32.302  24.562  25.249  1.00  0.00     0.048 A 
ATOM     10  C   UNL A   1      32.022  25.438  24.266  1.00  0.00     0.029 A 
ATOM     11  C   UNL A   1      31.378  24.483  26.424  1.00  0.00     0.255 A 
ATOM     12  N   UNL A   1      30.331  25.376  26.411  1.00  0.00    -0.328 N 
ATOM     13  O   UNL A   1      31.524  23.672  27.332  1.00  0.00    -0.269 OA
ATOM     14  C   UNL A   1      30.139  26.328  25.437  1.00  0.00     0.099 A 
ATOM     15  H   UNL A   1      29.677  25.330  27.145  1.00  0.00     0.169 HD
BRANCH   9  16
ATOM     16  C   UNL A   1      33.502  23.723  25.123  1.00  0.00    -0.012 A 
ATOM     17  C   UNL A   1      37.218  23.868  25.935  1.00  0.00     0.046 C 
ATOM     18  C   UNL A   1      35.887  23.345  25.475  1.00  0.00    -0.032 A 
ATOM     19  C   UNL A   1      34.760  24.187  25.522  1.00  0.00     0.014 A 
ATOM     20  C   UNL A   1      35.733  22.032  25.003  1.00  0.00     0.044 A 
ATOM     21  C   UNL A   1      34.484  21.567  24.590  1.00  0.00     0.021 A 
ATOM     22  Cl  UNL A   1      37.068  20.937  24.917  1.00  0.00    -0.084 Cl
ATOM     23  C   UNL A   1      33.373  22.408  24.650  1.00  0.00     0.010 A 
ENDBRANCH   9  16
ENDBRANCH   5   8
ENDBRANCH   3   4
ENDBRANCH   2   3
ENDBRANCH   1   2
BRANCH   1  24
ATOM     24  C   UNL A   1      33.340  28.822  27.264  1.00  0.00     0.116 C 
BRANCH  24  25
ATOM     25  N   UNL A   1      33.338  30.266  27.425  1.00  0.00    -0.352 N 
ATOM     26  C   UNL A   1      34.310  31.068  27.981  1.00  0.00     0.251 C 
ATOM     27  H   UNL A   1      32.537  30.733  27.094  1.00  0.00     0.163 HD
ATOM     28  O   UNL A   1      34.094  32.256  28.153  1.00  0.00    -0.269 OA
BRANCH  26  29
ATOM     29  C   UNL A   1      35.593  30.459  28.401  1.00  0.00     0.039 A 
ATOM     30  C   UNL A   1      36.704  30.596  27.568  1.00  0.00     0.014 A 
ATOM     31  C   UNL A   1      35.703  29.781  29.618  1.00  0.00     0.014 A 
ATOM     32  C   UNL A   1      37.939  30.092  27.979  1.00  0.00     0.010 A 
ATOM     33  C   UNL A   1      36.949  29.352  30.061  1.00  0.00     0.010 A 
ATOM     34  C   UNL A   1      38.079  29.491  29.242  1.00  0.00    -0.014 A 
BRANCH  34  35
ATOM     35  C   UNL A   1      39.393  28.969  29.700  1.00  0.00     0.031 A 
ATOM     36  C   UNL A   1      40.134  29.673  30.805  1.00  0.00     0.074 A 
ATOM     37  C   UNL A   1      39.932  27.889  29.101  1.00  0.00     0.049 A 
ATOM     38  N   UNL A   1      41.311  29.410  31.315  1.00  0.00    -0.248 NA
ATOM     39  C   UNL A   1      39.478  30.851  31.393  1.00  0.00     0.031 C 
ATOM     40  C   UNL A   1      39.331  27.151  27.988  1.00  0.00     0.029 A 
ATOM     41  N   UNL A   1      41.109  27.224  29.341  1.00  0.00    -0.354 N 
ATOM     42  C   UNL A   1      41.532  30.386  32.281  1.00  0.00     0.074 A 
ATOM     43  C   UNL A   1      40.408  31.294  32.224  1.00  0.00     0.031 C 
ATOM     44  C   UNL A   1      40.129  26.122  27.660  1.00  0.00     0.029 A 
ATOM     45  C   UNL A   1      41.318  26.149  28.507  1.00  0.00     0.049 A 
ATOM     46  H   UNL A   1      41.745  27.491  30.043  1.00  0.00     0.167 HD
ATOM     47  C   UNL A   1      42.559  30.494  33.161  1.00  0.00     0.034 A 
ATOM     48  C   UNL A   1      42.352  25.287  28.431  1.00  0.00     0.034 A 
ATOM     49  C   UNL A   1      43.672  29.577  33.206  1.00  0.00     0.049 A 
ATOM     50  C   UNL A   1      43.490  25.435  29.410  1.00  0.00     0.074 A 
ATOM     51  C   UNL A   1      44.763  29.584  34.059  1.00  0.00     0.029 A 
ATOM     52  N   UNL A   1      43.837  28.485  32.362  1.00  0.00    -0.354 N 
ATOM     53  N   UNL A   1      43.667  26.344  30.342  1.00  0.00    -0.248 NA
ATOM     54  C   UNL A   1      44.555  24.428  29.344  1.00  0.00     0.031 C 
ATOM     55  C   UNL A   1      45.613  28.534  33.694  1.00  0.00     0.029 A 
ATOM     56  C   UNL A   1      45.015  27.820  32.668  1.00  0.00     0.049 A 
ATOM     57  H   UNL A   1      43.209  28.222  31.653  1.00  0.00     0.167 HD
ATOM     58  C   UNL A   1      44.844  25.989  30.999  1.00  0.00     0.074 A 
ATOM     59  C   UNL A   1      45.318  24.775  30.368  1.00  0.00     0.031 C 
ATOM     60  C   UNL A   1      45.476  26.608  32.030  1.00  0.00     0.034 A 
BRANCH  47  61
ATOM     61  C   UNL A   1      42.517  31.651  34.132  1.00  0.00     0.023 A 
ATOM     62  C   UNL A   1      41.811  31.565  35.345  1.00  0.00     0.031 A 
ATOM     63  C   UNL A   1      43.160  32.866  33.832  1.00  0.00     0.131 A 
ATOM     64  C   UNL A   1      41.695  32.692  36.172  1.00  0.00     0.055 A 
ATOM     65  C   UNL A   1      43.115  33.956  34.703  1.00  0.00     0.041 A 
ATOM     66  F   UNL A   1      43.830  33.019  32.680  1.00  0.00    -0.206 F 
ATOM     67  C   UNL A   1      42.365  33.879  35.875  1.00  0.00     0.022 A 
BRANCH  64  68
ATOM     68  S   UNL A   1      40.531  32.627  37.561  1.00  0.00     0.124 S 
ATOM     69  O   UNL A   1      41.365  32.056  38.617  1.00  0.00    -0.237 OA
ATOM     70  O   UNL A   1      40.159  34.027  37.728  1.00  0.00    -0.237 OA
ATOM     71  O   UNL A   1      39.466  31.751  37.077  1.00  0.00    -0.744 OA
ENDBRANCH  64  68
ENDBRANCH  47  61
BRANCH  48  72
ATOM     72  C   UNL A   1      42.372  24.213  27.395  1.00  0.00     0.023 A 
ATOM     73  C   UNL A   1      41.744  22.976  27.615  1.00  0.00     0.031 A 
ATOM     74  C   UNL A   1      43.075  24.386  26.189  1.00  0.00     0.131 A 
ATOM     75  C   UNL A   1      41.887  21.940  26.678  1.00  0.00     0.055 A 
ATOM     76  C   UNL A   1      43.160  23.375  25.231  1.00  0.00     0.041 A 
ATOM     77  F   UNL A   1      43.688  25.550  25.922  1.00  0.00    -0.206 F 
ATOM     78  C   UNL A   1      42.580  22.136  25.481  1.00  0.00     0.022 A 
BRANCH  75  79
ATOM     79  S   UNL A   1      41.249  20.295  27.097  1.00  0.00     0.124 S 
ATOM     80  O   UNL A   1      42.434  19.464  26.922  1.00  0.00    -0.237 OA
ATOM     81  O   UNL A   1      40.798  20.487  28.472  1.00  0.00    -0.237 OA
ATOM     82  O   UNL A   1      40.186  20.082  26.118  1.00  0.00    -0.744 OA
ENDBRANCH  75  79
ENDBRANCH  48  72
BRANCH  60  83
ATOM     83  C   UNL A   1      46.712  25.937  32.579  1.00  0.00     0.023 A 
ATOM     84  C   UNL A   1      47.975  26.098  31.982  1.00  0.00     0.031 A 
ATOM     85  C   UNL A   1      46.616  25.091  33.700  1.00  0.00     0.131 A 
ATOM     86  C   UNL A   1      49.072  25.365  32.458  1.00  0.00     0.055 A 
ATOM     87  C   UNL A   1      47.726  24.422  34.215  1.00  0.00     0.041 A 
ATOM     88  F   UNL A   1      45.436  24.898  34.311  1.00  0.00    -0.206 F 
ATOM     89  C   UNL A   1      48.960  24.542  33.582  1.00  0.00     0.022 A 
BRANCH  86  90
ATOM     90  S   UNL A   1      50.619  25.402  31.511  1.00  0.00     0.124 S 
ATOM     91  O   UNL A   1      50.220  26.124  30.308  1.00  0.00    -0.237 OA
ATOM     92  O   UNL A   1      51.518  26.113  32.414  1.00  0.00    -0.237 OA
ATOM     93  O   UNL A   1      50.932  23.988  31.311  1.00  0.00    -0.744 OA
ENDBRANCH  86  90
ENDBRANCH  60  83
ENDBRANCH  34  35
ENDBRANCH  26  29
ENDBRANCH  24  25
ENDBRANCH   1  24
TORSDOF 15
ENDMDL
MODEL 3
REMARK VINA RESULT:     -10.7      3.730      6.494
REMARK SMILES Cc1cc(-c2cc(C(=O)NCCCCNC(=O)c3ccc(-c4c5nc(c(-c6cc(S(=O)(=O)[O-])ccc6F)c6ccc([nH]6)c(-c6cc(S(=O)(=O)[O-])ccc6F)c6nc(c(-c7cc(S(=O)(=O)[O-])ccc7F)c7ccc4[nH]7)C=C6)C=C5)cc3)c[nH]c2=O)ccc1Cl
REMARK SMILES IDX 13 1 12 2 11 3 10 4 8 5 9 6 7 8 5 9 6 10 83 11 82 12 84 13
REMARK SMILES IDX 81 14 4 16 1 17 2 18 3 19 87 20 86 21 88 22 85 23 14 24
REMARK SMILES IDX 15 25 16 26 17 28 18 29 19 30 80 31 20 32 79 33 21 34 22 35
REMARK SMILES IDX 23 36 73 37 24 38 78 39 72 40 74 41 25 42 77 43 71 44 70 45
REMARK SMILES IDX 26 47 58 48 38 49 57 50 39 51 42 52 56 53 75 54 40 55 41 56
REMARK SMILES IDX 55 58 76 59 43 60 27 61 28 62 36 63 29 64 35 65 37 66 34 67
REMARK SMILES IDX 30 68 31 69 32 70 33 71 59 72 60 73 68 74 61 75 67 76 69 77
REMARK SMILES IDX 66 78 62 79 63 80 64 81 65 82 44 83 45 84 53 85 46 86 52 87
REMARK SMILES IDX 54 88 51 89 47 90 48 91 49 92 50 93
REMARK H PARENT 10 7 82 15 15 27 74 46 42 57
REMARK Flexibility Score: inf
ROOT
ATOM      1  C   UNL A   1      33.831  28.474  25.828  1.00  0.00     0.023 C 
ENDROOT
BRANCH   1   2
ATOM      2  C   UNL A   1      33.293  29.366  24.704  1.00  0.00     0.023 C 
BRANCH   2   3
ATOM      3  C   UNL A   1      33.527  28.804  23.300  1.00  0.00     0.116 C 
BRANCH   3   4
ATOM      4  N   UNL A   1      32.262  28.510  22.652  1.00  0.00    -0.352 N 
ATOM      5  C   UNL A   1      31.322  27.543  22.838  1.00  0.00     0.252 C 
ATOM      6  O   UNL A   1      30.355  27.558  22.072  1.00  0.00    -0.269 OA
ATOM      7  H   UNL A   1      32.037  29.138  21.929  1.00  0.00     0.163 HD
BRANCH   5   8
ATOM      8  C   UNL A   1      31.388  26.530  23.945  1.00  0.00     0.056 A 
ATOM      9  C   UNL A   1      32.374  24.618  25.115  1.00  0.00     0.048 A 
ATOM     10  C   UNL A   1      32.254  25.372  24.006  1.00  0.00     0.029 A 
ATOM     11  C   UNL A   1      31.449  24.878  26.263  1.00  0.00     0.255 A 
ATOM     12  N   UNL A   1      30.575  25.927  26.089  1.00  0.00    -0.328 N 
ATOM     13  O   UNL A   1      31.448  24.200  27.285  1.00  0.00    -0.269 OA
ATOM     14  C   UNL A   1      30.555  26.741  24.981  1.00  0.00     0.099 A 
ATOM     15  H   UNL A   1      29.922  26.106  26.803  1.00  0.00     0.169 HD
BRANCH   9  16
ATOM     16  C   UNL A   1      33.408  23.574  25.148  1.00  0.00    -0.012 A 
ATOM     17  C   UNL A   1      33.735  19.823  24.600  1.00  0.00     0.046 C 
ATOM     18  C   UNL A   1      34.105  21.252  24.872  1.00  0.00    -0.032 A 
ATOM     19  C   UNL A   1      33.094  22.230  24.921  1.00  0.00     0.014 A 
ATOM     20  C   UNL A   1      35.438  21.644  25.073  1.00  0.00     0.044 A 
ATOM     21  C   UNL A   1      35.757  22.981  25.315  1.00  0.00     0.021 A 
ATOM     22  Cl  UNL A   1      36.735  20.503  25.026  1.00  0.00    -0.084 Cl
ATOM     23  C   UNL A   1      34.747  23.942  25.352  1.00  0.00     0.010 A 
ENDBRANCH   9  16
ENDBRANCH   5   8
ENDBRANCH   3   4
ENDBRANCH   2   3
ENDBRANCH   1   2
BRANCH   1  24
ATOM     24  C   UNL A   1      33.371  28.862  27.229  1.00  0.00     0.116 C 
BRANCH  24  25
ATOM     25  N   UNL A   1      33.358  30.298  27.448  1.00  0.00    -0.352 N 
ATOM     26  C   UNL A   1      34.322  31.083  28.041  1.00  0.00     0.251 C 
ATOM     27  H   UNL A   1      32.555  30.773  27.133  1.00  0.00     0.163 HD
ATOM     28  O   UNL A   1      34.097  32.262  28.260  1.00  0.00    -0.269 OA
BRANCH  26  29
ATOM     29  C   UNL A   1      35.607  30.467  28.442  1.00  0.00     0.039 A 
ATOM     30  C   UNL A   1      36.740  30.712  27.664  1.00  0.00     0.014 A 
ATOM     31  C   UNL A   1      35.697  29.673  29.589  1.00  0.00     0.014 A 
ATOM     32  C   UNL A   1      37.975  30.200  28.066  1.00  0.00     0.010 A 
ATOM     33  C   UNL A   1      36.941  29.232  30.030  1.00  0.00     0.010 A 
ATOM     34  C   UNL A   1      38.091  29.479  29.267  1.00  0.00    -0.014 A 
BRANCH  34  35
ATOM     35  C   UNL A   1      39.405  28.947  29.715  1.00  0.00     0.031 A 
ATOM     36  C   UNL A   1      40.147  29.629  30.832  1.00  0.00     0.074 A 
ATOM     37  C   UNL A   1      39.941  27.875  29.098  1.00  0.00     0.049 A 
ATOM     38  N   UNL A   1      41.323  29.354  31.337  1.00  0.00    -0.248 NA
ATOM     39  C   UNL A   1      39.494  30.798  31.441  1.00  0.00     0.031 C 
ATOM     40  C   UNL A   1      39.337  27.159  27.972  1.00  0.00     0.029 A 
ATOM     41  N   UNL A   1      41.116  27.204  29.325  1.00  0.00    -0.354 N 
ATOM     42  C   UNL A   1      41.547  30.312  32.320  1.00  0.00     0.074 A 
ATOM     43  C   UNL A   1      40.425  31.224  32.280  1.00  0.00     0.031 C 
ATOM     44  C   UNL A   1      40.133  26.134  27.625  1.00  0.00     0.029 A 
ATOM     45  C   UNL A   1      41.322  26.143  28.472  1.00  0.00     0.049 A 
ATOM     46  H   UNL A   1      41.752  27.457  30.032  1.00  0.00     0.167 HD
ATOM     47  C   UNL A   1      42.574  30.402  33.202  1.00  0.00     0.034 A 
ATOM     48  C   UNL A   1      42.354  25.280  28.381  1.00  0.00     0.034 A 
ATOM     49  C   UNL A   1      43.685  29.482  33.231  1.00  0.00     0.049 A 
ATOM     50  C   UNL A   1      43.493  25.408  29.363  1.00  0.00     0.074 A 
ATOM     51  C   UNL A   1      44.776  29.471  34.084  1.00  0.00     0.029 A 
ATOM     52  N   UNL A   1      43.847  28.405  32.368  1.00  0.00    -0.354 N 
ATOM     53  N   UNL A   1      43.672  26.300  30.311  1.00  0.00    -0.248 NA
ATOM     54  C   UNL A   1      44.555  24.399  29.278  1.00  0.00     0.031 C 
ATOM     55  C   UNL A   1      45.624  28.426  33.700  1.00  0.00     0.029 A 
ATOM     56  C   UNL A   1      45.024  27.731  32.662  1.00  0.00     0.049 A 
ATOM     57  H   UNL A   1      43.218  28.156  31.654  1.00  0.00     0.167 HD
ATOM     58  C   UNL A   1      44.848  25.931  30.961  1.00  0.00     0.074 A 
ATOM     59  C   UNL A   1      45.319  24.727  30.309  1.00  0.00     0.031 C 
ATOM     60  C   UNL A   1      45.481  26.530  32.003  1.00  0.00     0.034 A 
BRANCH  47  61
ATOM     61  C   UNL A   1      42.536  31.542  34.193  1.00  0.00     0.023 A 
ATOM     62  C   UNL A   1      41.691  31.508  35.317  1.00  0.00     0.031 A 
ATOM     63  C   UNL A   1      43.324  32.691  34.001  1.00  0.00     0.131 A 
ATOM     64  C   UNL A   1      41.592  32.628  36.156  1.00  0.00     0.055 A 
ATOM     65  C   UNL A   1      43.287  33.766  34.890  1.00  0.00     0.041 A 
ATOM     66  F   UNL A   1      44.133  32.795  32.935  1.00  0.00    -0.206 F 
ATOM     67  C   UNL A   1      42.405  33.746  35.968  1.00  0.00     0.022 A 
BRANCH  64  68
ATOM     68  S   UNL A   1      40.276  32.658  37.404  1.00  0.00     0.124 S 
ATOM     69  O   UNL A   1      39.727  34.000  37.219  1.00  0.00    -0.237 OA
ATOM     70  O   UNL A   1      39.419  31.554  36.989  1.00  0.00    -0.237 OA
ATOM     71  O   UNL A   1      40.992  32.455  38.662  1.00  0.00    -0.744 OA
ENDBRANCH  64  68
ENDBRANCH  47  61
BRANCH  48  72
ATOM     72  C   UNL A   1      42.371  24.224  27.326  1.00  0.00     0.023 A 
ATOM     73  C   UNL A   1      41.728  22.990  27.519  1.00  0.00     0.031 A 
ATOM     74  C   UNL A   1      43.087  24.410  26.130  1.00  0.00     0.131 A 
ATOM     75  C   UNL A   1      41.867  21.970  26.565  1.00  0.00     0.055 A 
ATOM     76  C   UNL A   1      43.169  23.416  25.155  1.00  0.00     0.041 A 
ATOM     77  F   UNL A   1      43.715  25.572  25.889  1.00  0.00    -0.206 F 
ATOM     78  C   UNL A   1      42.572  22.180  25.378  1.00  0.00     0.022 A 
BRANCH  75  79
ATOM     79  S   UNL A   1      41.207  20.325  26.949  1.00  0.00     0.124 S 
ATOM     80  O   UNL A   1      42.345  19.468  26.635  1.00  0.00    -0.237 OA
ATOM     81  O   UNL A   1      40.875  20.456  28.364  1.00  0.00    -0.237 OA
ATOM     82  O   UNL A   1      40.062  20.199  26.050  1.00  0.00    -0.744 OA
ENDBRANCH  75  79
ENDBRANCH  48  72
BRANCH  60  83
ATOM     83  C   UNL A   1      46.716  25.846  32.539  1.00  0.00     0.023 A 
ATOM     84  C   UNL A   1      46.652  24.898  33.575  1.00  0.00     0.031 A 
ATOM     85  C   UNL A   1      47.984  26.176  32.025  1.00  0.00     0.131 A 
ATOM     86  C   UNL A   1      47.835  24.374  34.118  1.00  0.00     0.055 A 
ATOM     87  C   UNL A   1      49.153  25.596  32.519  1.00  0.00     0.041 A 
ATOM     88  F   UNL A   1      48.107  27.076  31.036  1.00  0.00    -0.206 F 
ATOM     89  C   UNL A   1      49.084  24.703  33.585  1.00  0.00     0.022 A 
BRANCH  86  90
ATOM     90  S   UNL A   1      47.728  23.355  35.615  1.00  0.00     0.124 S 
ATOM     91  O   UNL A   1      48.500  24.140  36.572  1.00  0.00    -0.237 OA
ATOM     92  O   UNL A   1      46.289  23.298  35.849  1.00  0.00    -0.237 OA
ATOM     93  O   UNL A   1      48.341  22.090  35.213  1.00  0.00    -0.744 OA
ENDBRANCH  86  90
ENDBRANCH  60  83
ENDBRANCH  34  35
ENDBRANCH  26  29
ENDBRANCH  24  25
ENDBRANCH   1  24
TORSDOF 15
ENDMDL
