MODEL 1
REMARK VINA RESULT:     -12.3      0.000      0.000
REMARK SMILES Cc1ccc(S(=O)(=O)/C=C/C(=O)NCCCCNC(=O)c2ccc(-c3c4nc(c(-c5cc(S(=O)(=O)[O-])ccc5F)c5ccc([nH]5)c(-c5cc(S(=O)(=O)[O-])ccc5F)c5nc(c(-c6cc(S(=O)(=O)[O-])ccc6F)c6ccc3[nH]6)C=C5)C=C4)cc2)cc1
REMARK SMILES IDX 16 1 15 2 14 3 13 4 11 5 12 6 10 8 9 9 6 10 7 11 8 12 5 13
REMARK SMILES IDX 1 14 2 15 3 16 85 17 4 18 84 19 17 20 18 21 19 22 20 24
REMARK SMILES IDX 21 25 22 26 83 27 23 28 82 29 24 30 25 31 26 32 76 33 27 34
REMARK SMILES IDX 81 35 75 36 77 37 28 38 80 39 74 40 73 41 29 43 61 44 41 45
REMARK SMILES IDX 60 46 42 47 45 48 59 49 78 50 43 51 44 52 58 54 79 55 46 56
REMARK SMILES IDX 30 57 31 58 39 59 32 60 38 61 40 62 37 63 33 64 34 65 35 66
REMARK SMILES IDX 36 67 62 68 63 69 71 70 64 71 70 72 72 73 69 74 65 75 66 76
REMARK SMILES IDX 67 77 68 78 47 79 48 80 56 81 49 82 55 83 57 84 54 85 50 86
REMARK SMILES IDX 51 87 52 88 53 89
REMARK H PARENT 13 7 18 23 77 42 45 53
REMARK Flexibility Score: inf
ROOT
ATOM      1  C   UNL A   1      33.436  30.675  26.743  1.00  0.00     0.023 C 
ENDROOT
BRANCH   1   2
ATOM      2  C   UNL A   1      32.042  30.068  26.557  1.00  0.00     0.023 C 
BRANCH   2   3
ATOM      3  C   UNL A   1      31.840  29.285  25.252  1.00  0.00     0.116 C 
BRANCH   3   4
ATOM      4  N   UNL A   1      32.920  29.530  24.297  1.00  0.00    -0.353 N 
ATOM      5  C   UNL A   1      33.665  28.629  23.602  1.00  0.00     0.244 C 
ATOM      6  O   UNL A   1      34.499  28.984  22.776  1.00  0.00    -0.270 OA
ATOM      7  H   UNL A   1      33.138  30.476  24.135  1.00  0.00     0.163 HD
BRANCH   5   8
ATOM      8  C   UNL A   1      33.458  27.195  23.851  1.00  0.00     0.083 C 
ATOM      9  C   UNL A   1      33.764  26.321  22.886  1.00  0.00     0.117 C 
BRANCH   9  10
ATOM     10  S   UNL A   1      33.450  24.642  23.115  1.00  0.00     0.200 S 
ATOM     11  O   UNL A   1      33.316  23.982  21.824  1.00  0.00    -0.219 OA
ATOM     12  O   UNL A   1      32.439  24.505  24.137  1.00  0.00    -0.219 OA
BRANCH  10  13
ATOM     13  C   UNL A   1      34.925  23.939  23.834  1.00  0.00     0.071 A 
ATOM     14  C   UNL A   1      38.331  22.277  25.858  1.00  0.00     0.044 C 
ATOM     15  C   UNL A   1      37.151  22.861  25.143  1.00  0.00    -0.051 A 
ATOM     16  C   UNL A   1      36.339  23.799  25.792  1.00  0.00     0.005 A 
ATOM     17  C   UNL A   1      36.853  22.492  23.824  1.00  0.00     0.005 A 
ATOM     18  C   UNL A   1      35.227  24.333  25.143  1.00  0.00     0.021 A 
ATOM     19  C   UNL A   1      35.745  23.030  23.164  1.00  0.00     0.021 A 
ENDBRANCH  10  13
ENDBRANCH   9  10
ENDBRANCH   5   8
ENDBRANCH   3   4
ENDBRANCH   2   3
ENDBRANCH   1   2
BRANCH   1  20
ATOM     20  C   UNL A   1      34.177  30.171  27.974  1.00  0.00     0.116 C 
BRANCH  20  21
ATOM     21  N   UNL A   1      34.902  31.177  28.735  1.00  0.00    -0.352 N 
ATOM     22  C   UNL A   1      36.123  31.054  29.378  1.00  0.00     0.251 C 
ATOM     23  H   UNL A   1      34.469  32.059  28.801  1.00  0.00     0.163 HD
ATOM     24  O   UNL A   1      36.549  31.940  30.113  1.00  0.00    -0.269 OA
BRANCH  22  25
ATOM     25  C   UNL A   1      36.983  29.883  29.066  1.00  0.00     0.039 A 
ATOM     26  C   UNL A   1      37.236  28.978  30.103  1.00  0.00     0.014 A 
ATOM     27  C   UNL A   1      37.717  29.815  27.885  1.00  0.00     0.014 A 
ATOM     28  C   UNL A   1      38.377  28.179  30.055  1.00  0.00     0.010 A 
ATOM     29  C   UNL A   1      38.901  29.101  27.878  1.00  0.00     0.010 A 
ATOM     30  C   UNL A   1      39.264  28.333  28.989  1.00  0.00    -0.014 A 
BRANCH  30  31
ATOM     31  C   UNL A   1      40.636  27.832  29.011  1.00  0.00     0.031 A 
ATOM     32  C   UNL A   1      40.951  26.468  28.543  1.00  0.00     0.074 A 
ATOM     33  C   UNL A   1      41.642  28.634  29.424  1.00  0.00     0.049 A 
ATOM     34  N   UNL A   1      41.999  25.802  28.894  1.00  0.00    -0.248 NA
ATOM     35  C   UNL A   1      40.068  25.724  27.654  1.00  0.00     0.031 C 
ATOM     36  C   UNL A   1      43.078  28.398  29.306  1.00  0.00     0.029 A 
ATOM     37  N   UNL A   1      41.540  29.715  30.297  1.00  0.00    -0.354 N 
ATOM     38  C   UNL A   1      42.069  24.678  28.106  1.00  0.00     0.074 A 
ATOM     39  C   UNL A   1      40.820  24.653  27.379  1.00  0.00     0.031 C 
ATOM     40  C   UNL A   1      43.708  29.086  30.270  1.00  0.00     0.029 A 
ATOM     41  C   UNL A   1      42.691  29.684  31.113  1.00  0.00     0.049 A 
ATOM     42  H   UNL A   1      40.808  30.371  30.338  1.00  0.00     0.167 HD
ATOM     43  C   UNL A   1      43.220  23.949  28.070  1.00  0.00     0.034 A 
ATOM     44  C   UNL A   1      42.576  29.536  32.466  1.00  0.00     0.034 A 
ATOM     45  C   UNL A   1      44.225  24.459  29.001  1.00  0.00     0.049 A 
ATOM     46  C   UNL A   1      43.231  28.278  33.005  1.00  0.00     0.074 A 
ATOM     47  C   UNL A   1      45.345  25.265  28.876  1.00  0.00     0.029 A 
ATOM     48  N   UNL A   1      43.984  24.349  30.357  1.00  0.00    -0.354 N 
ATOM     49  N   UNL A   1      43.820  27.375  32.266  1.00  0.00    -0.248 NA
ATOM     50  C   UNL A   1      43.193  27.896  34.418  1.00  0.00     0.031 C 
ATOM     51  C   UNL A   1      45.743  25.673  30.185  1.00  0.00     0.029 A 
ATOM     52  C   UNL A   1      44.880  25.095  31.098  1.00  0.00     0.049 A 
ATOM     53  H   UNL A   1      43.261  23.806  30.746  1.00  0.00     0.167 HD
ATOM     54  C   UNL A   1      44.162  26.301  33.045  1.00  0.00     0.074 A 
ATOM     55  C   UNL A   1      43.753  26.676  34.388  1.00  0.00     0.031 C 
ATOM     56  C   UNL A   1      44.708  25.158  32.540  1.00  0.00     0.034 A 
BRANCH  43  57
ATOM     57  C   UNL A   1      43.519  22.905  27.023  1.00  0.00     0.023 A 
ATOM     58  C   UNL A   1      42.863  21.659  27.089  1.00  0.00     0.031 A 
ATOM     59  C   UNL A   1      44.438  23.052  25.967  1.00  0.00     0.131 A 
ATOM     60  C   UNL A   1      43.197  20.608  26.218  1.00  0.00     0.055 A 
ATOM     61  C   UNL A   1      44.824  21.986  25.144  1.00  0.00     0.041 A 
ATOM     62  F   UNL A   1      44.961  24.244  25.652  1.00  0.00    -0.206 F 
ATOM     63  C   UNL A   1      44.211  20.749  25.275  1.00  0.00     0.022 A 
BRANCH  60  64
ATOM     64  S   UNL A   1      42.272  19.052  26.321  1.00  0.00     0.124 S 
ATOM     65  O   UNL A   1      40.960  19.435  25.810  1.00  0.00    -0.237 OA
ATOM     66  O   UNL A   1      43.063  18.167  25.474  1.00  0.00    -0.237 OA
ATOM     67  O   UNL A   1      42.307  18.732  27.748  1.00  0.00    -0.744 OA
ENDBRANCH  60  64
ENDBRANCH  43  57
BRANCH  44  68
ATOM     68  C   UNL A   1      41.344  30.189  33.007  1.00  0.00     0.023 A 
ATOM     69  C   UNL A   1      41.349  31.602  33.052  1.00  0.00     0.031 A 
ATOM     70  C   UNL A   1      40.105  29.539  33.064  1.00  0.00     0.131 A 
ATOM     71  C   UNL A   1      40.150  32.313  32.916  1.00  0.00     0.055 A 
ATOM     72  C   UNL A   1      38.905  30.261  33.050  1.00  0.00     0.041 A 
ATOM     73  F   UNL A   1      40.024  28.202  32.993  1.00  0.00    -0.206 F 
ATOM     74  C   UNL A   1      38.924  31.651  32.919  1.00  0.00     0.022 A 
BRANCH  71  75
ATOM     75  S   UNL A   1      40.247  34.047  32.378  1.00  0.00     0.124 S 
ATOM     76  O   UNL A   1      40.646  33.916  30.982  1.00  0.00    -0.237 OA
ATOM     77  O   UNL A   1      38.887  34.530  32.615  1.00  0.00    -0.237 OA
ATOM     78  O   UNL A   1      41.245  34.635  33.268  1.00  0.00    -0.744 OA
ENDBRANCH  71  75
ENDBRANCH  44  68
BRANCH  56  79
ATOM     79  C   UNL A   1      45.097  23.992  33.407  1.00  0.00     0.023 A 
ATOM     80  C   UNL A   1      46.414  23.828  33.866  1.00  0.00     0.031 A 
ATOM     81  C   UNL A   1      44.180  22.975  33.746  1.00  0.00     0.131 A 
ATOM     82  C   UNL A   1      46.756  22.740  34.685  1.00  0.00     0.055 A 
ATOM     83  C   UNL A   1      44.546  21.848  34.485  1.00  0.00     0.041 A 
ATOM     84  F   UNL A   1      42.883  23.058  33.414  1.00  0.00    -0.206 F 
ATOM     85  C   UNL A   1      45.838  21.731  34.973  1.00  0.00     0.022 A 
BRANCH  82  86
ATOM     86  S   UNL A   1      48.398  22.720  35.450  1.00  0.00     0.124 S 
ATOM     87  O   UNL A   1      49.274  22.433  34.320  1.00  0.00    -0.237 OA
ATOM     88  O   UNL A   1      48.485  24.072  35.995  1.00  0.00    -0.237 OA
ATOM     89  O   UNL A   1      48.300  21.657  36.448  1.00  0.00    -0.744 OA
ENDBRANCH  82  86
ENDBRANCH  56  79
ENDBRANCH  30  31
ENDBRANCH  22  25
ENDBRANCH  20  21
ENDBRANCH   1  20
TORSDOF 16
ENDMDL
MODEL 2
REMARK VINA RESULT:     -12.0      4.224     10.720
REMARK SMILES Cc1ccc(S(=O)(=O)/C=C/C(=O)NCCCCNC(=O)c2ccc(-c3c4nc(c(-c5cc(S(=O)(=O)[O-])ccc5F)c5ccc([nH]5)c(-c5cc(S(=O)(=O)[O-])ccc5F)c5nc(c(-c6cc(S(=O)(=O)[O-])ccc6F)c6ccc3[nH]6)C=C5)C=C4)cc2)cc1
REMARK SMILES IDX 16 1 15 2 14 3 13 4 11 5 12 6 10 8 9 9 6 10 7 11 8 12 5 13
REMARK SMILES IDX 1 14 2 15 3 16 85 17 4 18 84 19 17 20 18 21 19 22 20 24
REMARK SMILES IDX 21 25 22 26 83 27 23 28 82 29 24 30 25 31 26 32 76 33 27 34
REMARK SMILES IDX 81 35 75 36 77 37 28 38 80 39 74 40 73 41 29 43 61 44 41 45
REMARK SMILES IDX 60 46 42 47 45 48 59 49 78 50 43 51 44 52 58 54 79 55 46 56
REMARK SMILES IDX 30 57 31 58 39 59 32 60 38 61 40 62 37 63 33 64 34 65 35 66
REMARK SMILES IDX 36 67 62 68 63 69 71 70 64 71 70 72 72 73 69 74 65 75 66 76
REMARK SMILES IDX 67 77 68 78 47 79 48 80 56 81 49 82 55 83 57 84 54 85 50 86
REMARK SMILES IDX 51 87 52 88 53 89
REMARK H PARENT 13 7 18 23 77 42 45 53
REMARK Flexibility Score: inf
ROOT
ATOM      1  C   UNL A   1      37.894  21.554  25.734  1.00  0.00     0.023 C 
ENDROOT
BRANCH   1   2
ATOM      2  C   UNL A   1      37.071  21.466  24.445  1.00  0.00     0.023 C 
BRANCH   2   3
ATOM      3  C   UNL A   1      35.551  21.390  24.645  1.00  0.00     0.116 C 
BRANCH   3   4
ATOM      4  N   UNL A   1      35.192  21.289  26.059  1.00  0.00    -0.353 N 
ATOM      5  C   UNL A   1      34.225  21.957  26.743  1.00  0.00     0.244 C 
ATOM      6  O   UNL A   1      33.989  21.717  27.923  1.00  0.00    -0.270 OA
ATOM      7  H   UNL A   1      35.723  20.650  26.588  1.00  0.00     0.163 HD
BRANCH   5   8
ATOM      8  C   UNL A   1      33.446  22.988  26.044  1.00  0.00     0.083 C 
ATOM      9  C   UNL A   1      32.534  23.687  26.731  1.00  0.00     0.117 C 
BRANCH   9  10
ATOM     10  S   UNL A   1      31.545  24.840  25.921  1.00  0.00     0.200 S 
ATOM     11  O   UNL A   1      30.223  24.876  26.530  1.00  0.00    -0.219 OA
ATOM     12  O   UNL A   1      31.711  24.660  24.497  1.00  0.00    -0.219 OA
BRANCH  10  13
ATOM     13  C   UNL A   1      32.246  26.447  26.263  1.00  0.00     0.071 A 
ATOM     14  C   UNL A   1      33.761  30.313  27.363  1.00  0.00     0.044 C 
ATOM     15  C   UNL A   1      33.235  28.967  26.968  1.00  0.00    -0.051 A 
ATOM     16  C   UNL A   1      31.954  28.574  27.375  1.00  0.00     0.005 A 
ATOM     17  C   UNL A   1      34.002  28.097  26.180  1.00  0.00     0.005 A 
ATOM     18  C   UNL A   1      31.462  27.317  27.029  1.00  0.00     0.021 A 
ATOM     19  C   UNL A   1      33.512  26.839  25.823  1.00  0.00     0.021 A 
ENDBRANCH  10  13
ENDBRANCH   9  10
ENDBRANCH   5   8
ENDBRANCH   3   4
ENDBRANCH   2   3
ENDBRANCH   1   2
BRANCH   1  20
ATOM     20  C   UNL A   1      38.513  22.922  25.987  1.00  0.00     0.116 C 
BRANCH  20  21
ATOM     21  N   UNL A   1      39.948  22.935  26.228  1.00  0.00    -0.352 N 
ATOM     22  C   UNL A   1      40.759  24.017  26.528  1.00  0.00     0.251 C 
ATOM     23  H   UNL A   1      40.401  22.062  26.169  1.00  0.00     0.163 HD
ATOM     24  O   UNL A   1      41.982  23.909  26.558  1.00  0.00    -0.269 OA
BRANCH  22  25
ATOM     25  C   UNL A   1      40.125  25.294  26.948  1.00  0.00     0.039 A 
ATOM     26  C   UNL A   1      40.553  26.463  26.307  1.00  0.00     0.014 A 
ATOM     27  C   UNL A   1      39.338  25.373  28.093  1.00  0.00     0.014 A 
ATOM     28  C   UNL A   1      40.404  27.692  26.948  1.00  0.00     0.010 A 
ATOM     29  C   UNL A   1      39.279  26.573  28.778  1.00  0.00     0.010 A 
ATOM     30  C   UNL A   1      39.868  27.720  28.236  1.00  0.00    -0.014 A 
BRANCH  30  31
ATOM     31  C   UNL A   1      39.996  28.868  29.131  1.00  0.00     0.031 A 
ATOM     32  C   UNL A   1      38.947  29.906  29.184  1.00  0.00     0.074 A 
ATOM     33  C   UNL A   1      41.062  28.968  29.955  1.00  0.00     0.049 A 
ATOM     34  N   UNL A   1      39.139  31.113  29.596  1.00  0.00    -0.248 NA
ATOM     35  C   UNL A   1      37.584  29.663  28.729  1.00  0.00     0.031 C 
ATOM     36  C   UNL A   1      41.251  29.903  31.060  1.00  0.00     0.029 A 
ATOM     37  N   UNL A   1      42.321  28.404  29.759  1.00  0.00    -0.354 N 
ATOM     38  C   UNL A   1      37.912  31.722  29.707  1.00  0.00     0.074 A 
ATOM     39  C   UNL A   1      36.979  30.791  29.115  1.00  0.00     0.031 C 
ATOM     40  C   UNL A   1      42.567  30.073  31.259  1.00  0.00     0.029 A 
ATOM     41  C   UNL A   1      43.262  29.353  30.209  1.00  0.00     0.049 A 
ATOM     42  H   UNL A   1      42.515  27.517  29.380  1.00  0.00     0.167 HD
ATOM     43  C   UNL A   1      37.800  32.899  30.387  1.00  0.00     0.034 A 
ATOM     44  C   UNL A   1      44.183  29.877  29.347  1.00  0.00     0.034 A 
ATOM     45  C   UNL A   1      39.098  33.400  30.838  1.00  0.00     0.049 A 
ATOM     46  C   UNL A   1      44.068  31.378  29.160  1.00  0.00     0.074 A 
ATOM     47  C   UNL A   1      39.786  33.371  32.039  1.00  0.00     0.029 A 
ATOM     48  N   UNL A   1      40.007  33.825  29.887  1.00  0.00    -0.354 N 
ATOM     49  N   UNL A   1      43.154  32.125  29.721  1.00  0.00    -0.248 NA
ATOM     50  C   UNL A   1      44.923  32.141  28.250  1.00  0.00     0.031 C 
ATOM     51  C   UNL A   1      41.140  33.745  31.780  1.00  0.00     0.029 A 
ATOM     52  C   UNL A   1      41.260  34.022  30.431  1.00  0.00     0.049 A 
ATOM     53  H   UNL A   1      39.786  33.969  28.939  1.00  0.00     0.167 HD
ATOM     54  C   UNL A   1      43.238  33.398  29.221  1.00  0.00     0.074 A 
ATOM     55  C   UNL A   1      44.365  33.361  28.305  1.00  0.00     0.031 C 
ATOM     56  C   UNL A   1      42.354  34.386  29.546  1.00  0.00     0.034 A 
BRANCH  43  57
ATOM     57  C   UNL A   1      36.486  33.483  30.840  1.00  0.00     0.023 A 
ATOM     58  C   UNL A   1      35.655  34.118  29.896  1.00  0.00     0.031 A 
ATOM     59  C   UNL A   1      36.007  33.476  32.164  1.00  0.00     0.131 A 
ATOM     60  C   UNL A   1      34.483  34.791  30.286  1.00  0.00     0.055 A 
ATOM     61  C   UNL A   1      34.880  34.205  32.566  1.00  0.00     0.041 A 
ATOM     62  F   UNL A   1      36.577  32.722  33.114  1.00  0.00    -0.206 F 
ATOM     63  C   UNL A   1      34.116  34.879  31.626  1.00  0.00     0.022 A 
BRANCH  60  64
ATOM     64  S   UNL A   1      33.431  35.535  29.011  1.00  0.00     0.124 S 
ATOM     65  O   UNL A   1      32.672  36.523  29.771  1.00  0.00    -0.237 OA
ATOM     66  O   UNL A   1      34.413  36.058  28.069  1.00  0.00    -0.237 OA
ATOM     67  O   UNL A   1      32.646  34.404  28.518  1.00  0.00    -0.744 OA
ENDBRANCH  60  64
ENDBRANCH  43  57
BRANCH  44  68
ATOM     68  C   UNL A   1      44.616  28.890  28.309  1.00  0.00     0.023 A 
ATOM     69  C   UNL A   1      45.420  27.817  28.757  1.00  0.00     0.031 A 
ATOM     70  C   UNL A   1      43.956  28.743  27.083  1.00  0.00     0.131 A 
ATOM     71  C   UNL A   1      45.358  26.576  28.112  1.00  0.00     0.055 A 
ATOM     72  C   UNL A   1      43.997  27.533  26.377  1.00  0.00     0.041 A 
ATOM     73  F   UNL A   1      43.152  29.708  26.612  1.00  0.00    -0.206 F 
ATOM     74  C   UNL A   1      44.653  26.426  26.919  1.00  0.00     0.022 A 
BRANCH  71  75
ATOM     75  S   UNL A   1      45.901  25.108  29.038  1.00  0.00     0.124 S 
ATOM     76  O   UNL A   1      47.345  25.297  29.098  1.00  0.00    -0.237 OA
ATOM     77  O   UNL A   1      45.181  25.245  30.303  1.00  0.00    -0.237 OA
ATOM     78  O   UNL A   1      45.444  23.989  28.217  1.00  0.00    -0.744 OA
ENDBRANCH  71  75
ENDBRANCH  44  68
BRANCH  56  79
ATOM     79  C   UNL A   1      42.466  35.785  29.005  1.00  0.00     0.023 A 
ATOM     80  C   UNL A   1      43.184  36.779  29.690  1.00  0.00     0.031 A 
ATOM     81  C   UNL A   1      41.805  36.185  27.825  1.00  0.00     0.131 A 
ATOM     82  C   UNL A   1      43.288  38.077  29.163  1.00  0.00     0.055 A 
ATOM     83  C   UNL A   1      41.836  37.499  27.353  1.00  0.00     0.041 A 
ATOM     84  F   UNL A   1      41.141  35.306  27.058  1.00  0.00    -0.206 F 
ATOM     85  C   UNL A   1      42.594  38.453  28.015  1.00  0.00     0.022 A 
BRANCH  82  86
ATOM     86  S   UNL A   1      44.430  39.238  29.956  1.00  0.00     0.124 S 
ATOM     87  O   UNL A   1      44.519  40.317  28.979  1.00  0.00    -0.237 OA
ATOM     88  O   UNL A   1      43.717  39.556  31.191  1.00  0.00    -0.237 OA
ATOM     89  O   UNL A   1      45.651  38.454  30.133  1.00  0.00    -0.744 OA
ENDBRANCH  82  86
ENDBRANCH  56  79
ENDBRANCH  30  31
ENDBRANCH  22  25
ENDBRANCH  20  21
ENDBRANCH   1  20
TORSDOF 16
ENDMDL
MODEL 3
REMARK VINA RESULT:     -11.7      1.704      2.151
REMARK SMILES Cc1ccc(S(=O)(=O)/C=C/C(=O)NCCCCNC(=O)c2ccc(-c3c4nc(c(-c5cc(S(=O)(=O)[O-])ccc5F)c5ccc([nH]5)c(-c5cc(S(=O)(=O)[O-])ccc5F)c5nc(c(-c6cc(S(=O)(=O)[O-])ccc6F)c6ccc3[nH]6)C=C5)C=C4)cc2)cc1
REMARK SMILES IDX 16 1 15 2 14 3 13 4 11 5 12 6 10 8 9 9 6 10 7 11 8 12 5 13
REMARK SMILES IDX 1 14 2 15 3 16 85 17 4 18 84 19 17 20 18 21 19 22 20 24
REMARK SMILES IDX 21 25 22 26 83 27 23 28 82 29 24 30 25 31 26 32 76 33 27 34
REMARK SMILES IDX 81 35 75 36 77 37 28 38 80 39 74 40 73 41 29 43 61 44 41 45
REMARK SMILES IDX 60 46 42 47 45 48 59 49 78 50 43 51 44 52 58 54 79 55 46 56
REMARK SMILES IDX 30 57 31 58 39 59 32 60 38 61 40 62 37 63 33 64 34 65 35 66
REMARK SMILES IDX 36 67 62 68 63 69 71 70 64 71 70 72 72 73 69 74 65 75 66 76
REMARK SMILES IDX 67 77 68 78 47 79 48 80 56 81 49 82 55 83 57 84 54 85 50 86
REMARK SMILES IDX 51 87 52 88 53 89
REMARK H PARENT 13 7 18 23 77 42 45 53
REMARK Flexibility Score: inf
ROOT
ATOM      1  C   UNL A   1      32.537  30.663  27.001  1.00  0.00     0.023 C 
ENDROOT
BRANCH   1   2
ATOM      2  C   UNL A   1      31.812  29.508  26.303  1.00  0.00     0.023 C 
BRANCH   2   3
ATOM      3  C   UNL A   1      32.571  28.173  26.294  1.00  0.00     0.116 C 
BRANCH   3   4
ATOM      4  N   UNL A   1      31.734  27.067  26.756  1.00  0.00    -0.353 N 
ATOM      5  C   UNL A   1      31.731  25.771  26.345  1.00  0.00     0.244 C 
ATOM      6  O   UNL A   1      31.014  24.929  26.876  1.00  0.00    -0.270 OA
ATOM      7  H   UNL A   1      31.085  27.291  27.462  1.00  0.00     0.163 HD
BRANCH   5   8
ATOM      8  C   UNL A   1      32.612  25.376  25.237  1.00  0.00     0.083 C 
ATOM      9  C   UNL A   1      32.606  24.101  24.829  1.00  0.00     0.117 C 
BRANCH   9  10
ATOM     10  S   UNL A   1      33.691  23.589  23.593  1.00  0.00     0.200 S 
ATOM     11  O   UNL A   1      34.035  24.715  22.737  1.00  0.00    -0.219 OA
ATOM     12  O   UNL A   1      33.195  22.349  23.040  1.00  0.00    -0.219 OA
BRANCH  10  13
ATOM     13  C   UNL A   1      35.220  23.149  24.403  1.00  0.00     0.071 A 
ATOM     14  C   UNL A   1      38.944  21.869  26.119  1.00  0.00     0.044 C 
ATOM     15  C   UNL A   1      37.641  22.319  25.532  1.00  0.00    -0.051 A 
ATOM     16  C   UNL A   1      36.850  21.411  24.817  1.00  0.00     0.005 A 
ATOM     17  C   UNL A   1      37.193  23.636  25.699  1.00  0.00     0.005 A 
ATOM     18  C   UNL A   1      35.646  21.825  24.250  1.00  0.00     0.021 A 
ATOM     19  C   UNL A   1      35.983  24.055  25.141  1.00  0.00     0.021 A 
ENDBRANCH  10  13
ENDBRANCH   9  10
ENDBRANCH   5   8
ENDBRANCH   3   4
ENDBRANCH   2   3
ENDBRANCH   1   2
BRANCH   1  20
ATOM     20  C   UNL A   1      33.871  30.277  27.625  1.00  0.00     0.116 C 
BRANCH  20  21
ATOM     21  N   UNL A   1      34.515  31.303  28.432  1.00  0.00    -0.352 N 
ATOM     22  C   UNL A   1      35.639  31.187  29.232  1.00  0.00     0.251 C 
ATOM     23  H   UNL A   1      34.097  32.195  28.406  1.00  0.00     0.163 HD
ATOM     24  O   UNL A   1      35.988  32.097  29.980  1.00  0.00    -0.269 OA
BRANCH  22  25
ATOM     25  C   UNL A   1      36.506  29.989  29.082  1.00  0.00     0.039 A 
ATOM     26  C   UNL A   1      36.815  29.272  30.244  1.00  0.00     0.014 A 
ATOM     27  C   UNL A   1      37.193  29.733  27.899  1.00  0.00     0.014 A 
ATOM     28  C   UNL A   1      37.967  28.487  30.281  1.00  0.00     0.010 A 
ATOM     29  C   UNL A   1      38.388  29.040  27.961  1.00  0.00     0.010 A 
ATOM     30  C   UNL A   1      38.808  28.471  29.167  1.00  0.00    -0.014 A 
BRANCH  30  31
ATOM     31  C   UNL A   1      40.188  27.995  29.213  1.00  0.00     0.031 A 
ATOM     32  C   UNL A   1      40.524  26.612  28.820  1.00  0.00     0.074 A 
ATOM     33  C   UNL A   1      41.181  28.834  29.579  1.00  0.00     0.049 A 
ATOM     34  N   UNL A   1      41.583  25.983  29.204  1.00  0.00    -0.248 NA
ATOM     35  C   UNL A   1      39.652  25.806  27.975  1.00  0.00     0.031 C 
ATOM     36  C   UNL A   1      42.621  28.615  29.471  1.00  0.00     0.029 A 
ATOM     37  N   UNL A   1      41.063  29.959  30.393  1.00  0.00    -0.354 N 
ATOM     38  C   UNL A   1      41.671  24.819  28.479  1.00  0.00     0.074 A 
ATOM     39  C   UNL A   1      40.422  24.734  27.757  1.00  0.00     0.031 C 
ATOM     40  C   UNL A   1      43.241  29.365  30.395  1.00  0.00     0.029 A 
ATOM     41  C   UNL A   1      42.215  29.992  31.206  1.00  0.00     0.049 A 
ATOM     42  H   UNL A   1      40.320  30.605  30.399  1.00  0.00     0.167 HD
ATOM     43  C   UNL A   1      42.834  24.108  28.480  1.00  0.00     0.034 A 
ATOM     44  C   UNL A   1      42.104  29.916  32.565  1.00  0.00     0.034 A 
ATOM     45  C   UNL A   1      43.832  24.685  29.379  1.00  0.00     0.049 A 
ATOM     46  C   UNL A   1      42.781  28.701  33.171  1.00  0.00     0.074 A 
ATOM     47  C   UNL A   1      44.938  25.500  29.208  1.00  0.00     0.029 A 
ATOM     48  N   UNL A   1      43.594  24.645  30.740  1.00  0.00    -0.354 N 
ATOM     49  N   UNL A   1      43.383  27.768  32.481  1.00  0.00    -0.248 NA
ATOM     50  C   UNL A   1      42.751  28.396  34.603  1.00  0.00     0.031 C 
ATOM     51  C   UNL A   1      45.331  25.986  30.492  1.00  0.00     0.029 A 
ATOM     52  C   UNL A   1      44.478  25.444  31.437  1.00  0.00     0.049 A 
ATOM     53  H   UNL A   1      42.881  24.113  31.160  1.00  0.00     0.167 HD
ATOM     54  C   UNL A   1      43.743  26.744  33.318  1.00  0.00     0.074 A 
ATOM     55  C   UNL A   1      43.331  27.185  34.639  1.00  0.00     0.031 C 
ATOM     56  C   UNL A   1      44.308  25.584  32.874  1.00  0.00     0.034 A 
BRANCH  43  57
ATOM     57  C   UNL A   1      43.148  23.013  27.491  1.00  0.00     0.023 A 
ATOM     58  C   UNL A   1      44.270  23.149  26.650  1.00  0.00     0.031 A 
ATOM     59  C   UNL A   1      42.388  21.843  27.306  1.00  0.00     0.131 A 
ATOM     60  C   UNL A   1      44.534  22.223  25.625  1.00  0.00     0.055 A 
ATOM     61  C   UNL A   1      42.606  20.957  26.243  1.00  0.00     0.041 A 
ATOM     62  F   UNL A   1      41.437  21.478  28.176  1.00  0.00    -0.206 F 
ATOM     63  C   UNL A   1      43.679  21.151  25.385  1.00  0.00     0.022 A 
BRANCH  60  64
ATOM     64  S   UNL A   1      46.028  22.427  24.618  1.00  0.00     0.124 S 
ATOM     65  O   UNL A   1      46.562  21.070  24.574  1.00  0.00    -0.237 OA
ATOM     66  O   UNL A   1      45.487  22.951  23.369  1.00  0.00    -0.237 OA
ATOM     67  O   UNL A   1      46.828  23.378  25.390  1.00  0.00    -0.744 OA
ENDBRANCH  60  64
ENDBRANCH  43  57
BRANCH  44  68
ATOM     68  C   UNL A   1      40.863  30.578  33.073  1.00  0.00     0.023 A 
ATOM     69  C   UNL A   1      40.827  31.989  33.001  1.00  0.00     0.031 A 
ATOM     70  C   UNL A   1      39.644  29.900  33.206  1.00  0.00     0.131 A 
ATOM     71  C   UNL A   1      39.606  32.653  32.827  1.00  0.00     0.055 A 
ATOM     72  C   UNL A   1      38.423  30.586  33.154  1.00  0.00     0.041 A 
ATOM     73  F   UNL A   1      39.601  28.560  33.248  1.00  0.00    -0.206 F 
ATOM     74  C   UNL A   1      38.399  31.960  32.907  1.00  0.00     0.022 A 
BRANCH  71  75
ATOM     75  S   UNL A   1      39.644  34.338  32.145  1.00  0.00     0.124 S 
ATOM     76  O   UNL A   1      40.798  34.919  32.819  1.00  0.00    -0.237 OA
ATOM     77  O   UNL A   1      39.790  34.097  30.711  1.00  0.00    -0.237 OA
ATOM     78  O   UNL A   1      38.347  34.896  32.521  1.00  0.00    -0.744 OA
ENDBRANCH  71  75
ENDBRANCH  44  68
BRANCH  56  79
ATOM     79  C   UNL A   1      44.717  24.474  33.803  1.00  0.00     0.023 A 
ATOM     80  C   UNL A   1      46.068  24.152  34.010  1.00  0.00     0.031 A 
ATOM     81  C   UNL A   1      43.768  23.660  34.457  1.00  0.00     0.131 A 
ATOM     82  C   UNL A   1      46.431  23.121  34.891  1.00  0.00     0.055 A 
ATOM     83  C   UNL A   1      44.132  22.578  35.261  1.00  0.00     0.041 A 
ATOM     84  F   UNL A   1      42.453  23.913  34.381  1.00  0.00    -0.206 F 
ATOM     85  C   UNL A   1      45.472  22.310  35.495  1.00  0.00     0.022 A 
BRANCH  82  86
ATOM     86  S   UNL A   1      48.182  22.922  35.309  1.00  0.00     0.124 S 
ATOM     87  O   UNL A   1      48.156  22.832  36.764  1.00  0.00    -0.237 OA
ATOM     88  O   UNL A   1      48.516  21.689  34.601  1.00  0.00    -0.237 OA
ATOM     89  O   UNL A   1      48.804  24.131  34.770  1.00  0.00    -0.744 OA
ENDBRANCH  82  86
ENDBRANCH  56  79
ENDBRANCH  30  31
ENDBRANCH  22  25
ENDBRANCH  20  21
ENDBRANCH   1  20
TORSDOF 16
ENDMDL
