MODEL 1
REMARK VINA RESULT:     -12.5      0.000      0.000
REMARK SMILES Cc1cccc(-c2noc(C[N@@H+](C)Cc3ncccc3C(=O)NCCCCNC(=O)c3ccc(-c4c5nc(c(-c6cc(S(=O)(=O)[O-])ccc6F)c6ccc([nH]6)c(-c6cc(S(=O)(=O)[O-])ccc6F)c6nc(c(-c7cc(S(=O)(=O)[O-])ccc7F)c7ccc4[nH]7)C=C6)C=C5)cc3)n2)c1
REMARK SMILES IDX 24 1 23 2 21 3 22 4 20 6 15 7 16 8 17 9 19 10 18 11 14 12
REMARK SMILES IDX 12 13 13 14 11 16 10 17 7 18 8 19 94 20 9 21 6 22 1 23 2 24
REMARK SMILES IDX 3 25 95 26 4 27 5 28 25 29 26 30 27 31 28 32 29 33 30 35
REMARK SMILES IDX 31 36 32 37 93 38 33 39 92 40 34 41 35 42 36 43 86 44 37 45
REMARK SMILES IDX 91 46 85 47 87 48 38 49 90 50 84 51 83 52 39 54 71 55 51 56
REMARK SMILES IDX 70 57 52 58 55 59 69 60 88 61 53 62 54 63 68 65 89 66 56 67
REMARK SMILES IDX 40 68 41 69 49 70 42 71 48 72 50 73 47 74 43 75 44 76 45 77
REMARK SMILES IDX 46 78 72 79 73 80 81 81 74 82 80 83 82 84 79 85 75 86 76 87
REMARK SMILES IDX 77 88 78 89 57 90 58 91 66 92 59 93 65 94 67 95 64 96 60 97
REMARK SMILES IDX 61 98 62 99 63 100
REMARK H PARENT 23 5 12 15 28 34 87 53 55 64
REMARK Flexibility Score: inf
ROOT
ATOM      1  C   UNL A   1      36.666  22.664  24.906  1.00  0.00     0.116 C 
ENDROOT
BRANCH   1   2
ATOM      2  N   UNL A   1      35.399  23.292  25.268  1.00  0.00    -0.352 N 
ATOM      3  C   UNL A   1      34.073  22.933  25.214  1.00  0.00     0.253 C 
ATOM      4  O   UNL A   1      33.310  23.785  25.669  1.00  0.00    -0.269 OA
ATOM      5  H   UNL A   1      35.524  24.194  25.642  1.00  0.00     0.163 HD
BRANCH   3   6
ATOM      6  C   UNL A   1      33.541  21.626  24.689  1.00  0.00     0.067 A 
ATOM      7  C   UNL A   1      32.867  21.509  23.450  1.00  0.00     0.107 A 
ATOM      8  N   UNL A   1      32.288  20.325  23.048  1.00  0.00    -0.254 NA
ATOM      9  C   UNL A   1      32.412  19.235  23.823  1.00  0.00     0.111 A 
ATOM     10  C   UNL A   1      33.695  20.433  25.410  1.00  0.00     0.017 A 
ATOM     11  C   UNL A   1      33.124  19.234  24.994  1.00  0.00     0.021 A 
BRANCH   7  12
ATOM     12  C   UNL A   1      32.674  22.631  22.431  1.00  0.00     0.320 C 
BRANCH  12  13
ATOM     13  N   UNL A   1      32.059  23.908  22.912  1.00  0.00    -0.325 N 
ATOM     14  C   UNL A   1      30.629  23.792  23.173  1.00  0.00     0.333 C 
ATOM     15  H   UNL A   1      32.510  24.098  23.807  1.00  0.00     0.348 HD
BRANCH  13  16
ATOM     16  C   UNL A   1      32.349  25.055  22.027  1.00  0.00     0.364 C 
BRANCH  16  17
ATOM     17  C   UNL A   1      32.875  26.257  22.739  1.00  0.00     0.282 A 
ATOM     18  C   UNL A   1      33.311  27.885  23.981  1.00  0.00     0.202 A 
ATOM     19  N   UNL A   1      33.989  28.162  22.855  1.00  0.00    -0.057 NA
ATOM     20  N   UNL A   1      32.666  26.668  23.971  1.00  0.00    -0.186 NA
ATOM     21  O   UNL A   1      33.696  27.082  22.025  1.00  0.00    -0.333 OA
BRANCH  18  22
ATOM     22  C   UNL A   1      33.276  28.777  25.126  1.00  0.00     0.023 A 
ATOM     23  C   UNL A   1      31.246  31.741  26.411  1.00  0.00     0.044 C 
ATOM     24  C   UNL A   1      32.274  30.654  26.314  1.00  0.00    -0.050 A 
ATOM     25  C   UNL A   1      33.199  30.474  27.351  1.00  0.00     0.003 A 
ATOM     26  C   UNL A   1      32.331  29.811  25.195  1.00  0.00     0.015 A 
ATOM     27  C   UNL A   1      34.154  29.460  27.281  1.00  0.00     0.001 A 
ATOM     28  C   UNL A   1      34.187  28.610  26.177  1.00  0.00     0.012 A 
ENDBRANCH  18  22
ENDBRANCH  16  17
ENDBRANCH  13  16
ENDBRANCH  12  13
ENDBRANCH   7  12
ENDBRANCH   3   6
ENDBRANCH   1   2
BRANCH   1  29
ATOM     29  C   UNL A   1      37.781  23.001  25.912  1.00  0.00     0.023 C 
BRANCH  29  30
ATOM     30  C   UNL A   1      38.958  22.018  25.927  1.00  0.00     0.023 C 
BRANCH  30  31
ATOM     31  C   UNL A   1      39.963  22.277  27.041  1.00  0.00     0.116 C 
BRANCH  31  32
ATOM     32  N   UNL A   1      41.285  22.717  26.616  1.00  0.00    -0.352 N 
ATOM     33  C   UNL A   1      41.716  24.014  26.348  1.00  0.00     0.251 C 
ATOM     34  H   UNL A   1      41.959  22.008  26.505  1.00  0.00     0.163 HD
ATOM     35  O   UNL A   1      42.806  24.242  25.865  1.00  0.00    -0.269 OA
BRANCH  33  36
ATOM     36  C   UNL A   1      40.844  25.137  26.780  1.00  0.00     0.039 A 
ATOM     37  C   UNL A   1      40.937  26.332  26.057  1.00  0.00     0.014 A 
ATOM     38  C   UNL A   1      40.195  25.104  28.011  1.00  0.00     0.014 A 
ATOM     39  C   UNL A   1      40.607  27.532  26.681  1.00  0.00     0.010 A 
ATOM     40  C   UNL A   1      39.967  26.300  28.667  1.00  0.00     0.010 A 
ATOM     41  C   UNL A   1      40.240  27.516  28.027  1.00  0.00    -0.014 A 
BRANCH  41  42
ATOM     42  C   UNL A   1      40.303  28.704  28.877  1.00  0.00     0.031 A 
ATOM     43  C   UNL A   1      39.217  29.705  28.893  1.00  0.00     0.074 A 
ATOM     44  C   UNL A   1      41.350  28.886  29.714  1.00  0.00     0.049 A 
ATOM     45  N   UNL A   1      39.388  30.947  29.201  1.00  0.00    -0.248 NA
ATOM     46  C   UNL A   1      37.845  29.390  28.525  1.00  0.00     0.031 C 
ATOM     47  C   UNL A   1      41.450  29.850  30.807  1.00  0.00     0.029 A 
ATOM     48  N   UNL A   1      42.645  28.395  29.567  1.00  0.00    -0.354 N 
ATOM     49  C   UNL A   1      38.146  31.505  29.385  1.00  0.00     0.074 A 
ATOM     50  C   UNL A   1      37.221  30.519  28.871  1.00  0.00     0.031 C 
ATOM     51  C   UNL A   1      42.745  30.087  31.060  1.00  0.00     0.029 A 
ATOM     52  C   UNL A   1      43.521  29.380  30.062  1.00  0.00     0.049 A 
ATOM     53  H   UNL A   1      42.900  27.523  29.189  1.00  0.00     0.167 HD
ATOM     54  C   UNL A   1      38.024  32.669  30.087  1.00  0.00     0.034 A 
ATOM     55  C   UNL A   1      44.498  29.922  29.281  1.00  0.00     0.034 A 
ATOM     56  C   UNL A   1      39.322  33.194  30.520  1.00  0.00     0.049 A 
ATOM     57  C   UNL A   1      44.397  31.422  29.121  1.00  0.00     0.074 A 
ATOM     58  C   UNL A   1      39.973  33.234  31.744  1.00  0.00     0.029 A 
ATOM     59  N   UNL A   1      40.262  33.585  29.574  1.00  0.00    -0.354 N 
ATOM     60  N   UNL A   1      43.373  32.136  29.495  1.00  0.00    -0.248 NA
ATOM     61  C   UNL A   1      45.426  32.230  28.479  1.00  0.00     0.031 C 
ATOM     62  C   UNL A   1      41.307  33.669  31.526  1.00  0.00     0.029 A 
ATOM     63  C   UNL A   1      41.468  33.902  30.173  1.00  0.00     0.049 A 
ATOM     64  H   UNL A   1      40.092  33.631  28.605  1.00  0.00     0.167 HD
ATOM     65  C   UNL A   1      43.554  33.451  29.130  1.00  0.00     0.074 A 
ATOM     66  C   UNL A   1      44.865  33.452  28.503  1.00  0.00     0.031 C 
ATOM     67  C   UNL A   1      42.585  34.393  29.369  1.00  0.00     0.034 A 
BRANCH  54  68
ATOM     68  C   UNL A   1      36.708  33.177  30.642  1.00  0.00     0.023 A 
ATOM     69  C   UNL A   1      35.829  33.892  29.801  1.00  0.00     0.031 A 
ATOM     70  C   UNL A   1      36.273  33.031  31.973  1.00  0.00     0.131 A 
ATOM     71  C   UNL A   1      34.674  34.522  30.301  1.00  0.00     0.055 A 
ATOM     72  C   UNL A   1      35.159  33.709  32.489  1.00  0.00     0.041 A 
ATOM     73  F   UNL A   1      36.868  32.178  32.817  1.00  0.00    -0.206 F 
ATOM     74  C   UNL A   1      34.361  34.476  31.655  1.00  0.00     0.022 A 
BRANCH  71  75
ATOM     75  S   UNL A   1      33.576  35.394  29.150  1.00  0.00     0.124 S 
ATOM     76  O   UNL A   1      33.133  36.534  29.946  1.00  0.00    -0.237 OA
ATOM     77  O   UNL A   1      34.471  35.691  28.037  1.00  0.00    -0.237 OA
ATOM     78  O   UNL A   1      32.539  34.406  28.858  1.00  0.00    -0.744 OA
ENDBRANCH  71  75
ENDBRANCH  54  68
BRANCH  55  79
ATOM     79  C   UNL A   1      45.035  28.962  28.277  1.00  0.00     0.023 A 
ATOM     80  C   UNL A   1      45.879  27.943  28.770  1.00  0.00     0.031 A 
ATOM     81  C   UNL A   1      44.430  28.770  27.029  1.00  0.00     0.131 A 
ATOM     82  C   UNL A   1      45.942  26.703  28.120  1.00  0.00     0.055 A 
ATOM     83  C   UNL A   1      44.564  27.557  26.339  1.00  0.00     0.041 A 
ATOM     84  F   UNL A   1      43.596  29.689  26.523  1.00  0.00    -0.206 F 
ATOM     85  C   UNL A   1      45.280  26.500  26.908  1.00  0.00     0.022 A 
BRANCH  82  86
ATOM     86  S   UNL A   1      46.629  25.286  29.031  1.00  0.00     0.124 S 
ATOM     87  O   UNL A   1      46.215  25.569  30.400  1.00  0.00    -0.237 OA
ATOM     88  O   UNL A   1      45.978  24.140  28.397  1.00  0.00    -0.237 OA
ATOM     89  O   UNL A   1      48.062  25.374  28.769  1.00  0.00    -0.744 OA
ENDBRANCH  82  86
ENDBRANCH  55  79
BRANCH  67  90
ATOM     90  C   UNL A   1      42.570  35.857  28.934  1.00  0.00     0.023 A 
ATOM     91  C   UNL A   1      43.147  36.910  29.657  1.00  0.00     0.031 A 
ATOM     92  C   UNL A   1      41.939  36.251  27.721  1.00  0.00     0.131 A 
ATOM     93  C   UNL A   1      43.110  38.242  29.190  1.00  0.00     0.055 A 
ATOM     94  C   UNL A   1      41.904  37.571  27.255  1.00  0.00     0.041 A 
ATOM     95  F   UNL A   1      41.329  35.371  26.914  1.00  0.00    -0.206 F 
ATOM     96  C   UNL A   1      42.497  38.580  27.989  1.00  0.00     0.022 A 
BRANCH  93  97
ATOM     97  S   UNL A   1      43.881  39.532  30.206  1.00  0.00     0.124 S 
ATOM     98  O   UNL A   1      42.916  40.622  30.101  1.00  0.00    -0.237 OA
ATOM     99  O   UNL A   1      43.964  38.885  31.512  1.00  0.00    -0.237 OA
ATOM    100  O   UNL A   1      45.164  39.771  29.549  1.00  0.00    -0.744 OA
ENDBRANCH  93  97
ENDBRANCH  67  90
ENDBRANCH  41  42
ENDBRANCH  33  36
ENDBRANCH  31  32
ENDBRANCH  30  31
ENDBRANCH  29  30
ENDBRANCH   1  29
TORSDOF 19
ENDMDL
MODEL 2
REMARK VINA RESULT:     -12.3      2.474      3.575
REMARK SMILES Cc1cccc(-c2noc(C[N@@H+](C)Cc3ncccc3C(=O)NCCCCNC(=O)c3ccc(-c4c5nc(c(-c6cc(S(=O)(=O)[O-])ccc6F)c6ccc([nH]6)c(-c6cc(S(=O)(=O)[O-])ccc6F)c6nc(c(-c7cc(S(=O)(=O)[O-])ccc7F)c7ccc4[nH]7)C=C6)C=C5)cc3)n2)c1
REMARK SMILES IDX 24 1 23 2 21 3 22 4 20 6 15 7 16 8 17 9 19 10 18 11 14 12
REMARK SMILES IDX 12 13 13 14 11 16 10 17 7 18 8 19 94 20 9 21 6 22 1 23 2 24
REMARK SMILES IDX 3 25 95 26 4 27 5 28 25 29 26 30 27 31 28 32 29 33 30 35
REMARK SMILES IDX 31 36 32 37 93 38 33 39 92 40 34 41 35 42 36 43 86 44 37 45
REMARK SMILES IDX 91 46 85 47 87 48 38 49 90 50 84 51 83 52 39 54 71 55 51 56
REMARK SMILES IDX 70 57 52 58 55 59 69 60 88 61 53 62 54 63 68 65 89 66 56 67
REMARK SMILES IDX 40 68 41 69 49 70 42 71 48 72 50 73 47 74 43 75 44 76 45 77
REMARK SMILES IDX 46 78 72 79 73 80 81 81 74 82 80 83 82 84 79 85 75 86 76 87
REMARK SMILES IDX 77 88 78 89 57 90 58 91 66 92 59 93 65 94 67 95 64 96 60 97
REMARK SMILES IDX 61 98 62 99 63 100
REMARK H PARENT 23 5 12 15 28 34 87 53 55 64
REMARK Flexibility Score: inf
ROOT
ATOM      1  C   UNL A   1      35.811  24.013  25.958  1.00  0.00     0.116 C 
ENDROOT
BRANCH   1   2
ATOM      2  N   UNL A   1      35.418  24.056  24.553  1.00  0.00    -0.352 N 
ATOM      3  C   UNL A   1      34.755  23.215  23.692  1.00  0.00     0.253 C 
ATOM      4  O   UNL A   1      34.609  23.678  22.561  1.00  0.00    -0.269 OA
ATOM      5  H   UNL A   1      35.697  24.892  24.114  1.00  0.00     0.163 HD
BRANCH   3   6
ATOM      6  C   UNL A   1      34.206  21.858  24.043  1.00  0.00     0.067 A 
ATOM      7  C   UNL A   1      32.832  21.530  23.943  1.00  0.00     0.107 A 
ATOM      8  N   UNL A   1      32.341  20.320  24.380  1.00  0.00    -0.254 NA
ATOM      9  C   UNL A   1      33.192  19.400  24.865  1.00  0.00     0.111 A 
ATOM     10  C   UNL A   1      35.043  20.825  24.489  1.00  0.00     0.017 A 
ATOM     11  C   UNL A   1      34.546  19.596  24.915  1.00  0.00     0.021 A 
BRANCH   7  12
ATOM     12  C   UNL A   1      31.740  22.437  23.377  1.00  0.00     0.320 C 
BRANCH  12  13
ATOM     13  N   UNL A   1      31.416  23.689  24.131  1.00  0.00    -0.325 N 
ATOM     14  C   UNL A   1      30.704  23.438  25.378  1.00  0.00     0.333 C 
ATOM     15  H   UNL A   1      32.321  24.088  24.381  1.00  0.00     0.348 HD
BRANCH  13  16
ATOM     16  C   UNL A   1      30.712  24.691  23.306  1.00  0.00     0.364 C 
BRANCH  16  17
ATOM     17  C   UNL A   1      30.918  26.101  23.750  1.00  0.00     0.282 A 
ATOM     18  C   UNL A   1      31.416  27.918  24.666  1.00  0.00     0.202 A 
ATOM     19  N   UNL A   1      30.364  28.236  23.893  1.00  0.00    -0.057 NA
ATOM     20  N   UNL A   1      31.835  26.611  24.543  1.00  0.00    -0.186 NA
ATOM     21  O   UNL A   1      30.028  27.027  23.287  1.00  0.00    -0.333 OA
BRANCH  18  22
ATOM     22  C   UNL A   1      32.075  28.871  25.539  1.00  0.00     0.023 A 
ATOM     23  C   UNL A   1      35.347  29.231  27.468  1.00  0.00     0.044 C 
ATOM     24  C   UNL A   1      33.987  29.516  26.905  1.00  0.00    -0.050 A 
ATOM     25  C   UNL A   1      33.352  30.730  27.198  1.00  0.00     0.003 A 
ATOM     26  C   UNL A   1      33.334  28.584  26.087  1.00  0.00     0.015 A 
ATOM     27  C   UNL A   1      32.091  31.016  26.672  1.00  0.00     0.001 A 
ATOM     28  C   UNL A   1      31.459  30.093  25.840  1.00  0.00     0.012 A 
ENDBRANCH  18  22
ENDBRANCH  16  17
ENDBRANCH  13  16
ENDBRANCH  12  13
ENDBRANCH   7  12
ENDBRANCH   3   6
ENDBRANCH   1   2
BRANCH   1  29
ATOM     29  C   UNL A   1      37.341  23.987  26.126  1.00  0.00     0.023 C 
BRANCH  29  30
ATOM     30  C   UNL A   1      38.002  22.637  25.822  1.00  0.00     0.023 C 
BRANCH  30  31
ATOM     31  C   UNL A   1      39.359  22.452  26.486  1.00  0.00     0.116 C 
BRANCH  31  32
ATOM     32  N   UNL A   1      40.081  21.237  26.133  1.00  0.00    -0.352 N 
ATOM     33  C   UNL A   1      41.456  21.019  26.141  1.00  0.00     0.251 C 
ATOM     34  H   UNL A   1      39.526  20.473  25.853  1.00  0.00     0.163 HD
ATOM     35  O   UNL A   1      41.949  20.005  25.691  1.00  0.00    -0.269 OA
BRANCH  33  36
ATOM     36  C   UNL A   1      42.312  22.020  26.828  1.00  0.00     0.039 A 
ATOM     37  C   UNL A   1      42.373  21.956  28.225  1.00  0.00     0.014 A 
ATOM     38  C   UNL A   1      42.786  23.140  26.150  1.00  0.00     0.014 A 
ATOM     39  C   UNL A   1      42.671  23.110  28.947  1.00  0.00     0.010 A 
ATOM     40  C   UNL A   1      42.979  24.309  26.864  1.00  0.00     0.010 A 
ATOM     41  C   UNL A   1      42.851  24.310  28.259  1.00  0.00    -0.014 A 
BRANCH  41  42
ATOM     42  C   UNL A   1      42.728  25.616  28.904  1.00  0.00     0.031 A 
ATOM     43  C   UNL A   1      41.530  26.460  28.725  1.00  0.00     0.074 A 
ATOM     44  C   UNL A   1      43.705  26.063  29.728  1.00  0.00     0.049 A 
ATOM     45  N   UNL A   1      41.532  27.747  28.830  1.00  0.00    -0.248 NA
ATOM     46  C   UNL A   1      40.225  25.917  28.377  1.00  0.00     0.031 C 
ATOM     47  C   UNL A   1      43.634  27.193  30.650  1.00  0.00     0.029 A 
ATOM     48  N   UNL A   1      45.055  25.724  29.699  1.00  0.00    -0.354 N 
ATOM     49  C   UNL A   1      40.225  28.163  28.886  1.00  0.00     0.074 A 
ATOM     50  C   UNL A   1      39.452  26.998  28.516  1.00  0.00     0.031 C 
ATOM     51  C   UNL A   1      44.877  27.632  30.895  1.00  0.00     0.029 A 
ATOM     52  C   UNL A   1      45.780  26.879  30.048  1.00  0.00     0.049 A 
ATOM     53  H   UNL A   1      45.433  24.842  29.476  1.00  0.00     0.167 HD
ATOM     54  C   UNL A   1      39.929  29.399  29.384  1.00  0.00     0.034 A 
ATOM     55  C   UNL A   1      46.720  27.411  29.216  1.00  0.00     0.034 A 
ATOM     56  C   UNL A   1      41.131  30.149  29.760  1.00  0.00     0.049 A 
ATOM     57  C   UNL A   1      46.445  28.840  28.809  1.00  0.00     0.074 A 
ATOM     58  C   UNL A   1      41.713  30.466  30.978  1.00  0.00     0.029 A 
ATOM     59  N   UNL A   1      42.060  30.501  28.788  1.00  0.00    -0.354 N 
ATOM     60  N   UNL A   1      45.325  29.468  29.033  1.00  0.00    -0.248 NA
ATOM     61  C   UNL A   1      47.397  29.661  28.071  1.00  0.00     0.031 C 
ATOM     62  C   UNL A   1      42.992  31.028  30.728  1.00  0.00     0.029 A 
ATOM     63  C   UNL A   1      43.188  31.061  29.360  1.00  0.00     0.049 A 
ATOM     64  H   UNL A   1      41.932  30.369  27.820  1.00  0.00     0.167 HD
ATOM     65  C   UNL A   1      45.362  30.720  28.462  1.00  0.00     0.074 A 
ATOM     66  C   UNL A   1      46.690  30.789  27.879  1.00  0.00     0.031 C 
ATOM     67  C   UNL A   1      44.274  31.556  28.517  1.00  0.00     0.034 A 
BRANCH  54  68
ATOM     68  C   UNL A   1      38.535  29.817  29.812  1.00  0.00     0.023 A 
ATOM     69  C   UNL A   1      37.967  30.993  29.278  1.00  0.00     0.031 A 
ATOM     70  C   UNL A   1      37.733  29.141  30.751  1.00  0.00     0.131 A 
ATOM     71  C   UNL A   1      36.750  31.511  29.758  1.00  0.00     0.055 A 
ATOM     72  C   UNL A   1      36.554  29.686  31.278  1.00  0.00     0.041 A 
ATOM     73  F   UNL A   1      38.023  27.896  31.155  1.00  0.00    -0.206 F 
ATOM     74  C   UNL A   1      36.064  30.888  30.794  1.00  0.00     0.022 A 
BRANCH  71  75
ATOM     75  S   UNL A   1      36.068  33.010  28.997  1.00  0.00     0.124 S 
ATOM     76  O   UNL A   1      34.723  33.061  29.560  1.00  0.00    -0.237 OA
ATOM     77  O   UNL A   1      36.999  34.037  29.451  1.00  0.00    -0.237 OA
ATOM     78  O   UNL A   1      36.126  32.719  27.565  1.00  0.00    -0.744 OA
ENDBRANCH  71  75
ENDBRANCH  54  68
BRANCH  55  79
ATOM     79  C   UNL A   1      47.417  26.379  28.398  1.00  0.00     0.023 A 
ATOM     80  C   UNL A   1      47.117  26.361  27.018  1.00  0.00     0.031 A 
ATOM     81  C   UNL A   1      48.601  25.763  28.823  1.00  0.00     0.131 A 
ATOM     82  C   UNL A   1      48.074  25.921  26.094  1.00  0.00     0.055 A 
ATOM     83  C   UNL A   1      49.519  25.246  27.898  1.00  0.00     0.041 A 
ATOM     84  F   UNL A   1      48.952  25.775  30.116  1.00  0.00    -0.206 F 
ATOM     85  C   UNL A   1      49.281  25.370  26.527  1.00  0.00     0.022 A 
BRANCH  82  86
ATOM     86  S   UNL A   1      47.853  26.367  24.344  1.00  0.00     0.124 S 
ATOM     87  O   UNL A   1      47.841  25.064  23.692  1.00  0.00    -0.237 OA
ATOM     88  O   UNL A   1      46.580  27.088  24.345  1.00  0.00    -0.237 OA
ATOM     89  O   UNL A   1      49.011  27.210  24.059  1.00  0.00    -0.744 OA
ENDBRANCH  82  86
ENDBRANCH  55  79
BRANCH  67  90
ATOM     90  C   UNL A   1      44.101  32.918  27.847  1.00  0.00     0.023 A 
ATOM     91  C   UNL A   1      43.811  34.110  28.525  1.00  0.00     0.031 A 
ATOM     92  C   UNL A   1      44.228  33.058  26.436  1.00  0.00     0.131 A 
ATOM     93  C   UNL A   1      43.678  35.339  27.845  1.00  0.00     0.055 A 
ATOM     94  C   UNL A   1      44.100  34.278  25.761  1.00  0.00     0.041 A 
ATOM     95  F   UNL A   1      44.494  32.016  25.636  1.00  0.00    -0.206 F 
ATOM     96  C   UNL A   1      43.827  35.434  26.466  1.00  0.00     0.022 A 
BRANCH  93  97
ATOM     97  S   UNL A   1      43.293  36.823  28.816  1.00  0.00     0.124 S 
ATOM     98  O   UNL A   1      44.361  37.735  28.419  1.00  0.00    -0.237 OA
ATOM     99  O   UNL A   1      41.958  37.166  28.336  1.00  0.00    -0.237 OA
ATOM    100  O   UNL A   1      43.354  36.358  30.200  1.00  0.00    -0.744 OA
ENDBRANCH  93  97
ENDBRANCH  67  90
ENDBRANCH  41  42
ENDBRANCH  33  36
ENDBRANCH  31  32
ENDBRANCH  30  31
ENDBRANCH  29  30
ENDBRANCH   1  29
TORSDOF 19
ENDMDL
MODEL 3
REMARK VINA RESULT:     -12.3      1.515      4.340
REMARK SMILES Cc1cccc(-c2noc(C[N@@H+](C)Cc3ncccc3C(=O)NCCCCNC(=O)c3ccc(-c4c5nc(c(-c6cc(S(=O)(=O)[O-])ccc6F)c6ccc([nH]6)c(-c6cc(S(=O)(=O)[O-])ccc6F)c6nc(c(-c7cc(S(=O)(=O)[O-])ccc7F)c7ccc4[nH]7)C=C6)C=C5)cc3)n2)c1
REMARK SMILES IDX 24 1 23 2 21 3 22 4 20 6 15 7 16 8 17 9 19 10 18 11 14 12
REMARK SMILES IDX 12 13 13 14 11 16 10 17 7 18 8 19 94 20 9 21 6 22 1 23 2 24
REMARK SMILES IDX 3 25 95 26 4 27 5 28 25 29 26 30 27 31 28 32 29 33 30 35
REMARK SMILES IDX 31 36 32 37 93 38 33 39 92 40 34 41 35 42 36 43 86 44 37 45
REMARK SMILES IDX 91 46 85 47 87 48 38 49 90 50 84 51 83 52 39 54 71 55 51 56
REMARK SMILES IDX 70 57 52 58 55 59 69 60 88 61 53 62 54 63 68 65 89 66 56 67
REMARK SMILES IDX 40 68 41 69 49 70 42 71 48 72 50 73 47 74 43 75 44 76 45 77
REMARK SMILES IDX 46 78 72 79 73 80 81 81 74 82 80 83 82 84 79 85 75 86 76 87
REMARK SMILES IDX 77 88 78 89 57 90 58 91 66 92 59 93 65 94 67 95 64 96 60 97
REMARK SMILES IDX 61 98 62 99 63 100
REMARK H PARENT 23 5 12 15 28 34 87 53 55 64
REMARK Flexibility Score: inf
ROOT
ATOM      1  C   UNL A   1      34.691  24.243  25.234  1.00  0.00     0.116 C 
ENDROOT
BRANCH   1   2
ATOM      2  N   UNL A   1      33.477  24.351  26.037  1.00  0.00    -0.352 N 
ATOM      3  C   UNL A   1      32.602  25.359  26.365  1.00  0.00     0.253 C 
ATOM      4  O   UNL A   1      31.661  24.990  27.067  1.00  0.00    -0.269 OA
ATOM      5  H   UNL A   1      33.221  23.491  26.442  1.00  0.00     0.163 HD
BRANCH   3   6
ATOM      6  C   UNL A   1      32.710  26.793  25.918  1.00  0.00     0.067 A 
ATOM      7  C   UNL A   1      32.029  27.302  24.787  1.00  0.00     0.107 A 
ATOM      8  N   UNL A   1      32.236  28.586  24.332  1.00  0.00    -0.254 NA
ATOM      9  C   UNL A   1      33.065  29.399  25.009  1.00  0.00     0.111 A 
ATOM     10  C   UNL A   1      33.500  27.717  26.616  1.00  0.00     0.017 A 
ATOM     11  C   UNL A   1      33.695  29.020  26.164  1.00  0.00     0.021 A 
BRANCH   7  12
ATOM     12  C   UNL A   1      31.023  26.533  23.932  1.00  0.00     0.320 C 
BRANCH  12  13
ATOM     13  N   UNL A   1      31.543  25.416  23.082  1.00  0.00    -0.325 N 
ATOM     14  C   UNL A   1      31.777  25.811  21.698  1.00  0.00     0.333 C 
ATOM     15  H   UNL A   1      32.452  25.182  23.481  1.00  0.00     0.348 HD
BRANCH  13  16
ATOM     16  C   UNL A   1      30.709  24.199  23.157  1.00  0.00     0.364 C 
BRANCH  16  17
ATOM     17  C   UNL A   1      31.356  23.058  23.869  1.00  0.00     0.282 A 
ATOM     18  C   UNL A   1      32.415  21.371  24.514  1.00  0.00     0.202 A 
ATOM     19  N   UNL A   1      31.509  21.562  25.488  1.00  0.00    -0.057 NA
ATOM     20  N   UNL A   1      32.398  22.330  23.526  1.00  0.00    -0.186 NA
ATOM     21  O   UNL A   1      30.800  22.681  25.057  1.00  0.00    -0.333 OA
BRANCH  18  22
ATOM     22  C   UNL A   1      33.352  20.263  24.510  1.00  0.00     0.023 A 
ATOM     23  C   UNL A   1      33.416  16.542  23.667  1.00  0.00     0.044 C 
ATOM     24  C   UNL A   1      33.846  17.912  24.099  1.00  0.00    -0.050 A 
ATOM     25  C   UNL A   1      35.176  18.139  24.477  1.00  0.00     0.003 A 
ATOM     26  C   UNL A   1      32.935  18.978  24.134  1.00  0.00     0.015 A 
ATOM     27  C   UNL A   1      35.595  19.410  24.870  1.00  0.00     0.001 A 
ATOM     28  C   UNL A   1      34.688  20.470  24.879  1.00  0.00     0.012 A 
ENDBRANCH  18  22
ENDBRANCH  16  17
ENDBRANCH  13  16
ENDBRANCH  12  13
ENDBRANCH   7  12
ENDBRANCH   3   6
ENDBRANCH   1   2
BRANCH   1  29
ATOM     29  C   UNL A   1      35.960  24.295  26.104  1.00  0.00     0.023 C 
BRANCH  29  30
ATOM     30  C   UNL A   1      36.826  23.030  26.061  1.00  0.00     0.023 C 
BRANCH  30  31
ATOM     31  C   UNL A   1      38.149  23.214  25.331  1.00  0.00     0.116 C 
BRANCH  31  32
ATOM     32  N   UNL A   1      39.342  22.811  26.063  1.00  0.00    -0.352 N 
ATOM     33  C   UNL A   1      40.153  23.590  26.884  1.00  0.00     0.251 C 
ATOM     34  H   UNL A   1      39.609  21.868  25.966  1.00  0.00     0.163 HD
ATOM     35  O   UNL A   1      41.203  23.177  27.331  1.00  0.00    -0.269 OA
BRANCH  33  36
ATOM     36  C   UNL A   1      39.640  24.921  27.302  1.00  0.00     0.039 A 
ATOM     37  C   UNL A   1      40.096  26.034  26.587  1.00  0.00     0.014 A 
ATOM     38  C   UNL A   1      38.983  25.082  28.519  1.00  0.00     0.014 A 
ATOM     39  C   UNL A   1      40.119  27.280  27.209  1.00  0.00     0.010 A 
ATOM     40  C   UNL A   1      39.101  26.295  29.174  1.00  0.00     0.010 A 
ATOM     41  C   UNL A   1      39.733  27.375  28.546  1.00  0.00    -0.014 A 
BRANCH  41  42
ATOM     42  C   UNL A   1      40.124  28.494  29.403  1.00  0.00     0.031 A 
ATOM     43  C   UNL A   1      39.160  29.541  29.798  1.00  0.00     0.074 A 
ATOM     44  C   UNL A   1      41.381  28.566  29.897  1.00  0.00     0.049 A 
ATOM     45  N   UNL A   1      39.496  30.748  30.110  1.00  0.00    -0.248 NA
ATOM     46  C   UNL A   1      37.723  29.318  29.841  1.00  0.00     0.031 C 
ATOM     47  C   UNL A   1      41.864  29.442  30.961  1.00  0.00     0.029 A 
ATOM     48  N   UNL A   1      42.539  28.027  29.342  1.00  0.00    -0.354 N 
ATOM     49  C   UNL A   1      38.404  31.349  30.688  1.00  0.00     0.074 A 
ATOM     50  C   UNL A   1      37.305  30.447  30.420  1.00  0.00     0.031 C 
ATOM     51  C   UNL A   1      43.188  29.600  30.828  1.00  0.00     0.029 A 
ATOM     52  C   UNL A   1      43.585  28.931  29.605  1.00  0.00     0.049 A 
ATOM     53  H   UNL A   1      42.613  27.173  28.857  1.00  0.00     0.167 HD
ATOM     54  C   UNL A   1      38.573  32.463  31.458  1.00  0.00     0.034 A 
ATOM     55  C   UNL A   1      44.321  29.483  28.599  1.00  0.00     0.034 A 
ATOM     56  C   UNL A   1      39.973  32.894  31.511  1.00  0.00     0.049 A 
ATOM     57  C   UNL A   1      44.278  30.993  28.559  1.00  0.00     0.074 A 
ATOM     58  C   UNL A   1      40.957  32.814  32.484  1.00  0.00     0.029 A 
ATOM     59  N   UNL A   1      40.615  33.308  30.349  1.00  0.00    -0.354 N 
ATOM     60  N   UNL A   1      43.460  31.725  29.262  1.00  0.00    -0.248 NA
ATOM     61  C   UNL A   1      45.122  31.797  27.685  1.00  0.00     0.031 C 
ATOM     62  C   UNL A   1      42.193  33.202  31.901  1.00  0.00     0.029 A 
ATOM     63  C   UNL A   1      41.962  33.524  30.577  1.00  0.00     0.049 A 
ATOM     64  H   UNL A   1      40.169  33.432  29.480  1.00  0.00     0.167 HD
ATOM     65  C   UNL A   1      43.612  33.053  28.933  1.00  0.00     0.074 A 
ATOM     66  C   UNL A   1      44.675  33.038  27.944  1.00  0.00     0.031 C 
ATOM     67  C   UNL A   1      42.821  34.019  29.504  1.00  0.00     0.034 A 
BRANCH  54  68
ATOM     68  C   UNL A   1      37.516  32.990  32.409  1.00  0.00     0.023 A 
ATOM     69  C   UNL A   1      36.408  33.696  31.894  1.00  0.00     0.031 A 
ATOM     70  C   UNL A   1      37.548  32.871  33.811  1.00  0.00     0.131 A 
ATOM     71  C   UNL A   1      35.486  34.343  32.737  1.00  0.00     0.055 A 
ATOM     72  C   UNL A   1      36.670  33.567  34.655  1.00  0.00     0.041 A 
ATOM     73  F   UNL A   1      38.390  32.030  34.425  1.00  0.00    -0.206 F 
ATOM     74  C   UNL A   1      35.641  34.324  34.118  1.00  0.00     0.022 A 
BRANCH  71  75
ATOM     75  S   UNL A   1      34.068  35.202  32.000  1.00  0.00     0.124 S 
ATOM     76  O   UNL A   1      34.241  34.923  30.578  1.00  0.00    -0.237 OA
ATOM     77  O   UNL A   1      32.939  34.550  32.654  1.00  0.00    -0.237 OA
ATOM     78  O   UNL A   1      34.280  36.596  32.385  1.00  0.00    -0.744 OA
ENDBRANCH  71  75
ENDBRANCH  54  68
BRANCH  55  79
ATOM     79  C   UNL A   1      44.473  28.573  27.429  1.00  0.00     0.023 A 
ATOM     80  C   UNL A   1      45.317  27.456  27.605  1.00  0.00     0.031 A 
ATOM     81  C   UNL A   1      43.538  28.535  26.387  1.00  0.00     0.131 A 
ATOM     82  C   UNL A   1      45.083  26.275  26.889  1.00  0.00     0.055 A 
ATOM     83  C   UNL A   1      43.364  27.378  25.614  1.00  0.00     0.041 A 
ATOM     84  F   UNL A   1      42.690  29.554  26.189  1.00  0.00    -0.206 F 
ATOM     85  C   UNL A   1      44.102  26.226  25.897  1.00  0.00     0.022 A 
BRANCH  82  86
ATOM     86  S   UNL A   1      45.850  24.737  27.485  1.00  0.00     0.124 S 
ATOM     87  O   UNL A   1      46.990  24.592  26.588  1.00  0.00    -0.237 OA
ATOM     88  O   UNL A   1      46.175  25.048  28.877  1.00  0.00    -0.237 OA
ATOM     89  O   UNL A   1      44.790  23.745  27.331  1.00  0.00    -0.744 OA
ENDBRANCH  82  86
ENDBRANCH  55  79
BRANCH  67  90
ATOM     90  C   UNL A   1      42.775  35.510  29.175  1.00  0.00     0.023 A 
ATOM     91  C   UNL A   1      43.626  36.477  29.729  1.00  0.00     0.031 A 
ATOM     92  C   UNL A   1      41.823  36.024  28.250  1.00  0.00     0.131 A 
ATOM     93  C   UNL A   1      43.539  37.839  29.371  1.00  0.00     0.055 A 
ATOM     94  C   UNL A   1      41.738  37.375  27.891  1.00  0.00     0.041 A 
ATOM     95  F   UNL A   1      40.927  35.238  27.636  1.00  0.00    -0.206 F 
ATOM     96  C   UNL A   1      42.604  38.295  28.449  1.00  0.00     0.022 A 
BRANCH  93  97
ATOM     97  S   UNL A   1      44.683  39.009  30.152  1.00  0.00     0.124 S 
ATOM     98  O   UNL A   1      44.023  39.280  31.425  1.00  0.00    -0.237 OA
ATOM     99  O   UNL A   1      45.914  38.228  30.233  1.00  0.00    -0.237 OA
ATOM    100  O   UNL A   1      44.722  40.133  29.220  1.00  0.00    -0.744 OA
ENDBRANCH  93  97
ENDBRANCH  67  90
ENDBRANCH  41  42
ENDBRANCH  33  36
ENDBRANCH  31  32
ENDBRANCH  30  31
ENDBRANCH  29  30
ENDBRANCH   1  29
TORSDOF 19
ENDMDL
