MODEL 1
REMARK VINA RESULT:     -13.0      0.000      0.000
REMARK SMILES Cc1c(Cc2ccccc2)c(=O)oc2c(C)c(O[C@H](C)C(=O)NCCCCNC(=O)c3ccc(-c4c5nc(c(-c6cc(S(=O)(=O)[O-])ccc6F)c6ccc([nH]6)c(-c6cc(S(=O)(=O)[O-])ccc6F)c6nc(c(-c7cc(S(=O)(=O)[O-])ccc7F)c7ccc4[nH]7)C=C6)C=C5)cc3)ccc12
REMARK SMILES IDX 25 1 24 2 23 3 21 4 22 5 19 7 20 8 18 9 17 10 1 11 2 12 3 13
REMARK SMILES IDX 96 14 11 15 14 16 95 17 12 18 13 19 15 20 94 21 16 22 4 23
REMARK SMILES IDX 5 24 6 25 10 26 7 27 9 28 8 29 26 30 27 31 28 32 29 33 30 35
REMARK SMILES IDX 31 36 32 37 93 38 33 39 92 40 34 41 35 42 36 43 86 44 37 45
REMARK SMILES IDX 91 46 85 47 87 48 38 49 90 50 84 51 83 52 39 54 71 55 51 56
REMARK SMILES IDX 70 57 52 58 55 59 69 60 88 61 53 62 54 63 68 65 89 66 56 67
REMARK SMILES IDX 40 68 41 69 49 70 42 71 48 72 50 73 47 74 43 75 44 76 45 77
REMARK SMILES IDX 46 78 72 79 73 80 81 81 74 82 80 83 82 84 79 85 75 86 76 87
REMARK SMILES IDX 77 88 78 89 57 90 58 91 66 92 59 93 65 94 67 95 64 96 60 97
REMARK SMILES IDX 61 98 62 99 63 100
REMARK H PARENT 23 6 28 34 87 53 55 64
REMARK Flexibility Score: inf
ROOT
ATOM      1  C   UNL A   1      32.754  29.267  24.188  1.00  0.00     0.023 C 
ENDROOT
BRANCH   1   2
ATOM      2  C   UNL A   1      32.753  29.023  22.677  1.00  0.00     0.116 C 
BRANCH   2   3
ATOM      3  N   UNL A   1      31.626  29.682  22.050  1.00  0.00    -0.353 N 
ATOM      4  C   UNL A   1      30.296  29.385  22.098  1.00  0.00     0.260 C 
ATOM      5  O   UNL A   1      29.543  30.009  21.347  1.00  0.00    -0.271 OA
ATOM      6  H   UNL A   1      31.856  30.468  21.503  1.00  0.00     0.163 HD
BRANCH   4   7
ATOM      7  C   UNL A   1      29.744  28.311  23.051  1.00  0.00     0.258 C 
ATOM      8  C   UNL A   1      28.248  28.493  23.310  1.00  0.00     0.064 C 
BRANCH   7   9
ATOM      9  O   UNL A   1      29.954  26.989  22.585  1.00  0.00    -0.480 OA
BRANCH   9  10
ATOM     10  C   UNL A   1      30.886  26.141  23.117  1.00  0.00     0.127 A 
ATOM     11  C   UNL A   1      35.058  23.004  23.016  1.00  0.00     0.046 C 
ATOM     12  C   UNL A   1      33.873  23.126  23.936  1.00  0.00    -0.029 A 
ATOM     13  C   UNL A   1      33.656  22.324  25.002  1.00  0.00     0.046 A 
ATOM     14  C   UNL A   1      32.885  24.174  23.619  1.00  0.00     0.021 A 
ATOM     15  C   UNL A   1      32.544  22.609  25.948  1.00  0.00     0.340 A 
ATOM     16  C   UNL A   1      31.954  24.552  24.585  1.00  0.00     0.145 A 
ATOM     17  C   UNL A   1      32.801  24.796  22.377  1.00  0.00     0.016 A 
ATOM     18  O   UNL A   1      32.255  21.853  26.870  1.00  0.00    -0.246 OA
ATOM     19  O   UNL A   1      31.897  23.823  25.795  1.00  0.00    -0.422 OA
ATOM     20  C   UNL A   1      30.988  25.578  24.398  1.00  0.00     0.035 A 
ATOM     21  C   UNL A   1      31.801  25.739  22.128  1.00  0.00     0.047 A 
ATOM     22  C   UNL A   1      30.124  25.937  25.574  1.00  0.00     0.052 C 
BRANCH  13  23
ATOM     23  C   UNL A   1      34.482  21.106  25.365  1.00  0.00     0.079 C 
BRANCH  23  24
ATOM     24  C   UNL A   1      33.996  19.850  24.665  1.00  0.00    -0.043 A 
ATOM     25  C   UNL A   1      32.786  19.851  23.956  1.00  0.00     0.004 A 
ATOM     26  C   UNL A   1      34.773  18.682  24.667  1.00  0.00     0.004 A 
ATOM     27  C   UNL A   1      32.373  18.713  23.257  1.00  0.00     0.000 A 
ATOM     28  C   UNL A   1      34.366  17.552  23.958  1.00  0.00     0.000 A 
ATOM     29  C   UNL A   1      33.166  17.568  23.252  1.00  0.00     0.000 A 
ENDBRANCH  23  24
ENDBRANCH  13  23
ENDBRANCH   9  10
ENDBRANCH   7   9
ENDBRANCH   4   7
ENDBRANCH   2   3
ENDBRANCH   1   2
BRANCH   1  30
ATOM     30  C   UNL A   1      33.427  28.160  25.005  1.00  0.00     0.023 C 
BRANCH  30  31
ATOM     31  C   UNL A   1      34.046  28.621  26.319  1.00  0.00     0.116 C 
BRANCH  31  32
ATOM     32  N   UNL A   1      33.761  30.021  26.602  1.00  0.00    -0.352 N 
ATOM     33  C   UNL A   1      34.435  30.872  27.442  1.00  0.00     0.251 C 
ATOM     34  H   UNL A   1      32.988  30.406  26.131  1.00  0.00     0.163 HD
ATOM     35  O   UNL A   1      33.982  31.983  27.700  1.00  0.00    -0.269 OA
BRANCH  33  36
ATOM     36  C   UNL A   1      35.704  30.421  28.044  1.00  0.00     0.039 A 
ATOM     37  C   UNL A   1      35.685  29.822  29.306  1.00  0.00     0.014 A 
ATOM     38  C   UNL A   1      36.902  30.558  27.335  1.00  0.00     0.014 A 
ATOM     39  C   UNL A   1      36.869  29.313  29.840  1.00  0.00     0.010 A 
ATOM     40  C   UNL A   1      38.070  30.006  27.847  1.00  0.00     0.010 A 
ATOM     41  C   UNL A   1      38.063  29.385  29.105  1.00  0.00    -0.014 A 
BRANCH  41  42
ATOM     42  C   UNL A   1      39.328  28.834  29.646  1.00  0.00     0.031 A 
ATOM     43  C   UNL A   1      39.973  29.484  30.835  1.00  0.00     0.074 A 
ATOM     44  C   UNL A   1      39.920  27.793  29.031  1.00  0.00     0.049 A 
ATOM     45  N   UNL A   1      41.090  29.174  31.435  1.00  0.00    -0.248 NA
ATOM     46  C   UNL A   1      39.279  30.646  31.414  1.00  0.00     0.031 C 
ATOM     47  C   UNL A   1      39.407  27.115  27.841  1.00  0.00     0.029 A 
ATOM     48  N   UNL A   1      41.090  27.133  29.313  1.00  0.00    -0.354 N 
ATOM     49  C   UNL A   1      41.237  30.102  32.459  1.00  0.00     0.074 A 
ATOM     50  C   UNL A   1      40.123  31.018  32.366  1.00  0.00     0.031 C 
ATOM     51  C   UNL A   1      40.250  26.127  27.502  1.00  0.00     0.029 A 
ATOM     52  C   UNL A   1      41.378  26.118  28.433  1.00  0.00     0.049 A 
ATOM     53  H   UNL A   1      41.669  27.365  30.075  1.00  0.00     0.167 HD
ATOM     54  C   UNL A   1      42.200  30.165  33.407  1.00  0.00     0.034 A 
ATOM     55  C   UNL A   1      42.429  25.273  28.382  1.00  0.00     0.034 A 
ATOM     56  C   UNL A   1      43.294  29.235  33.501  1.00  0.00     0.049 A 
ATOM     57  C   UNL A   1      43.488  25.360  29.450  1.00  0.00     0.074 A 
ATOM     58  C   UNL A   1      44.288  29.182  34.459  1.00  0.00     0.029 A 
ATOM     59  N   UNL A   1      43.536  28.200  32.610  1.00  0.00    -0.354 N 
ATOM     60  N   UNL A   1      43.563  26.182  30.469  1.00  0.00    -0.248 NA
ATOM     61  C   UNL A   1      44.599  24.400  29.374  1.00  0.00     0.031 C 
ATOM     62  C   UNL A   1      45.156  28.139  34.127  1.00  0.00     0.029 A 
ATOM     63  C   UNL A   1      44.675  27.511  32.988  1.00  0.00     0.049 A 
ATOM     64  H   UNL A   1      42.980  27.987  31.827  1.00  0.00     0.167 HD
ATOM     65  C   UNL A   1      44.709  25.823  31.171  1.00  0.00     0.074 A 
ATOM     66  C   UNL A   1      45.292  24.699  30.467  1.00  0.00     0.031 C 
ATOM     67  C   UNL A   1      45.232  26.375  32.294  1.00  0.00     0.034 A 
BRANCH  54  68
ATOM     68  C   UNL A   1      42.104  31.248  34.446  1.00  0.00     0.023 A 
ATOM     69  C   UNL A   1      41.032  31.266  35.355  1.00  0.00     0.031 A 
ATOM     70  C   UNL A   1      43.019  32.317  34.467  1.00  0.00     0.131 A 
ATOM     71  C   UNL A   1      40.890  32.344  36.237  1.00  0.00     0.055 A 
ATOM     72  C   UNL A   1      42.891  33.372  35.369  1.00  0.00     0.041 A 
ATOM     73  F   UNL A   1      44.061  32.338  33.620  1.00  0.00    -0.206 F 
ATOM     74  C   UNL A   1      41.816  33.393  36.254  1.00  0.00     0.022 A 
BRANCH  71  75
ATOM     75  S   UNL A   1      39.484  32.441  37.378  1.00  0.00     0.124 S 
ATOM     76  O   UNL A   1      38.883  33.721  37.008  1.00  0.00    -0.237 OA
ATOM     77  O   UNL A   1      38.711  31.258  37.009  1.00  0.00    -0.237 OA
ATOM     78  O   UNL A   1      40.103  32.408  38.698  1.00  0.00    -0.744 OA
ENDBRANCH  71  75
ENDBRANCH  54  68
BRANCH  55  79
ATOM     79  C   UNL A   1      42.472  24.231  27.318  1.00  0.00     0.023 A 
ATOM     80  C   UNL A   1      41.624  23.109  27.364  1.00  0.00     0.031 A 
ATOM     81  C   UNL A   1      43.433  24.296  26.295  1.00  0.00     0.131 A 
ATOM     82  C   UNL A   1      41.790  22.075  26.433  1.00  0.00     0.055 A 
ATOM     83  C   UNL A   1      43.556  23.290  25.335  1.00  0.00     0.041 A 
ATOM     84  F   UNL A   1      44.270  25.342  26.222  1.00  0.00    -0.206 F 
ATOM     85  C   UNL A   1      42.740  22.166  25.408  1.00  0.00     0.022 A 
BRANCH  82  86
ATOM     86  S   UNL A   1      40.841  20.536  26.571  1.00  0.00     0.124 S 
ATOM     87  O   UNL A   1      41.566  19.645  25.670  1.00  0.00    -0.237 OA
ATOM     88  O   UNL A   1      40.971  20.236  27.995  1.00  0.00    -0.237 OA
ATOM     89  O   UNL A   1      39.501  20.918  26.135  1.00  0.00    -0.744 OA
ENDBRANCH  82  86
ENDBRANCH  55  79
BRANCH  67  90
ATOM     90  C   UNL A   1      46.492  25.787  32.871  1.00  0.00     0.023 A 
ATOM     91  C   UNL A   1      47.734  26.061  32.267  1.00  0.00     0.031 A 
ATOM     92  C   UNL A   1      46.446  24.832  33.900  1.00  0.00     0.131 A 
ATOM     93  C   UNL A   1      48.873  25.353  32.665  1.00  0.00     0.055 A 
ATOM     94  C   UNL A   1      47.592  24.157  34.323  1.00  0.00     0.041 A 
ATOM     95  F   UNL A   1      45.281  24.531  34.497  1.00  0.00    -0.206 F 
ATOM     96  C   UNL A   1      48.810  24.407  33.695  1.00  0.00     0.022 A 
BRANCH  93  97
ATOM     97  S   UNL A   1      50.460  25.579  31.818  1.00  0.00     0.124 S 
ATOM     98  O   UNL A   1      51.335  25.989  32.914  1.00  0.00    -0.237 OA
ATOM     99  O   UNL A   1      50.713  24.244  31.284  1.00  0.00    -0.237 OA
ATOM    100  O   UNL A   1      50.186  26.612  30.825  1.00  0.00    -0.744 OA
ENDBRANCH  93  97
ENDBRANCH  67  90
ENDBRANCH  41  42
ENDBRANCH  33  36
ENDBRANCH  31  32
ENDBRANCH  30  31
ENDBRANCH   1  30
TORSDOF 18
ENDMDL
MODEL 2
REMARK VINA RESULT:     -12.9      4.822      8.743
REMARK SMILES Cc1c(Cc2ccccc2)c(=O)oc2c(C)c(O[C@H](C)C(=O)NCCCCNC(=O)c3ccc(-c4c5nc(c(-c6cc(S(=O)(=O)[O-])ccc6F)c6ccc([nH]6)c(-c6cc(S(=O)(=O)[O-])ccc6F)c6nc(c(-c7cc(S(=O)(=O)[O-])ccc7F)c7ccc4[nH]7)C=C6)C=C5)cc3)ccc12
REMARK SMILES IDX 25 1 24 2 23 3 21 4 22 5 19 7 20 8 18 9 17 10 1 11 2 12 3 13
REMARK SMILES IDX 96 14 11 15 14 16 95 17 12 18 13 19 15 20 94 21 16 22 4 23
REMARK SMILES IDX 5 24 6 25 10 26 7 27 9 28 8 29 26 30 27 31 28 32 29 33 30 35
REMARK SMILES IDX 31 36 32 37 93 38 33 39 92 40 34 41 35 42 36 43 86 44 37 45
REMARK SMILES IDX 91 46 85 47 87 48 38 49 90 50 84 51 83 52 39 54 71 55 51 56
REMARK SMILES IDX 70 57 52 58 55 59 69 60 88 61 53 62 54 63 68 65 89 66 56 67
REMARK SMILES IDX 40 68 41 69 49 70 42 71 48 72 50 73 47 74 43 75 44 76 45 77
REMARK SMILES IDX 46 78 72 79 73 80 81 81 74 82 80 83 82 84 79 85 75 86 76 87
REMARK SMILES IDX 77 88 78 89 57 90 58 91 66 92 59 93 65 94 67 95 64 96 60 97
REMARK SMILES IDX 61 98 62 99 63 100
REMARK H PARENT 23 6 28 34 87 53 55 64
REMARK Flexibility Score: inf
ROOT
ATOM      1  C   UNL A   1      36.784  19.982  24.964  1.00  0.00     0.023 C 
ENDROOT
BRANCH   1   2
ATOM      2  C   UNL A   1      36.019  21.306  25.041  1.00  0.00     0.116 C 
BRANCH   2   3
ATOM      3  N   UNL A   1      35.191  21.354  26.229  1.00  0.00    -0.353 N 
ATOM      4  C   UNL A   1      33.889  20.992  26.407  1.00  0.00     0.260 C 
ATOM      5  O   UNL A   1      33.358  21.276  27.484  1.00  0.00    -0.271 OA
ATOM      6  H   UNL A   1      35.640  21.702  27.033  1.00  0.00     0.163 HD
BRANCH   4   7
ATOM      7  C   UNL A   1      33.099  20.257  25.311  1.00  0.00     0.258 C 
ATOM      8  C   UNL A   1      33.003  18.756  25.587  1.00  0.00     0.064 C 
BRANCH   7   9
ATOM      9  O   UNL A   1      31.785  20.760  25.136  1.00  0.00    -0.480 OA
BRANCH   9  10
ATOM     10  C   UNL A   1      31.513  22.058  24.804  1.00  0.00     0.127 A 
ATOM     11  C   UNL A   1      31.583  26.290  21.747  1.00  0.00     0.046 C 
ATOM     12  C   UNL A   1      31.418  26.083  23.229  1.00  0.00    -0.029 A 
ATOM     13  C   UNL A   1      31.270  27.085  24.123  1.00  0.00     0.046 A 
ATOM     14  C   UNL A   1      31.450  24.692  23.717  1.00  0.00     0.021 A 
ATOM     15  C   UNL A   1      30.959  26.788  25.547  1.00  0.00     0.340 A 
ATOM     16  C   UNL A   1      30.990  24.405  25.001  1.00  0.00     0.145 A 
ATOM     17  C   UNL A   1      31.957  23.630  22.972  1.00  0.00     0.016 A 
ATOM     18  O   UNL A   1      30.913  27.663  26.406  1.00  0.00    -0.246 OA
ATOM     19  O   UNL A   1      30.631  25.478  25.849  1.00  0.00    -0.422 OA
ATOM     20  C   UNL A   1      30.938  23.096  25.553  1.00  0.00     0.035 A 
ATOM     21  C   UNL A   1      32.010  22.347  23.521  1.00  0.00     0.047 A 
ATOM     22  C   UNL A   1      30.318  22.942  26.913  1.00  0.00     0.052 C 
BRANCH  13  23
ATOM     23  C   UNL A   1      31.379  28.564  23.807  1.00  0.00     0.079 C 
BRANCH  23  24
ATOM     24  C   UNL A   1      30.022  29.207  23.587  1.00  0.00    -0.043 A 
ATOM     25  C   UNL A   1      29.839  30.581  23.805  1.00  0.00     0.004 A 
ATOM     26  C   UNL A   1      28.940  28.452  23.111  1.00  0.00     0.004 A 
ATOM     27  C   UNL A   1      28.606  31.183  23.539  1.00  0.00     0.000 A 
ATOM     28  C   UNL A   1      27.713  29.057  22.833  1.00  0.00     0.000 A 
ATOM     29  C   UNL A   1      27.547  30.423  23.046  1.00  0.00     0.000 A 
ENDBRANCH  23  24
ENDBRANCH  13  23
ENDBRANCH   9  10
ENDBRANCH   7   9
ENDBRANCH   4   7
ENDBRANCH   2   3
ENDBRANCH   1   2
BRANCH   1  30
ATOM     30  C   UNL A   1      38.287  20.135  24.715  1.00  0.00     0.023 C 
BRANCH  30  31
ATOM     31  C   UNL A   1      39.137  20.238  25.976  1.00  0.00     0.116 C 
BRANCH  31  32
ATOM     32  N   UNL A   1      40.183  19.226  26.020  1.00  0.00    -0.352 N 
ATOM     33  C   UNL A   1      41.539  19.409  26.138  1.00  0.00     0.251 C 
ATOM     34  H   UNL A   1      39.880  18.292  25.959  1.00  0.00     0.163 HD
ATOM     35  O   UNL A   1      42.310  18.465  26.002  1.00  0.00    -0.269 OA
BRANCH  33  36
ATOM     36  C   UNL A   1      42.052  20.764  26.414  1.00  0.00     0.039 A 
ATOM     37  C   UNL A   1      42.270  21.640  25.348  1.00  0.00     0.014 A 
ATOM     38  C   UNL A   1      42.276  21.172  27.733  1.00  0.00     0.014 A 
ATOM     39  C   UNL A   1      42.669  22.951  25.610  1.00  0.00     0.010 A 
ATOM     40  C   UNL A   1      42.625  22.492  27.994  1.00  0.00     0.010 A 
ATOM     41  C   UNL A   1      42.830  23.389  26.935  1.00  0.00    -0.014 A 
BRANCH  41  42
ATOM     42  C   UNL A   1      43.236  24.782  27.235  1.00  0.00     0.031 A 
ATOM     43  C   UNL A   1      42.247  25.727  27.853  1.00  0.00     0.074 A 
ATOM     44  C   UNL A   1      44.468  25.207  26.896  1.00  0.00     0.049 A 
ATOM     45  N   UNL A   1      42.398  26.987  28.161  1.00  0.00    -0.248 NA
ATOM     46  C   UNL A   1      40.909  25.189  28.147  1.00  0.00     0.031 C 
ATOM     47  C   UNL A   1      45.492  24.388  26.248  1.00  0.00     0.029 A 
ATOM     48  N   UNL A   1      45.063  26.436  27.036  1.00  0.00    -0.354 N 
ATOM     49  C   UNL A   1      41.176  27.395  28.682  1.00  0.00     0.074 A 
ATOM     50  C   UNL A   1      40.279  26.265  28.598  1.00  0.00     0.031 C 
ATOM     51  C   UNL A   1      46.593  25.132  26.058  1.00  0.00     0.029 A 
ATOM     52  C   UNL A   1      46.345  26.488  26.545  1.00  0.00     0.049 A 
ATOM     53  H   UNL A   1      44.613  27.207  27.450  1.00  0.00     0.167 HD
ATOM     54  C   UNL A   1      40.843  28.597  29.207  1.00  0.00     0.034 A 
ATOM     55  C   UNL A   1      47.223  27.512  26.494  1.00  0.00     0.034 A 
ATOM     56  C   UNL A   1      41.751  29.709  29.301  1.00  0.00     0.049 A 
ATOM     57  C   UNL A   1      46.831  28.841  27.087  1.00  0.00     0.074 A 
ATOM     58  C   UNL A   1      41.524  30.949  29.868  1.00  0.00     0.029 A 
ATOM     59  N   UNL A   1      43.052  29.716  28.822  1.00  0.00    -0.354 N 
ATOM     60  N   UNL A   1      45.703  29.183  27.663  1.00  0.00    -0.248 NA
ATOM     61  C   UNL A   1      47.829  29.919  27.039  1.00  0.00     0.031 C 
ATOM     62  C   UNL A   1      42.675  31.721  29.697  1.00  0.00     0.029 A 
ATOM     63  C   UNL A   1      43.636  30.946  29.067  1.00  0.00     0.049 A 
ATOM     64  H   UNL A   1      43.494  28.959  28.376  1.00  0.00     0.167 HD
ATOM     65  C   UNL A   1      45.865  30.504  28.070  1.00  0.00     0.074 A 
ATOM     66  C   UNL A   1      47.205  30.896  27.686  1.00  0.00     0.031 C 
ATOM     67  C   UNL A   1      44.983  31.317  28.702  1.00  0.00     0.034 A 
BRANCH  54  68
ATOM     68  C   UNL A   1      39.453  28.772  29.755  1.00  0.00     0.023 A 
ATOM     69  C   UNL A   1      38.450  29.363  28.968  1.00  0.00     0.031 A 
ATOM     70  C   UNL A   1      39.153  28.444  31.090  1.00  0.00     0.131 A 
ATOM     71  C   UNL A   1      37.196  29.629  29.531  1.00  0.00     0.055 A 
ATOM     72  C   UNL A   1      37.893  28.682  31.636  1.00  0.00     0.041 A 
ATOM     73  F   UNL A   1      40.080  27.873  31.876  1.00  0.00    -0.206 F 
ATOM     74  C   UNL A   1      36.909  29.285  30.857  1.00  0.00     0.022 A 
BRANCH  71  75
ATOM     75  S   UNL A   1      35.896  30.454  28.573  1.00  0.00     0.124 S 
ATOM     76  O   UNL A   1      35.235  31.262  29.595  1.00  0.00    -0.237 OA
ATOM     77  O   UNL A   1      36.673  31.204  27.590  1.00  0.00    -0.237 OA
ATOM     78  O   UNL A   1      35.098  29.353  28.045  1.00  0.00    -0.744 OA
ENDBRANCH  71  75
ENDBRANCH  54  68
BRANCH  55  79
ATOM     79  C   UNL A   1      48.579  27.277  25.924  1.00  0.00     0.023 A 
ATOM     80  C   UNL A   1      48.861  27.561  24.575  1.00  0.00     0.031 A 
ATOM     81  C   UNL A   1      49.582  26.671  26.699  1.00  0.00     0.131 A 
ATOM     82  C   UNL A   1      50.098  27.192  24.032  1.00  0.00     0.055 A 
ATOM     83  C   UNL A   1      50.834  26.358  26.167  1.00  0.00     0.041 A 
ATOM     84  F   UNL A   1      49.352  26.372  27.986  1.00  0.00    -0.206 F 
ATOM     85  C   UNL A   1      51.094  26.607  24.823  1.00  0.00     0.022 A 
BRANCH  82  86
ATOM     86  S   UNL A   1      50.429  27.375  22.258  1.00  0.00     0.124 S 
ATOM     87  O   UNL A   1      51.786  26.851  22.141  1.00  0.00    -0.237 OA
ATOM     88  O   UNL A   1      49.379  26.544  21.675  1.00  0.00    -0.237 OA
ATOM     89  O   UNL A   1      50.286  28.810  22.028  1.00  0.00    -0.744 OA
ENDBRANCH  82  86
ENDBRANCH  55  79
BRANCH  67  90
ATOM     90  C   UNL A   1      45.410  32.719  29.050  1.00  0.00     0.023 A 
ATOM     91  C   UNL A   1      45.169  33.769  28.143  1.00  0.00     0.031 A 
ATOM     92  C   UNL A   1      46.197  32.981  30.183  1.00  0.00     0.131 A 
ATOM     93  C   UNL A   1      45.749  35.024  28.363  1.00  0.00     0.055 A 
ATOM     94  C   UNL A   1      46.739  34.245  30.420  1.00  0.00     0.041 A 
ATOM     95  F   UNL A   1      46.461  32.006  31.068  1.00  0.00    -0.206 F 
ATOM     96  C   UNL A   1      46.527  35.270  29.500  1.00  0.00     0.022 A 
BRANCH  93  97
ATOM     97  S   UNL A   1      45.575  36.360  27.149  1.00  0.00     0.124 S 
ATOM     98  O   UNL A   1      46.556  35.980  26.134  1.00  0.00    -0.237 OA
ATOM     99  O   UNL A   1      44.178  36.227  26.747  1.00  0.00    -0.237 OA
ATOM    100  O   UNL A   1      45.902  37.566  27.904  1.00  0.00    -0.744 OA
ENDBRANCH  93  97
ENDBRANCH  67  90
ENDBRANCH  41  42
ENDBRANCH  33  36
ENDBRANCH  31  32
ENDBRANCH  30  31
ENDBRANCH   1  30
TORSDOF 18
ENDMDL
MODEL 3
REMARK VINA RESULT:     -12.9      4.677      9.935
REMARK SMILES Cc1c(Cc2ccccc2)c(=O)oc2c(C)c(O[C@H](C)C(=O)NCCCCNC(=O)c3ccc(-c4c5nc(c(-c6cc(S(=O)(=O)[O-])ccc6F)c6ccc([nH]6)c(-c6cc(S(=O)(=O)[O-])ccc6F)c6nc(c(-c7cc(S(=O)(=O)[O-])ccc7F)c7ccc4[nH]7)C=C6)C=C5)cc3)ccc12
REMARK SMILES IDX 25 1 24 2 23 3 21 4 22 5 19 7 20 8 18 9 17 10 1 11 2 12 3 13
REMARK SMILES IDX 96 14 11 15 14 16 95 17 12 18 13 19 15 20 94 21 16 22 4 23
REMARK SMILES IDX 5 24 6 25 10 26 7 27 9 28 8 29 26 30 27 31 28 32 29 33 30 35
REMARK SMILES IDX 31 36 32 37 93 38 33 39 92 40 34 41 35 42 36 43 86 44 37 45
REMARK SMILES IDX 91 46 85 47 87 48 38 49 90 50 84 51 83 52 39 54 71 55 51 56
REMARK SMILES IDX 70 57 52 58 55 59 69 60 88 61 53 62 54 63 68 65 89 66 56 67
REMARK SMILES IDX 40 68 41 69 49 70 42 71 48 72 50 73 47 74 43 75 44 76 45 77
REMARK SMILES IDX 46 78 72 79 73 80 81 81 74 82 80 83 82 84 79 85 75 86 76 87
REMARK SMILES IDX 77 88 78 89 57 90 58 91 66 92 59 93 65 94 67 95 64 96 60 97
REMARK SMILES IDX 61 98 62 99 63 100
REMARK H PARENT 23 6 28 34 87 53 55 64
REMARK Flexibility Score: inf
ROOT
ATOM      1  C   UNL A   1      36.842  19.979  24.995  1.00  0.00     0.023 C 
ENDROOT
BRANCH   1   2
ATOM      2  C   UNL A   1      36.025  21.274  25.017  1.00  0.00     0.116 C 
BRANCH   2   3
ATOM      3  N   UNL A   1      35.224  21.355  26.221  1.00  0.00    -0.353 N 
ATOM      4  C   UNL A   1      33.924  21.005  26.436  1.00  0.00     0.260 C 
ATOM      5  O   UNL A   1      33.418  21.318  27.518  1.00  0.00    -0.271 OA
ATOM      6  H   UNL A   1      35.691  21.721  27.007  1.00  0.00     0.163 HD
BRANCH   4   7
ATOM      7  C   UNL A   1      33.106  20.247  25.376  1.00  0.00     0.258 C 
ATOM      8  C   UNL A   1      32.995  18.756  25.700  1.00  0.00     0.064 C 
BRANCH   7   9
ATOM      9  O   UNL A   1      31.796  20.762  25.207  1.00  0.00    -0.480 OA
BRANCH   9  10
ATOM     10  C   UNL A   1      31.536  22.056  24.849  1.00  0.00     0.127 A 
ATOM     11  C   UNL A   1      31.660  26.230  21.715  1.00  0.00     0.046 C 
ATOM     12  C   UNL A   1      31.481  26.051  23.199  1.00  0.00    -0.029 A 
ATOM     13  C   UNL A   1      31.332  27.071  24.074  1.00  0.00     0.046 A 
ATOM     14  C   UNL A   1      31.500  24.669  23.713  1.00  0.00     0.021 A 
ATOM     15  C   UNL A   1      31.006  26.802  25.499  1.00  0.00     0.340 A 
ATOM     16  C   UNL A   1      31.027  24.409  24.998  1.00  0.00     0.145 A 
ATOM     17  C   UNL A   1      32.006  23.591  22.992  1.00  0.00     0.016 A 
ATOM     18  O   UNL A   1      30.959  27.693  26.342  1.00  0.00    -0.246 OA
ATOM     19  O   UNL A   1      30.667  25.500  25.823  1.00  0.00    -0.422 OA
ATOM     20  C   UNL A   1      30.961  23.111  25.573  1.00  0.00     0.035 A 
ATOM     21  C   UNL A   1      32.046  22.317  23.565  1.00  0.00     0.047 A 
ATOM     22  C   UNL A   1      30.328  22.986  26.930  1.00  0.00     0.052 C 
BRANCH  13  23
ATOM     23  C   UNL A   1      31.453  28.543  23.731  1.00  0.00     0.079 C 
BRANCH  23  24
ATOM     24  C   UNL A   1      30.102  29.189  23.482  1.00  0.00    -0.043 A 
ATOM     25  C   UNL A   1      29.040  28.443  22.950  1.00  0.00     0.004 A 
ATOM     26  C   UNL A   1      29.875  30.529  23.828  1.00  0.00     0.004 A 
ATOM     27  C   UNL A   1      27.780  29.023  22.783  1.00  0.00     0.000 A 
ATOM     28  C   UNL A   1      28.612  31.103  23.673  1.00  0.00     0.000 A 
ATOM     29  C   UNL A   1      27.564  30.348  23.152  1.00  0.00     0.000 A 
ENDBRANCH  23  24
ENDBRANCH  13  23
ENDBRANCH   9  10
ENDBRANCH   7   9
ENDBRANCH   4   7
ENDBRANCH   2   3
ENDBRANCH   1   2
BRANCH   1  30
ATOM     30  C   UNL A   1      38.348  20.187  24.803  1.00  0.00     0.023 C 
BRANCH  30  31
ATOM     31  C   UNL A   1      39.165  20.172  26.089  1.00  0.00     0.116 C 
BRANCH  31  32
ATOM     32  N   UNL A   1      40.275  19.232  26.027  1.00  0.00    -0.352 N 
ATOM     33  C   UNL A   1      41.620  19.500  26.084  1.00  0.00     0.251 C 
ATOM     34  H   UNL A   1      40.030  18.284  25.933  1.00  0.00     0.163 HD
ATOM     35  O   UNL A   1      42.443  18.619  25.860  1.00  0.00    -0.269 OA
BRANCH  33  36
ATOM     36  C   UNL A   1      42.059  20.872  26.403  1.00  0.00     0.039 A 
ATOM     37  C   UNL A   1      42.236  21.790  25.364  1.00  0.00     0.014 A 
ATOM     38  C   UNL A   1      42.253  21.253  27.734  1.00  0.00     0.014 A 
ATOM     39  C   UNL A   1      42.562  23.112  25.666  1.00  0.00     0.010 A 
ATOM     40  C   UNL A   1      42.530  22.582  28.035  1.00  0.00     0.010 A 
ATOM     41  C   UNL A   1      42.692  23.519  27.004  1.00  0.00    -0.014 A 
BRANCH  41  42
ATOM     42  C   UNL A   1      43.021  24.922  27.347  1.00  0.00     0.031 A 
ATOM     43  C   UNL A   1      44.412  25.437  27.116  1.00  0.00     0.074 A 
ATOM     44  C   UNL A   1      42.088  25.707  27.918  1.00  0.00     0.049 A 
ATOM     45  N   UNL A   1      44.905  26.617  27.378  1.00  0.00    -0.248 NA
ATOM     46  C   UNL A   1      45.380  24.495  26.530  1.00  0.00     0.031 C 
ATOM     47  C   UNL A   1      40.720  25.295  28.232  1.00  0.00     0.029 A 
ATOM     48  N   UNL A   1      42.153  27.008  28.351  1.00  0.00    -0.354 N 
ATOM     49  C   UNL A   1      46.239  26.561  26.993  1.00  0.00     0.074 A 
ATOM     50  C   UNL A   1      46.492  25.216  26.530  1.00  0.00     0.031 C 
ATOM     51  C   UNL A   1      40.071  26.327  28.795  1.00  0.00     0.029 A 
ATOM     52  C   UNL A   1      40.983  27.464  28.908  1.00  0.00     0.049 A 
ATOM     53  H   UNL A   1      42.963  27.562  28.269  1.00  0.00     0.167 HD
ATOM     54  C   UNL A   1      47.160  27.552  27.001  1.00  0.00     0.034 A 
ATOM     55  C   UNL A   1      40.677  28.663  29.446  1.00  0.00     0.034 A 
ATOM     56  C   UNL A   1      46.890  28.893  27.447  1.00  0.00     0.049 A 
ATOM     57  C   UNL A   1      41.718  29.752  29.441  1.00  0.00     0.074 A 
ATOM     58  C   UNL A   1      47.742  29.982  27.440  1.00  0.00     0.029 A 
ATOM     59  N   UNL A   1      45.684  29.328  27.975  1.00  0.00    -0.354 N 
ATOM     60  N   UNL A   1      42.948  29.713  28.985  1.00  0.00    -0.248 NA
ATOM     61  C   UNL A   1      41.333  31.053  30.009  1.00  0.00     0.031 C 
ATOM     62  C   UNL A   1      47.064  31.067  28.001  1.00  0.00     0.029 A 
ATOM     63  C   UNL A   1      45.774  30.667  28.312  1.00  0.00     0.049 A 
ATOM     64  H   UNL A   1      44.883  28.768  28.091  1.00  0.00     0.167 HD
ATOM     65  C   UNL A   1      43.473  30.986  29.184  1.00  0.00     0.074 A 
ATOM     66  C   UNL A   1      42.424  31.779  29.791  1.00  0.00     0.031 C 
ATOM     67  C   UNL A   1      44.712  31.454  28.892  1.00  0.00     0.034 A 
BRANCH  54  68
ATOM     68  C   UNL A   1      48.537  27.245  26.481  1.00  0.00     0.023 A 
ATOM     69  C   UNL A   1      48.869  27.526  25.144  1.00  0.00     0.031 A 
ATOM     70  C   UNL A   1      49.485  26.582  27.282  1.00  0.00     0.131 A 
ATOM     71  C   UNL A   1      50.113  27.127  24.641  1.00  0.00     0.055 A 
ATOM     72  C   UNL A   1      50.735  26.215  26.784  1.00  0.00     0.041 A 
ATOM     73  F   UNL A   1      49.212  26.298  28.566  1.00  0.00    -0.206 F 
ATOM     74  C   UNL A   1      51.049  26.480  25.455  1.00  0.00     0.022 A 
BRANCH  71  75
ATOM     75  S   UNL A   1      50.555  27.407  22.905  1.00  0.00     0.124 S 
ATOM     76  O   UNL A   1      49.449  26.758  22.203  1.00  0.00    -0.237 OA
ATOM     77  O   UNL A   1      50.572  28.866  22.828  1.00  0.00    -0.237 OA
ATOM     78  O   UNL A   1      51.848  26.750  22.762  1.00  0.00    -0.744 OA
ENDBRANCH  71  75
ENDBRANCH  54  68
BRANCH  55  79
ATOM     79  C   UNL A   1      39.298  28.898  29.958  1.00  0.00     0.023 A 
ATOM     80  C   UNL A   1      38.333  29.555  29.173  1.00  0.00     0.031 A 
ATOM     81  C   UNL A   1      38.961  28.558  31.278  1.00  0.00     0.131 A 
ATOM     82  C   UNL A   1      37.094  29.893  29.735  1.00  0.00     0.055 A 
ATOM     83  C   UNL A   1      37.705  28.846  31.815  1.00  0.00     0.041 A 
ATOM     84  F   UNL A   1      39.856  27.943  32.066  1.00  0.00    -0.206 F 
ATOM     85  C   UNL A   1      36.768  29.528  31.046  1.00  0.00     0.022 A 
BRANCH  82  86
ATOM     86  S   UNL A   1      35.897  30.897  28.814  1.00  0.00     0.124 S 
ATOM     87  O   UNL A   1      36.765  31.787  28.049  1.00  0.00    -0.237 OA
ATOM     88  O   UNL A   1      35.195  29.880  28.036  1.00  0.00    -0.237 OA
ATOM     89  O   UNL A   1      35.107  31.536  29.861  1.00  0.00    -0.744 OA
ENDBRANCH  82  86
ENDBRANCH  55  79
BRANCH  67  90
ATOM     90  C   UNL A   1      45.034  32.893  29.198  1.00  0.00     0.023 A 
ATOM     91  C   UNL A   1      44.851  33.877  28.208  1.00  0.00     0.031 A 
ATOM     92  C   UNL A   1      45.673  33.258  30.395  1.00  0.00     0.131 A 
ATOM     93  C   UNL A   1      45.345  35.170  28.413  1.00  0.00     0.055 A 
ATOM     94  C   UNL A   1      46.128  34.560  30.612  1.00  0.00     0.041 A 
ATOM     95  F   UNL A   1      45.878  32.350  31.361  1.00  0.00    -0.206 F 
ATOM     96  C   UNL A   1      45.976  35.519  29.613  1.00  0.00     0.022 A 
BRANCH  93  97
ATOM     97  S   UNL A   1      45.251  36.426  27.108  1.00  0.00     0.124 S 
ATOM     98  O   UNL A   1      45.687  37.631  27.812  1.00  0.00    -0.237 OA
ATOM     99  O   UNL A   1      46.191  35.908  26.118  1.00  0.00    -0.237 OA
ATOM    100  O   UNL A   1      43.847  36.416  26.710  1.00  0.00    -0.744 OA
ENDBRANCH  93  97
ENDBRANCH  67  90
ENDBRANCH  41  42
ENDBRANCH  33  36
ENDBRANCH  31  32
ENDBRANCH  30  31
ENDBRANCH   1  30
TORSDOF 18
ENDMDL
