MODEL 1
REMARK VINA RESULT:     -12.2      0.000      0.000
REMARK SMILES CC(=O)Nc1cccc(NC(=O)N[C@H](C(=O)NCCCCNC(=O)c2ccc(-c3c4nc(c(-c5cc(S(=O)(=O)[O-])ccc5F)c5ccc([nH]5)c(-c5cc(S(=O)(=O)[O-])ccc5F)c5nc(c(-c6cc(S(=O)(=O)[O-])ccc6F)c6ccc3[nH]6)C=C5)C=C4)cc2)C(C)C)c1
REMARK SMILES IDX 19 1 18 2 17 3 15 4 16 5 14 7 13 8 10 9 11 10 12 12 9 14
REMARK SMILES IDX 5 15 6 16 91 17 7 18 8 19 4 20 1 21 2 22 3 23 88 25 89 26
REMARK SMILES IDX 90 27 20 28 21 29 22 30 23 31 24 33 25 34 26 35 87 36 27 37
REMARK SMILES IDX 86 38 28 39 29 40 30 41 80 42 31 43 85 44 79 45 81 46 32 47
REMARK SMILES IDX 84 48 78 49 77 50 33 52 65 53 45 54 64 55 46 56 49 57 63 58
REMARK SMILES IDX 82 59 47 60 48 61 62 63 83 64 50 65 34 66 35 67 43 68 36 69
REMARK SMILES IDX 42 70 44 71 41 72 37 73 38 74 39 75 40 76 66 77 67 78 75 79
REMARK SMILES IDX 68 80 74 81 76 82 73 83 69 84 70 85 71 86 72 87 51 88 52 89
REMARK SMILES IDX 60 90 53 91 59 92 61 93 58 94 54 95 55 96 56 97 57 98
REMARK H PARENT 17 6 10 11 13 13 4 24 22 32 81 51 49 62
REMARK Flexibility Score: inf
ROOT
ATOM      1  C   UNL A   1      35.625  22.958  23.686  1.00  0.00     0.023 C 
ENDROOT
BRANCH   1   2
ATOM      2  C   UNL A   1      34.160  22.582  23.452  1.00  0.00     0.116 C 
BRANCH   2   3
ATOM      3  N   UNL A   1      33.725  21.399  24.183  1.00  0.00    -0.354 N 
ATOM      4  C   UNL A   1      32.789  21.310  25.185  1.00  0.00     0.242 C 
ATOM      5  O   UNL A   1      32.323  20.208  25.477  1.00  0.00    -0.273 OA
ATOM      6  H   UNL A   1      34.159  20.553  23.925  1.00  0.00     0.163 HD
BRANCH   4   7
ATOM      7  C   UNL A   1      32.344  22.600  25.911  1.00  0.00     0.175 C 
BRANCH   7   8
ATOM      8  N   UNL A   1      31.055  22.389  26.549  1.00  0.00    -0.326 N 
ATOM      9  N   UNL A   1      29.741  24.411  26.514  1.00  0.00    -0.308 N 
ATOM     10  C   UNL A   1      30.011  23.148  26.875  1.00  0.00     0.319 C 
ATOM     11  H   UNL A   1      28.890  24.689  26.924  1.00  0.00     0.171 HD
ATOM     12  O   UNL A   1      29.144  22.601  27.573  1.00  0.00    -0.248 OA
ATOM     13  H   UNL A   1      30.920  21.449  26.805  1.00  0.00     0.166 HD
BRANCH   9  14
ATOM     14  C   UNL A   1      30.252  25.479  25.751  1.00  0.00     0.044 A 
ATOM     15  C   UNL A   1      31.904  27.269  25.614  1.00  0.00     0.043 A 
ATOM     16  C   UNL A   1      31.238  27.849  24.543  1.00  0.00     0.026 A 
ATOM     17  C   UNL A   1      31.385  26.130  26.252  1.00  0.00     0.052 A 
ATOM     18  C   UNL A   1      30.206  27.138  23.962  1.00  0.00     0.004 A 
ATOM     19  C   UNL A   1      29.787  25.930  24.527  1.00  0.00     0.026 A 
BRANCH  15  20
ATOM     20  N   UNL A   1      33.161  27.787  25.937  1.00  0.00    -0.326 N 
ATOM     21  C   UNL A   1      32.173  29.623  27.295  1.00  0.00     0.114 C 
ATOM     22  C   UNL A   1      33.367  28.851  26.783  1.00  0.00     0.221 C 
ATOM     23  O   UNL A   1      34.509  29.119  27.158  1.00  0.00    -0.275 OA
ATOM     24  H   UNL A   1      33.951  27.362  25.533  1.00  0.00     0.169 HD
ENDBRANCH  15  20
ENDBRANCH   9  14
ENDBRANCH   7   8
BRANCH   7  25
ATOM     25  C   UNL A   1      33.430  23.012  26.947  1.00  0.00     0.015 C 
ATOM     26  C   UNL A   1      34.265  21.804  27.388  1.00  0.00     0.010 C 
ATOM     27  C   UNL A   1      34.373  24.134  26.486  1.00  0.00     0.010 C 
ENDBRANCH   7  25
ENDBRANCH   4   7
ENDBRANCH   2   3
ENDBRANCH   1   2
BRANCH   1  28
ATOM     28  C   UNL A   1      36.510  21.827  24.210  1.00  0.00     0.023 C 
BRANCH  28  29
ATOM     29  C   UNL A   1      37.323  22.179  25.451  1.00  0.00     0.116 C 
BRANCH  29  30
ATOM     30  N   UNL A   1      38.369  21.211  25.753  1.00  0.00    -0.352 N 
ATOM     31  C   UNL A   1      39.602  21.434  26.324  1.00  0.00     0.251 C 
ATOM     32  H   UNL A   1      38.168  20.277  25.520  1.00  0.00     0.163 HD
ATOM     33  O   UNL A   1      40.411  20.513  26.403  1.00  0.00    -0.269 OA
BRANCH  31  34
ATOM     34  C   UNL A   1      39.959  22.793  26.793  1.00  0.00     0.039 A 
ATOM     35  C   UNL A   1      40.803  22.934  27.898  1.00  0.00     0.014 A 
ATOM     36  C   UNL A   1      39.493  23.926  26.122  1.00  0.00     0.014 A 
ATOM     37  C   UNL A   1      41.234  24.206  28.283  1.00  0.00     0.010 A 
ATOM     38  C   UNL A   1      39.992  25.182  26.451  1.00  0.00     0.010 A 
ATOM     39  C   UNL A   1      40.863  25.338  27.540  1.00  0.00    -0.014 A 
BRANCH  39  40
ATOM     40  C   UNL A   1      41.349  26.697  27.900  1.00  0.00     0.031 A 
ATOM     41  C   UNL A   1      42.767  27.093  27.584  1.00  0.00     0.074 A 
ATOM     42  C   UNL A   1      40.540  27.547  28.565  1.00  0.00     0.049 A 
ATOM     43  N   UNL A   1      43.408  28.193  27.882  1.00  0.00    -0.248 NA
ATOM     44  C   UNL A   1      43.584  26.098  26.871  1.00  0.00     0.031 C 
ATOM     45  C   UNL A   1      39.163  27.259  28.974  1.00  0.00     0.029 A 
ATOM     46  N   UNL A   1      40.759  28.823  29.020  1.00  0.00    -0.354 N 
ATOM     47  C   UNL A   1      44.705  28.016  27.410  1.00  0.00     0.074 A 
ATOM     48  C   UNL A   1      44.776  26.673  26.875  1.00  0.00     0.031 C 
ATOM     49  C   UNL A   1      38.653  28.337  29.591  1.00  0.00     0.029 A 
ATOM     50  C   UNL A   1      39.674  29.378  29.660  1.00  0.00     0.049 A 
ATOM     51  H   UNL A   1      41.613  29.297  28.900  1.00  0.00     0.167 HD
ATOM     52  C   UNL A   1      45.735  28.900  27.397  1.00  0.00     0.034 A 
ATOM     53  C   UNL A   1      39.521  30.586  30.237  1.00  0.00     0.034 A 
ATOM     54  C   UNL A   1      45.639  30.243  27.915  1.00  0.00     0.049 A 
ATOM     55  C   UNL A   1      40.677  31.556  30.204  1.00  0.00     0.074 A 
ATOM     56  C   UNL A   1      46.600  31.240  27.912  1.00  0.00     0.029 A 
ATOM     57  N   UNL A   1      44.514  30.779  28.530  1.00  0.00    -0.354 N 
ATOM     58  N   UNL A   1      41.882  31.391  29.711  1.00  0.00    -0.248 NA
ATOM     59  C   UNL A   1      40.442  32.883  30.789  1.00  0.00     0.031 C 
ATOM     60  C   UNL A   1      46.078  32.355  28.576  1.00  0.00     0.029 A 
ATOM     61  C   UNL A   1      44.763  32.085  28.926  1.00  0.00     0.049 A 
ATOM     62  H   UNL A   1      43.664  30.302  28.665  1.00  0.00     0.167 HD
ATOM     63  C   UNL A   1      42.536  32.607  29.890  1.00  0.00     0.074 A 
ATOM     64  C   UNL A   1      41.585  33.497  30.524  1.00  0.00     0.031 C 
ATOM     65  C   UNL A   1      43.804  32.959  29.559  1.00  0.00     0.034 A 
BRANCH  52  66
ATOM     66  C   UNL A   1      47.048  28.427  26.817  1.00  0.00     0.023 A 
ATOM     67  C   UNL A   1      47.252  28.338  25.429  1.00  0.00     0.031 A 
ATOM     68  C   UNL A   1      48.096  28.020  27.661  1.00  0.00     0.131 A 
ATOM     69  C   UNL A   1      48.435  27.774  24.928  1.00  0.00     0.055 A 
ATOM     70  C   UNL A   1      49.307  27.543  27.154  1.00  0.00     0.041 A 
ATOM     71  F   UNL A   1      47.956  28.061  28.995  1.00  0.00    -0.206 F 
ATOM     72  C   UNL A   1      49.476  27.402  25.780  1.00  0.00     0.022 A 
BRANCH  69  73
ATOM     73  S   UNL A   1      48.526  27.389  23.157  1.00  0.00     0.124 S 
ATOM     74  O   UNL A   1      48.369  25.936  23.165  1.00  0.00    -0.237 OA
ATOM     75  O   UNL A   1      47.409  28.150  22.610  1.00  0.00    -0.237 OA
ATOM     76  O   UNL A   1      49.854  27.862  22.771  1.00  0.00    -0.744 OA
ENDBRANCH  69  73
ENDBRANCH  52  66
BRANCH  53  77
ATOM     77  C   UNL A   1      38.232  30.960  30.888  1.00  0.00     0.023 A 
ATOM     78  C   UNL A   1      37.224  31.622  30.168  1.00  0.00     0.031 A 
ATOM     79  C   UNL A   1      38.007  30.703  32.252  1.00  0.00     0.131 A 
ATOM     80  C   UNL A   1      36.062  32.054  30.826  1.00  0.00     0.055 A 
ATOM     81  C   UNL A   1      36.825  31.087  32.889  1.00  0.00     0.041 A 
ATOM     82  F   UNL A   1      38.933  30.066  32.986  1.00  0.00    -0.206 F 
ATOM     83  C   UNL A   1      35.850  31.780  32.179  1.00  0.00     0.022 A 
BRANCH  80  84
ATOM     84  S   UNL A   1      34.868  33.061  29.904  1.00  0.00     0.124 S 
ATOM     85  O   UNL A   1      34.290  32.078  28.995  1.00  0.00    -0.237 OA
ATOM     86  O   UNL A   1      33.994  33.543  30.968  1.00  0.00    -0.237 OA
ATOM     87  O   UNL A   1      35.701  34.082  29.273  1.00  0.00    -0.744 OA
ENDBRANCH  80  84
ENDBRANCH  53  77
BRANCH  65  88
ATOM     88  C   UNL A   1      44.209  34.390  29.823  1.00  0.00     0.023 A 
ATOM     89  C   UNL A   1      43.960  35.416  28.896  1.00  0.00     0.031 A 
ATOM     90  C   UNL A   1      44.873  34.723  31.017  1.00  0.00     0.131 A 
ATOM     91  C   UNL A   1      44.433  36.713  29.146  1.00  0.00     0.055 A 
ATOM     92  C   UNL A   1      45.283  36.029  31.291  1.00  0.00     0.041 A 
ATOM     93  F   UNL A   1      45.137  33.784  31.938  1.00  0.00    -0.206 F 
ATOM     94  C   UNL A   1      45.078  37.029  30.345  1.00  0.00     0.022 A 
BRANCH  91  95
ATOM     95  S   UNL A   1      44.291  37.959  27.836  1.00  0.00     0.124 S 
ATOM     96  O   UNL A   1      45.631  37.948  27.259  1.00  0.00    -0.237 OA
ATOM     97  O   UNL A   1      43.232  37.409  26.997  1.00  0.00    -0.237 OA
ATOM     98  O   UNL A   1      43.938  39.179  28.559  1.00  0.00    -0.744 OA
ENDBRANCH  91  95
ENDBRANCH  65  88
ENDBRANCH  39  40
ENDBRANCH  31  34
ENDBRANCH  29  30
ENDBRANCH  28  29
ENDBRANCH   1  28
TORSDOF 18
ENDMDL
MODEL 2
REMARK VINA RESULT:     -12.2      1.232      7.521
REMARK SMILES CC(=O)Nc1cccc(NC(=O)N[C@H](C(=O)NCCCCNC(=O)c2ccc(-c3c4nc(c(-c5cc(S(=O)(=O)[O-])ccc5F)c5ccc([nH]5)c(-c5cc(S(=O)(=O)[O-])ccc5F)c5nc(c(-c6cc(S(=O)(=O)[O-])ccc6F)c6ccc3[nH]6)C=C5)C=C4)cc2)C(C)C)c1
REMARK SMILES IDX 19 1 18 2 17 3 15 4 16 5 14 7 13 8 10 9 11 10 12 12 9 14
REMARK SMILES IDX 5 15 6 16 91 17 7 18 8 19 4 20 1 21 2 22 3 23 88 25 89 26
REMARK SMILES IDX 90 27 20 28 21 29 22 30 23 31 24 33 25 34 26 35 87 36 27 37
REMARK SMILES IDX 86 38 28 39 29 40 30 41 80 42 31 43 85 44 79 45 81 46 32 47
REMARK SMILES IDX 84 48 78 49 77 50 33 52 65 53 45 54 64 55 46 56 49 57 63 58
REMARK SMILES IDX 82 59 47 60 48 61 62 63 83 64 50 65 34 66 35 67 43 68 36 69
REMARK SMILES IDX 42 70 44 71 41 72 37 73 38 74 39 75 40 76 66 77 67 78 75 79
REMARK SMILES IDX 68 80 74 81 76 82 73 83 69 84 70 85 71 86 72 87 51 88 52 89
REMARK SMILES IDX 60 90 53 91 59 92 61 93 58 94 54 95 55 96 56 97 57 98
REMARK H PARENT 17 6 10 11 13 13 4 24 22 32 81 51 49 62
REMARK Flexibility Score: inf
ROOT
ATOM      1  C   UNL A   1      35.075  23.176  23.510  1.00  0.00     0.023 C 
ENDROOT
BRANCH   1   2
ATOM      2  C   UNL A   1      33.753  22.598  23.000  1.00  0.00     0.116 C 
BRANCH   2   3
ATOM      3  N   UNL A   1      33.315  21.401  23.706  1.00  0.00    -0.354 N 
ATOM      4  C   UNL A   1      32.484  21.309  24.797  1.00  0.00     0.242 C 
ATOM      5  O   UNL A   1      31.974  20.222  25.075  1.00  0.00    -0.273 OA
ATOM      6  H   UNL A   1      33.660  20.547  23.357  1.00  0.00     0.163 HD
BRANCH   4   7
ATOM      7  C   UNL A   1      32.206  22.576  25.637  1.00  0.00     0.175 C 
BRANCH   7   8
ATOM      8  N   UNL A   1      30.999  22.393  26.425  1.00  0.00    -0.326 N 
ATOM      9  N   UNL A   1      29.733  24.443  26.544  1.00  0.00    -0.308 N 
ATOM     10  C   UNL A   1      30.018  23.175  26.873  1.00  0.00     0.319 C 
ATOM     11  H   UNL A   1      28.944  24.739  27.052  1.00  0.00     0.171 HD
ATOM     12  O   UNL A   1      29.230  22.646  27.670  1.00  0.00    -0.248 OA
ATOM     13  H   UNL A   1      30.875  21.456  26.697  1.00  0.00     0.166 HD
BRANCH   9  14
ATOM     14  C   UNL A   1      30.172  25.500  25.722  1.00  0.00     0.044 A 
ATOM     15  C   UNL A   1      31.084  27.761  25.637  1.00  0.00     0.043 A 
ATOM     16  C   UNL A   1      30.809  27.858  24.280  1.00  0.00     0.026 A 
ATOM     17  C   UNL A   1      30.715  26.619  26.366  1.00  0.00     0.052 A 
ATOM     18  C   UNL A   1      30.405  26.714  23.619  1.00  0.00     0.004 A 
ATOM     19  C   UNL A   1      30.174  25.538  24.338  1.00  0.00     0.026 A 
BRANCH  15  20
ATOM     20  N   UNL A   1      31.849  28.783  26.205  1.00  0.00    -0.326 N 
ATOM     21  C   UNL A   1      33.985  27.729  25.486  1.00  0.00     0.114 C 
ATOM     22  C   UNL A   1      33.218  28.871  26.110  1.00  0.00     0.221 C 
ATOM     23  O   UNL A   1      33.789  29.899  26.477  1.00  0.00    -0.275 OA
ATOM     24  H   UNL A   1      31.377  29.487  26.706  1.00  0.00     0.169 HD
ENDBRANCH  15  20
ENDBRANCH   9  14
ENDBRANCH   7   8
BRANCH   7  25
ATOM     25  C   UNL A   1      33.436  22.876  26.543  1.00  0.00     0.015 C 
ATOM     26  C   UNL A   1      33.757  24.375  26.567  1.00  0.00     0.010 C 
ATOM     27  C   UNL A   1      33.318  22.364  27.987  1.00  0.00     0.010 C 
ENDBRANCH   7  25
ENDBRANCH   4   7
ENDBRANCH   2   3
ENDBRANCH   1   2
BRANCH   1  28
ATOM     28  C   UNL A   1      36.192  22.153  23.722  1.00  0.00     0.023 C 
BRANCH  28  29
ATOM     29  C   UNL A   1      36.639  21.992  25.171  1.00  0.00     0.116 C 
BRANCH  29  30
ATOM     30  N   UNL A   1      37.531  20.860  25.381  1.00  0.00    -0.352 N 
ATOM     31  C   UNL A   1      38.815  20.863  25.878  1.00  0.00     0.251 C 
ATOM     32  H   UNL A   1      37.168  19.978  25.138  1.00  0.00     0.163 HD
ATOM     33  O   UNL A   1      39.469  19.822  25.881  1.00  0.00    -0.269 OA
BRANCH  31  34
ATOM     34  C   UNL A   1      39.414  22.130  26.357  1.00  0.00     0.039 A 
ATOM     35  C   UNL A   1      40.502  22.082  27.232  1.00  0.00     0.014 A 
ATOM     36  C   UNL A   1      38.928  23.363  25.915  1.00  0.00     0.014 A 
ATOM     37  C   UNL A   1      41.144  23.265  27.605  1.00  0.00     0.010 A 
ATOM     38  C   UNL A   1      39.621  24.530  26.216  1.00  0.00     0.010 A 
ATOM     39  C   UNL A   1      40.733  24.497  27.071  1.00  0.00    -0.014 A 
BRANCH  39  40
ATOM     40  C   UNL A   1      41.431  25.765  27.414  1.00  0.00     0.031 A 
ATOM     41  C   UNL A   1      40.726  26.807  28.243  1.00  0.00     0.074 A 
ATOM     42  C   UNL A   1      42.664  26.008  26.926  1.00  0.00     0.049 A 
ATOM     43  N   UNL A   1      41.123  28.005  28.584  1.00  0.00    -0.248 NA
ATOM     44  C   UNL A   1      39.376  26.465  28.719  1.00  0.00     0.031 C 
ATOM     45  C   UNL A   1      43.428  25.099  26.068  1.00  0.00     0.029 A 
ATOM     46  N   UNL A   1      43.491  27.092  27.077  1.00  0.00    -0.354 N 
ATOM     47  C   UNL A   1      40.068  28.567  29.296  1.00  0.00     0.074 A 
ATOM     48  C   UNL A   1      38.988  27.604  29.272  1.00  0.00     0.031 C 
ATOM     49  C   UNL A   1      44.622  25.651  25.795  1.00  0.00     0.029 A 
ATOM     50  C   UNL A   1      44.695  26.967  26.421  1.00  0.00     0.049 A 
ATOM     51  H   UNL A   1      43.246  27.885  27.605  1.00  0.00     0.167 HD
ATOM     52  C   UNL A   1      40.014  29.761  29.937  1.00  0.00     0.034 A 
ATOM     53  C   UNL A   1      45.737  27.818  26.334  1.00  0.00     0.034 A 
ATOM     54  C   UNL A   1      41.109  30.700  29.970  1.00  0.00     0.049 A 
ATOM     55  C   UNL A   1      45.658  29.138  27.060  1.00  0.00     0.074 A 
ATOM     56  C   UNL A   1      41.185  31.916  30.625  1.00  0.00     0.029 A 
ATOM     57  N   UNL A   1      42.323  30.525  29.317  1.00  0.00    -0.354 N 
ATOM     58  N   UNL A   1      44.671  29.633  27.771  1.00  0.00    -0.248 NA
ATOM     59  C   UNL A   1      46.842  30.003  26.989  1.00  0.00     0.031 C 
ATOM     60  C   UNL A   1      42.418  32.503  30.322  1.00  0.00     0.029 A 
ATOM     61  C   UNL A   1      43.146  31.620  29.539  1.00  0.00     0.049 A 
ATOM     62  H   UNL A   1      42.566  29.740  28.776  1.00  0.00     0.167 HD
ATOM     63  C   UNL A   1      45.133  30.851  28.264  1.00  0.00     0.074 A 
ATOM     64  C   UNL A   1      46.489  31.005  27.779  1.00  0.00     0.031 C 
ATOM     65  C   UNL A   1      44.497  31.759  29.048  1.00  0.00     0.034 A 
BRANCH  52  66
ATOM     66  C   UNL A   1      38.721  30.115  30.636  1.00  0.00     0.023 A 
ATOM     67  C   UNL A   1      37.742  30.912  30.015  1.00  0.00     0.031 A 
ATOM     68  C   UNL A   1      38.478  29.686  31.952  1.00  0.00     0.131 A 
ATOM     69  C   UNL A   1      36.613  31.327  30.737  1.00  0.00     0.055 A 
ATOM     70  C   UNL A   1      37.309  30.029  32.635  1.00  0.00     0.041 A 
ATOM     71  F   UNL A   1      39.383  28.941  32.606  1.00  0.00    -0.206 F 
ATOM     72  C   UNL A   1      36.375  30.868  32.034  1.00  0.00     0.022 A 
BRANCH  69  73
ATOM     73  S   UNL A   1      35.544  32.600  30.012  1.00  0.00     0.124 S 
ATOM     74  O   UNL A   1      36.395  33.785  30.102  1.00  0.00    -0.237 OA
ATOM     75  O   UNL A   1      35.305  32.085  28.669  1.00  0.00    -0.237 OA
ATOM     76  O   UNL A   1      34.378  32.612  30.894  1.00  0.00    -0.744 OA
ENDBRANCH  69  73
ENDBRANCH  52  66
BRANCH  53  77
ATOM     77  C   UNL A   1      46.948  27.457  25.541  1.00  0.00     0.023 A 
ATOM     78  C   UNL A   1      47.086  27.867  24.205  1.00  0.00     0.031 A 
ATOM     79  C   UNL A   1      47.965  26.658  26.092  1.00  0.00     0.131 A 
ATOM     80  C   UNL A   1      48.185  27.432  23.448  1.00  0.00     0.055 A 
ATOM     81  C   UNL A   1      49.084  26.272  25.351  1.00  0.00     0.041 A 
ATOM     82  F   UNL A   1      47.888  26.245  27.368  1.00  0.00    -0.206 F 
ATOM     83  C   UNL A   1      49.190  26.647  24.016  1.00  0.00     0.022 A 
BRANCH  80  84
ATOM     84  S   UNL A   1      48.234  27.833  21.680  1.00  0.00     0.124 S 
ATOM     85  O   UNL A   1      48.478  26.524  21.085  1.00  0.00    -0.237 OA
ATOM     86  O   UNL A   1      46.908  28.401  21.462  1.00  0.00    -0.237 OA
ATOM     87  O   UNL A   1      49.341  28.782  21.578  1.00  0.00    -0.744 OA
ENDBRANCH  80  84
ENDBRANCH  53  77
BRANCH  65  88
ATOM     88  C   UNL A   1      45.292  32.968  29.478  1.00  0.00     0.023 A 
ATOM     89  C   UNL A   1      45.290  34.162  28.736  1.00  0.00     0.031 A 
ATOM     90  C   UNL A   1      46.080  32.914  30.642  1.00  0.00     0.131 A 
ATOM     91  C   UNL A   1      46.113  35.229  29.127  1.00  0.00     0.055 A 
ATOM     92  C   UNL A   1      46.847  34.002  31.063  1.00  0.00     0.041 A 
ATOM     93  F   UNL A   1      46.121  31.800  31.389  1.00  0.00    -0.206 F 
ATOM     94  C   UNL A   1      46.878  35.162  30.295  1.00  0.00     0.022 A 
BRANCH  91  95
ATOM     95  S   UNL A   1      46.255  36.665  28.030  1.00  0.00     0.124 S 
ATOM     96  O   UNL A   1      45.124  37.485  28.454  1.00  0.00    -0.237 OA
ATOM     97  O   UNL A   1      47.577  37.183  28.363  1.00  0.00    -0.237 OA
ATOM     98  O   UNL A   1      46.134  36.089  26.692  1.00  0.00    -0.744 OA
ENDBRANCH  91  95
ENDBRANCH  65  88
ENDBRANCH  39  40
ENDBRANCH  31  34
ENDBRANCH  29  30
ENDBRANCH  28  29
ENDBRANCH   1  28
TORSDOF 18
ENDMDL
MODEL 3
REMARK VINA RESULT:     -11.9      1.965      2.317
REMARK SMILES CC(=O)Nc1cccc(NC(=O)N[C@H](C(=O)NCCCCNC(=O)c2ccc(-c3c4nc(c(-c5cc(S(=O)(=O)[O-])ccc5F)c5ccc([nH]5)c(-c5cc(S(=O)(=O)[O-])ccc5F)c5nc(c(-c6cc(S(=O)(=O)[O-])ccc6F)c6ccc3[nH]6)C=C5)C=C4)cc2)C(C)C)c1
REMARK SMILES IDX 19 1 18 2 17 3 15 4 16 5 14 7 13 8 10 9 11 10 12 12 9 14
REMARK SMILES IDX 5 15 6 16 91 17 7 18 8 19 4 20 1 21 2 22 3 23 88 25 89 26
REMARK SMILES IDX 90 27 20 28 21 29 22 30 23 31 24 33 25 34 26 35 87 36 27 37
REMARK SMILES IDX 86 38 28 39 29 40 30 41 80 42 31 43 85 44 79 45 81 46 32 47
REMARK SMILES IDX 84 48 78 49 77 50 33 52 65 53 45 54 64 55 46 56 49 57 63 58
REMARK SMILES IDX 82 59 47 60 48 61 62 63 83 64 50 65 34 66 35 67 43 68 36 69
REMARK SMILES IDX 42 70 44 71 41 72 37 73 38 74 39 75 40 76 66 77 67 78 75 79
REMARK SMILES IDX 68 80 74 81 76 82 73 83 69 84 70 85 71 86 72 87 51 88 52 89
REMARK SMILES IDX 60 90 53 91 59 92 61 93 58 94 54 95 55 96 56 97 57 98
REMARK H PARENT 17 6 10 11 13 13 4 24 22 32 81 51 49 62
REMARK Flexibility Score: inf
ROOT
ATOM      1  C   UNL A   1      35.426  22.787  23.551  1.00  0.00     0.023 C 
ENDROOT
BRANCH   1   2
ATOM      2  C   UNL A   1      34.292  23.814  23.507  1.00  0.00     0.116 C 
BRANCH   2   3
ATOM      3  N   UNL A   1      32.978  23.238  23.253  1.00  0.00    -0.354 N 
ATOM      4  C   UNL A   1      32.007  22.891  24.162  1.00  0.00     0.242 C 
ATOM      5  O   UNL A   1      30.853  22.710  23.771  1.00  0.00    -0.273 OA
ATOM      6  H   UNL A   1      32.756  23.077  22.307  1.00  0.00     0.163 HD
BRANCH   4   7
ATOM      7  C   UNL A   1      32.393  22.746  25.652  1.00  0.00     0.175 C 
BRANCH   7   8
ATOM      8  N   UNL A   1      31.197  22.570  26.459  1.00  0.00    -0.326 N 
ATOM      9  N   UNL A   1      29.930  24.620  26.571  1.00  0.00    -0.308 N 
ATOM     10  C   UNL A   1      30.221  23.355  26.911  1.00  0.00     0.319 C 
ATOM     11  H   UNL A   1      29.147  24.919  27.087  1.00  0.00     0.171 HD
ATOM     12  O   UNL A   1      29.444  22.834  27.724  1.00  0.00    -0.248 OA
ATOM     13  H   UNL A   1      31.078  21.636  26.743  1.00  0.00     0.166 HD
BRANCH   9  14
ATOM     14  C   UNL A   1      30.356  25.668  25.732  1.00  0.00     0.044 A 
ATOM     15  C   UNL A   1      31.946  27.488  25.406  1.00  0.00     0.043 A 
ATOM     16  C   UNL A   1      31.188  28.010  24.367  1.00  0.00     0.026 A 
ATOM     17  C   UNL A   1      31.506  26.364  26.123  1.00  0.00     0.052 A 
ATOM     18  C   UNL A   1      30.135  27.253  23.891  1.00  0.00     0.004 A 
ATOM     19  C   UNL A   1      29.791  26.059  24.530  1.00  0.00     0.026 A 
BRANCH  15  20
ATOM     20  N   UNL A   1      33.209  28.048  25.615  1.00  0.00    -0.326 N 
ATOM     21  C   UNL A   1      32.311  29.754  27.188  1.00  0.00     0.114 C 
ATOM     22  C   UNL A   1      33.468  29.071  26.496  1.00  0.00     0.221 C 
ATOM     23  O   UNL A   1      34.634  29.373  26.754  1.00  0.00    -0.275 OA
ATOM     24  H   UNL A   1      33.964  27.685  25.097  1.00  0.00     0.169 HD
ENDBRANCH  15  20
ENDBRANCH   9  14
ENDBRANCH   7   8
BRANCH   7  25
ATOM     25  C   UNL A   1      33.372  21.547  25.819  1.00  0.00     0.015 C 
ATOM     26  C   UNL A   1      33.878  21.438  27.262  1.00  0.00     0.010 C 
ATOM     27  C   UNL A   1      32.811  20.186  25.378  1.00  0.00     0.010 C 
ENDBRANCH   7  25
ENDBRANCH   4   7
ENDBRANCH   2   3
ENDBRANCH   1   2
BRANCH   1  28
ATOM     28  C   UNL A   1      36.757  23.311  24.090  1.00  0.00     0.023 C 
BRANCH  28  29
ATOM     29  C   UNL A   1      36.933  23.166  25.597  1.00  0.00     0.116 C 
BRANCH  29  30
ATOM     30  N   UNL A   1      38.017  22.267  25.972  1.00  0.00    -0.352 N 
ATOM     31  C   UNL A   1      39.221  22.578  26.562  1.00  0.00     0.251 C 
ATOM     32  H   UNL A   1      37.868  21.314  25.778  1.00  0.00     0.163 HD
ATOM     33  O   UNL A   1      40.072  21.703  26.706  1.00  0.00    -0.269 OA
BRANCH  31  34
ATOM     34  C   UNL A   1      39.498  23.973  26.974  1.00  0.00     0.039 A 
ATOM     35  C   UNL A   1      39.275  24.349  28.302  1.00  0.00     0.014 A 
ATOM     36  C   UNL A   1      40.013  24.899  26.064  1.00  0.00     0.014 A 
ATOM     37  C   UNL A   1      39.634  25.630  28.729  1.00  0.00     0.010 A 
ATOM     38  C   UNL A   1      40.451  26.141  26.510  1.00  0.00     0.010 A 
ATOM     39  C   UNL A   1      40.259  26.525  27.846  1.00  0.00    -0.014 A 
BRANCH  39  40
ATOM     40  C   UNL A   1      40.696  27.876  28.289  1.00  0.00     0.031 A 
ATOM     41  C   UNL A   1      42.160  28.235  28.265  1.00  0.00     0.074 A 
ATOM     42  C   UNL A   1      39.792  28.752  28.771  1.00  0.00     0.049 A 
ATOM     43  N   UNL A   1      42.755  29.323  28.680  1.00  0.00    -0.248 NA
ATOM     44  C   UNL A   1      43.078  27.213  27.738  1.00  0.00     0.031 C 
ATOM     45  C   UNL A   1      38.354  28.502  28.895  1.00  0.00     0.029 A 
ATOM     46  N   UNL A   1      39.947  30.027  29.254  1.00  0.00    -0.354 N 
ATOM     47  C   UNL A   1      44.115  29.110  28.483  1.00  0.00     0.074 A 
ATOM     48  C   UNL A   1      44.259  27.760  27.981  1.00  0.00     0.031 C 
ATOM     49  C   UNL A   1      37.757  29.598  29.389  1.00  0.00     0.029 A 
ATOM     50  C   UNL A   1      38.769  30.615  29.658  1.00  0.00     0.049 A 
ATOM     51  H   UNL A   1      40.819  30.480  29.307  1.00  0.00     0.167 HD
ATOM     52  C   UNL A   1      45.148  29.969  28.673  1.00  0.00     0.034 A 
ATOM     53  C   UNL A   1      38.534  31.832  30.185  1.00  0.00     0.034 A 
ATOM     54  C   UNL A   1      44.984  31.319  29.153  1.00  0.00     0.049 A 
ATOM     55  C   UNL A   1      39.696  32.774  30.382  1.00  0.00     0.074 A 
ATOM     56  C   UNL A   1      45.950  32.293  29.340  1.00  0.00     0.029 A 
ATOM     57  N   UNL A   1      43.772  31.888  29.524  1.00  0.00    -0.354 N 
ATOM     58  N   UNL A   1      40.971  32.575  30.144  1.00  0.00    -0.248 NA
ATOM     59  C   UNL A   1      39.382  34.112  30.899  1.00  0.00     0.031 C 
ATOM     60  C   UNL A   1      45.333  33.427  29.878  1.00  0.00     0.029 A 
ATOM     61  C   UNL A   1      43.969  33.192  29.956  1.00  0.00     0.049 A 
ATOM     62  H   UNL A   1      42.900  31.433  29.487  1.00  0.00     0.167 HD
ATOM     63  C   UNL A   1      41.606  33.777  30.445  1.00  0.00     0.074 A 
ATOM     64  C   UNL A   1      40.569  34.696  30.869  1.00  0.00     0.031 C 
ATOM     65  C   UNL A   1      42.924  34.095  30.376  1.00  0.00     0.034 A 
BRANCH  52  66
ATOM     66  C   UNL A   1      46.539  29.458  28.375  1.00  0.00     0.023 A 
ATOM     67  C   UNL A   1      46.930  29.104  27.071  1.00  0.00     0.031 A 
ATOM     68  C   UNL A   1      47.475  29.284  29.409  1.00  0.00     0.131 A 
ATOM     69  C   UNL A   1      48.184  28.513  26.851  1.00  0.00     0.055 A 
ATOM     70  C   UNL A   1      48.754  28.779  29.169  1.00  0.00     0.041 A 
ATOM     71  F   UNL A   1      47.154  29.584  30.678  1.00  0.00    -0.206 F 
ATOM     72  C   UNL A   1      49.110  28.374  27.886  1.00  0.00     0.022 A 
BRANCH  69  73
ATOM     73  S   UNL A   1      48.522  27.786  25.223  1.00  0.00     0.124 S 
ATOM     74  O   UNL A   1      49.876  28.271  24.961  1.00  0.00    -0.237 OA
ATOM     75  O   UNL A   1      48.395  26.357  25.483  1.00  0.00    -0.237 OA
ATOM     76  O   UNL A   1      47.486  28.361  24.368  1.00  0.00    -0.744 OA
ENDBRANCH  69  73
ENDBRANCH  52  66
BRANCH  53  77
ATOM     77  C   UNL A   1      37.149  32.244  30.559  1.00  0.00     0.023 A 
ATOM     78  C   UNL A   1      36.272  32.780  29.604  1.00  0.00     0.031 A 
ATOM     79  C   UNL A   1      36.698  32.150  31.888  1.00  0.00     0.131 A 
ATOM     80  C   UNL A   1      35.011  33.254  29.998  1.00  0.00     0.055 A 
ATOM     81  C   UNL A   1      35.422  32.573  32.265  1.00  0.00     0.041 A 
ATOM     82  F   UNL A   1      37.493  31.637  32.841  1.00  0.00    -0.206 F 
ATOM     83  C   UNL A   1      34.575  33.143  31.320  1.00  0.00     0.022 A 
BRANCH  80  84
ATOM     84  S   UNL A   1      33.980  34.102  28.769  1.00  0.00     0.124 S 
ATOM     85  O   UNL A   1      33.655  33.016  27.853  1.00  0.00    -0.237 OA
ATOM     86  O   UNL A   1      32.882  34.602  29.590  1.00  0.00    -0.237 OA
ATOM     87  O   UNL A   1      34.870  35.129  28.231  1.00  0.00    -0.744 OA
ENDBRANCH  80  84
ENDBRANCH  53  77
BRANCH  65  88
ATOM     88  C   UNL A   1      43.303  35.519  30.708  1.00  0.00     0.023 A 
ATOM     89  C   UNL A   1      43.499  35.946  32.033  1.00  0.00     0.031 A 
ATOM     90  C   UNL A   1      43.449  36.466  29.679  1.00  0.00     0.131 A 
ATOM     91  C   UNL A   1      43.763  37.298  32.299  1.00  0.00     0.055 A 
ATOM     92  C   UNL A   1      43.777  37.797  29.945  1.00  0.00     0.041 A 
ATOM     93  F   UNL A   1      43.273  36.115  28.396  1.00  0.00    -0.206 F 
ATOM     94  C   UNL A   1      43.920  38.222  31.262  1.00  0.00     0.022 A 
BRANCH  91  95
ATOM     95  S   UNL A   1      43.791  37.855  34.024  1.00  0.00     0.124 S 
ATOM     96  O   UNL A   1      44.977  37.181  34.542  1.00  0.00    -0.237 OA
ATOM     97  O   UNL A   1      43.893  39.304  33.882  1.00  0.00    -0.237 OA
ATOM     98  O   UNL A   1      42.519  37.374  34.561  1.00  0.00    -0.744 OA
ENDBRANCH  91  95
ENDBRANCH  65  88
ENDBRANCH  39  40
ENDBRANCH  31  34
ENDBRANCH  29  30
ENDBRANCH  28  29
ENDBRANCH   1  28
TORSDOF 18
ENDMDL
