MODEL 1
REMARK VINA RESULT:     -11.2      0.000      0.000
REMARK SMILES O=C(COc1ccc(Br)cc1)NC(=S)Nc1ccc(Cl)cc1C(=O)NCCCCNC(=O)c1ccc(-c2c3nc(c(-c4cc(S(=O)(=O)[O-])ccc4F)c4ccc([nH]4)c(-c4cc(S(=O)(=O)[O-])ccc4F)c4nc(c(-c5cc(S(=O)(=O)[O-])ccc5F)c5ccc2[nH]5)C=C4)C=C3)cc1
REMARK SMILES IDX 26 1 25 2 23 3 24 4 22 6 16 7 17 8 18 9 21 10 19 11 20 12
REMARK SMILES IDX 15 13 13 15 14 16 12 17 1 18 2 19 3 21 4 22 5 23 6 24 11 25
REMARK SMILES IDX 7 26 10 27 8 28 9 29 27 30 28 31 29 32 30 33 31 34 32 36
REMARK SMILES IDX 33 37 34 38 95 39 35 40 94 41 36 42 37 43 38 44 88 45 39 46
REMARK SMILES IDX 93 47 87 48 89 49 40 50 92 51 86 52 85 53 41 55 73 56 53 57
REMARK SMILES IDX 72 58 54 59 57 60 71 61 90 62 55 63 56 64 70 66 91 67 58 68
REMARK SMILES IDX 42 69 43 70 51 71 44 72 50 73 52 74 49 75 45 76 46 77 47 78
REMARK SMILES IDX 48 79 74 80 75 81 83 82 76 83 82 84 84 85 81 86 77 87 78 88
REMARK SMILES IDX 79 89 80 90 59 91 60 92 68 93 61 94 67 95 69 96 66 97 62 98
REMARK SMILES IDX 63 99 64 100 65 101
REMARK H PARENT 25 5 15 14 12 20 30 35 89 54 57 65
REMARK Flexibility Score: inf
ROOT
ATOM      1  C   UNL A   1      33.880  25.862  25.708  1.00  0.00     0.116 C 
ENDROOT
BRANCH   1   2
ATOM      2  N   UNL A   1      33.105  24.778  26.252  1.00  0.00    -0.352 N 
ATOM      3  C   UNL A   1      33.426  23.458  26.474  1.00  0.00     0.253 C 
ATOM      4  O   UNL A   1      32.546  22.771  27.004  1.00  0.00    -0.269 OA
ATOM      5  H   UNL A   1      32.187  25.022  26.509  1.00  0.00     0.163 HD
BRANCH   3   6
ATOM      6  C   UNL A   1      34.703  22.764  26.096  1.00  0.00     0.064 A 
ATOM      7  C   UNL A   1      34.916  21.436  25.677  1.00  0.00     0.053 A 
ATOM      8  C   UNL A   1      36.204  21.005  25.288  1.00  0.00     0.028 A 
ATOM      9  C   UNL A   1      37.306  21.843  25.405  1.00  0.00     0.023 A 
ATOM     10  C   UNL A   1      35.846  23.592  26.213  1.00  0.00     0.036 A 
ATOM     11  C   UNL A   1      37.125  23.126  25.899  1.00  0.00     0.041 A 
ATOM     12  Cl  UNL A   1      38.496  24.140  26.135  1.00  0.00    -0.084 Cl
BRANCH   7  13
ATOM     13  N   UNL A   1      33.917  20.455  25.643  1.00  0.00    -0.332 N 
ATOM     14  H   UNL A   1      33.885  19.837  26.409  1.00  0.00     0.169 HD
BRANCH  13  15
ATOM     15  C   UNL A   1      32.984  20.263  24.669  1.00  0.00     0.177 C 
ATOM     16  S   UNL A   1      32.926  18.790  23.880  1.00  0.00    -0.040 S 
BRANCH  15  17
ATOM     17  N   UNL A   1      32.148  21.263  24.212  1.00  0.00    -0.300 N 
ATOM     18  O   UNL A   1      33.282  22.589  22.640  1.00  0.00    -0.271 OA
ATOM     19  C   UNL A   1      32.288  22.333  23.312  1.00  0.00     0.264 C 
ATOM     20  H   UNL A   1      31.248  21.215  24.607  1.00  0.00     0.172 HD
BRANCH  19  21
ATOM     21  C   UNL A   1      31.020  23.172  23.121  1.00  0.00     0.329 C 
BRANCH  21  22
ATOM     22  O   UNL A   1      30.750  24.088  24.183  1.00  0.00    -0.484 OA
BRANCH  22  23
ATOM     23  C   UNL A   1      30.560  25.367  23.724  1.00  0.00     0.120 A 
ATOM     24  C   UNL A   1      31.242  25.806  22.589  1.00  0.00     0.047 A 
ATOM     25  C   UNL A   1      29.626  26.197  24.342  1.00  0.00     0.047 A 
ATOM     26  C   UNL A   1      31.057  27.104  22.113  1.00  0.00     0.019 A 
ATOM     27  C   UNL A   1      29.416  27.489  23.849  1.00  0.00     0.019 A 
ATOM     28  C   UNL A   1      30.141  27.941  22.745  1.00  0.00     0.018 A 
ATOM     29  Br  UNL A   1      29.868  29.692  22.087  1.00  0.00    -0.051 Br
ENDBRANCH  22  23
ENDBRANCH  21  22
ENDBRANCH  19  21
ENDBRANCH  15  17
ENDBRANCH  13  15
ENDBRANCH   7  13
ENDBRANCH   3   6
ENDBRANCH   1   2
BRANCH   1  30
ATOM     30  C   UNL A   1      33.106  27.055  25.162  1.00  0.00     0.023 C 
BRANCH  30  31
ATOM     31  C   UNL A   1      33.029  28.299  26.042  1.00  0.00     0.023 C 
BRANCH  31  32
ATOM     32  C   UNL A   1      33.515  29.612  25.438  1.00  0.00     0.116 C 
BRANCH  32  33
ATOM     33  N   UNL A   1      33.152  30.795  26.203  1.00  0.00    -0.352 N 
ATOM     34  C   UNL A   1      33.759  31.374  27.295  1.00  0.00     0.251 C 
ATOM     35  H   UNL A   1      32.342  31.257  25.889  1.00  0.00     0.163 HD
ATOM     36  O   UNL A   1      33.216  32.339  27.833  1.00  0.00    -0.269 OA
BRANCH  34  37
ATOM     37  C   UNL A   1      35.018  30.829  27.858  1.00  0.00     0.039 A 
ATOM     38  C   UNL A   1      36.200  31.562  27.697  1.00  0.00     0.014 A 
ATOM     39  C   UNL A   1      35.057  29.608  28.531  1.00  0.00     0.014 A 
ATOM     40  C   UNL A   1      37.391  31.106  28.272  1.00  0.00     0.010 A 
ATOM     41  C   UNL A   1      36.217  29.209  29.194  1.00  0.00     0.010 A 
ATOM     42  C   UNL A   1      37.405  29.944  29.060  1.00  0.00    -0.014 A 
BRANCH  42  43
ATOM     43  C   UNL A   1      38.659  29.462  29.708  1.00  0.00     0.031 A 
ATOM     44  C   UNL A   1      39.064  30.005  31.058  1.00  0.00     0.074 A 
ATOM     45  C   UNL A   1      39.453  28.576  29.073  1.00  0.00     0.049 A 
ATOM     46  N   UNL A   1      40.136  29.752  31.765  1.00  0.00    -0.248 NA
ATOM     47  C   UNL A   1      38.161  30.989  31.676  1.00  0.00     0.031 C 
ATOM     48  C   UNL A   1      39.201  28.016  27.743  1.00  0.00     0.029 A 
ATOM     49  N   UNL A   1      40.633  27.988  29.457  1.00  0.00    -0.354 N 
ATOM     50  C   UNL A   1      40.044  30.559  32.897  1.00  0.00     0.074 A 
ATOM     51  C   UNL A   1      38.849  31.358  32.744  1.00  0.00     0.031 C 
ATOM     52  C   UNL A   1      40.176  27.143  27.439  1.00  0.00     0.029 A 
ATOM     53  C   UNL A   1      41.146  27.109  28.529  1.00  0.00     0.049 A 
ATOM     54  H   UNL A   1      41.072  28.177  30.318  1.00  0.00     0.167 HD
ATOM     55  C   UNL A   1      40.861  30.606  33.978  1.00  0.00     0.034 A 
ATOM     56  C   UNL A   1      42.270  26.365  28.552  1.00  0.00     0.034 A 
ATOM     57  C   UNL A   1      42.034  29.780  34.132  1.00  0.00     0.049 A 
ATOM     58  C   UNL A   1      43.157  26.427  29.772  1.00  0.00     0.074 A 
ATOM     59  C   UNL A   1      42.899  29.705  35.209  1.00  0.00     0.029 A 
ATOM     60  N   UNL A   1      42.506  28.884  33.181  1.00  0.00    -0.354 N 
ATOM     61  N   UNL A   1      43.020  27.150  30.860  1.00  0.00    -0.248 NA
ATOM     62  C   UNL A   1      44.338  25.555  29.777  1.00  0.00     0.031 C 
ATOM     63  C   UNL A   1      43.931  28.817  34.883  1.00  0.00     0.029 A 
ATOM     64  C   UNL A   1      43.664  28.272  33.638  1.00  0.00     0.049 A 
ATOM     65  H   UNL A   1      42.083  28.710  32.310  1.00  0.00     0.167 HD
ATOM     66  C   UNL A   1      44.076  26.788  31.693  1.00  0.00     0.074 A 
ATOM     67  C   UNL A   1      44.823  25.766  30.990  1.00  0.00     0.031 C 
ATOM     68  C   UNL A   1      44.400  27.254  32.927  1.00  0.00     0.034 A 
BRANCH  55  69
ATOM     69  C   UNL A   1      40.522  31.596  35.068  1.00  0.00     0.023 A 
ATOM     70  C   UNL A   1      39.560  31.313  36.055  1.00  0.00     0.031 A 
ATOM     71  C   UNL A   1      41.163  32.847  35.118  1.00  0.00     0.131 A 
ATOM     72  C   UNL A   1      39.216  32.291  37.001  1.00  0.00     0.055 A 
ATOM     73  C   UNL A   1      40.876  33.783  36.112  1.00  0.00     0.041 A 
ATOM     74  F   UNL A   1      42.076  33.185  34.192  1.00  0.00    -0.206 F 
ATOM     75  C   UNL A   1      39.886  33.513  37.054  1.00  0.00     0.022 A 
BRANCH  72  76
ATOM     76  S   UNL A   1      37.785  31.992  38.075  1.00  0.00     0.124 S 
ATOM     77  O   UNL A   1      38.372  32.171  39.401  1.00  0.00    -0.237 OA
ATOM     78  O   UNL A   1      36.847  33.022  37.647  1.00  0.00    -0.237 OA
ATOM     79  O   UNL A   1      37.396  30.621  37.754  1.00  0.00    -0.744 OA
ENDBRANCH  72  76
ENDBRANCH  55  69
BRANCH  56  80
ATOM     80  C   UNL A   1      42.637  25.493  27.395  1.00  0.00     0.023 A 
ATOM     81  C   UNL A   1      42.161  24.175  27.297  1.00  0.00     0.031 A 
ATOM     82  C   UNL A   1      43.534  25.940  26.407  1.00  0.00     0.131 A 
ATOM     83  C   UNL A   1      42.634  23.329  26.280  1.00  0.00     0.055 A 
ATOM     84  C   UNL A   1      43.953  25.114  25.360  1.00  0.00     0.041 A 
ATOM     85  F   UNL A   1      44.021  27.190  26.447  1.00  0.00    -0.206 F 
ATOM     86  C   UNL A   1      43.517  23.794  25.304  1.00  0.00     0.022 A 
BRANCH  83  87
ATOM     87  S   UNL A   1      42.172  21.575  26.323  1.00  0.00     0.124 S 
ATOM     88  O   UNL A   1      43.005  21.022  25.262  1.00  0.00    -0.237 OA
ATOM     89  O   UNL A   1      42.536  21.201  27.687  1.00  0.00    -0.237 OA
ATOM     90  O   UNL A   1      40.737  21.593  26.046  1.00  0.00    -0.744 OA
ENDBRANCH  83  87
ENDBRANCH  56  80
BRANCH  68  91
ATOM     91  C   UNL A   1      45.583  26.612  33.613  1.00  0.00     0.023 A 
ATOM     92  C   UNL A   1      45.442  25.479  34.434  1.00  0.00     0.031 A 
ATOM     93  C   UNL A   1      46.867  27.167  33.472  1.00  0.00     0.131 A 
ATOM     94  C   UNL A   1      46.548  24.989  35.145  1.00  0.00     0.055 A 
ATOM     95  C   UNL A   1      47.979  26.629  34.122  1.00  0.00     0.041 A 
ATOM     96  F   UNL A   1      47.064  28.250  32.703  1.00  0.00    -0.206 F 
ATOM     97  C   UNL A   1      47.819  25.545  34.980  1.00  0.00     0.022 A 
BRANCH  94  98
ATOM     98  S   UNL A   1      46.275  23.699  36.391  1.00  0.00     0.124 S 
ATOM     99  O   UNL A   1      47.085  22.600  35.873  1.00  0.00    -0.237 OA
ATOM    100  O   UNL A   1      46.767  24.334  37.609  1.00  0.00    -0.237 OA
ATOM    101  O   UNL A   1      44.830  23.479  36.346  1.00  0.00    -0.744 OA
ENDBRANCH  94  98
ENDBRANCH  68  91
ENDBRANCH  42  43
ENDBRANCH  34  37
ENDBRANCH  32  33
ENDBRANCH  31  32
ENDBRANCH  30  31
ENDBRANCH   1  30
TORSDOF 20
ENDMDL
MODEL 2
REMARK VINA RESULT:     -11.2      2.320      2.670
REMARK SMILES O=C(COc1ccc(Br)cc1)NC(=S)Nc1ccc(Cl)cc1C(=O)NCCCCNC(=O)c1ccc(-c2c3nc(c(-c4cc(S(=O)(=O)[O-])ccc4F)c4ccc([nH]4)c(-c4cc(S(=O)(=O)[O-])ccc4F)c4nc(c(-c5cc(S(=O)(=O)[O-])ccc5F)c5ccc2[nH]5)C=C4)C=C3)cc1
REMARK SMILES IDX 26 1 25 2 23 3 24 4 22 6 16 7 17 8 18 9 21 10 19 11 20 12
REMARK SMILES IDX 15 13 13 15 14 16 12 17 1 18 2 19 3 21 4 22 5 23 6 24 11 25
REMARK SMILES IDX 7 26 10 27 8 28 9 29 27 30 28 31 29 32 30 33 31 34 32 36
REMARK SMILES IDX 33 37 34 38 95 39 35 40 94 41 36 42 37 43 38 44 88 45 39 46
REMARK SMILES IDX 93 47 87 48 89 49 40 50 92 51 86 52 85 53 41 55 73 56 53 57
REMARK SMILES IDX 72 58 54 59 57 60 71 61 90 62 55 63 56 64 70 66 91 67 58 68
REMARK SMILES IDX 42 69 43 70 51 71 44 72 50 73 52 74 49 75 45 76 46 77 47 78
REMARK SMILES IDX 48 79 74 80 75 81 83 82 76 83 82 84 84 85 81 86 77 87 78 88
REMARK SMILES IDX 79 89 80 90 59 91 60 92 68 93 61 94 67 95 69 96 66 97 62 98
REMARK SMILES IDX 63 99 64 100 65 101
REMARK H PARENT 25 5 15 14 12 20 30 35 89 54 57 65
REMARK Flexibility Score: inf
ROOT
ATOM      1  C   UNL A   1      33.810  25.616  25.760  1.00  0.00     0.116 C 
ENDROOT
BRANCH   1   2
ATOM      2  N   UNL A   1      33.116  24.534  26.409  1.00  0.00    -0.352 N 
ATOM      3  C   UNL A   1      33.480  23.224  26.623  1.00  0.00     0.253 C 
ATOM      4  O   UNL A   1      32.674  22.537  27.260  1.00  0.00    -0.269 OA
ATOM      5  H   UNL A   1      32.228  24.772  26.759  1.00  0.00     0.163 HD
BRANCH   3   6
ATOM      6  C   UNL A   1      34.719  22.539  26.123  1.00  0.00     0.064 A 
ATOM      7  C   UNL A   1      34.885  21.233  25.619  1.00  0.00     0.053 A 
ATOM      8  C   UNL A   1      36.138  20.811  25.121  1.00  0.00     0.028 A 
ATOM      9  C   UNL A   1      37.257  21.631  25.208  1.00  0.00     0.023 A 
ATOM     10  C   UNL A   1      35.878  23.347  26.206  1.00  0.00     0.036 A 
ATOM     11  C   UNL A   1      37.126  22.886  25.781  1.00  0.00     0.041 A 
ATOM     12  Cl  UNL A   1      38.524  23.872  25.978  1.00  0.00    -0.084 Cl
BRANCH   7  13
ATOM     13  N   UNL A   1      33.872  20.266  25.600  1.00  0.00    -0.332 N 
ATOM     14  H   UNL A   1      33.873  19.619  26.342  1.00  0.00     0.169 HD
BRANCH  13  15
ATOM     15  C   UNL A   1      32.887  20.123  24.670  1.00  0.00     0.177 C 
ATOM     16  S   UNL A   1      32.732  18.662  23.870  1.00  0.00    -0.040 S 
BRANCH  15  17
ATOM     17  N   UNL A   1      32.071  21.160  24.264  1.00  0.00    -0.300 N 
ATOM     18  O   UNL A   1      33.225  22.528  22.743  1.00  0.00    -0.271 OA
ATOM     19  C   UNL A   1      32.230  22.266  23.410  1.00  0.00     0.264 C 
ATOM     20  H   UNL A   1      31.174  21.116  24.664  1.00  0.00     0.172 HD
BRANCH  19  21
ATOM     21  C   UNL A   1      30.980  23.141  23.266  1.00  0.00     0.329 C 
BRANCH  21  22
ATOM     22  O   UNL A   1      30.811  24.108  24.304  1.00  0.00    -0.484 OA
BRANCH  22  23
ATOM     23  C   UNL A   1      30.605  25.369  23.804  1.00  0.00     0.120 A 
ATOM     24  C   UNL A   1      31.406  25.844  22.765  1.00  0.00     0.047 A 
ATOM     25  C   UNL A   1      29.543  26.139  24.276  1.00  0.00     0.047 A 
ATOM     26  C   UNL A   1      31.205  27.124  22.250  1.00  0.00     0.019 A 
ATOM     27  C   UNL A   1      29.320  27.412  23.740  1.00  0.00     0.019 A 
ATOM     28  C   UNL A   1      30.160  27.903  22.738  1.00  0.00     0.018 A 
ATOM     29  Br  UNL A   1      29.868  29.629  22.023  1.00  0.00    -0.051 Br
ENDBRANCH  22  23
ENDBRANCH  21  22
ENDBRANCH  19  21
ENDBRANCH  15  17
ENDBRANCH  13  15
ENDBRANCH   7  13
ENDBRANCH   3   6
ENDBRANCH   1   2
BRANCH   1  30
ATOM     30  C   UNL A   1      33.131  26.979  25.782  1.00  0.00     0.023 C 
BRANCH  30  31
ATOM     31  C   UNL A   1      33.698  28.026  26.734  1.00  0.00     0.023 C 
BRANCH  31  32
ATOM     32  C   UNL A   1      34.280  29.292  26.114  1.00  0.00     0.116 C 
BRANCH  32  33
ATOM     33  N   UNL A   1      33.926  30.519  26.811  1.00  0.00    -0.352 N 
ATOM     34  C   UNL A   1      34.555  31.175  27.844  1.00  0.00     0.251 C 
ATOM     35  H   UNL A   1      33.101  30.952  26.490  1.00  0.00     0.163 HD
ATOM     36  O   UNL A   1      34.017  32.168  28.334  1.00  0.00    -0.269 OA
BRANCH  34  37
ATOM     37  C   UNL A   1      35.836  30.680  28.405  1.00  0.00     0.039 A 
ATOM     38  C   UNL A   1      35.800  29.713  29.416  1.00  0.00     0.014 A 
ATOM     39  C   UNL A   1      37.069  31.157  27.960  1.00  0.00     0.014 A 
ATOM     40  C   UNL A   1      36.991  29.180  29.919  1.00  0.00     0.010 A 
ATOM     41  C   UNL A   1      38.251  30.550  28.382  1.00  0.00     0.010 A 
ATOM     42  C   UNL A   1      38.231  29.564  29.381  1.00  0.00    -0.014 A 
BRANCH  42  43
ATOM     43  C   UNL A   1      39.508  28.981  29.882  1.00  0.00     0.031 A 
ATOM     44  C   UNL A   1      40.157  29.547  31.122  1.00  0.00     0.074 A 
ATOM     45  C   UNL A   1      40.106  27.978  29.206  1.00  0.00     0.049 A 
ATOM     46  N   UNL A   1      41.289  29.214  31.691  1.00  0.00    -0.248 NA
ATOM     47  C   UNL A   1      39.460  30.657  31.789  1.00  0.00     0.031 C 
ATOM     48  C   UNL A   1      39.608  27.379  27.965  1.00  0.00     0.029 A 
ATOM     49  N   UNL A   1      41.262  27.283  29.464  1.00  0.00    -0.354 N 
ATOM     50  C   UNL A   1      41.445  30.085  32.766  1.00  0.00     0.074 A 
ATOM     51  C   UNL A   1      40.330  31.004  32.724  1.00  0.00     0.031 C 
ATOM     52  C   UNL A   1      40.434  26.388  27.591  1.00  0.00     0.029 A 
ATOM     53  C   UNL A   1      41.542  26.304  28.537  1.00  0.00     0.049 A 
ATOM     54  H   UNL A   1      41.838  27.468  30.241  1.00  0.00     0.167 HD
ATOM     55  C   UNL A   1      42.410  30.099  33.718  1.00  0.00     0.034 A 
ATOM     56  C   UNL A   1      42.575  25.440  28.456  1.00  0.00     0.034 A 
ATOM     57  C   UNL A   1      43.501  29.156  33.766  1.00  0.00     0.049 A 
ATOM     58  C   UNL A   1      43.630  25.469  29.536  1.00  0.00     0.074 A 
ATOM     59  C   UNL A   1      44.500  29.043  34.716  1.00  0.00     0.029 A 
ATOM     60  N   UNL A   1      43.736  28.163  32.823  1.00  0.00    -0.354 N 
ATOM     61  N   UNL A   1      43.727  26.260  30.580  1.00  0.00    -0.248 NA
ATOM     62  C   UNL A   1      44.703  24.471  29.438  1.00  0.00     0.031 C 
ATOM     63  C   UNL A   1      45.376  28.029  34.314  1.00  0.00     0.029 A 
ATOM     64  C   UNL A   1      44.878  27.450  33.158  1.00  0.00     0.049 A 
ATOM     65  H   UNL A   1      43.175  27.991  32.033  1.00  0.00     0.167 HD
ATOM     66  C   UNL A   1      44.849  25.827  31.283  1.00  0.00     0.074 A 
ATOM     67  C   UNL A   1      45.378  24.692  30.555  1.00  0.00     0.031 C 
ATOM     68  C   UNL A   1      45.395  26.320  32.425  1.00  0.00     0.034 A 
BRANCH  55  69
ATOM     69  C   UNL A   1      42.336  31.178  34.774  1.00  0.00     0.023 A 
ATOM     70  C   UNL A   1      42.922  32.443  34.583  1.00  0.00     0.031 A 
ATOM     71  C   UNL A   1      41.680  30.937  35.993  1.00  0.00     0.131 A 
ATOM     72  C   UNL A   1      42.902  33.389  35.620  1.00  0.00     0.055 A 
ATOM     73  C   UNL A   1      41.590  31.912  36.988  1.00  0.00     0.041 A 
ATOM     74  F   UNL A   1      41.118  29.743  36.243  1.00  0.00    -0.206 F 
ATOM     75  C   UNL A   1      42.216  33.143  36.810  1.00  0.00     0.022 A 
BRANCH  72  76
ATOM     76  S   UNL A   1      43.900  34.893  35.441  1.00  0.00     0.124 S 
ATOM     77  O   UNL A   1      43.604  35.593  36.689  1.00  0.00    -0.237 OA
ATOM     78  O   UNL A   1      45.252  34.362  35.311  1.00  0.00    -0.237 OA
ATOM     79  O   UNL A   1      43.358  35.522  34.238  1.00  0.00    -0.744 OA
ENDBRANCH  72  76
ENDBRANCH  55  69
BRANCH  56  80
ATOM     80  C   UNL A   1      42.679  24.472  27.323  1.00  0.00     0.023 A 
ATOM     81  C   UNL A   1      42.059  23.213  27.383  1.00  0.00     0.031 A 
ATOM     82  C   UNL A   1      43.466  24.761  26.193  1.00  0.00     0.131 A 
ATOM     83  C   UNL A   1      42.290  22.266  26.372  1.00  0.00     0.055 A 
ATOM     84  C   UNL A   1      43.642  23.839  25.158  1.00  0.00     0.041 A 
ATOM     85  F   UNL A   1      44.081  25.949  26.079  1.00  0.00    -0.206 F 
ATOM     86  C   UNL A   1      43.067  22.575  25.253  1.00  0.00     0.022 A 
BRANCH  83  87
ATOM     87  S   UNL A   1      41.659  20.580  26.599  1.00  0.00     0.124 S 
ATOM     88  O   UNL A   1      40.221  20.808  26.671  1.00  0.00    -0.237 OA
ATOM     89  O   UNL A   1      42.143  19.912  25.394  1.00  0.00    -0.237 OA
ATOM     90  O   UNL A   1      42.288  20.145  27.844  1.00  0.00    -0.744 OA
ENDBRANCH  83  87
ENDBRANCH  56  80
BRANCH  68  91
ATOM     91  C   UNL A   1      46.591  25.588  32.984  1.00  0.00     0.023 A 
ATOM     92  C   UNL A   1      47.901  25.863  32.552  1.00  0.00     0.031 A 
ATOM     93  C   UNL A   1      46.414  24.571  33.939  1.00  0.00     0.131 A 
ATOM     94  C   UNL A   1      48.969  25.078  33.012  1.00  0.00     0.055 A 
ATOM     95  C   UNL A   1      47.490  23.843  34.450  1.00  0.00     0.041 A 
ATOM     96  F   UNL A   1      45.187  24.261  34.389  1.00  0.00    -0.206 F 
ATOM     97  C   UNL A   1      48.774  24.082  33.971  1.00  0.00     0.022 A 
BRANCH  94  98
ATOM     98  S   UNL A   1      50.596  25.287  32.237  1.00  0.00     0.124 S 
ATOM     99  O   UNL A   1      50.498  24.400  31.081  1.00  0.00    -0.237 OA
ATOM    100  O   UNL A   1      50.619  26.715  31.943  1.00  0.00    -0.237 OA
ATOM    101  O   UNL A   1      51.528  24.851  33.275  1.00  0.00    -0.744 OA
ENDBRANCH  94  98
ENDBRANCH  68  91
ENDBRANCH  42  43
ENDBRANCH  34  37
ENDBRANCH  32  33
ENDBRANCH  31  32
ENDBRANCH  30  31
ENDBRANCH   1  30
TORSDOF 20
ENDMDL
MODEL 3
REMARK VINA RESULT:     -11.0      2.504      4.169
REMARK SMILES O=C(COc1ccc(Br)cc1)NC(=S)Nc1ccc(Cl)cc1C(=O)NCCCCNC(=O)c1ccc(-c2c3nc(c(-c4cc(S(=O)(=O)[O-])ccc4F)c4ccc([nH]4)c(-c4cc(S(=O)(=O)[O-])ccc4F)c4nc(c(-c5cc(S(=O)(=O)[O-])ccc5F)c5ccc2[nH]5)C=C4)C=C3)cc1
REMARK SMILES IDX 26 1 25 2 23 3 24 4 22 6 16 7 17 8 18 9 21 10 19 11 20 12
REMARK SMILES IDX 15 13 13 15 14 16 12 17 1 18 2 19 3 21 4 22 5 23 6 24 11 25
REMARK SMILES IDX 7 26 10 27 8 28 9 29 27 30 28 31 29 32 30 33 31 34 32 36
REMARK SMILES IDX 33 37 34 38 95 39 35 40 94 41 36 42 37 43 38 44 88 45 39 46
REMARK SMILES IDX 93 47 87 48 89 49 40 50 92 51 86 52 85 53 41 55 73 56 53 57
REMARK SMILES IDX 72 58 54 59 57 60 71 61 90 62 55 63 56 64 70 66 91 67 58 68
REMARK SMILES IDX 42 69 43 70 51 71 44 72 50 73 52 74 49 75 45 76 46 77 47 78
REMARK SMILES IDX 48 79 74 80 75 81 83 82 76 83 82 84 84 85 81 86 77 87 78 88
REMARK SMILES IDX 79 89 80 90 59 91 60 92 68 93 61 94 67 95 69 96 66 97 62 98
REMARK SMILES IDX 63 99 64 100 65 101
REMARK H PARENT 25 5 15 14 12 20 30 35 89 54 57 65
REMARK Flexibility Score: inf
ROOT
ATOM      1  C   UNL A   1      33.290  29.026  23.247  1.00  0.00     0.116 C 
ENDROOT
BRANCH   1   2
ATOM      2  N   UNL A   1      33.032  27.738  22.658  1.00  0.00    -0.352 N 
ATOM      3  C   UNL A   1      31.851  27.104  22.350  1.00  0.00     0.253 C 
ATOM      4  O   UNL A   1      31.957  26.002  21.801  1.00  0.00    -0.269 OA
ATOM      5  H   UNL A   1      33.841  27.223  22.437  1.00  0.00     0.163 HD
BRANCH   3   6
ATOM      6  C   UNL A   1      30.462  27.585  22.657  1.00  0.00     0.064 A 
ATOM      7  C   UNL A   1      29.441  26.970  23.409  1.00  0.00     0.053 A 
ATOM      8  C   UNL A   1      28.220  27.642  23.644  1.00  0.00     0.028 A 
ATOM      9  C   UNL A   1      27.955  28.873  23.057  1.00  0.00     0.023 A 
ATOM     10  C   UNL A   1      30.160  28.836  22.066  1.00  0.00     0.036 A 
ATOM     11  C   UNL A   1      28.918  29.450  22.243  1.00  0.00     0.041 A 
ATOM     12  Cl  UNL A   1      28.563  30.930  21.438  1.00  0.00    -0.084 Cl
BRANCH   7  13
ATOM     13  N   UNL A   1      29.530  25.678  23.941  1.00  0.00    -0.332 N 
ATOM     14  H   UNL A   1      28.960  24.993  23.522  1.00  0.00     0.169 HD
BRANCH  13  15
ATOM     15  C   UNL A   1      30.317  25.264  24.973  1.00  0.00     0.177 C 
ATOM     16  S   UNL A   1      30.783  26.374  26.134  1.00  0.00    -0.040 S 
BRANCH  15  17
ATOM     17  N   UNL A   1      30.852  23.993  25.057  1.00  0.00    -0.300 N 
ATOM     18  O   UNL A   1      31.086  23.088  22.903  1.00  0.00    -0.271 OA
ATOM     19  C   UNL A   1      31.178  22.995  24.122  1.00  0.00     0.264 C 
ATOM     20  H   UNL A   1      31.049  23.725  25.982  1.00  0.00     0.172 HD
BRANCH  19  21
ATOM     21  C   UNL A   1      31.786  21.728  24.733  1.00  0.00     0.329 C 
BRANCH  21  22
ATOM     22  O   UNL A   1      32.920  21.217  24.030  1.00  0.00    -0.484 OA
BRANCH  22  23
ATOM     23  C   UNL A   1      34.094  21.769  24.475  1.00  0.00     0.120 A 
ATOM     24  C   UNL A   1      34.669  22.833  23.780  1.00  0.00     0.047 A 
ATOM     25  C   UNL A   1      34.664  21.323  25.666  1.00  0.00     0.047 A 
ATOM     26  C   UNL A   1      35.863  23.402  24.224  1.00  0.00     0.019 A 
ATOM     27  C   UNL A   1      35.846  21.913  26.130  1.00  0.00     0.019 A 
ATOM     28  C   UNL A   1      36.446  22.940  25.400  1.00  0.00     0.018 A 
ATOM     29  Br  UNL A   1      38.050  23.727  26.019  1.00  0.00    -0.051 Br
ENDBRANCH  22  23
ENDBRANCH  21  22
ENDBRANCH  19  21
ENDBRANCH  15  17
ENDBRANCH  13  15
ENDBRANCH   7  13
ENDBRANCH   3   6
ENDBRANCH   1   2
BRANCH   1  30
ATOM     30  C   UNL A   1      32.749  29.260  24.652  1.00  0.00     0.023 C 
BRANCH  30  31
ATOM     31  C   UNL A   1      33.677  28.940  25.819  1.00  0.00     0.023 C 
BRANCH  31  32
ATOM     32  C   UNL A   1      33.209  29.341  27.214  1.00  0.00     0.116 C 
BRANCH  32  33
ATOM     33  N   UNL A   1      33.331  30.762  27.503  1.00  0.00    -0.352 N 
ATOM     34  C   UNL A   1      34.360  31.471  28.081  1.00  0.00     0.251 C 
ATOM     35  H   UNL A   1      32.552  31.304  27.242  1.00  0.00     0.163 HD
ATOM     36  O   UNL A   1      34.202  32.672  28.302  1.00  0.00    -0.269 OA
BRANCH  34  37
ATOM     37  C   UNL A   1      35.624  30.808  28.482  1.00  0.00     0.039 A 
ATOM     38  C   UNL A   1      36.828  31.267  27.934  1.00  0.00     0.014 A 
ATOM     39  C   UNL A   1      35.644  29.739  29.378  1.00  0.00     0.014 A 
ATOM     40  C   UNL A   1      38.042  30.705  28.342  1.00  0.00     0.010 A 
ATOM     41  C   UNL A   1      36.857  29.253  29.863  1.00  0.00     0.010 A 
ATOM     42  C   UNL A   1      38.074  29.717  29.340  1.00  0.00    -0.014 A 
BRANCH  42  43
ATOM     43  C   UNL A   1      39.362  29.132  29.811  1.00  0.00     0.031 A 
ATOM     44  C   UNL A   1      40.079  29.742  30.991  1.00  0.00     0.074 A 
ATOM     45  C   UNL A   1      39.909  28.085  29.158  1.00  0.00     0.049 A 
ATOM     46  N   UNL A   1      41.229  29.414  31.523  1.00  0.00    -0.248 NA
ATOM     47  C   UNL A   1      39.435  30.898  31.634  1.00  0.00     0.031 C 
ATOM     48  C   UNL A   1      39.343  27.438  27.972  1.00  0.00     0.029 A 
ATOM     49  N   UNL A   1      41.062  27.379  29.397  1.00  0.00    -0.354 N 
ATOM     50  C   UNL A   1      41.452  30.332  32.546  1.00  0.00     0.074 A 
ATOM     51  C   UNL A   1      40.353  31.271  32.511  1.00  0.00     0.031 C 
ATOM     52  C   UNL A   1      40.131  26.413  27.610  1.00  0.00     0.029 A 
ATOM     53  C   UNL A   1      41.280  26.350  28.507  1.00  0.00     0.049 A 
ATOM     54  H   UNL A   1      41.678  27.588  30.137  1.00  0.00     0.167 HD
ATOM     55  C   UNL A   1      42.460  30.370  33.451  1.00  0.00     0.034 A 
ATOM     56  C   UNL A   1      42.292  25.463  28.422  1.00  0.00     0.034 A 
ATOM     57  C   UNL A   1      43.534  29.408  33.496  1.00  0.00     0.049 A 
ATOM     58  C   UNL A   1      43.396  25.520  29.450  1.00  0.00     0.074 A 
ATOM     59  C   UNL A   1      44.574  29.319  34.404  1.00  0.00     0.029 A 
ATOM     60  N   UNL A   1      43.706  28.366  32.593  1.00  0.00    -0.354 N 
ATOM     61  N   UNL A   1      43.557  26.359  30.448  1.00  0.00    -0.248 NA
ATOM     62  C   UNL A   1      44.445  24.497  29.352  1.00  0.00     0.031 C 
ATOM     63  C   UNL A   1      45.411  28.268  34.012  1.00  0.00     0.029 A 
ATOM     64  C   UNL A   1      44.848  27.646  32.910  1.00  0.00     0.049 A 
ATOM     65  H   UNL A   1      43.106  28.169  31.839  1.00  0.00     0.167 HD
ATOM     66  C   UNL A   1      44.702  25.936  31.119  1.00  0.00     0.074 A 
ATOM     67  C   UNL A   1      45.174  24.756  30.425  1.00  0.00     0.031 C 
ATOM     68  C   UNL A   1      45.309  26.471  32.210  1.00  0.00     0.034 A 
BRANCH  55  69
ATOM     69  C   UNL A   1      42.456  31.500  34.456  1.00  0.00     0.023 A 
ATOM     70  C   UNL A   1      41.558  31.527  35.539  1.00  0.00     0.031 A 
ATOM     71  C   UNL A   1      43.355  32.573  34.323  1.00  0.00     0.131 A 
ATOM     72  C   UNL A   1      41.532  32.634  36.401  1.00  0.00     0.055 A 
ATOM     73  C   UNL A   1      43.380  33.631  35.233  1.00  0.00     0.041 A 
ATOM     74  F   UNL A   1      44.222  32.616  33.298  1.00  0.00    -0.206 F 
ATOM     75  C   UNL A   1      42.455  33.673  36.273  1.00  0.00     0.022 A 
BRANCH  72  76
ATOM     76  S   UNL A   1      40.186  32.759  37.610  1.00  0.00     0.124 S 
ATOM     77  O   UNL A   1      39.707  34.119  37.377  1.00  0.00    -0.237 OA
ATOM     78  O   UNL A   1      39.289  31.685  37.198  1.00  0.00    -0.237 OA
ATOM     79  O   UNL A   1      40.857  32.553  38.892  1.00  0.00    -0.744 OA
ENDBRANCH  72  76
ENDBRANCH  55  69
BRANCH  56  80
ATOM     80  C   UNL A   1      42.325  24.439  27.334  1.00  0.00     0.023 A 
ATOM     81  C   UNL A   1      41.637  23.220  27.460  1.00  0.00     0.031 A 
ATOM     82  C   UNL A   1      43.109  24.631  26.182  1.00  0.00     0.131 A 
ATOM     83  C   UNL A   1      41.800  22.217  26.491  1.00  0.00     0.055 A 
ATOM     84  C   UNL A   1      43.217  23.654  25.188  1.00  0.00     0.041 A 
ATOM     85  F   UNL A   1      43.787  25.776  26.004  1.00  0.00    -0.206 F 
ATOM     86  C   UNL A   1      42.575  22.431  25.350  1.00  0.00     0.022 A 
BRANCH  83  87
ATOM     87  S   UNL A   1      41.080  20.581  26.804  1.00  0.00     0.124 S 
ATOM     88  O   UNL A   1      42.125  19.695  26.304  1.00  0.00    -0.237 OA
ATOM     89  O   UNL A   1      40.897  20.604  28.252  1.00  0.00    -0.237 OA
ATOM     90  O   UNL A   1      39.846  20.596  26.022  1.00  0.00    -0.744 OA
ENDBRANCH  83  87
ENDBRANCH  56  80
BRANCH  68  91
ATOM     91  C   UNL A   1      46.516  25.741  32.749  1.00  0.00     0.023 A 
ATOM     92  C   UNL A   1      46.400  24.712  33.701  1.00  0.00     0.031 A 
ATOM     93  C   UNL A   1      47.808  26.107  32.331  1.00  0.00     0.131 A 
ATOM     94  C   UNL A   1      47.554  24.144  34.262  1.00  0.00     0.055 A 
ATOM     95  C   UNL A   1      48.951  25.486  32.836  1.00  0.00     0.041 A 
ATOM     96  F   UNL A   1      47.982  27.084  31.425  1.00  0.00    -0.206 F 
ATOM     97  C   UNL A   1      48.828  24.511  33.822  1.00  0.00     0.022 A 
BRANCH  94  98
ATOM     98  S   UNL A   1      47.369  23.015  35.670  1.00  0.00     0.124 S 
ATOM     99  O   UNL A   1      45.997  23.282  36.094  1.00  0.00    -0.237 OA
ATOM    100  O   UNL A   1      47.604  21.713  35.057  1.00  0.00    -0.237 OA
ATOM    101  O   UNL A   1      48.404  23.459  36.603  1.00  0.00    -0.744 OA
ENDBRANCH  94  98
ENDBRANCH  68  91
ENDBRANCH  42  43
ENDBRANCH  34  37
ENDBRANCH  32  33
ENDBRANCH  31  32
ENDBRANCH  30  31
ENDBRANCH   1  30
TORSDOF 20
ENDMDL
