MODEL 1
REMARK VINA RESULT:     -12.1      0.000      0.000
REMARK SMILES COc1ccc(-n2c(SCc3cn(-c4ccc(C(=O)NCCCCNC(=O)c5ccc(-c6c7nc(c(-c8cc(S(=O)(=O)[O-])ccc8F)c8ccc([nH]8)c(-c8cc(S(=O)(=O)[O-])ccc8F)c8nc(c(-c9cc(S(=O)(=O)[O-])ccc9F)c9ccc6[nH]9)C=C8)C=C7)cc5)cc4)nn3)nc3ccccc3c2=O)cc1
REMARK SMILES IDX 21 1 20 2 18 3 19 4 17 6 14 7 15 8 92 9 16 10 91 11 13 12
REMARK SMILES IDX 11 13 12 14 94 15 93 16 10 17 9 18 8 19 7 20 102 21 95 22
REMARK SMILES IDX 101 23 103 24 96 25 100 26 97 27 99 28 98 29 6 30 3 31 4 32
REMARK SMILES IDX 105 33 5 34 104 35 2 36 1 37 22 38 23 39 24 40 25 41 26 42
REMARK SMILES IDX 27 44 28 45 29 46 90 47 30 48 89 49 31 50 32 51 33 52 83 53
REMARK SMILES IDX 34 54 88 55 82 56 84 57 35 58 87 59 81 60 80 61 36 63 68 64
REMARK SMILES IDX 48 65 67 66 49 67 52 68 66 69 85 70 50 71 51 72 65 74 86 75
REMARK SMILES IDX 53 76 37 77 38 78 46 79 39 80 45 81 47 82 44 83 40 84 41 85
REMARK SMILES IDX 42 86 43 87 69 88 70 89 78 90 71 91 77 92 79 93 76 94 72 95
REMARK SMILES IDX 73 96 74 97 75 98 54 99 55 100 63 101 56 102 62 103 64 104
REMARK SMILES IDX 61 105 57 106 58 107 59 108 60 109
REMARK H PARENT 20 5 25 43 84 62 52 73
REMARK Flexibility Score: inf
ROOT
ATOM      1  C   UNL A   1      33.953  31.163  27.772  1.00  0.00     0.116 C 
ENDROOT
BRANCH   1   2
ATOM      2  N   UNL A   1      32.767  31.284  26.939  1.00  0.00    -0.352 N 
ATOM      3  C   UNL A   1      32.068  30.376  26.181  1.00  0.00     0.251 C 
ATOM      4  O   UNL A   1      31.062  30.762  25.589  1.00  0.00    -0.269 OA
ATOM      5  H   UNL A   1      32.392  32.193  26.915  1.00  0.00     0.163 HD
BRANCH   3   6
ATOM      6  C   UNL A   1      32.456  28.946  26.084  1.00  0.00     0.039 A 
ATOM      7  C   UNL A   1      33.166  26.281  26.107  1.00  0.00     0.066 A 
ATOM      8  C   UNL A   1      31.852  26.614  26.423  1.00  0.00     0.029 A 
ATOM      9  C   UNL A   1      34.099  27.226  25.707  1.00  0.00     0.029 A 
ATOM     10  C   UNL A   1      31.514  27.967  26.451  1.00  0.00     0.016 A 
ATOM     11  C   UNL A   1      33.709  28.540  25.632  1.00  0.00     0.016 A 
BRANCH   7  12
ATOM     12  N   UNL A   1      33.574  24.960  26.012  1.00  0.00    -0.220 N 
ATOM     13  C   UNL A   1      34.089  23.061  26.891  1.00  0.00     0.093 A 
ATOM     14  C   UNL A   1      33.041  23.919  26.726  1.00  0.00     0.141 A 
ATOM     15  N   UNL A   1      35.192  23.591  26.270  1.00  0.00    -0.134 NA
ATOM     16  N   UNL A   1      34.840  24.699  25.651  1.00  0.00    -0.062 NA
BRANCH  13  17
ATOM     17  C   UNL A   1      34.104  21.765  27.583  1.00  0.00     0.138 C 
BRANCH  17  18
ATOM     18  S   UNL A   1      33.413  20.437  26.619  1.00  0.00    -0.081 SA
BRANCH  18  19
ATOM     19  C   UNL A   1      34.133  20.683  24.968  1.00  0.00     0.176 A 
ATOM     20  N   UNL A   1      33.186  20.978  24.002  1.00  0.00    -0.255 N 
ATOM     21  C   UNL A   1      32.699  19.894  23.282  1.00  0.00     0.266 A 
ATOM     22  N   UNL A   1      35.083  19.842  24.679  1.00  0.00    -0.223 NA
ATOM     23  C   UNL A   1      33.234  18.577  23.762  1.00  0.00     0.066 A 
ATOM     24  O   UNL A   1      31.884  19.926  22.367  1.00  0.00    -0.268 OA
ATOM     25  C   UNL A   1      34.499  18.597  24.385  1.00  0.00     0.079 A 
ATOM     26  C   UNL A   1      32.417  17.458  23.879  1.00  0.00     0.016 A 
ATOM     27  C   UNL A   1      34.987  17.469  25.040  1.00  0.00     0.029 A 
ATOM     28  C   UNL A   1      32.874  16.364  24.623  1.00  0.00     0.001 A 
ATOM     29  C   UNL A   1      34.160  16.359  25.180  1.00  0.00     0.002 A 
BRANCH  20  30
ATOM     30  C   UNL A   1      32.879  22.330  23.683  1.00  0.00     0.052 A 
ATOM     31  C   UNL A   1      32.005  24.665  22.378  1.00  0.00     0.119 A 
ATOM     32  C   UNL A   1      31.179  24.037  23.308  1.00  0.00     0.048 A 
ATOM     33  C   UNL A   1      33.315  24.217  22.215  1.00  0.00     0.048 A 
ATOM     34  C   UNL A   1      31.601  22.853  23.934  1.00  0.00     0.030 A 
ATOM     35  C   UNL A   1      33.763  23.071  22.892  1.00  0.00     0.030 A 
BRANCH  31  36
ATOM     36  O   UNL A   1      31.501  25.747  21.711  1.00  0.00    -0.497 OA
ATOM     37  C   UNL A   1      31.653  26.994  22.399  1.00  0.00     0.278 C 
ENDBRANCH  31  36
ENDBRANCH  20  30
ENDBRANCH  18  19
ENDBRANCH  17  18
ENDBRANCH  13  17
ENDBRANCH   7  12
ENDBRANCH   3   6
ENDBRANCH   1   2
BRANCH   1  38
ATOM     38  C   UNL A   1      34.672  32.512  27.947  1.00  0.00     0.023 C 
BRANCH  38  39
ATOM     39  C   UNL A   1      33.794  33.666  28.433  1.00  0.00     0.023 C 
BRANCH  39  40
ATOM     40  C   UNL A   1      34.443  34.569  29.473  1.00  0.00     0.116 C 
BRANCH  40  41
ATOM     41  N   UNL A   1      34.068  34.224  30.848  1.00  0.00    -0.352 N 
ATOM     42  C   UNL A   1      34.554  33.180  31.626  1.00  0.00     0.251 C 
ATOM     43  H   UNL A   1      33.391  34.800  31.270  1.00  0.00     0.163 HD
ATOM     44  O   UNL A   1      33.896  32.716  32.539  1.00  0.00    -0.269 OA
BRANCH  42  45
ATOM     45  C   UNL A   1      35.912  32.682  31.329  1.00  0.00     0.039 A 
ATOM     46  C   UNL A   1      37.051  33.487  31.379  1.00  0.00     0.014 A 
ATOM     47  C   UNL A   1      36.008  31.323  31.060  1.00  0.00     0.014 A 
ATOM     48  C   UNL A   1      38.298  32.876  31.230  1.00  0.00     0.010 A 
ATOM     49  C   UNL A   1      37.222  30.705  31.143  1.00  0.00     0.010 A 
ATOM     50  C   UNL A   1      38.372  31.476  31.130  1.00  0.00    -0.014 A 
BRANCH  50  51
ATOM     51  C   UNL A   1      39.639  30.755  31.119  1.00  0.00     0.031 A 
ATOM     52  C   UNL A   1      40.200  30.499  32.468  1.00  0.00     0.074 A 
ATOM     53  C   UNL A   1      40.125  30.147  30.011  1.00  0.00     0.049 A 
ATOM     54  N   UNL A   1      41.208  31.087  33.017  1.00  0.00    -0.248 NA
ATOM     55  C   UNL A   1      39.450  29.632  33.393  1.00  0.00     0.031 C 
ATOM     56  C   UNL A   1      39.519  30.043  28.678  1.00  0.00     0.029 A 
ATOM     57  N   UNL A   1      41.240  29.383  29.878  1.00  0.00    -0.354 N 
ATOM     58  C   UNL A   1      41.391  30.460  34.243  1.00  0.00     0.074 A 
ATOM     59  C   UNL A   1      40.156  29.777  34.517  1.00  0.00     0.031 C 
ATOM     60  C   UNL A   1      40.138  29.073  27.968  1.00  0.00     0.029 A 
ATOM     61  C   UNL A   1      41.290  28.610  28.719  1.00  0.00     0.049 A 
ATOM     62  H   UNL A   1      41.959  29.375  30.550  1.00  0.00     0.167 HD
ATOM     63  C   UNL A   1      42.637  30.333  34.782  1.00  0.00     0.034 A 
ATOM     64  C   UNL A   1      42.201  27.645  28.410  1.00  0.00     0.034 A 
ATOM     65  C   UNL A   1      43.581  31.193  34.093  1.00  0.00     0.049 A 
ATOM     66  C   UNL A   1      43.402  27.938  29.238  1.00  0.00     0.074 A 
ATOM     67  C   UNL A   1      43.635  32.550  33.831  1.00  0.00     0.029 A 
ATOM     68  N   UNL A   1      44.437  30.614  33.179  1.00  0.00    -0.354 N 
ATOM     69  N   UNL A   1      44.108  29.031  29.098  1.00  0.00    -0.248 NA
ATOM     70  C   UNL A   1      43.491  27.313  30.549  1.00  0.00     0.031 C 
ATOM     71  C   UNL A   1      44.061  32.639  32.472  1.00  0.00     0.029 A 
ATOM     72  C   UNL A   1      44.356  31.351  32.020  1.00  0.00     0.049 A 
ATOM     73  H   UNL A   1      45.002  29.822  33.327  1.00  0.00     0.167 HD
ATOM     74  C   UNL A   1      44.358  29.468  30.391  1.00  0.00     0.074 A 
ATOM     75  C   UNL A   1      44.027  28.323  31.244  1.00  0.00     0.031 C 
ATOM     76  C   UNL A   1      44.515  30.795  30.685  1.00  0.00     0.034 A 
BRANCH  63  77
ATOM     77  C   UNL A   1      43.100  29.182  35.650  1.00  0.00     0.023 A 
ATOM     78  C   UNL A   1      43.835  29.513  36.803  1.00  0.00     0.031 A 
ATOM     79  C   UNL A   1      43.119  27.817  35.283  1.00  0.00     0.131 A 
ATOM     80  C   UNL A   1      44.631  28.556  37.454  1.00  0.00     0.055 A 
ATOM     81  C   UNL A   1      43.857  26.853  35.978  1.00  0.00     0.041 A 
ATOM     82  F   UNL A   1      42.513  27.347  34.189  1.00  0.00    -0.206 F 
ATOM     83  C   UNL A   1      44.649  27.226  37.049  1.00  0.00     0.022 A 
BRANCH  80  84
ATOM     84  S   UNL A   1      45.792  29.131  38.719  1.00  0.00     0.124 S 
ATOM     85  O   UNL A   1      44.885  29.490  39.804  1.00  0.00    -0.237 OA
ATOM     86  O   UNL A   1      46.615  27.946  38.931  1.00  0.00    -0.237 OA
ATOM     87  O   UNL A   1      46.467  30.254  38.072  1.00  0.00    -0.744 OA
ENDBRANCH  80  84
ENDBRANCH  63  77
BRANCH  64  88
ATOM     88  C   UNL A   1      41.930  26.329  27.749  1.00  0.00     0.023 A 
ATOM     89  C   UNL A   1      42.832  25.694  26.862  1.00  0.00     0.031 A 
ATOM     90  C   UNL A   1      40.832  25.550  28.185  1.00  0.00     0.131 A 
ATOM     91  C   UNL A   1      42.611  24.352  26.451  1.00  0.00     0.055 A 
ATOM     92  C   UNL A   1      40.622  24.229  27.780  1.00  0.00     0.041 A 
ATOM     93  F   UNL A   1      39.961  26.020  29.090  1.00  0.00    -0.206 F 
ATOM     94  C   UNL A   1      41.517  23.620  26.917  1.00  0.00     0.022 A 
BRANCH  91  95
ATOM     95  S   UNL A   1      43.794  23.496  25.352  1.00  0.00     0.124 S 
ATOM     96  O   UNL A   1      44.720  22.893  26.304  1.00  0.00    -0.237 OA
ATOM     97  O   UNL A   1      42.932  22.581  24.615  1.00  0.00    -0.237 OA
ATOM     98  O   UNL A   1      44.363  24.580  24.549  1.00  0.00    -0.744 OA
ENDBRANCH  91  95
ENDBRANCH  64  88
BRANCH  76  99
ATOM     99  C   UNL A   1      44.667  31.791  29.546  1.00  0.00     0.023 A 
ATOM    100  C   UNL A   1      45.841  31.990  28.781  1.00  0.00     0.031 A 
ATOM    101  C   UNL A   1      43.504  32.468  29.133  1.00  0.00     0.131 A 
ATOM    102  C   UNL A   1      45.817  32.843  27.656  1.00  0.00     0.055 A 
ATOM    103  C   UNL A   1      43.479  33.290  28.007  1.00  0.00     0.041 A 
ATOM    104  F   UNL A   1      42.349  32.305  29.799  1.00  0.00    -0.206 F 
ATOM    105  C   UNL A   1      44.638  33.485  27.267  1.00  0.00     0.022 A 
BRANCH 102 106
ATOM    106  S   UNL A   1      47.328  33.151  26.679  1.00  0.00     0.124 S 
ATOM    107  O   UNL A   1      46.849  33.935  25.547  1.00  0.00    -0.237 OA
ATOM    108  O   UNL A   1      48.185  33.858  27.628  1.00  0.00    -0.237 OA
ATOM    109  O   UNL A   1      47.790  31.805  26.334  1.00  0.00    -0.744 OA
ENDBRANCH 102 106
ENDBRANCH  76  99
ENDBRANCH  50  51
ENDBRANCH  42  45
ENDBRANCH  40  41
ENDBRANCH  39  40
ENDBRANCH  38  39
ENDBRANCH   1  38
TORSDOF 20
ENDMDL
MODEL 2
REMARK VINA RESULT:     -11.9      3.083      8.407
REMARK SMILES COc1ccc(-n2c(SCc3cn(-c4ccc(C(=O)NCCCCNC(=O)c5ccc(-c6c7nc(c(-c8cc(S(=O)(=O)[O-])ccc8F)c8ccc([nH]8)c(-c8cc(S(=O)(=O)[O-])ccc8F)c8nc(c(-c9cc(S(=O)(=O)[O-])ccc9F)c9ccc6[nH]9)C=C8)C=C7)cc5)cc4)nn3)nc3ccccc3c2=O)cc1
REMARK SMILES IDX 21 1 20 2 18 3 19 4 17 6 14 7 15 8 92 9 16 10 91 11 13 12
REMARK SMILES IDX 11 13 12 14 94 15 93 16 10 17 9 18 8 19 7 20 102 21 95 22
REMARK SMILES IDX 101 23 103 24 96 25 100 26 97 27 99 28 98 29 6 30 3 31 4 32
REMARK SMILES IDX 105 33 5 34 104 35 2 36 1 37 22 38 23 39 24 40 25 41 26 42
REMARK SMILES IDX 27 44 28 45 29 46 90 47 30 48 89 49 31 50 32 51 33 52 83 53
REMARK SMILES IDX 34 54 88 55 82 56 84 57 35 58 87 59 81 60 80 61 36 63 68 64
REMARK SMILES IDX 48 65 67 66 49 67 52 68 66 69 85 70 50 71 51 72 65 74 86 75
REMARK SMILES IDX 53 76 37 77 38 78 46 79 39 80 45 81 47 82 44 83 40 84 41 85
REMARK SMILES IDX 42 86 43 87 69 88 70 89 78 90 71 91 77 92 79 93 76 94 72 95
REMARK SMILES IDX 73 96 74 97 75 98 54 99 55 100 63 101 56 102 62 103 64 104
REMARK SMILES IDX 61 105 57 106 58 107 59 108 60 109
REMARK H PARENT 20 5 25 43 84 62 52 73
REMARK Flexibility Score: inf
ROOT
ATOM      1  C   UNL A   1      44.680  23.588  26.822  1.00  0.00     0.116 C 
ENDROOT
BRANCH   1   2
ATOM      2  N   UNL A   1      44.345  23.307  28.209  1.00  0.00    -0.352 N 
ATOM      3  C   UNL A   1      43.157  23.026  28.839  1.00  0.00     0.251 C 
ATOM      4  O   UNL A   1      43.176  22.797  30.046  1.00  0.00    -0.269 OA
ATOM      5  H   UNL A   1      45.121  23.321  28.813  1.00  0.00     0.163 HD
BRANCH   3   6
ATOM      6  C   UNL A   1      41.864  22.947  28.113  1.00  0.00     0.039 A 
ATOM      7  C   UNL A   1      39.570  22.788  26.591  1.00  0.00     0.066 A 
ATOM      8  C   UNL A   1      40.350  21.644  26.725  1.00  0.00     0.029 A 
ATOM      9  C   UNL A   1      39.859  23.971  27.254  1.00  0.00     0.029 A 
ATOM     10  C   UNL A   1      41.531  21.746  27.460  1.00  0.00     0.016 A 
ATOM     11  C   UNL A   1      40.967  24.011  28.065  1.00  0.00     0.016 A 
BRANCH   7  12
ATOM     12  N   UNL A   1      38.360  22.763  25.916  1.00  0.00    -0.220 N 
ATOM     13  C   UNL A   1      36.263  23.235  25.751  1.00  0.00     0.093 A 
ATOM     14  C   UNL A   1      37.494  23.821  25.813  1.00  0.00     0.141 A 
ATOM     15  N   UNL A   1      36.422  21.874  25.800  1.00  0.00    -0.134 NA
ATOM     16  N   UNL A   1      37.709  21.596  25.796  1.00  0.00    -0.062 NA
BRANCH  13  17
ATOM     17  C   UNL A   1      34.951  23.887  25.632  1.00  0.00     0.138 C 
BRANCH  17  18
ATOM     18  S   UNL A   1      34.567  24.411  23.975  1.00  0.00    -0.081 SA
BRANCH  18  19
ATOM     19  C   UNL A   1      32.818  24.899  24.072  1.00  0.00     0.176 A 
ATOM     20  N   UNL A   1      32.392  25.134  25.369  1.00  0.00    -0.255 N 
ATOM     21  C   UNL A   1      31.801  24.056  26.015  1.00  0.00     0.266 A 
ATOM     22  N   UNL A   1      32.042  24.234  23.267  1.00  0.00    -0.223 NA
ATOM     23  C   UNL A   1      31.822  22.795  25.202  1.00  0.00     0.066 A 
ATOM     24  O   UNL A   1      31.329  24.047  27.146  1.00  0.00    -0.268 OA
ATOM     25  C   UNL A   1      31.851  22.946  23.801  1.00  0.00     0.079 A 
ATOM     26  C   UNL A   1      32.115  21.563  25.777  1.00  0.00     0.016 A 
ATOM     27  C   UNL A   1      32.075  21.849  22.972  1.00  0.00     0.029 A 
ATOM     28  C   UNL A   1      32.437  20.488  24.940  1.00  0.00     0.001 A 
ATOM     29  C   UNL A   1      32.394  20.623  23.546  1.00  0.00     0.002 A 
BRANCH  20  30
ATOM     30  C   UNL A   1      32.424  26.450  25.910  1.00  0.00     0.052 A 
ATOM     31  C   UNL A   1      32.745  29.225  26.243  1.00  0.00     0.119 A 
ATOM     32  C   UNL A   1      31.490  28.701  25.941  1.00  0.00     0.048 A 
ATOM     33  C   UNL A   1      33.798  28.356  26.526  1.00  0.00     0.048 A 
ATOM     34  C   UNL A   1      31.336  27.320  25.742  1.00  0.00     0.030 A 
ATOM     35  C   UNL A   1      33.630  26.968  26.393  1.00  0.00     0.030 A 
BRANCH  31  36
ATOM     36  O   UNL A   1      32.866  30.585  26.312  1.00  0.00    -0.497 OA
ATOM     37  C   UNL A   1      33.595  31.061  27.449  1.00  0.00     0.278 C 
ENDBRANCH  31  36
ENDBRANCH  20  30
ENDBRANCH  18  19
ENDBRANCH  17  18
ENDBRANCH  13  17
ENDBRANCH   7  12
ENDBRANCH   3   6
ENDBRANCH   1   2
BRANCH   1  38
ATOM     38  C   UNL A   1      45.627  24.794  26.692  1.00  0.00     0.023 C 
BRANCH  38  39
ATOM     39  C   UNL A   1      45.697  25.428  25.303  1.00  0.00     0.023 C 
BRANCH  39  40
ATOM     40  C   UNL A   1      44.831  26.668  25.122  1.00  0.00     0.116 C 
BRANCH  40  41
ATOM     41  N   UNL A   1      43.483  26.360  24.634  1.00  0.00    -0.352 N 
ATOM     42  C   UNL A   1      42.277  26.525  25.305  1.00  0.00     0.251 C 
ATOM     43  H   UNL A   1      43.425  25.994  23.723  1.00  0.00     0.163 HD
ATOM     44  O   UNL A   1      41.300  25.857  25.017  1.00  0.00    -0.269 OA
BRANCH  42  45
ATOM     45  C   UNL A   1      42.214  27.563  26.352  1.00  0.00     0.039 A 
ATOM     46  C   UNL A   1      41.808  28.876  26.105  1.00  0.00     0.014 A 
ATOM     47  C   UNL A   1      42.518  27.140  27.639  1.00  0.00     0.014 A 
ATOM     48  C   UNL A   1      41.640  29.732  27.196  1.00  0.00     0.010 A 
ATOM     49  C   UNL A   1      42.136  27.900  28.706  1.00  0.00     0.010 A 
ATOM     50  C   UNL A   1      41.790  29.226  28.498  1.00  0.00    -0.014 A 
BRANCH  50  51
ATOM     51  C   UNL A   1      41.490  30.013  29.687  1.00  0.00     0.031 A 
ATOM     52  C   UNL A   1      40.098  30.522  29.738  1.00  0.00     0.074 A 
ATOM     53  C   UNL A   1      42.312  30.058  30.762  1.00  0.00     0.049 A 
ATOM     54  N   UNL A   1      39.704  31.736  29.547  1.00  0.00    -0.248 NA
ATOM     55  C   UNL A   1      38.993  29.552  29.821  1.00  0.00     0.031 C 
ATOM     56  C   UNL A   1      43.577  29.346  30.983  1.00  0.00     0.029 A 
ATOM     57  N   UNL A   1      42.123  30.680  31.954  1.00  0.00    -0.354 N 
ATOM     58  C   UNL A   1      38.333  31.729  29.770  1.00  0.00     0.074 A 
ATOM     59  C   UNL A   1      37.933  30.351  29.678  1.00  0.00     0.031 C 
ATOM     60  C   UNL A   1      43.898  29.379  32.296  1.00  0.00     0.029 A 
ATOM     61  C   UNL A   1      42.968  30.258  32.980  1.00  0.00     0.049 A 
ATOM     62  H   UNL A   1      41.440  31.377  32.085  1.00  0.00     0.167 HD
ATOM     63  C   UNL A   1      37.705  32.824  30.285  1.00  0.00     0.034 A 
ATOM     64  C   UNL A   1      42.893  30.591  34.299  1.00  0.00     0.034 A 
ATOM     65  C   UNL A   1      38.572  33.985  30.225  1.00  0.00     0.049 A 
ATOM     66  C   UNL A   1      42.130  31.867  34.355  1.00  0.00     0.074 A 
ATOM     67  C   UNL A   1      39.251  34.629  29.206  1.00  0.00     0.029 A 
ATOM     68  N   UNL A   1      39.197  34.388  31.387  1.00  0.00    -0.354 N 
ATOM     69  N   UNL A   1      42.567  32.978  33.820  1.00  0.00    -0.248 NA
ATOM     70  C   UNL A   1      40.684  31.786  34.505  1.00  0.00     0.031 C 
ATOM     71  C   UNL A   1      40.537  34.915  29.753  1.00  0.00     0.029 A 
ATOM     72  C   UNL A   1      40.534  34.541  31.100  1.00  0.00     0.049 A 
ATOM     73  H   UNL A   1      38.767  34.539  32.260  1.00  0.00     0.167 HD
ATOM     74  C   UNL A   1      41.469  33.524  33.170  1.00  0.00     0.074 A 
ATOM     75  C   UNL A   1      40.317  32.790  33.700  1.00  0.00     0.031 C 
ATOM     76  C   UNL A   1      41.607  34.299  32.051  1.00  0.00     0.034 A 
BRANCH  63  77
ATOM     77  C   UNL A   1      36.487  32.789  31.183  1.00  0.00     0.023 A 
ATOM     78  C   UNL A   1      35.399  33.601  30.809  1.00  0.00     0.031 A 
ATOM     79  C   UNL A   1      36.431  32.258  32.492  1.00  0.00     0.131 A 
ATOM     80  C   UNL A   1      34.402  33.948  31.735  1.00  0.00     0.055 A 
ATOM     81  C   UNL A   1      35.397  32.549  33.388  1.00  0.00     0.041 A 
ATOM     82  F   UNL A   1      37.405  31.509  33.017  1.00  0.00    -0.206 F 
ATOM     83  C   UNL A   1      34.393  33.429  33.025  1.00  0.00     0.022 A 
BRANCH  80  84
ATOM     84  S   UNL A   1      33.228  35.248  31.276  1.00  0.00     0.124 S 
ATOM     85  O   UNL A   1      32.208  35.096  32.307  1.00  0.00    -0.237 OA
ATOM     86  O   UNL A   1      34.058  36.444  31.360  1.00  0.00    -0.237 OA
ATOM     87  O   UNL A   1      32.814  34.868  29.927  1.00  0.00    -0.744 OA
ENDBRANCH  80  84
ENDBRANCH  63  77
BRANCH  64  88
ATOM     88  C   UNL A   1      43.113  29.685  35.471  1.00  0.00     0.023 A 
ATOM     89  C   UNL A   1      42.461  28.440  35.635  1.00  0.00     0.031 A 
ATOM     90  C   UNL A   1      44.183  29.951  36.358  1.00  0.00     0.131 A 
ATOM     91  C   UNL A   1      42.882  27.536  36.647  1.00  0.00     0.055 A 
ATOM     92  C   UNL A   1      44.594  29.056  37.350  1.00  0.00     0.041 A 
ATOM     93  F   UNL A   1      44.925  31.062  36.240  1.00  0.00    -0.206 F 
ATOM     94  C   UNL A   1      43.951  27.839  37.493  1.00  0.00     0.022 A 
BRANCH  91  95
ATOM     95  S   UNL A   1      42.092  25.900  36.839  1.00  0.00     0.124 S 
ATOM     96  O   UNL A   1      41.161  25.871  35.716  1.00  0.00    -0.237 OA
ATOM     97  O   UNL A   1      43.228  24.991  36.764  1.00  0.00    -0.237 OA
ATOM     98  O   UNL A   1      41.457  25.978  38.156  1.00  0.00    -0.744 OA
ENDBRANCH  91  95
ENDBRANCH  64  88
BRANCH  76  99
ATOM     99  C   UNL A   1      42.993  34.779  31.651  1.00  0.00     0.023 A 
ATOM    100  C   UNL A   1      43.804  34.199  30.646  1.00  0.00     0.031 A 
ATOM    101  C   UNL A   1      43.444  35.979  32.232  1.00  0.00     0.131 A 
ATOM    102  C   UNL A   1      45.014  34.821  30.266  1.00  0.00     0.055 A 
ATOM    103  C   UNL A   1      44.626  36.602  31.836  1.00  0.00     0.041 A 
ATOM    104  F   UNL A   1      42.710  36.597  33.173  1.00  0.00    -0.206 F 
ATOM    105  C   UNL A   1      45.419  36.022  30.855  1.00  0.00     0.022 A 
BRANCH 102 106
ATOM    106  S   UNL A   1      46.100  34.071  29.005  1.00  0.00     0.124 S 
ATOM    107  O   UNL A   1      45.168  33.594  27.991  1.00  0.00    -0.237 OA
ATOM    108  O   UNL A   1      46.954  35.189  28.612  1.00  0.00    -0.237 OA
ATOM    109  O   UNL A   1      46.793  33.010  29.740  1.00  0.00    -0.744 OA
ENDBRANCH 102 106
ENDBRANCH  76  99
ENDBRANCH  50  51
ENDBRANCH  42  45
ENDBRANCH  40  41
ENDBRANCH  39  40
ENDBRANCH  38  39
ENDBRANCH   1  38
TORSDOF 20
ENDMDL
MODEL 3
REMARK VINA RESULT:     -11.9      3.483      8.548
REMARK SMILES COc1ccc(-n2c(SCc3cn(-c4ccc(C(=O)NCCCCNC(=O)c5ccc(-c6c7nc(c(-c8cc(S(=O)(=O)[O-])ccc8F)c8ccc([nH]8)c(-c8cc(S(=O)(=O)[O-])ccc8F)c8nc(c(-c9cc(S(=O)(=O)[O-])ccc9F)c9ccc6[nH]9)C=C8)C=C7)cc5)cc4)nn3)nc3ccccc3c2=O)cc1
REMARK SMILES IDX 21 1 20 2 18 3 19 4 17 6 14 7 15 8 92 9 16 10 91 11 13 12
REMARK SMILES IDX 11 13 12 14 94 15 93 16 10 17 9 18 8 19 7 20 102 21 95 22
REMARK SMILES IDX 101 23 103 24 96 25 100 26 97 27 99 28 98 29 6 30 3 31 4 32
REMARK SMILES IDX 105 33 5 34 104 35 2 36 1 37 22 38 23 39 24 40 25 41 26 42
REMARK SMILES IDX 27 44 28 45 29 46 90 47 30 48 89 49 31 50 32 51 33 52 83 53
REMARK SMILES IDX 34 54 88 55 82 56 84 57 35 58 87 59 81 60 80 61 36 63 68 64
REMARK SMILES IDX 48 65 67 66 49 67 52 68 66 69 85 70 50 71 51 72 65 74 86 75
REMARK SMILES IDX 53 76 37 77 38 78 46 79 39 80 45 81 47 82 44 83 40 84 41 85
REMARK SMILES IDX 42 86 43 87 69 88 70 89 78 90 71 91 77 92 79 93 76 94 72 95
REMARK SMILES IDX 73 96 74 97 75 98 54 99 55 100 63 101 56 102 62 103 64 104
REMARK SMILES IDX 61 105 57 106 58 107 59 108 60 109
REMARK H PARENT 20 5 25 43 84 62 52 73
REMARK Flexibility Score: inf
ROOT
ATOM      1  C   UNL A   1      44.508  24.907  31.316  1.00  0.00     0.116 C 
ENDROOT
BRANCH   1   2
ATOM      2  N   UNL A   1      45.275  24.822  30.083  1.00  0.00    -0.352 N 
ATOM      3  C   UNL A   1      44.939  24.448  28.805  1.00  0.00     0.251 C 
ATOM      4  O   UNL A   1      45.805  24.502  27.934  1.00  0.00    -0.269 OA
ATOM      5  H   UNL A   1      46.217  25.086  30.185  1.00  0.00     0.163 HD
BRANCH   3   6
ATOM      6  C   UNL A   1      43.567  24.022  28.429  1.00  0.00     0.039 A 
ATOM      7  C   UNL A   1      41.102  23.129  27.575  1.00  0.00     0.066 A 
ATOM      8  C   UNL A   1      41.963  22.212  28.169  1.00  0.00     0.029 A 
ATOM      9  C   UNL A   1      41.404  24.479  27.472  1.00  0.00     0.029 A 
ATOM     10  C   UNL A   1      43.224  22.664  28.557  1.00  0.00     0.016 A 
ATOM     11  C   UNL A   1      42.607  24.919  27.967  1.00  0.00     0.016 A 
BRANCH   7  12
ATOM     12  N   UNL A   1      39.815  22.775  27.202  1.00  0.00    -0.220 N 
ATOM     13  C   UNL A   1      38.388  22.022  25.773  1.00  0.00     0.093 A 
ATOM     14  C   UNL A   1      39.482  21.647  26.498  1.00  0.00     0.141 A 
ATOM     15  N   UNL A   1      38.092  23.328  26.068  1.00  0.00    -0.134 NA
ATOM     16  N   UNL A   1      38.905  23.744  27.017  1.00  0.00    -0.062 NA
BRANCH  13  17
ATOM     17  C   UNL A   1      37.599  21.212  24.833  1.00  0.00     0.138 C 
BRANCH  17  18
ATOM     18  S   UNL A   1      36.298  22.124  24.029  1.00  0.00    -0.081 SA
BRANCH  18  19
ATOM     19  C   UNL A   1      34.861  21.870  25.114  1.00  0.00     0.176 A 
ATOM     20  N   UNL A   1      33.916  21.014  24.571  1.00  0.00    -0.255 N 
ATOM     21  C   UNL A   1      32.883  21.622  23.869  1.00  0.00     0.266 A 
ATOM     22  N   UNL A   1      34.457  22.952  25.712  1.00  0.00    -0.223 NA
ATOM     23  C   UNL A   1      33.041  23.110  23.753  1.00  0.00     0.066 A 
ATOM     24  O   UNL A   1      31.931  21.065  23.335  1.00  0.00    -0.268 OA
ATOM     25  C   UNL A   1      33.776  23.749  24.773  1.00  0.00     0.079 A 
ATOM     26  C   UNL A   1      32.765  23.781  22.568  1.00  0.00     0.016 A 
ATOM     27  C   UNL A   1      34.148  25.085  24.649  1.00  0.00     0.029 A 
ATOM     28  C   UNL A   1      33.228  25.093  22.412  1.00  0.00     0.001 A 
ATOM     29  C   UNL A   1      33.895  25.750  23.454  1.00  0.00     0.002 A 
BRANCH  20  30
ATOM     30  C   UNL A   1      33.946  19.624  24.873  1.00  0.00     0.052 A 
ATOM     31  C   UNL A   1      33.587  16.835  24.788  1.00  0.00     0.119 A 
ATOM     32  C   UNL A   1      34.770  17.399  24.315  1.00  0.00     0.048 A 
ATOM     33  C   UNL A   1      32.656  17.644  25.436  1.00  0.00     0.048 A 
ATOM     34  C   UNL A   1      34.936  18.793  24.327  1.00  0.00     0.030 A 
ATOM     35  C   UNL A   1      32.850  19.033  25.510  1.00  0.00     0.030 A 
BRANCH  31  36
ATOM     36  O   UNL A   1      33.428  15.484  24.647  1.00  0.00    -0.497 OA
ATOM     37  C   UNL A   1      32.520  14.892  25.583  1.00  0.00     0.278 C 
ENDBRANCH  31  36
ENDBRANCH  20  30
ENDBRANCH  18  19
ENDBRANCH  17  18
ENDBRANCH  13  17
ENDBRANCH   7  12
ENDBRANCH   3   6
ENDBRANCH   1   2
BRANCH   1  38
ATOM     38  C   UNL A   1      44.275  23.520  31.943  1.00  0.00     0.023 C 
BRANCH  38  39
ATOM     39  C   UNL A   1      44.580  23.416  33.438  1.00  0.00     0.023 C 
BRANCH  39  40
ATOM     40  C   UNL A   1      43.387  23.047  34.310  1.00  0.00     0.116 C 
BRANCH  40  41
ATOM     41  N   UNL A   1      43.537  23.480  35.702  1.00  0.00    -0.352 N 
ATOM     42  C   UNL A   1      43.746  24.769  36.175  1.00  0.00     0.251 C 
ATOM     43  H   UNL A   1      43.483  22.772  36.384  1.00  0.00     0.163 HD
ATOM     44  O   UNL A   1      44.284  24.966  37.250  1.00  0.00    -0.269 OA
BRANCH  42  45
ATOM     45  C   UNL A   1      43.258  25.888  35.346  1.00  0.00     0.039 A 
ATOM     46  C   UNL A   1      41.904  26.140  35.118  1.00  0.00     0.014 A 
ATOM     47  C   UNL A   1      44.236  26.740  34.849  1.00  0.00     0.014 A 
ATOM     48  C   UNL A   1      41.553  27.312  34.446  1.00  0.00     0.010 A 
ATOM     49  C   UNL A   1      43.884  27.980  34.401  1.00  0.00     0.010 A 
ATOM     50  C   UNL A   1      42.555  28.238  34.106  1.00  0.00    -0.014 A 
BRANCH  50  51
ATOM     51  C   UNL A   1      42.257  29.546  33.537  1.00  0.00     0.031 A 
ATOM     52  C   UNL A   1      41.648  30.498  34.498  1.00  0.00     0.074 A 
ATOM     53  C   UNL A   1      42.726  29.943  32.331  1.00  0.00     0.049 A 
ATOM     54  N   UNL A   1      40.417  30.883  34.539  1.00  0.00    -0.248 NA
ATOM     55  C   UNL A   1      42.438  30.930  35.663  1.00  0.00     0.031 C 
ATOM     56  C   UNL A   1      43.612  29.225  31.406  1.00  0.00     0.029 A 
ATOM     57  N   UNL A   1      42.594  31.149  31.720  1.00  0.00    -0.354 N 
ATOM     58  C   UNL A   1      40.348  31.824  35.559  1.00  0.00     0.074 A 
ATOM     59  C   UNL A   1      41.528  31.618  36.355  1.00  0.00     0.031 C 
ATOM     60  C   UNL A   1      44.124  30.086  30.499  1.00  0.00     0.029 A 
ATOM     61  C   UNL A   1      43.474  31.374  30.662  1.00  0.00     0.049 A 
ATOM     62  H   UNL A   1      41.926  31.814  32.002  1.00  0.00     0.167 HD
ATOM     63  C   UNL A   1      39.471  32.865  35.488  1.00  0.00     0.034 A 
ATOM     64  C   UNL A   1      43.668  32.540  29.985  1.00  0.00     0.034 A 
ATOM     65  C   UNL A   1      38.487  32.633  34.449  1.00  0.00     0.049 A 
ATOM     66  C   UNL A   1      42.432  33.342  30.192  1.00  0.00     0.074 A 
ATOM     67  C   UNL A   1      37.584  31.618  34.185  1.00  0.00     0.029 A 
ATOM     68  N   UNL A   1      38.638  33.302  33.252  1.00  0.00    -0.354 N 
ATOM     69  N   UNL A   1      41.260  32.964  29.749  1.00  0.00    -0.248 NA
ATOM     70  C   UNL A   1      42.395  34.249  31.330  1.00  0.00     0.031 C 
ATOM     71  C   UNL A   1      37.684  31.403  32.778  1.00  0.00     0.029 A 
ATOM     72  C   UNL A   1      38.544  32.368  32.247  1.00  0.00     0.049 A 
ATOM     73  H   UNL A   1      38.786  34.269  33.138  1.00  0.00     0.167 HD
ATOM     74  C   UNL A   1      40.382  33.209  30.794  1.00  0.00     0.074 A 
ATOM     75  C   UNL A   1      41.123  34.081  31.710  1.00  0.00     0.031 C 
ATOM     76  C   UNL A   1      39.258  32.452  30.983  1.00  0.00     0.034 A 
BRANCH  63  77
ATOM     77  C   UNL A   1      39.706  34.244  36.066  1.00  0.00     0.023 A 
ATOM     78  C   UNL A   1      40.751  34.999  35.500  1.00  0.00     0.031 A 
ATOM     79  C   UNL A   1      39.185  34.738  37.283  1.00  0.00     0.131 A 
ATOM     80  C   UNL A   1      41.307  36.093  36.184  1.00  0.00     0.055 A 
ATOM     81  C   UNL A   1      39.695  35.871  37.926  1.00  0.00     0.041 A 
ATOM     82  F   UNL A   1      38.225  34.114  37.973  1.00  0.00    -0.206 F 
ATOM     83  C   UNL A   1      40.787  36.535  37.396  1.00  0.00     0.022 A 
BRANCH  80  84
ATOM     84  S   UNL A   1      42.847  36.801  35.549  1.00  0.00     0.124 S 
ATOM     85  O   UNL A   1      43.321  37.551  36.707  1.00  0.00    -0.237 OA
ATOM     86  O   UNL A   1      43.605  35.605  35.200  1.00  0.00    -0.237 OA
ATOM     87  O   UNL A   1      42.404  37.613  34.417  1.00  0.00    -0.744 OA
ENDBRANCH  80  84
ENDBRANCH  63  77
BRANCH  64  88
ATOM     88  C   UNL A   1      44.974  33.104  29.519  1.00  0.00     0.023 A 
ATOM     89  C   UNL A   1      45.273  33.379  28.163  1.00  0.00     0.031 A 
ATOM     90  C   UNL A   1      45.890  33.608  30.473  1.00  0.00     0.131 A 
ATOM     91  C   UNL A   1      46.436  34.118  27.818  1.00  0.00     0.055 A 
ATOM     92  C   UNL A   1      47.032  34.337  30.128  1.00  0.00     0.041 A 
ATOM     93  F   UNL A   1      45.664  33.479  31.789  1.00  0.00    -0.206 F 
ATOM     94  C   UNL A   1      47.306  34.603  28.798  1.00  0.00     0.022 A 
BRANCH  91  95
ATOM     95  S   UNL A   1      46.809  34.533  26.078  1.00  0.00     0.124 S 
ATOM     96  O   UNL A   1      46.774  35.991  26.093  1.00  0.00    -0.237 OA
ATOM     97  O   UNL A   1      48.115  33.917  25.880  1.00  0.00    -0.237 OA
ATOM     98  O   UNL A   1      45.717  33.903  25.334  1.00  0.00    -0.744 OA
ENDBRANCH  91  95
ENDBRANCH  64  88
BRANCH  76  99
ATOM     99  C   UNL A   1      38.826  31.486  29.891  1.00  0.00     0.023 A 
ATOM    100  C   UNL A   1      39.492  30.284  29.548  1.00  0.00     0.031 A 
ATOM    101  C   UNL A   1      37.591  31.740  29.267  1.00  0.00     0.131 A 
ATOM    102  C   UNL A   1      38.916  29.398  28.612  1.00  0.00     0.055 A 
ATOM    103  C   UNL A   1      37.014  30.850  28.362  1.00  0.00     0.041 A 
ATOM    104  F   UNL A   1      36.894  32.850  29.564  1.00  0.00    -0.206 F 
ATOM    105  C   UNL A   1      37.678  29.677  28.027  1.00  0.00     0.022 A 
BRANCH 102 106
ATOM    106  S   UNL A   1      39.774  27.864  28.120  1.00  0.00     0.124 S 
ATOM    107  O   UNL A   1      40.539  27.504  29.307  1.00  0.00    -0.237 OA
ATOM    108  O   UNL A   1      38.667  26.973  27.780  1.00  0.00    -0.237 OA
ATOM    109  O   UNL A   1      40.588  28.281  26.975  1.00  0.00    -0.744 OA
ENDBRANCH 102 106
ENDBRANCH  76  99
ENDBRANCH  50  51
ENDBRANCH  42  45
ENDBRANCH  40  41
ENDBRANCH  39  40
ENDBRANCH  38  39
ENDBRANCH   1  38
TORSDOF 20
ENDMDL
