MODEL 1
REMARK VINA RESULT:     -11.4      0.000      0.000
REMARK SMILES CC1=C(C)C(=O)N(C[C@H](CC(C)C)C(=O)NCCCCNC(=O)c2ccc(-c3c4nc(c(-c5cc(S(=O)(=O)[O-])ccc5F)c5ccc([nH]5)c(-c5cc(S(=O)(=O)[O-])ccc5F)c5nc(c(-c6cc(S(=O)(=O)[O-])ccc6F)c6ccc3[nH]6)C=C5)C=C4)cc2)C1=O
REMARK SMILES IDX 19 1 18 2 17 3 16 4 14 5 15 6 9 8 8 9 7 10 1 11 2 12 3 13
REMARK SMILES IDX 87 14 4 15 5 16 88 17 6 18 10 19 11 20 12 21 13 22 20 23
REMARK SMILES IDX 21 24 22 25 23 27 24 28 25 29 86 30 26 31 85 32 27 33 28 34
REMARK SMILES IDX 29 35 79 36 30 37 84 38 78 39 80 40 31 41 83 42 77 43 76 44
REMARK SMILES IDX 32 46 64 47 44 48 63 49 45 50 48 51 62 52 81 53 46 54 47 55
REMARK SMILES IDX 61 57 82 58 49 59 33 60 34 61 42 62 35 63 41 64 43 65 40 66
REMARK SMILES IDX 36 67 37 68 38 69 39 70 65 71 66 72 74 73 67 74 73 75 75 76
REMARK SMILES IDX 72 77 68 78 69 79 70 80 71 81 50 82 51 83 59 84 52 85 58 86
REMARK SMILES IDX 60 87 57 88 53 89 54 90 55 91 56 92
REMARK H PARENT 16 7 21 26 80 45 48 56
REMARK Flexibility Score: inf
ROOT
ATOM      1  C   UNL A   1      35.975  20.547  25.024  1.00  0.00     0.023 C 
ENDROOT
BRANCH   1   2
ATOM      2  C   UNL A   1      34.786  21.505  24.921  1.00  0.00     0.023 C 
BRANCH   2   3
ATOM      3  C   UNL A   1      34.130  21.837  26.252  1.00  0.00     0.116 C 
BRANCH   3   4
ATOM      4  N   UNL A   1      32.706  21.595  26.288  1.00  0.00    -0.356 N 
ATOM      5  C   UNL A   1      31.682  22.410  25.918  1.00  0.00     0.224 C 
ATOM      6  O   UNL A   1      30.557  21.906  25.847  1.00  0.00    -0.275 OA
ATOM      7  H   UNL A   1      32.438  20.711  26.628  1.00  0.00     0.163 HD
BRANCH   5   8
ATOM      8  C   UNL A   1      31.875  23.902  25.604  1.00  0.00     0.099 C 
BRANCH   8   9
ATOM      9  C   UNL A   1      30.742  24.822  26.105  1.00  0.00     0.142 C 
BRANCH   9  10
ATOM     10  N   UNL A   1      30.758  26.162  25.543  1.00  0.00    -0.274 N 
ATOM     11  C   UNL A   1      32.076  29.575  25.510  1.00  0.00     0.051 C 
ATOM     12  C   UNL A   1      31.286  28.354  25.239  1.00  0.00     0.023 C 
ATOM     13  C   UNL A   1      30.475  28.008  24.233  1.00  0.00     0.023 C 
ATOM     14  C   UNL A   1      31.293  27.229  26.177  1.00  0.00     0.256 C 
ATOM     15  C   UNL A   1      29.988  28.820  23.098  1.00  0.00     0.051 C 
ATOM     16  C   UNL A   1      30.113  26.582  24.421  1.00  0.00     0.256 C 
ATOM     17  O   UNL A   1      31.651  27.314  27.340  1.00  0.00    -0.269 OA
ATOM     18  O   UNL A   1      29.357  25.960  23.710  1.00  0.00    -0.269 OA
ENDBRANCH   9  10
ENDBRANCH   8   9
BRANCH   8  19
ATOM     19  C   UNL A   1      32.394  24.101  24.147  1.00  0.00     0.018 C 
BRANCH  19  20
ATOM     20  C   UNL A   1      33.700  24.895  23.912  1.00  0.00    -0.017 C 
ATOM     21  C   UNL A   1      33.488  26.073  22.963  1.00  0.00     0.007 C 
ATOM     22  C   UNL A   1      34.261  25.400  25.247  1.00  0.00     0.007 C 
ENDBRANCH  19  20
ENDBRANCH   8  19
ENDBRANCH   5   8
ENDBRANCH   3   4
ENDBRANCH   2   3
ENDBRANCH   1   2
BRANCH   1  23
ATOM     23  C   UNL A   1      37.338  21.182  25.308  1.00  0.00     0.116 C 
BRANCH  23  24
ATOM     24  N   UNL A   1      38.404  20.220  25.557  1.00  0.00    -0.352 N 
ATOM     25  C   UNL A   1      39.624  20.440  26.157  1.00  0.00     0.251 C 
ATOM     26  H   UNL A   1      38.231  19.299  25.257  1.00  0.00     0.163 HD
ATOM     27  O   UNL A   1      40.452  19.539  26.241  1.00  0.00    -0.269 OA
BRANCH  25  28
ATOM     28  C   UNL A   1      39.933  21.795  26.654  1.00  0.00     0.039 A 
ATOM     29  C   UNL A   1      40.873  21.941  27.675  1.00  0.00     0.014 A 
ATOM     30  C   UNL A   1      39.361  22.915  26.043  1.00  0.00     0.014 A 
ATOM     31  C   UNL A   1      41.312  23.220  28.023  1.00  0.00     0.010 A 
ATOM     32  C   UNL A   1      39.845  24.183  26.350  1.00  0.00     0.010 A 
ATOM     33  C   UNL A   1      40.838  24.346  27.329  1.00  0.00    -0.014 A 
BRANCH  33  34
ATOM     34  C   UNL A   1      41.394  25.700  27.591  1.00  0.00     0.031 A 
ATOM     35  C   UNL A   1      42.792  26.037  27.158  1.00  0.00     0.074 A 
ATOM     36  C   UNL A   1      40.666  26.592  28.292  1.00  0.00     0.049 A 
ATOM     37  N   UNL A   1      43.483  27.127  27.368  1.00  0.00    -0.248 NA
ATOM     38  C   UNL A   1      43.518  24.994  26.419  1.00  0.00     0.031 C 
ATOM     39  C   UNL A   1      39.316  26.361  28.814  1.00  0.00     0.029 A 
ATOM     40  N   UNL A   1      40.962  27.868  28.700  1.00  0.00    -0.354 N 
ATOM     41  C   UNL A   1      44.732  26.898  26.802  1.00  0.00     0.074 A 
ATOM     42  C   UNL A   1      44.717  25.543  26.292  1.00  0.00     0.031 C 
ATOM     43  C   UNL A   1      38.897  27.463  29.456  1.00  0.00     0.029 A 
ATOM     44  C   UNL A   1      39.957  28.465  29.426  1.00  0.00     0.049 A 
ATOM     45  H   UNL A   1      41.814  28.316  28.491  1.00  0.00     0.167 HD
ATOM     46  C   UNL A   1      45.784  27.747  26.697  1.00  0.00     0.034 A 
ATOM     47  C   UNL A   1      39.901  29.678  30.012  1.00  0.00     0.034 A 
ATOM     48  C   UNL A   1      45.777  29.101  27.197  1.00  0.00     0.049 A 
ATOM     49  C   UNL A   1      41.081  30.605  29.883  1.00  0.00     0.074 A 
ATOM     50  C   UNL A   1      46.762  30.067  27.089  1.00  0.00     0.029 A 
ATOM     51  N   UNL A   1      44.733  29.680  27.908  1.00  0.00    -0.354 N 
ATOM     52  N   UNL A   1      42.235  30.396  29.292  1.00  0.00    -0.248 NA
ATOM     53  C   UNL A   1      40.946  31.937  30.487  1.00  0.00     0.031 C 
ATOM     54  C   UNL A   1      46.340  31.206  27.783  1.00  0.00     0.029 A 
ATOM     55  C   UNL A   1      45.061  30.978  28.268  1.00  0.00     0.049 A 
ATOM     56  H   UNL A   1      43.883  29.232  28.127  1.00  0.00     0.167 HD
ATOM     57  C   UNL A   1      42.951  31.581  29.430  1.00  0.00     0.074 A 
ATOM     58  C   UNL A   1      42.096  32.502  30.149  1.00  0.00     0.031 C 
ATOM     59  C   UNL A   1      44.202  31.881  28.996  1.00  0.00     0.034 A 
BRANCH  46  60
ATOM     60  C   UNL A   1      47.035  27.218  26.035  1.00  0.00     0.023 A 
ATOM     61  C   UNL A   1      48.005  26.504  26.760  1.00  0.00     0.031 A 
ATOM     62  C   UNL A   1      47.280  27.465  24.674  1.00  0.00     0.131 A 
ATOM     63  C   UNL A   1      49.211  26.138  26.144  1.00  0.00     0.055 A 
ATOM     64  C   UNL A   1      48.446  27.024  24.045  1.00  0.00     0.041 A 
ATOM     65  F   UNL A   1      46.401  28.159  23.935  1.00  0.00    -0.206 F 
ATOM     66  C   UNL A   1      49.428  26.371  24.784  1.00  0.00     0.022 A 
BRANCH  63  67
ATOM     67  S   UNL A   1      50.550  25.493  27.183  1.00  0.00     0.124 S 
ATOM     68  O   UNL A   1      50.699  26.563  28.167  1.00  0.00    -0.237 OA
ATOM     69  O   UNL A   1      49.991  24.241  27.678  1.00  0.00    -0.237 OA
ATOM     70  O   UNL A   1      51.669  25.354  26.251  1.00  0.00    -0.744 OA
ENDBRANCH  63  67
ENDBRANCH  46  60
BRANCH  47  71
ATOM     71  C   UNL A   1      38.691  30.088  30.779  1.00  0.00     0.023 A 
ATOM     72  C   UNL A   1      37.669  30.835  30.172  1.00  0.00     0.031 A 
ATOM     73  C   UNL A   1      38.554  29.765  32.140  1.00  0.00     0.131 A 
ATOM     74  C   UNL A   1      36.575  31.272  30.934  1.00  0.00     0.055 A 
ATOM     75  C   UNL A   1      37.441  30.163  32.884  1.00  0.00     0.041 A 
ATOM     76  F   UNL A   1      39.499  29.043  32.765  1.00  0.00    -0.206 F 
ATOM     77  C   UNL A   1      36.449  30.932  32.283  1.00  0.00     0.022 A 
BRANCH  74  78
ATOM     78  S   UNL A   1      35.348  32.354  30.152  1.00  0.00     0.124 S 
ATOM     79  O   UNL A   1      34.359  32.499  31.214  1.00  0.00    -0.237 OA
ATOM     80  O   UNL A   1      36.142  33.540  29.847  1.00  0.00    -0.237 OA
ATOM     81  O   UNL A   1      34.909  31.586  28.989  1.00  0.00    -0.744 OA
ENDBRANCH  74  78
ENDBRANCH  47  71
BRANCH  59  82
ATOM     82  C   UNL A   1      44.694  33.284  29.251  1.00  0.00     0.023 A 
ATOM     83  C   UNL A   1      44.565  34.301  28.288  1.00  0.00     0.031 A 
ATOM     84  C   UNL A   1      45.312  33.603  30.473  1.00  0.00     0.131 A 
ATOM     85  C   UNL A   1      45.093  35.576  28.545  1.00  0.00     0.055 A 
ATOM     86  C   UNL A   1      45.786  34.887  30.744  1.00  0.00     0.041 A 
ATOM     87  F   UNL A   1      45.462  32.669  31.426  1.00  0.00    -0.206 F 
ATOM     88  C   UNL A   1      45.688  35.878  29.772  1.00  0.00     0.022 A 
BRANCH  85  89
ATOM     89  S   UNL A   1      45.062  36.814  27.220  1.00  0.00     0.124 S 
ATOM     90  O   UNL A   1      43.638  36.896  26.913  1.00  0.00    -0.237 OA
ATOM     91  O   UNL A   1      45.643  37.983  27.871  1.00  0.00    -0.237 OA
ATOM     92  O   UNL A   1      45.889  36.215  26.172  1.00  0.00    -0.744 OA
ENDBRANCH  85  89
ENDBRANCH  59  82
ENDBRANCH  33  34
ENDBRANCH  25  28
ENDBRANCH  23  24
ENDBRANCH   1  23
TORSDOF 18
ENDMDL
MODEL 2
REMARK VINA RESULT:     -11.4      5.503      8.898
REMARK SMILES CC1=C(C)C(=O)N(C[C@H](CC(C)C)C(=O)NCCCCNC(=O)c2ccc(-c3c4nc(c(-c5cc(S(=O)(=O)[O-])ccc5F)c5ccc([nH]5)c(-c5cc(S(=O)(=O)[O-])ccc5F)c5nc(c(-c6cc(S(=O)(=O)[O-])ccc6F)c6ccc3[nH]6)C=C5)C=C4)cc2)C1=O
REMARK SMILES IDX 19 1 18 2 17 3 16 4 14 5 15 6 9 8 8 9 7 10 1 11 2 12 3 13
REMARK SMILES IDX 87 14 4 15 5 16 88 17 6 18 10 19 11 20 12 21 13 22 20 23
REMARK SMILES IDX 21 24 22 25 23 27 24 28 25 29 86 30 26 31 85 32 27 33 28 34
REMARK SMILES IDX 29 35 79 36 30 37 84 38 78 39 80 40 31 41 83 42 77 43 76 44
REMARK SMILES IDX 32 46 64 47 44 48 63 49 45 50 48 51 62 52 81 53 46 54 47 55
REMARK SMILES IDX 61 57 82 58 49 59 33 60 34 61 42 62 35 63 41 64 43 65 40 66
REMARK SMILES IDX 36 67 37 68 38 69 39 70 65 71 66 72 74 73 67 74 73 75 75 76
REMARK SMILES IDX 72 77 68 78 69 79 70 80 71 81 50 82 51 83 59 84 52 85 58 86
REMARK SMILES IDX 60 87 57 88 53 89 54 90 55 91 56 92
REMARK H PARENT 16 7 21 26 80 45 48 56
REMARK Flexibility Score: inf
ROOT
ATOM      1  C   UNL A   1      32.238  30.864  26.593  1.00  0.00     0.023 C 
ENDROOT
BRANCH   1   2
ATOM      2  C   UNL A   1      32.322  29.373  26.927  1.00  0.00     0.023 C 
BRANCH   2   3
ATOM      3  C   UNL A   1      33.604  28.698  26.468  1.00  0.00     0.116 C 
BRANCH   3   4
ATOM      4  N   UNL A   1      34.019  29.062  25.132  1.00  0.00    -0.356 N 
ATOM      5  C   UNL A   1      33.705  28.482  23.942  1.00  0.00     0.224 C 
ATOM      6  O   UNL A   1      34.016  29.096  22.917  1.00  0.00    -0.275 OA
ATOM      7  H   UNL A   1      34.616  29.843  25.075  1.00  0.00     0.163 HD
BRANCH   5   8
ATOM      8  C   UNL A   1      33.003  27.120  23.839  1.00  0.00     0.099 C 
BRANCH   8   9
ATOM      9  C   UNL A   1      33.952  25.909  23.714  1.00  0.00     0.142 C 
BRANCH   9  10
ATOM     10  N   UNL A   1      33.308  24.616  23.877  1.00  0.00    -0.274 N 
ATOM     11  C   UNL A   1      31.089  22.388  25.746  1.00  0.00     0.051 C 
ATOM     12  C   UNL A   1      32.053  22.944  24.771  1.00  0.00     0.023 C 
ATOM     13  C   UNL A   1      32.483  22.511  23.581  1.00  0.00     0.023 C 
ATOM     14  C   UNL A   1      32.753  24.202  25.037  1.00  0.00     0.256 C 
ATOM     15  C   UNL A   1      32.223  21.225  22.899  1.00  0.00     0.051 C 
ATOM     16  C   UNL A   1      33.313  23.587  22.987  1.00  0.00     0.256 C 
ATOM     17  O   UNL A   1      32.858  24.702  26.144  1.00  0.00    -0.269 OA
ATOM     18  O   UNL A   1      33.893  23.510  21.928  1.00  0.00    -0.269 OA
ENDBRANCH   9  10
ENDBRANCH   8   9
BRANCH   8  19
ATOM     19  C   UNL A   1      31.779  27.196  22.875  1.00  0.00     0.018 C 
BRANCH  19  20
ATOM     20  C   UNL A   1      30.367  27.419  23.465  1.00  0.00    -0.017 C 
ATOM     21  C   UNL A   1      30.236  26.829  24.868  1.00  0.00     0.007 C 
ATOM     22  C   UNL A   1      30.036  28.916  23.501  1.00  0.00     0.007 C 
ENDBRANCH  19  20
ENDBRANCH   8  19
ENDBRANCH   5   8
ENDBRANCH   3   4
ENDBRANCH   2   3
ENDBRANCH   1   2
BRANCH   1  23
ATOM     23  C   UNL A   1      33.181  31.790  27.366  1.00  0.00     0.116 C 
BRANCH  23  24
ATOM     24  N   UNL A   1      32.694  33.156  27.505  1.00  0.00    -0.352 N 
ATOM     25  C   UNL A   1      33.160  34.143  28.345  1.00  0.00     0.251 C 
ATOM     26  H   UNL A   1      31.937  33.405  26.927  1.00  0.00     0.163 HD
ATOM     27  O   UNL A   1      32.605  35.235  28.396  1.00  0.00    -0.269 OA
BRANCH  25  28
ATOM     28  C   UNL A   1      34.312  33.842  29.216  1.00  0.00     0.039 A 
ATOM     29  C   UNL A   1      34.102  33.105  30.382  1.00  0.00     0.014 A 
ATOM     30  C   UNL A   1      35.604  34.210  28.827  1.00  0.00     0.014 A 
ATOM     31  C   UNL A   1      35.201  32.653  31.115  1.00  0.00     0.010 A 
ATOM     32  C   UNL A   1      36.698  33.707  29.525  1.00  0.00     0.010 A 
ATOM     33  C   UNL A   1      36.508  32.909  30.664  1.00  0.00    -0.014 A 
BRANCH  33  34
ATOM     34  C   UNL A   1      37.686  32.322  31.353  1.00  0.00     0.031 A 
ATOM     35  C   UNL A   1      38.437  31.182  30.724  1.00  0.00     0.074 A 
ATOM     36  C   UNL A   1      38.026  32.762  32.581  1.00  0.00     0.049 A 
ATOM     37  N   UNL A   1      39.432  30.483  31.202  1.00  0.00    -0.248 NA
ATOM     38  C   UNL A   1      37.981  30.754  29.393  1.00  0.00     0.031 C 
ATOM     39  C   UNL A   1      37.339  33.826  33.318  1.00  0.00     0.029 A 
ATOM     40  N   UNL A   1      39.024  32.362  33.433  1.00  0.00    -0.354 N 
ATOM     41  C   UNL A   1      39.715  29.520  30.240  1.00  0.00     0.074 A 
ATOM     42  C   UNL A   1      38.745  29.693  29.179  1.00  0.00     0.031 C 
ATOM     43  C   UNL A   1      37.946  34.004  34.502  1.00  0.00     0.029 A 
ATOM     44  C   UNL A   1      39.040  33.047  34.627  1.00  0.00     0.049 A 
ATOM     45  H   UNL A   1      39.670  31.653  33.211  1.00  0.00     0.167 HD
ATOM     46  C   UNL A   1      40.705  28.593  30.232  1.00  0.00     0.034 A 
ATOM     47  C   UNL A   1      39.839  32.909  35.705  1.00  0.00     0.034 A 
ATOM     48  C   UNL A   1      41.674  28.444  31.291  1.00  0.00     0.049 A 
ATOM     49  C   UNL A   1      40.932  31.874  35.675  1.00  0.00     0.074 A 
ATOM     50  C   UNL A   1      42.756  27.584  31.358  1.00  0.00     0.029 A 
ATOM     51  N   UNL A   1      41.673  29.170  32.476  1.00  0.00    -0.354 N 
ATOM     52  N   UNL A   1      41.225  31.009  34.731  1.00  0.00    -0.248 NA
ATOM     53  C   UNL A   1      41.812  31.806  36.849  1.00  0.00     0.031 C 
ATOM     54  C   UNL A   1      43.372  27.747  32.603  1.00  0.00     0.029 A 
ATOM     55  C   UNL A   1      42.718  28.758  33.290  1.00  0.00     0.049 A 
ATOM     56  H   UNL A   1      41.024  29.874  32.706  1.00  0.00     0.167 HD
ATOM     57  C   UNL A   1      42.340  30.314  35.187  1.00  0.00     0.074 A 
ATOM     58  C   UNL A   1      42.673  30.868  36.484  1.00  0.00     0.031 C 
ATOM     59  C   UNL A   1      43.031  29.312  34.586  1.00  0.00     0.034 A 
BRANCH  46  60
ATOM     60  C   UNL A   1      40.766  27.658  29.047  1.00  0.00     0.023 A 
ATOM     61  C   UNL A   1      41.704  27.837  28.016  1.00  0.00     0.031 A 
ATOM     62  C   UNL A   1      39.849  26.600  28.927  1.00  0.00     0.131 A 
ATOM     63  C   UNL A   1      41.650  27.027  26.872  1.00  0.00     0.055 A 
ATOM     64  C   UNL A   1      39.855  25.744  27.824  1.00  0.00     0.041 A 
ATOM     65  F   UNL A   1      38.917  26.392  29.870  1.00  0.00    -0.206 F 
ATOM     66  C   UNL A   1      40.748  25.965  26.779  1.00  0.00     0.022 A 
BRANCH  63  67
ATOM     67  S   UNL A   1      42.671  27.481  25.443  1.00  0.00     0.124 S 
ATOM     68  O   UNL A   1      42.597  26.268  24.632  1.00  0.00    -0.237 OA
ATOM     69  O   UNL A   1      41.974  28.648  24.915  1.00  0.00    -0.237 OA
ATOM     70  O   UNL A   1      43.983  27.749  26.031  1.00  0.00    -0.744 OA
ENDBRANCH  63  67
ENDBRANCH  46  60
BRANCH  47  71
ATOM     71  C   UNL A   1      39.634  33.766  36.906  1.00  0.00     0.023 A 
ATOM     72  C   UNL A   1      38.993  33.266  38.051  1.00  0.00     0.031 A 
ATOM     73  C   UNL A   1      40.050  35.109  36.916  1.00  0.00     0.131 A 
ATOM     74  C   UNL A   1      38.746  34.113  39.141  1.00  0.00     0.055 A 
ATOM     75  C   UNL A   1      39.843  35.936  38.022  1.00  0.00     0.041 A 
ATOM     76  F   UNL A   1      40.677  35.633  35.851  1.00  0.00    -0.206 F 
ATOM     77  C   UNL A   1      39.176  35.442  39.139  1.00  0.00     0.022 A 
BRANCH  74  78
ATOM     78  S   UNL A   1      37.790  33.470  40.542  1.00  0.00     0.124 S 
ATOM     79  O   UNL A   1      38.715  32.498  41.113  1.00  0.00    -0.237 OA
ATOM     80  O   UNL A   1      37.561  34.677  41.330  1.00  0.00    -0.237 OA
ATOM     81  O   UNL A   1      36.599  32.906  39.912  1.00  0.00    -0.744 OA
ENDBRANCH  74  78
ENDBRANCH  47  71
BRANCH  59  82
ATOM     82  C   UNL A   1      44.244  28.787  35.312  1.00  0.00     0.023 A 
ATOM     83  C   UNL A   1      44.143  27.788  36.297  1.00  0.00     0.031 A 
ATOM     84  C   UNL A   1      45.519  29.304  35.021  1.00  0.00     0.131 A 
ATOM     85  C   UNL A   1      45.290  27.373  36.990  1.00  0.00     0.055 A 
ATOM     86  C   UNL A   1      46.663  28.850  35.676  1.00  0.00     0.041 A 
ATOM     87  F   UNL A   1      45.671  30.261  34.091  1.00  0.00    -0.206 F 
ATOM     88  C   UNL A   1      46.551  27.887  36.675  1.00  0.00     0.022 A 
BRANCH  85  89
ATOM     89  S   UNL A   1      45.102  26.209  38.368  1.00  0.00     0.124 S 
ATOM     90  O   UNL A   1      43.754  26.510  38.839  1.00  0.00    -0.237 OA
ATOM     91  O   UNL A   1      45.275  24.917  37.711  1.00  0.00    -0.237 OA
ATOM     92  O   UNL A   1      46.178  26.585  39.284  1.00  0.00    -0.744 OA
ENDBRANCH  85  89
ENDBRANCH  59  82
ENDBRANCH  33  34
ENDBRANCH  25  28
ENDBRANCH  23  24
ENDBRANCH   1  23
TORSDOF 18
ENDMDL
MODEL 3
REMARK VINA RESULT:     -11.4      4.903     10.067
REMARK SMILES CC1=C(C)C(=O)N(C[C@H](CC(C)C)C(=O)NCCCCNC(=O)c2ccc(-c3c4nc(c(-c5cc(S(=O)(=O)[O-])ccc5F)c5ccc([nH]5)c(-c5cc(S(=O)(=O)[O-])ccc5F)c5nc(c(-c6cc(S(=O)(=O)[O-])ccc6F)c6ccc3[nH]6)C=C5)C=C4)cc2)C1=O
REMARK SMILES IDX 19 1 18 2 17 3 16 4 14 5 15 6 9 8 8 9 7 10 1 11 2 12 3 13
REMARK SMILES IDX 87 14 4 15 5 16 88 17 6 18 10 19 11 20 12 21 13 22 20 23
REMARK SMILES IDX 21 24 22 25 23 27 24 28 25 29 86 30 26 31 85 32 27 33 28 34
REMARK SMILES IDX 29 35 79 36 30 37 84 38 78 39 80 40 31 41 83 42 77 43 76 44
REMARK SMILES IDX 32 46 64 47 44 48 63 49 45 50 48 51 62 52 81 53 46 54 47 55
REMARK SMILES IDX 61 57 82 58 49 59 33 60 34 61 42 62 35 63 41 64 43 65 40 66
REMARK SMILES IDX 36 67 37 68 38 69 39 70 65 71 66 72 74 73 67 74 73 75 75 76
REMARK SMILES IDX 72 77 68 78 69 79 70 80 71 81 50 82 51 83 59 84 52 85 58 86
REMARK SMILES IDX 60 87 57 88 53 89 54 90 55 91 56 92
REMARK H PARENT 16 7 21 26 80 45 48 56
REMARK Flexibility Score: inf
ROOT
ATOM      1  C   UNL A   1      32.461  29.418  25.189  1.00  0.00     0.023 C 
ENDROOT
BRANCH   1   2
ATOM      2  C   UNL A   1      33.546  28.644  24.439  1.00  0.00     0.023 C 
BRANCH   2   3
ATOM      3  C   UNL A   1      33.708  29.043  22.981  1.00  0.00     0.116 C 
BRANCH   3   4
ATOM      4  N   UNL A   1      33.912  27.930  22.082  1.00  0.00    -0.356 N 
ATOM      5  C   UNL A   1      33.140  26.827  21.882  1.00  0.00     0.224 C 
ATOM      6  O   UNL A   1      33.415  26.114  20.913  1.00  0.00    -0.275 OA
ATOM      7  H   UNL A   1      34.728  27.976  21.533  1.00  0.00     0.163 HD
BRANCH   5   8
ATOM      8  C   UNL A   1      31.973  26.449  22.808  1.00  0.00     0.099 C 
BRANCH   8   9
ATOM      9  C   UNL A   1      31.990  24.989  23.308  1.00  0.00     0.142 C 
BRANCH   9  10
ATOM     10  N   UNL A   1      33.291  24.515  23.751  1.00  0.00    -0.274 N 
ATOM     11  C   UNL A   1      36.511  22.939  23.026  1.00  0.00     0.051 C 
ATOM     12  C   UNL A   1      35.351  23.553  23.708  1.00  0.00     0.023 C 
ATOM     13  C   UNL A   1      35.198  24.085  24.925  1.00  0.00     0.023 C 
ATOM     14  C   UNL A   1      34.052  23.655  23.040  1.00  0.00     0.256 C 
ATOM     15  C   UNL A   1      36.139  24.106  26.066  1.00  0.00     0.051 C 
ATOM     16  C   UNL A   1      33.854  24.709  24.975  1.00  0.00     0.256 C 
ATOM     17  O   UNL A   1      33.733  22.995  22.065  1.00  0.00    -0.269 OA
ATOM     18  O   UNL A   1      33.375  25.246  25.947  1.00  0.00    -0.269 OA
ENDBRANCH   9  10
ENDBRANCH   8   9
BRANCH   8  19
ATOM     19  C   UNL A   1      30.628  27.026  22.272  1.00  0.00     0.018 C 
BRANCH  19  20
ATOM     20  C   UNL A   1      29.987  28.237  22.990  1.00  0.00    -0.017 C 
ATOM     21  C   UNL A   1      30.153  29.528  22.191  1.00  0.00     0.007 C 
ATOM     22  C   UNL A   1      28.497  27.974  23.246  1.00  0.00     0.007 C 
ENDBRANCH  19  20
ENDBRANCH   8  19
ENDBRANCH   5   8
ENDBRANCH   3   4
ENDBRANCH   2   3
ENDBRANCH   1   2
BRANCH   1  23
ATOM     23  C   UNL A   1      32.762  29.773  26.648  1.00  0.00     0.116 C 
BRANCH  23  24
ATOM     24  N   UNL A   1      32.663  31.196  26.948  1.00  0.00    -0.352 N 
ATOM     25  C   UNL A   1      33.600  32.005  27.551  1.00  0.00     0.251 C 
ATOM     26  H   UNL A   1      31.819  31.632  26.689  1.00  0.00     0.163 HD
ATOM     27  O   UNL A   1      33.348  33.179  27.797  1.00  0.00    -0.269 OA
BRANCH  25  28
ATOM     28  C   UNL A   1      34.897  31.416  27.937  1.00  0.00     0.039 A 
ATOM     29  C   UNL A   1      36.013  32.248  28.035  1.00  0.00     0.014 A 
ATOM     30  C   UNL A   1      34.979  30.066  28.289  1.00  0.00     0.014 A 
ATOM     31  C   UNL A   1      37.197  31.745  28.579  1.00  0.00     0.010 A 
ATOM     32  C   UNL A   1      36.140  29.584  28.886  1.00  0.00     0.010 A 
ATOM     33  C   UNL A   1      37.254  30.423  29.054  1.00  0.00    -0.014 A 
BRANCH  33  34
ATOM     34  C   UNL A   1      38.458  29.912  29.758  1.00  0.00     0.031 A 
ATOM     35  C   UNL A   1      38.805  30.423  31.127  1.00  0.00     0.074 A 
ATOM     36  C   UNL A   1      39.281  29.049  29.128  1.00  0.00     0.049 A 
ATOM     37  N   UNL A   1      39.851  30.166  31.867  1.00  0.00    -0.248 NA
ATOM     38  C   UNL A   1      37.861  31.378  31.727  1.00  0.00     0.031 C 
ATOM     39  C   UNL A   1      39.079  28.523  27.775  1.00  0.00     0.029 A 
ATOM     40  N   UNL A   1      40.458  28.474  29.533  1.00  0.00    -0.354 N 
ATOM     41  C   UNL A   1      39.703  30.937  33.014  1.00  0.00     0.074 A 
ATOM     42  C   UNL A   1      38.494  31.714  32.841  1.00  0.00     0.031 C 
ATOM     43  C   UNL A   1      40.088  27.691  27.471  1.00  0.00     0.029 A 
ATOM     44  C   UNL A   1      41.027  27.651  28.588  1.00  0.00     0.049 A 
ATOM     45  H   UNL A   1      40.859  28.633  30.418  1.00  0.00     0.167 HD
ATOM     46  C   UNL A   1      40.491  30.977  34.118  1.00  0.00     0.034 A 
ATOM     47  C   UNL A   1      42.181  26.954  28.613  1.00  0.00     0.034 A 
ATOM     48  C   UNL A   1      41.686  30.184  34.279  1.00  0.00     0.049 A 
ATOM     49  C   UNL A   1      43.040  27.012  29.849  1.00  0.00     0.074 A 
ATOM     50  C   UNL A   1      42.523  30.097  35.378  1.00  0.00     0.029 A 
ATOM     51  N   UNL A   1      42.221  29.344  33.310  1.00  0.00    -0.354 N 
ATOM     52  N   UNL A   1      42.857  27.701  30.951  1.00  0.00    -0.248 NA
ATOM     53  C   UNL A   1      44.255  26.187  29.849  1.00  0.00     0.031 C 
ATOM     54  C   UNL A   1      43.592  29.254  35.053  1.00  0.00     0.029 A 
ATOM     55  C   UNL A   1      43.388  28.758  33.775  1.00  0.00     0.049 A 
ATOM     56  H   UNL A   1      41.828  29.189  32.420  1.00  0.00     0.167 HD
ATOM     57  C   UNL A   1      43.919  27.370  31.786  1.00  0.00     0.074 A 
ATOM     58  C   UNL A   1      44.731  26.412  31.065  1.00  0.00     0.031 C 
ATOM     59  C   UNL A   1      44.194  27.813  33.039  1.00  0.00     0.034 A 
BRANCH  46  60
ATOM     60  C   UNL A   1      40.090  31.929  35.219  1.00  0.00     0.023 A 
ATOM     61  C   UNL A   1      39.259  31.521  36.277  1.00  0.00     0.031 A 
ATOM     62  C   UNL A   1      40.508  33.270  35.189  1.00  0.00     0.131 A 
ATOM     63  C   UNL A   1      38.804  32.463  37.212  1.00  0.00     0.055 A 
ATOM     64  C   UNL A   1      40.119  34.184  36.172  1.00  0.00     0.041 A 
ATOM     65  F   UNL A   1      41.285  33.722  34.193  1.00  0.00    -0.206 F 
ATOM     66  C   UNL A   1      39.248  33.786  37.182  1.00  0.00     0.022 A 
BRANCH  63  67
ATOM     67  S   UNL A   1      37.502  31.966  38.374  1.00  0.00     0.124 S 
ATOM     68  O   UNL A   1      37.193  30.616  37.909  1.00  0.00    -0.237 OA
ATOM     69  O   UNL A   1      38.177  32.061  39.663  1.00  0.00    -0.237 OA
ATOM     70  O   UNL A   1      36.447  32.952  38.147  1.00  0.00    -0.744 OA
ENDBRANCH  63  67
ENDBRANCH  46  60
BRANCH  47  71
ATOM     71  C   UNL A   1      42.597  26.146  27.433  1.00  0.00     0.023 A 
ATOM     72  C   UNL A   1      42.205  24.804  27.301  1.00  0.00     0.031 A 
ATOM     73  C   UNL A   1      43.420  26.694  26.434  1.00  0.00     0.131 A 
ATOM     74  C   UNL A   1      42.671  24.042  26.219  1.00  0.00     0.055 A 
ATOM     75  C   UNL A   1      43.844  25.946  25.335  1.00  0.00     0.041 A 
ATOM     76  F   UNL A   1      43.814  27.976  26.509  1.00  0.00    -0.206 F 
ATOM     77  C   UNL A   1      43.479  24.607  25.229  1.00  0.00     0.022 A 
BRANCH  74  78
ATOM     78  S   UNL A   1      42.260  22.277  26.158  1.00  0.00     0.124 S 
ATOM     79  O   UNL A   1      40.803  22.311  26.114  1.00  0.00    -0.237 OA
ATOM     80  O   UNL A   1      42.930  21.854  24.933  1.00  0.00    -0.237 OA
ATOM     81  O   UNL A   1      42.837  21.750  27.393  1.00  0.00    -0.744 OA
ENDBRANCH  74  78
ENDBRANCH  47  71
BRANCH  59  82
ATOM     82  C   UNL A   1      45.405  27.225  33.721  1.00  0.00     0.023 A 
ATOM     83  C   UNL A   1      45.318  26.062  34.507  1.00  0.00     0.031 A 
ATOM     84  C   UNL A   1      46.659  27.845  33.590  1.00  0.00     0.131 A 
ATOM     85  C   UNL A   1      46.458  25.584  35.173  1.00  0.00     0.055 A 
ATOM     86  C   UNL A   1      47.799  27.335  34.211  1.00  0.00     0.041 A 
ATOM     87  F   UNL A   1      46.796  28.959  32.852  1.00  0.00    -0.206 F 
ATOM     88  C   UNL A   1      47.700  26.205  35.017  1.00  0.00     0.022 A 
BRANCH  85  89
ATOM     89  S   UNL A   1      46.278  24.185  36.313  1.00  0.00     0.124 S 
ATOM     90  O   UNL A   1      47.610  23.591  36.277  1.00  0.00    -0.237 OA
ATOM     91  O   UNL A   1      45.906  24.844  37.560  1.00  0.00    -0.237 OA
ATOM     92  O   UNL A   1      45.222  23.378  35.701  1.00  0.00    -0.744 OA
ENDBRANCH  85  89
ENDBRANCH  59  82
ENDBRANCH  33  34
ENDBRANCH  25  28
ENDBRANCH  23  24
ENDBRANCH   1  23
TORSDOF 18
ENDMDL
