MODEL 1
REMARK VINA RESULT:     -12.8      0.000      0.000
REMARK SMILES CC(C)CN(C)c1cc2c(cc1Cl)C=C(C(=O)NCCCCNC(=O)c1ccc(-c3c4nc(c(-c5cc(S(=O)(=O)[O-])ccc5F)c5ccc([nH]5)c(-c5cc(S(=O)(=O)[O-])ccc5F)c5nc(c(-c6cc(S(=O)(=O)[O-])ccc6F)c6ccc3[nH]6)C=C5)C=C4)cc1)[C@@H](C(F)(F)F)O2
REMARK SMILES IDX 20 1 19 2 18 3 16 4 17 5 15 7 7 8 8 9 12 10 9 11 11 12 13 13
REMARK SMILES IDX 10 14 94 15 14 16 89 17 5 18 6 19 4 20 2 21 1 22 3 23 90 24
REMARK SMILES IDX 91 25 92 26 93 27 21 28 22 29 23 30 24 31 25 33 26 34 27 35
REMARK SMILES IDX 88 36 28 37 87 38 29 39 30 40 31 41 81 42 32 43 86 44 80 45
REMARK SMILES IDX 82 46 33 47 85 48 79 49 78 50 34 52 66 53 46 54 65 55 47 56
REMARK SMILES IDX 50 57 64 58 83 59 48 60 49 61 63 63 84 64 51 65 35 66 36 67
REMARK SMILES IDX 44 68 37 69 43 70 45 71 42 72 38 73 39 74 40 75 41 76 67 77
REMARK SMILES IDX 68 78 76 79 69 80 75 81 77 82 74 83 70 84 71 85 72 86 73 87
REMARK SMILES IDX 52 88 53 89 61 90 54 91 60 92 62 93 59 94 55 95 56 96 57 97
REMARK SMILES IDX 58 98
REMARK H PARENT 18 6 23 32 82 51 50 62
REMARK Flexibility Score: inf
ROOT
ATOM      1  C   UNL A   1      35.150  21.560  25.110  1.00  0.00     0.023 C 
ENDROOT
BRANCH   1   2
ATOM      2  C   UNL A   1      33.892  20.730  25.339  1.00  0.00     0.116 C 
BRANCH   2   3
ATOM      3  N   UNL A   1      33.151  20.523  24.109  1.00  0.00    -0.352 N 
ATOM      4  C   UNL A   1      32.393  21.281  23.283  1.00  0.00     0.251 C 
ATOM      5  O   UNL A   1      31.959  20.705  22.280  1.00  0.00    -0.270 OA
ATOM      6  H   UNL A   1      33.219  19.593  23.793  1.00  0.00     0.163 HD
BRANCH   4   7
ATOM      7  C   UNL A   1      32.052  22.711  23.509  1.00  0.00     0.067 C 
ATOM      8  C   UNL A   1      31.634  27.725  23.167  1.00  0.00     0.059 A 
ATOM      9  C   UNL A   1      30.760  26.689  23.532  1.00  0.00     0.074 A 
ATOM     10  C   UNL A   1      32.936  27.366  22.742  1.00  0.00     0.065 A 
ATOM     11  C   UNL A   1      31.170  25.360  23.463  1.00  0.00     0.130 A 
ATOM     12  C   UNL A   1      33.306  26.025  22.583  1.00  0.00     0.034 A 
ATOM     13  Cl  UNL A   1      34.159  28.553  22.434  1.00  0.00    -0.082 Cl
ATOM     14  C   UNL A   1      32.417  25.018  22.939  1.00  0.00     0.019 A 
ATOM     15  O   UNL A   1      30.310  24.405  23.943  1.00  0.00    -0.475 OA
ATOM     16  C   UNL A   1      32.748  23.606  22.781  1.00  0.00     0.025 C 
ATOM     17  C   UNL A   1      30.994  23.217  24.451  1.00  0.00     0.314 C 
BRANCH   8  18
ATOM     18  N   UNL A   1      31.210  29.063  23.229  1.00  0.00    -0.373 N 
ATOM     19  C   UNL A   1      31.228  29.649  24.568  1.00  0.00     0.143 C 
BRANCH  18  20
ATOM     20  C   UNL A   1      30.065  29.428  22.371  1.00  0.00     0.119 C 
BRANCH  20  21
ATOM     21  C   UNL A   1      28.937  30.132  23.152  1.00  0.00     0.002 C 
ATOM     22  C   UNL A   1      28.801  31.607  22.761  1.00  0.00     0.009 C 
ATOM     23  C   UNL A   1      27.594  29.432  22.927  1.00  0.00     0.009 C 
ENDBRANCH  20  21
ENDBRANCH  18  20
ENDBRANCH   8  18
BRANCH  17  24
ATOM     24  C   UNL A   1      31.549  23.474  25.873  1.00  0.00     0.429 C 
ATOM     25  F   UNL A   1      31.423  22.361  26.639  1.00  0.00    -0.167 F 
ATOM     26  F   UNL A   1      32.866  23.792  25.865  1.00  0.00    -0.167 F 
ATOM     27  F   UNL A   1      30.918  24.479  26.522  1.00  0.00    -0.167 F 
ENDBRANCH  17  24
ENDBRANCH   4   7
ENDBRANCH   2   3
ENDBRANCH   1   2
BRANCH   1  28
ATOM     28  C   UNL A   1      36.415  20.731  24.899  1.00  0.00     0.023 C 
BRANCH  28  29
ATOM     29  C   UNL A   1      37.691  21.338  25.475  1.00  0.00     0.116 C 
BRANCH  29  30
ATOM     30  N   UNL A   1      38.770  20.377  25.674  1.00  0.00    -0.352 N 
ATOM     31  C   UNL A   1      39.957  20.584  26.346  1.00  0.00     0.251 C 
ATOM     32  H   UNL A   1      38.637  19.483  25.287  1.00  0.00     0.163 HD
ATOM     33  O   UNL A   1      40.812  19.713  26.408  1.00  0.00    -0.269 OA
BRANCH  31  34
ATOM     34  C   UNL A   1      40.173  21.917  26.938  1.00  0.00     0.039 A 
ATOM     35  C   UNL A   1      39.540  23.026  26.371  1.00  0.00     0.014 A 
ATOM     36  C   UNL A   1      41.154  22.067  27.919  1.00  0.00     0.014 A 
ATOM     37  C   UNL A   1      40.017  24.297  26.663  1.00  0.00     0.010 A 
ATOM     38  C   UNL A   1      41.578  23.351  28.263  1.00  0.00     0.010 A 
ATOM     39  C   UNL A   1      41.057  24.469  27.593  1.00  0.00    -0.014 A 
BRANCH  39  40
ATOM     40  C   UNL A   1      41.607  25.826  27.835  1.00  0.00     0.031 A 
ATOM     41  C   UNL A   1      42.940  26.227  27.261  1.00  0.00     0.074 A 
ATOM     42  C   UNL A   1      40.873  26.710  28.536  1.00  0.00     0.049 A 
ATOM     43  N   UNL A   1      43.579  27.361  27.385  1.00  0.00    -0.248 NA
ATOM     44  C   UNL A   1      43.650  25.229  26.444  1.00  0.00     0.031 C 
ATOM     45  C   UNL A   1      39.554  26.432  29.103  1.00  0.00     0.029 A 
ATOM     46  N   UNL A   1      41.115  28.017  28.874  1.00  0.00    -0.354 N 
ATOM     47  C   UNL A   1      44.771  27.208  26.687  1.00  0.00     0.074 A 
ATOM     48  C   UNL A   1      44.779  25.863  26.155  1.00  0.00     0.031 C 
ATOM     49  C   UNL A   1      39.079  27.547  29.672  1.00  0.00     0.029 A 
ATOM     50  C   UNL A   1      40.091  28.597  29.586  1.00  0.00     0.049 A 
ATOM     51  H   UNL A   1      41.940  28.494  28.631  1.00  0.00     0.167 HD
ATOM     52  C   UNL A   1      45.760  28.115  26.501  1.00  0.00     0.034 A 
ATOM     53  C   UNL A   1      39.985  29.825  30.130  1.00  0.00     0.034 A 
ATOM     54  C   UNL A   1      45.714  29.463  27.004  1.00  0.00     0.049 A 
ATOM     55  C   UNL A   1      41.127  30.791  29.961  1.00  0.00     0.074 A 
ATOM     56  C   UNL A   1      46.639  30.475  26.817  1.00  0.00     0.029 A 
ATOM     57  N   UNL A   1      44.697  29.990  27.786  1.00  0.00    -0.354 N 
ATOM     58  N   UNL A   1      42.234  30.641  29.272  1.00  0.00    -0.248 NA
ATOM     59  C   UNL A   1      41.022  32.080  30.655  1.00  0.00     0.031 C 
ATOM     60  C   UNL A   1      46.209  31.594  27.531  1.00  0.00     0.029 A 
ATOM     61  C   UNL A   1      44.989  31.301  28.121  1.00  0.00     0.049 A 
ATOM     62  H   UNL A   1      43.886  29.504  28.062  1.00  0.00     0.167 HD
ATOM     63  C   UNL A   1      42.953  31.820  29.442  1.00  0.00     0.074 A 
ATOM     64  C   UNL A   1      42.144  32.683  30.278  1.00  0.00     0.031 C 
ATOM     65  C   UNL A   1      44.174  32.152  28.953  1.00  0.00     0.034 A 
BRANCH  52  66
ATOM     66  C   UNL A   1      46.981  27.712  25.715  1.00  0.00     0.023 A 
ATOM     67  C   UNL A   1      47.055  27.999  24.339  1.00  0.00     0.031 A 
ATOM     68  C   UNL A   1      47.997  26.927  26.288  1.00  0.00     0.131 A 
ATOM     69  C   UNL A   1      48.105  27.477  23.574  1.00  0.00     0.055 A 
ATOM     70  C   UNL A   1      49.058  26.433  25.526  1.00  0.00     0.041 A 
ATOM     71  F   UNL A   1      47.971  26.629  27.597  1.00  0.00    -0.206 F 
ATOM     72  C   UNL A   1      49.109  26.697  24.160  1.00  0.00     0.022 A 
BRANCH  69  73
ATOM     73  S   UNL A   1      48.185  27.742  21.781  1.00  0.00     0.124 S 
ATOM     74  O   UNL A   1      49.311  28.665  21.665  1.00  0.00    -0.237 OA
ATOM     75  O   UNL A   1      48.431  26.391  21.283  1.00  0.00    -0.237 OA
ATOM     76  O   UNL A   1      46.883  28.309  21.452  1.00  0.00    -0.744 OA
ENDBRANCH  69  73
ENDBRANCH  52  66
BRANCH  53  77
ATOM     77  C   UNL A   1      38.734  30.193  30.852  1.00  0.00     0.023 A 
ATOM     78  C   UNL A   1      37.673  30.833  30.182  1.00  0.00     0.031 A 
ATOM     79  C   UNL A   1      38.635  30.029  32.242  1.00  0.00     0.131 A 
ATOM     80  C   UNL A   1      36.604  31.361  30.915  1.00  0.00     0.055 A 
ATOM     81  C   UNL A   1      37.531  30.493  32.960  1.00  0.00     0.041 A 
ATOM     82  F   UNL A   1      39.624  29.432  32.924  1.00  0.00    -0.206 F 
ATOM     83  C   UNL A   1      36.519  31.182  32.299  1.00  0.00     0.022 A 
BRANCH  80  84
ATOM     84  S   UNL A   1      35.375  32.434  30.118  1.00  0.00     0.124 S 
ATOM     85  O   UNL A   1      34.322  32.488  31.126  1.00  0.00    -0.237 OA
ATOM     86  O   UNL A   1      36.133  33.668  29.927  1.00  0.00    -0.237 OA
ATOM     87  O   UNL A   1      35.041  31.719  28.890  1.00  0.00    -0.744 OA
ENDBRANCH  80  84
ENDBRANCH  53  77
BRANCH  65  88
ATOM     88  C   UNL A   1      44.745  33.500  29.308  1.00  0.00     0.023 A 
ATOM     89  C   UNL A   1      44.503  34.610  28.479  1.00  0.00     0.031 A 
ATOM     90  C   UNL A   1      45.655  33.642  30.369  1.00  0.00     0.131 A 
ATOM     91  C   UNL A   1      45.203  35.803  28.693  1.00  0.00     0.055 A 
ATOM     92  C   UNL A   1      46.319  34.847  30.605  1.00  0.00     0.041 A 
ATOM     93  F   UNL A   1      45.921  32.607  31.182  1.00  0.00    -0.206 F 
ATOM     94  C   UNL A   1      46.105  35.929  29.756  1.00  0.00     0.022 A 
BRANCH  91  95
ATOM     95  S   UNL A   1      45.031  37.206  27.557  1.00  0.00     0.124 S 
ATOM     96  O   UNL A   1      45.031  38.342  28.475  1.00  0.00    -0.237 OA
ATOM     97  O   UNL A   1      46.224  37.075  26.725  1.00  0.00    -0.237 OA
ATOM     98  O   UNL A   1      43.763  36.956  26.879  1.00  0.00    -0.744 OA
ENDBRANCH  91  95
ENDBRANCH  65  88
ENDBRANCH  39  40
ENDBRANCH  31  34
ENDBRANCH  29  30
ENDBRANCH  28  29
ENDBRANCH   1  28
TORSDOF 18
ENDMDL
MODEL 2
REMARK VINA RESULT:     -12.7      4.985     10.624
REMARK SMILES CC(C)CN(C)c1cc2c(cc1Cl)C=C(C(=O)NCCCCNC(=O)c1ccc(-c3c4nc(c(-c5cc(S(=O)(=O)[O-])ccc5F)c5ccc([nH]5)c(-c5cc(S(=O)(=O)[O-])ccc5F)c5nc(c(-c6cc(S(=O)(=O)[O-])ccc6F)c6ccc3[nH]6)C=C5)C=C4)cc1)[C@@H](C(F)(F)F)O2
REMARK SMILES IDX 20 1 19 2 18 3 16 4 17 5 15 7 7 8 8 9 12 10 9 11 11 12 13 13
REMARK SMILES IDX 10 14 94 15 14 16 89 17 5 18 6 19 4 20 2 21 1 22 3 23 90 24
REMARK SMILES IDX 91 25 92 26 93 27 21 28 22 29 23 30 24 31 25 33 26 34 27 35
REMARK SMILES IDX 88 36 28 37 87 38 29 39 30 40 31 41 81 42 32 43 86 44 80 45
REMARK SMILES IDX 82 46 33 47 85 48 79 49 78 50 34 52 66 53 46 54 65 55 47 56
REMARK SMILES IDX 50 57 64 58 83 59 48 60 49 61 63 63 84 64 51 65 35 66 36 67
REMARK SMILES IDX 44 68 37 69 43 70 45 71 42 72 38 73 39 74 40 75 41 76 67 77
REMARK SMILES IDX 68 78 76 79 69 80 75 81 77 82 74 83 70 84 71 85 72 86 73 87
REMARK SMILES IDX 52 88 53 89 61 90 54 91 60 92 62 93 59 94 55 95 56 96 57 97
REMARK SMILES IDX 58 98
REMARK H PARENT 18 6 23 32 82 51 50 62
REMARK Flexibility Score: inf
ROOT
ATOM      1  C   UNL A   1      31.724  29.062  25.027  1.00  0.00     0.023 C 
ENDROOT
BRANCH   1   2
ATOM      2  C   UNL A   1      31.154  28.773  23.643  1.00  0.00     0.116 C 
BRANCH   2   3
ATOM      3  N   UNL A   1      29.871  28.100  23.718  1.00  0.00    -0.352 N 
ATOM      4  C   UNL A   1      29.441  26.824  23.853  1.00  0.00     0.251 C 
ATOM      5  O   UNL A   1      28.216  26.679  23.915  1.00  0.00    -0.270 OA
ATOM      6  H   UNL A   1      29.122  28.735  23.656  1.00  0.00     0.163 HD
BRANCH   4   7
ATOM      7  C   UNL A   1      30.323  25.628  23.918  1.00  0.00     0.067 C 
ATOM      8  C   UNL A   1      32.876  21.542  25.404  1.00  0.00     0.059 A 
ATOM      9  C   UNL A   1      32.214  21.910  24.223  1.00  0.00     0.074 A 
ATOM     10  C   UNL A   1      32.829  22.445  26.492  1.00  0.00     0.065 A 
ATOM     11  C   UNL A   1      31.530  23.120  24.143  1.00  0.00     0.130 A 
ATOM     12  C   UNL A   1      32.059  23.613  26.436  1.00  0.00     0.034 A 
ATOM     13  Cl  UNL A   1      33.748  22.188  27.938  1.00  0.00    -0.082 Cl
ATOM     14  C   UNL A   1      31.401  23.949  25.259  1.00  0.00     0.019 A 
ATOM     15  O   UNL A   1      31.003  23.472  22.926  1.00  0.00    -0.475 OA
ATOM     16  C   UNL A   1      30.576  25.146  25.150  1.00  0.00     0.025 C 
ATOM     17  C   UNL A   1      30.918  24.919  22.732  1.00  0.00     0.314 C 
BRANCH   8  18
ATOM     18  N   UNL A   1      33.555  20.313  25.481  1.00  0.00    -0.373 N 
ATOM     19  C   UNL A   1      34.930  20.343  24.987  1.00  0.00     0.143 C 
BRANCH  18  20
ATOM     20  C   UNL A   1      32.768  19.108  25.152  1.00  0.00     0.119 C 
BRANCH  20  21
ATOM     21  C   UNL A   1      33.384  18.293  23.997  1.00  0.00     0.002 C 
ATOM     22  C   UNL A   1      33.657  16.841  24.399  1.00  0.00     0.009 C 
ATOM     23  C   UNL A   1      32.469  18.305  22.769  1.00  0.00     0.009 C 
ENDBRANCH  20  21
ENDBRANCH  18  20
ENDBRANCH   8  18
BRANCH  17  24
ATOM     24  C   UNL A   1      32.299  25.497  22.335  1.00  0.00     0.429 C 
ATOM     25  F   UNL A   1      33.075  24.531  21.783  1.00  0.00    -0.167 F 
ATOM     26  F   UNL A   1      32.200  26.488  21.417  1.00  0.00    -0.167 F 
ATOM     27  F   UNL A   1      32.986  26.012  23.381  1.00  0.00    -0.167 F 
ENDBRANCH  17  24
ENDBRANCH   4   7
ENDBRANCH   2   3
ENDBRANCH   1   2
BRANCH   1  28
ATOM     28  C   UNL A   1      31.392  30.454  25.560  1.00  0.00     0.023 C 
BRANCH  28  29
ATOM     29  C   UNL A   1      32.132  30.855  26.833  1.00  0.00     0.116 C 
BRANCH  29  30
ATOM     30  N   UNL A   1      32.091  32.284  27.122  1.00  0.00    -0.352 N 
ATOM     31  C   UNL A   1      33.109  33.061  27.633  1.00  0.00     0.251 C 
ATOM     32  H   UNL A   1      31.243  32.744  26.931  1.00  0.00     0.163 HD
ATOM     33  O   UNL A   1      32.941  34.246  27.879  1.00  0.00    -0.269 OA
BRANCH  31  34
ATOM     34  C   UNL A   1      34.390  32.389  27.921  1.00  0.00     0.039 A 
ATOM     35  C   UNL A   1      34.390  31.031  28.244  1.00  0.00     0.014 A 
ATOM     36  C   UNL A   1      35.541  33.166  28.058  1.00  0.00     0.014 A 
ATOM     37  C   UNL A   1      35.502  30.488  28.875  1.00  0.00     0.010 A 
ATOM     38  C   UNL A   1      36.681  32.595  28.624  1.00  0.00     0.010 A 
ATOM     39  C   UNL A   1      36.648  31.272  29.092  1.00  0.00    -0.014 A 
BRANCH  39  40
ATOM     40  C   UNL A   1      37.798  30.699  29.836  1.00  0.00     0.031 A 
ATOM     41  C   UNL A   1      38.027  31.048  31.283  1.00  0.00     0.074 A 
ATOM     42  C   UNL A   1      38.607  29.824  29.211  1.00  0.00     0.049 A 
ATOM     43  N   UNL A   1      38.985  30.655  32.080  1.00  0.00    -0.248 NA
ATOM     44  C   UNL A   1      37.057  31.956  31.919  1.00  0.00     0.031 C 
ATOM     45  C   UNL A   1      38.449  29.392  27.823  1.00  0.00     0.029 A 
ATOM     46  N   UNL A   1      39.700  29.128  29.657  1.00  0.00    -0.354 N 
ATOM     47  C   UNL A   1      38.752  31.282  33.298  1.00  0.00     0.074 A 
ATOM     48  C   UNL A   1      37.570  32.099  33.134  1.00  0.00     0.031 C 
ATOM     49  C   UNL A   1      39.376  28.466  27.545  1.00  0.00     0.029 A 
ATOM     50  C   UNL A   1      40.247  28.298  28.705  1.00  0.00     0.049 A 
ATOM     51  H   UNL A   1      40.060  29.213  30.569  1.00  0.00     0.167 HD
ATOM     52  C   UNL A   1      39.457  31.173  34.450  1.00  0.00     0.034 A 
ATOM     53  C   UNL A   1      41.339  27.510  28.750  1.00  0.00     0.034 A 
ATOM     54  C   UNL A   1      40.608  30.322  34.605  1.00  0.00     0.049 A 
ATOM     55  C   UNL A   1      42.140  27.458  30.023  1.00  0.00     0.074 A 
ATOM     56  C   UNL A   1      41.354  30.097  35.749  1.00  0.00     0.029 A 
ATOM     57  N   UNL A   1      41.178  29.557  33.598  1.00  0.00    -0.354 N 
ATOM     58  N   UNL A   1      41.889  28.033  31.176  1.00  0.00    -0.248 NA
ATOM     59  C   UNL A   1      43.380  26.672  30.003  1.00  0.00     0.031 C 
ATOM     60  C   UNL A   1      42.407  29.242  35.420  1.00  0.00     0.029 A 
ATOM     61  C   UNL A   1      42.289  28.888  34.085  1.00  0.00     0.049 A 
ATOM     62  H   UNL A   1      40.843  29.498  32.674  1.00  0.00     0.167 HD
ATOM     63  C   UNL A   1      42.933  27.670  32.020  1.00  0.00     0.074 A 
ATOM     64  C   UNL A   1      43.807  26.806  31.253  1.00  0.00     0.031 C 
ATOM     65  C   UNL A   1      43.150  28.028  33.310  1.00  0.00     0.034 A 
BRANCH  52  66
ATOM     66  C   UNL A   1      39.022  31.972  35.651  1.00  0.00     0.023 A 
ATOM     67  C   UNL A   1      38.350  31.334  36.711  1.00  0.00     0.031 A 
ATOM     68  C   UNL A   1      39.142  33.372  35.685  1.00  0.00     0.131 A 
ATOM     69  C   UNL A   1      37.793  32.099  37.744  1.00  0.00     0.055 A 
ATOM     70  C   UNL A   1      38.610  34.128  36.732  1.00  0.00     0.041 A 
ATOM     71  F   UNL A   1      39.776  34.025  34.698  1.00  0.00    -0.206 F 
ATOM     72  C   UNL A   1      37.922  33.492  37.762  1.00  0.00     0.022 A 
BRANCH  69  73
ATOM     73  S   UNL A   1      36.837  31.325  39.077  1.00  0.00     0.124 S 
ATOM     74  O   UNL A   1      35.713  32.247  39.213  1.00  0.00    -0.237 OA
ATOM     75  O   UNL A   1      36.510  30.023  38.502  1.00  0.00    -0.237 OA
ATOM     76  O   UNL A   1      37.761  31.304  40.205  1.00  0.00    -0.744 OA
ENDBRANCH  69  73
ENDBRANCH  52  66
BRANCH  53  77
ATOM     77  C   UNL A   1      41.697  26.698  27.553  1.00  0.00     0.023 A 
ATOM     78  C   UNL A   1      41.327  25.343  27.460  1.00  0.00     0.031 A 
ATOM     79  C   UNL A   1      42.523  27.228  26.549  1.00  0.00     0.131 A 
ATOM     80  C   UNL A   1      41.852  24.545  26.436  1.00  0.00     0.055 A 
ATOM     81  C   UNL A   1      42.986  26.447  25.489  1.00  0.00     0.041 A 
ATOM     82  F   UNL A   1      42.908  28.513  26.600  1.00  0.00    -0.206 F 
ATOM     83  C   UNL A   1      42.669  25.092  25.441  1.00  0.00     0.022 A 
BRANCH  80  84
ATOM     84  S   UNL A   1      41.625  22.744  26.456  1.00  0.00     0.124 S 
ATOM     85  O   UNL A   1      40.172  22.623  26.431  1.00  0.00    -0.237 OA
ATOM     86  O   UNL A   1      42.315  22.340  25.233  1.00  0.00    -0.237 OA
ATOM     87  O   UNL A   1      42.274  22.331  27.696  1.00  0.00    -0.744 OA
ENDBRANCH  80  84
ENDBRANCH  53  77
BRANCH  65  88
ATOM     88  C   UNL A   1      44.386  27.510  34.000  1.00  0.00     0.023 A 
ATOM     89  C   UNL A   1      44.316  26.352  34.796  1.00  0.00     0.031 A 
ATOM     90  C   UNL A   1      45.579  28.251  33.998  1.00  0.00     0.131 A 
ATOM     91  C   UNL A   1      45.406  25.996  35.599  1.00  0.00     0.055 A 
ATOM     92  C   UNL A   1      46.678  27.867  34.767  1.00  0.00     0.041 A 
ATOM     93  F   UNL A   1      45.686  29.365  33.258  1.00  0.00    -0.206 F 
ATOM     94  C   UNL A   1      46.588  26.744  35.584  1.00  0.00     0.022 A 
BRANCH  91  95
ATOM     95  S   UNL A   1      45.302  24.598  36.751  1.00  0.00     0.124 S 
ATOM     96  O   UNL A   1      46.603  24.652  37.412  1.00  0.00    -0.237 OA
ATOM     97  O   UNL A   1      44.163  24.972  37.584  1.00  0.00    -0.237 OA
ATOM     98  O   UNL A   1      45.093  23.443  35.884  1.00  0.00    -0.744 OA
ENDBRANCH  91  95
ENDBRANCH  65  88
ENDBRANCH  39  40
ENDBRANCH  31  34
ENDBRANCH  29  30
ENDBRANCH  28  29
ENDBRANCH   1  28
TORSDOF 18
ENDMDL
MODEL 3
REMARK VINA RESULT:     -12.4      4.892      8.360
REMARK SMILES CC(C)CN(C)c1cc2c(cc1Cl)C=C(C(=O)NCCCCNC(=O)c1ccc(-c3c4nc(c(-c5cc(S(=O)(=O)[O-])ccc5F)c5ccc([nH]5)c(-c5cc(S(=O)(=O)[O-])ccc5F)c5nc(c(-c6cc(S(=O)(=O)[O-])ccc6F)c6ccc3[nH]6)C=C5)C=C4)cc1)[C@@H](C(F)(F)F)O2
REMARK SMILES IDX 20 1 19 2 18 3 16 4 17 5 15 7 7 8 8 9 12 10 9 11 11 12 13 13
REMARK SMILES IDX 10 14 94 15 14 16 89 17 5 18 6 19 4 20 2 21 1 22 3 23 90 24
REMARK SMILES IDX 91 25 92 26 93 27 21 28 22 29 23 30 24 31 25 33 26 34 27 35
REMARK SMILES IDX 88 36 28 37 87 38 29 39 30 40 31 41 81 42 32 43 86 44 80 45
REMARK SMILES IDX 82 46 33 47 85 48 79 49 78 50 34 52 66 53 46 54 65 55 47 56
REMARK SMILES IDX 50 57 64 58 83 59 48 60 49 61 63 63 84 64 51 65 35 66 36 67
REMARK SMILES IDX 44 68 37 69 43 70 45 71 42 72 38 73 39 74 40 75 41 76 67 77
REMARK SMILES IDX 68 78 76 79 69 80 75 81 77 82 74 83 70 84 71 85 72 86 73 87
REMARK SMILES IDX 52 88 53 89 61 90 54 91 60 92 62 93 59 94 55 95 56 96 57 97
REMARK SMILES IDX 58 98
REMARK H PARENT 18 6 23 32 82 51 50 62
REMARK Flexibility Score: inf
ROOT
ATOM      1  C   UNL A   1      31.574  29.257  25.467  1.00  0.00     0.023 C 
ENDROOT
BRANCH   1   2
ATOM      2  C   UNL A   1      31.173  29.281  23.996  1.00  0.00     0.116 C 
BRANCH   2   3
ATOM      3  N   UNL A   1      29.960  28.523  23.756  1.00  0.00    -0.352 N 
ATOM      4  C   UNL A   1      29.614  27.216  23.711  1.00  0.00     0.251 C 
ATOM      5  O   UNL A   1      28.418  26.988  23.506  1.00  0.00    -0.270 OA
ATOM      6  H   UNL A   1      29.190  29.112  23.582  1.00  0.00     0.163 HD
BRANCH   4   7
ATOM      7  C   UNL A   1      30.557  26.077  23.876  1.00  0.00     0.067 C 
ATOM      8  C   UNL A   1      33.011  21.994  25.529  1.00  0.00     0.059 A 
ATOM      9  C   UNL A   1      32.644  22.473  24.262  1.00  0.00     0.074 A 
ATOM     10  C   UNL A   1      32.602  22.742  26.658  1.00  0.00     0.065 A 
ATOM     11  C   UNL A   1      31.893  23.639  24.136  1.00  0.00     0.130 A 
ATOM     12  C   UNL A   1      31.767  23.859  26.527  1.00  0.00     0.034 A 
ATOM     13  Cl  UNL A   1      33.137  22.354  28.258  1.00  0.00    -0.082 Cl
ATOM     14  C   UNL A   1      31.405  24.305  25.262  1.00  0.00     0.019 A 
ATOM     15  O   UNL A   1      31.667  24.115  22.870  1.00  0.00    -0.475 OA
ATOM     16  C   UNL A   1      30.528  25.454  25.070  1.00  0.00     0.025 C 
ATOM     17  C   UNL A   1      31.500  25.567  22.821  1.00  0.00     0.314 C 
BRANCH   8  18
ATOM     18  N   UNL A   1      33.758  20.809  25.648  1.00  0.00    -0.373 N 
ATOM     19  C   UNL A   1      35.111  20.883  25.100  1.00  0.00     0.143 C 
BRANCH  18  20
ATOM     20  C   UNL A   1      33.027  19.547  25.416  1.00  0.00     0.119 C 
BRANCH  20  21
ATOM     21  C   UNL A   1      33.436  18.855  24.100  1.00  0.00     0.002 C 
ATOM     22  C   UNL A   1      33.896  17.413  24.327  1.00  0.00     0.009 C 
ATOM     23  C   UNL A   1      32.278  18.857  23.098  1.00  0.00     0.009 C 
ENDBRANCH  20  21
ENDBRANCH  18  20
ENDBRANCH   8  18
BRANCH  17  24
ATOM     24  C   UNL A   1      32.877  26.275  22.874  1.00  0.00     0.429 C 
ATOM     25  F   UNL A   1      33.856  25.439  22.445  1.00  0.00    -0.167 F 
ATOM     26  F   UNL A   1      32.926  27.370  22.078  1.00  0.00    -0.167 F 
ATOM     27  F   UNL A   1      33.220  26.690  24.115  1.00  0.00    -0.167 F 
ENDBRANCH  17  24
ENDBRANCH   4   7
ENDBRANCH   2   3
ENDBRANCH   1   2
BRANCH   1  28
ATOM     28  C   UNL A   1      31.518  30.621  26.151  1.00  0.00     0.023 C 
BRANCH  28  29
ATOM     29  C   UNL A   1      32.829  31.088  26.777  1.00  0.00     0.116 C 
BRANCH  29  30
ATOM     30  N   UNL A   1      32.792  32.452  27.290  1.00  0.00    -0.352 N 
ATOM     31  C   UNL A   1      33.788  33.112  27.979  1.00  0.00     0.251 C 
ATOM     32  H   UNL A   1      31.965  32.959  27.126  1.00  0.00     0.163 HD
ATOM     33  O   UNL A   1      33.624  34.245  28.403  1.00  0.00    -0.269 OA
BRANCH  31  34
ATOM     34  C   UNL A   1      35.038  32.370  28.230  1.00  0.00     0.039 A 
ATOM     35  C   UNL A   1      34.969  31.055  28.697  1.00  0.00     0.014 A 
ATOM     36  C   UNL A   1      36.250  33.060  28.186  1.00  0.00     0.014 A 
ATOM     37  C   UNL A   1      36.091  30.490  29.287  1.00  0.00     0.010 A 
ATOM     38  C   UNL A   1      37.392  32.457  28.713  1.00  0.00     0.010 A 
ATOM     39  C   UNL A   1      37.307  31.195  29.322  1.00  0.00    -0.014 A 
BRANCH  39  40
ATOM     40  C   UNL A   1      38.475  30.608  30.025  1.00  0.00     0.031 A 
ATOM     41  C   UNL A   1      39.357  29.600  29.337  1.00  0.00     0.074 A 
ATOM     42  C   UNL A   1      38.761  31.025  31.272  1.00  0.00     0.049 A 
ATOM     43  N   UNL A   1      40.406  28.974  29.803  1.00  0.00    -0.248 NA
ATOM     44  C   UNL A   1      39.022  29.248  27.947  1.00  0.00     0.031 C 
ATOM     45  C   UNL A   1      37.990  32.023  32.012  1.00  0.00     0.029 A 
ATOM     46  N   UNL A   1      39.778  30.685  32.126  1.00  0.00    -0.354 N 
ATOM     47  C   UNL A   1      40.841  28.139  28.780  1.00  0.00     0.074 A 
ATOM     48  C   UNL A   1      39.932  28.322  27.671  1.00  0.00     0.031 C 
ATOM     49  C   UNL A   1      38.589  32.255  33.188  1.00  0.00     0.029 A 
ATOM     50  C   UNL A   1      39.739  31.363  33.322  1.00  0.00     0.049 A 
ATOM     51  H   UNL A   1      40.470  30.021  31.906  1.00  0.00     0.167 HD
ATOM     52  C   UNL A   1      41.909  27.306  28.770  1.00  0.00     0.034 A 
ATOM     53  C   UNL A   1      40.522  31.264  34.414  1.00  0.00     0.034 A 
ATOM     54  C   UNL A   1      42.827  27.169  29.872  1.00  0.00     0.049 A 
ATOM     55  C   UNL A   1      41.664  30.283  34.398  1.00  0.00     0.074 A 
ATOM     56  C   UNL A   1      43.972  26.396  29.935  1.00  0.00     0.029 A 
ATOM     57  N   UNL A   1      42.710  27.814  31.094  1.00  0.00    -0.354 N 
ATOM     58  N   UNL A   1      42.080  29.524  33.412  1.00  0.00    -0.248 NA
ATOM     59  C   UNL A   1      42.430  30.127  35.641  1.00  0.00     0.031 C 
ATOM     60  C   UNL A   1      44.517  26.530  31.213  1.00  0.00     0.029 A 
ATOM     61  C   UNL A   1      43.743  27.428  31.932  1.00  0.00     0.049 A 
ATOM     62  H   UNL A   1      41.999  28.452  31.331  1.00  0.00     0.167 HD
ATOM     63  C   UNL A   1      43.162  28.807  33.912  1.00  0.00     0.074 A 
ATOM     64  C   UNL A   1      43.352  29.242  35.281  1.00  0.00     0.031 C 
ATOM     65  C   UNL A   1      43.922  27.870  33.293  1.00  0.00     0.034 A 
BRANCH  52  66
ATOM     66  C   UNL A   1      42.176  26.475  27.541  1.00  0.00     0.023 A 
ATOM     67  C   UNL A   1      41.806  25.117  27.520  1.00  0.00     0.031 A 
ATOM     68  C   UNL A   1      42.915  26.983  26.459  1.00  0.00     0.131 A 
ATOM     69  C   UNL A   1      42.206  24.304  26.453  1.00  0.00     0.055 A 
ATOM     70  C   UNL A   1      43.287  26.174  25.383  1.00  0.00     0.041 A 
ATOM     71  F   UNL A   1      43.289  28.272  26.434  1.00  0.00    -0.206 F 
ATOM     72  C   UNL A   1      42.942  24.825  25.383  1.00  0.00     0.022 A 
BRANCH  69  73
ATOM     73  S   UNL A   1      41.835  22.528  26.433  1.00  0.00     0.124 S 
ATOM     74  O   UNL A   1      42.404  22.118  25.152  1.00  0.00    -0.237 OA
ATOM     75  O   UNL A   1      42.550  22.053  27.614  1.00  0.00    -0.237 OA
ATOM     76  O   UNL A   1      40.380  22.474  26.511  1.00  0.00    -0.744 OA
ENDBRANCH  69  73
ENDBRANCH  52  66
BRANCH  53  77
ATOM     77  C   UNL A   1      40.250  32.147  35.584  1.00  0.00     0.023 A 
ATOM     78  C   UNL A   1      39.254  31.817  36.524  1.00  0.00     0.031 A 
ATOM     79  C   UNL A   1      40.888  33.391  35.707  1.00  0.00     0.131 A 
ATOM     80  C   UNL A   1      38.867  32.755  37.488  1.00  0.00     0.055 A 
ATOM     81  C   UNL A   1      40.549  34.295  36.715  1.00  0.00     0.041 A 
ATOM     82  F   UNL A   1      41.837  33.753  34.830  1.00  0.00    -0.206 F 
ATOM     83  C   UNL A   1      39.518  33.987  37.599  1.00  0.00     0.022 A 
BRANCH  80  84
ATOM     84  S   UNL A   1      37.401  32.471  38.521  1.00  0.00     0.124 S 
ATOM     85  O   UNL A   1      37.687  33.300  39.686  1.00  0.00    -0.237 OA
ATOM     86  O   UNL A   1      36.326  32.947  37.654  1.00  0.00    -0.237 OA
ATOM     87  O   UNL A   1      37.417  31.030  38.749  1.00  0.00    -0.744 OA
ENDBRANCH  80  84
ENDBRANCH  53  77
BRANCH  65  88
ATOM     88  C   UNL A   1      45.034  27.219  34.075  1.00  0.00     0.023 A 
ATOM     89  C   UNL A   1      44.766  26.102  34.887  1.00  0.00     0.031 A 
ATOM     90  C   UNL A   1      46.310  27.804  34.139  1.00  0.00     0.131 A 
ATOM     91  C   UNL A   1      45.747  25.633  35.769  1.00  0.00     0.055 A 
ATOM     92  C   UNL A   1      47.299  27.305  34.989  1.00  0.00     0.041 A 
ATOM     93  F   UNL A   1      46.607  28.874  33.387  1.00  0.00    -0.206 F 
ATOM     94  C   UNL A   1      47.013  26.225  35.819  1.00  0.00     0.022 A 
BRANCH  91  95
ATOM     95  S   UNL A   1      45.390  24.293  36.937  1.00  0.00     0.124 S 
ATOM     96  O   UNL A   1      44.594  24.977  37.951  1.00  0.00    -0.237 OA
ATOM     97  O   UNL A   1      44.657  23.345  36.102  1.00  0.00    -0.237 OA
ATOM     98  O   UNL A   1      46.709  23.850  37.378  1.00  0.00    -0.744 OA
ENDBRANCH  91  95
ENDBRANCH  65  88
ENDBRANCH  39  40
ENDBRANCH  31  34
ENDBRANCH  29  30
ENDBRANCH  28  29
ENDBRANCH   1  28
TORSDOF 18
ENDMDL
