MODEL 1
REMARK VINA RESULT:     -10.2      0.000      0.000
REMARK SMILES Cc1cc(C)cc(-c2ccc([C@@H](C)C(=O)NCCCCNC(=O)c3ccc(-c4c5nc(c(-c6cc(S(=O)(=O)[O-])ccc6F)c6ccc([nH]6)c(-c6cc(S(=O)(=O)[O-])ccc6F)c6nc(c(-c7cc(S(=O)(=O)[O-])ccc7F)c7ccc4[nH]7)C=C6)C=C5)cc3)cc2F)c1
REMARK SMILES IDX 19 1 18 2 17 3 16 4 14 5 15 6 12 8 13 9 11 10 8 11 9 12
REMARK SMILES IDX 88 13 10 14 87 15 89 16 7 17 1 18 2 19 3 20 90 21 4 22 5 23
REMARK SMILES IDX 6 24 20 25 21 26 22 27 23 29 24 30 25 31 86 32 26 33 85 34
REMARK SMILES IDX 27 35 28 36 29 37 79 38 30 39 84 40 78 41 80 42 31 43 83 44
REMARK SMILES IDX 77 45 76 46 32 48 64 49 44 50 63 51 45 52 48 53 62 54 81 55
REMARK SMILES IDX 46 56 47 57 61 59 82 60 49 61 33 62 34 63 42 64 35 65 41 66
REMARK SMILES IDX 43 67 40 68 36 69 37 70 38 71 39 72 65 73 66 74 74 75 67 76
REMARK SMILES IDX 73 77 75 78 72 79 68 80 69 81 70 82 71 83 50 84 51 85 59 86
REMARK SMILES IDX 52 87 58 88 60 89 57 90 53 91 54 92 55 93 56 94
REMARK H PARENT 16 7 21 28 80 47 48 58
REMARK Flexibility Score: inf
ROOT
ATOM      1  C   UNL A   1      41.168  20.019  27.094  1.00  0.00     0.023 C 
ENDROOT
BRANCH   1   2
ATOM      2  C   UNL A   1      42.466  19.270  26.800  1.00  0.00     0.023 C 
BRANCH   2   3
ATOM      3  C   UNL A   1      43.033  19.483  25.396  1.00  0.00     0.116 C 
BRANCH   3   4
ATOM      4  N   UNL A   1      44.438  19.835  25.418  1.00  0.00    -0.356 N 
ATOM      5  C   UNL A   1      45.064  21.042  25.481  1.00  0.00     0.227 C 
ATOM      6  O   UNL A   1      46.300  21.031  25.424  1.00  0.00    -0.274 OA
ATOM      7  H   UNL A   1      45.049  19.065  25.383  1.00  0.00     0.163 HD
BRANCH   5   8
ATOM      8  C   UNL A   1      44.324  22.382  25.626  1.00  0.00     0.105 C 
ATOM      9  C   UNL A   1      44.624  23.380  24.508  1.00  0.00     0.023 C 
BRANCH   8  10
ATOM     10  C   UNL A   1      44.343  22.932  27.043  1.00  0.00    -0.033 A 
ATOM     11  C   UNL A   1      44.393  24.167  29.631  1.00  0.00     0.017 A 
ATOM     12  C   UNL A   1      43.288  23.419  29.183  1.00  0.00     0.012 A 
ATOM     13  C   UNL A   1      45.486  24.240  28.756  1.00  0.00     0.131 A 
ATOM     14  C   UNL A   1      43.275  22.788  27.932  1.00  0.00     0.005 A 
ATOM     15  C   UNL A   1      45.460  23.656  27.485  1.00  0.00     0.044 A 
ATOM     16  F   UNL A   1      46.609  24.882  29.115  1.00  0.00    -0.206 F 
BRANCH  11  17
ATOM     17  C   UNL A   1      44.358  24.857  30.944  1.00  0.00    -0.015 A 
ATOM     18  C   UNL A   1      44.397  24.012  34.680  1.00  0.00     0.044 C 
ATOM     19  C   UNL A   1      44.395  24.794  33.400  1.00  0.00    -0.050 A 
ATOM     20  C   UNL A   1      44.421  26.192  33.440  1.00  0.00     0.006 A 
ATOM     21  C   UNL A   1      44.372  24.144  32.157  1.00  0.00     0.012 A 
ATOM     22  C   UNL A   1      44.415  26.936  32.257  1.00  0.00    -0.050 A 
ATOM     23  C   UNL A   1      44.472  28.433  32.312  1.00  0.00     0.044 C 
ATOM     24  C   UNL A   1      44.364  26.264  31.028  1.00  0.00     0.012 A 
ENDBRANCH  11  17
ENDBRANCH   8  10
ENDBRANCH   5   8
ENDBRANCH   3   4
ENDBRANCH   2   3
ENDBRANCH   1   2
BRANCH   1  25
ATOM     25  C   UNL A   1      40.853  21.183  26.158  1.00  0.00     0.116 C 
BRANCH  25  26
ATOM     26  N   UNL A   1      39.430  21.440  25.990  1.00  0.00    -0.352 N 
ATOM     27  C   UNL A   1      38.743  22.612  26.226  1.00  0.00     0.251 C 
ATOM     28  H   UNL A   1      38.891  20.684  25.665  1.00  0.00     0.163 HD
ATOM     29  O   UNL A   1      37.527  22.652  26.104  1.00  0.00    -0.269 OA
BRANCH  27  30
ATOM     30  C   UNL A   1      39.498  23.799  26.685  1.00  0.00     0.039 A 
ATOM     31  C   UNL A   1      39.913  24.740  25.739  1.00  0.00     0.014 A 
ATOM     32  C   UNL A   1      39.716  24.019  28.047  1.00  0.00     0.014 A 
ATOM     33  C   UNL A   1      40.459  25.951  26.169  1.00  0.00     0.010 A 
ATOM     34  C   UNL A   1      40.203  25.250  28.475  1.00  0.00     0.010 A 
ATOM     35  C   UNL A   1      40.556  26.236  27.541  1.00  0.00    -0.014 A 
BRANCH  35  36
ATOM     36  C   UNL A   1      40.986  27.573  28.025  1.00  0.00     0.031 A 
ATOM     37  C   UNL A   1      42.444  27.931  28.053  1.00  0.00     0.074 A 
ATOM     38  C   UNL A   1      40.069  28.431  28.512  1.00  0.00     0.049 A 
ATOM     39  N   UNL A   1      43.027  28.983  28.564  1.00  0.00    -0.248 NA
ATOM     40  C   UNL A   1      43.371  26.960  27.450  1.00  0.00     0.031 C 
ATOM     41  C   UNL A   1      38.625  28.189  28.564  1.00  0.00     0.029 A 
ATOM     42  N   UNL A   1      40.214  29.679  29.063  1.00  0.00    -0.354 N 
ATOM     43  C   UNL A   1      44.390  28.797  28.361  1.00  0.00     0.074 A 
ATOM     44  C   UNL A   1      44.546  27.509  27.717  1.00  0.00     0.031 C 
ATOM     45  C   UNL A   1      38.016  29.266  29.085  1.00  0.00     0.029 A 
ATOM     46  C   UNL A   1      39.026  30.256  29.448  1.00  0.00     0.049 A 
ATOM     47  H   UNL A   1      41.086  30.121  29.172  1.00  0.00     0.167 HD
ATOM     48  C   UNL A   1      45.412  29.632  28.668  1.00  0.00     0.034 A 
ATOM     49  C   UNL A   1      38.777  31.442  30.035  1.00  0.00     0.034 A 
ATOM     50  C   UNL A   1      45.244  30.920  29.290  1.00  0.00     0.049 A 
ATOM     51  C   UNL A   1      39.929  32.349  30.374  1.00  0.00     0.074 A 
ATOM     52  C   UNL A   1      46.213  31.850  29.626  1.00  0.00     0.029 A 
ATOM     53  N   UNL A   1      44.024  31.468  29.664  1.00  0.00    -0.354 N 
ATOM     54  N   UNL A   1      41.213  32.145  30.201  1.00  0.00    -0.248 NA
ATOM     55  C   UNL A   1      39.597  33.640  30.989  1.00  0.00     0.031 C 
ATOM     56  C   UNL A   1      45.585  32.940  30.238  1.00  0.00     0.029 A 
ATOM     57  C   UNL A   1      44.218  32.716  30.235  1.00  0.00     0.049 A 
ATOM     58  H   UNL A   1      43.149  31.032  29.544  1.00  0.00     0.167 HD
ATOM     59  C   UNL A   1      41.843  33.294  30.667  1.00  0.00     0.074 A 
ATOM     60  C   UNL A   1      40.799  34.186  31.129  1.00  0.00     0.031 C 
ATOM     61  C   UNL A   1      43.167  33.586  30.703  1.00  0.00     0.034 A 
BRANCH  48  62
ATOM     62  C   UNL A   1      46.806  29.159  28.346  1.00  0.00     0.023 A 
ATOM     63  C   UNL A   1      47.555  28.409  29.268  1.00  0.00     0.031 A 
ATOM     64  C   UNL A   1      47.398  29.475  27.110  1.00  0.00     0.131 A 
ATOM     65  C   UNL A   1      48.876  28.050  28.966  1.00  0.00     0.055 A 
ATOM     66  C   UNL A   1      48.688  29.055  26.788  1.00  0.00     0.041 A 
ATOM     67  F   UNL A   1      46.733  30.206  26.202  1.00  0.00    -0.206 F 
ATOM     68  C   UNL A   1      49.440  28.346  27.722  1.00  0.00     0.022 A 
BRANCH  65  69
ATOM     69  S   UNL A   1      49.882  27.273  30.257  1.00  0.00     0.124 S 
ATOM     70  O   UNL A   1      49.838  28.285  31.309  1.00  0.00    -0.237 OA
ATOM     71  O   UNL A   1      49.156  26.038  30.528  1.00  0.00    -0.237 OA
ATOM     72  O   UNL A   1      51.185  27.101  29.619  1.00  0.00    -0.744 OA
ENDBRANCH  65  69
ENDBRANCH  48  62
BRANCH  49  73
ATOM     73  C   UNL A   1      37.379  31.841  30.341  1.00  0.00     0.023 A 
ATOM     74  C   UNL A   1      36.548  32.363  29.338  1.00  0.00     0.031 A 
ATOM     75  C   UNL A   1      36.852  31.701  31.636  1.00  0.00     0.131 A 
ATOM     76  C   UNL A   1      35.235  32.749  29.651  1.00  0.00     0.055 A 
ATOM     77  C   UNL A   1      35.536  32.057  31.936  1.00  0.00     0.041 A 
ATOM     78  F   UNL A   1      37.606  31.194  32.623  1.00  0.00    -0.206 F 
ATOM     79  C   UNL A   1      34.721  32.589  30.940  1.00  0.00     0.022 A 
BRANCH  76  80
ATOM     80  S   UNL A   1      34.206  33.477  28.347  1.00  0.00     0.124 S 
ATOM     81  O   UNL A   1      33.351  34.377  29.112  1.00  0.00    -0.237 OA
ATOM     82  O   UNL A   1      35.201  34.111  27.489  1.00  0.00    -0.237 OA
ATOM     83  O   UNL A   1      33.532  32.319  27.761  1.00  0.00    -0.744 OA
ENDBRANCH  76  80
ENDBRANCH  49  73
BRANCH  61  84
ATOM     84  C   UNL A   1      43.557  34.942  31.223  1.00  0.00     0.023 A 
ATOM     85  C   UNL A   1      43.594  36.068  30.385  1.00  0.00     0.031 A 
ATOM     86  C   UNL A   1      43.869  35.109  32.583  1.00  0.00     0.131 A 
ATOM     87  C   UNL A   1      43.967  37.314  30.911  1.00  0.00     0.055 A 
ATOM     88  C   UNL A   1      44.201  36.359  33.109  1.00  0.00     0.041 A 
ATOM     89  F   UNL A   1      43.847  34.062  33.422  1.00  0.00    -0.206 F 
ATOM     90  C   UNL A   1      44.256  37.469  32.271  1.00  0.00     0.022 A 
BRANCH  87  91
ATOM     91  S   UNL A   1      44.101  38.732  29.790  1.00  0.00     0.124 S 
ATOM     92  O   UNL A   1      45.469  38.600  29.298  1.00  0.00    -0.237 OA
ATOM     93  O   UNL A   1      43.046  38.467  28.817  1.00  0.00    -0.237 OA
ATOM     94  O   UNL A   1      43.862  39.882  30.660  1.00  0.00    -0.744 OA
ENDBRANCH  87  91
ENDBRANCH  61  84
ENDBRANCH  35  36
ENDBRANCH  27  30
ENDBRANCH  25  26
ENDBRANCH   1  25
TORSDOF 16
ENDMDL
MODEL 2
REMARK VINA RESULT:     -10.1      1.424      1.905
REMARK SMILES Cc1cc(C)cc(-c2ccc([C@@H](C)C(=O)NCCCCNC(=O)c3ccc(-c4c5nc(c(-c6cc(S(=O)(=O)[O-])ccc6F)c6ccc([nH]6)c(-c6cc(S(=O)(=O)[O-])ccc6F)c6nc(c(-c7cc(S(=O)(=O)[O-])ccc7F)c7ccc4[nH]7)C=C6)C=C5)cc3)cc2F)c1
REMARK SMILES IDX 19 1 18 2 17 3 16 4 14 5 15 6 12 8 13 9 11 10 8 11 9 12
REMARK SMILES IDX 88 13 10 14 87 15 89 16 7 17 1 18 2 19 3 20 90 21 4 22 5 23
REMARK SMILES IDX 6 24 20 25 21 26 22 27 23 29 24 30 25 31 86 32 26 33 85 34
REMARK SMILES IDX 27 35 28 36 29 37 79 38 30 39 84 40 78 41 80 42 31 43 83 44
REMARK SMILES IDX 77 45 76 46 32 48 64 49 44 50 63 51 45 52 48 53 62 54 81 55
REMARK SMILES IDX 46 56 47 57 61 59 82 60 49 61 33 62 34 63 42 64 35 65 41 66
REMARK SMILES IDX 43 67 40 68 36 69 37 70 38 71 39 72 65 73 66 74 74 75 67 76
REMARK SMILES IDX 73 77 75 78 72 79 68 80 69 81 70 82 71 83 50 84 51 85 59 86
REMARK SMILES IDX 52 87 58 88 60 89 57 90 53 91 54 92 55 93 56 94
REMARK H PARENT 16 7 21 28 80 47 48 58
REMARK Flexibility Score: inf
ROOT
ATOM      1  C   UNL A   1      40.852  19.877  26.479  1.00  0.00     0.023 C 
ENDROOT
BRANCH   1   2
ATOM      2  C   UNL A   1      42.347  19.594  26.624  1.00  0.00     0.023 C 
BRANCH   2   3
ATOM      3  C   UNL A   1      43.066  19.232  25.325  1.00  0.00     0.116 C 
BRANCH   3   4
ATOM      4  N   UNL A   1      44.484  19.522  25.382  1.00  0.00    -0.356 N 
ATOM      5  C   UNL A   1      45.169  20.695  25.307  1.00  0.00     0.227 C 
ATOM      6  O   UNL A   1      46.403  20.621  25.329  1.00  0.00    -0.274 OA
ATOM      7  H   UNL A   1      45.055  18.728  25.496  1.00  0.00     0.163 HD
BRANCH   5   8
ATOM      8  C   UNL A   1      44.494  22.073  25.211  1.00  0.00     0.105 C 
ATOM      9  C   UNL A   1      44.871  22.862  23.956  1.00  0.00     0.023 C 
BRANCH   8  10
ATOM     10  C   UNL A   1      44.506  22.845  26.521  1.00  0.00    -0.033 A 
ATOM     11  C   UNL A   1      44.465  24.117  29.091  1.00  0.00     0.017 A 
ATOM     12  C   UNL A   1      45.649  23.988  28.342  1.00  0.00     0.012 A 
ATOM     13  C   UNL A   1      43.296  23.625  28.490  1.00  0.00     0.131 A 
ATOM     14  C   UNL A   1      45.665  23.395  27.072  1.00  0.00     0.005 A 
ATOM     15  C   UNL A   1      43.314  22.985  27.246  1.00  0.00     0.044 A 
ATOM     16  F   UNL A   1      42.107  23.752  29.100  1.00  0.00    -0.206 F 
BRANCH  11  17
ATOM     17  C   UNL A   1      44.488  24.712  30.450  1.00  0.00    -0.015 A 
ATOM     18  C   UNL A   1      44.748  28.150  32.119  1.00  0.00     0.044 C 
ATOM     19  C   UNL A   1      44.590  26.671  31.930  1.00  0.00    -0.050 A 
ATOM     20  C   UNL A   1      44.404  25.844  33.043  1.00  0.00     0.006 A 
ATOM     21  C   UNL A   1      44.622  26.098  30.649  1.00  0.00     0.012 A 
ATOM     22  C   UNL A   1      44.260  24.463  32.885  1.00  0.00    -0.050 A 
ATOM     23  C   UNL A   1      44.032  23.591  34.084  1.00  0.00     0.044 C 
ATOM     24  C   UNL A   1      44.324  23.912  31.598  1.00  0.00     0.012 A 
ENDBRANCH  11  17
ENDBRANCH   8  10
ENDBRANCH   5   8
ENDBRANCH   3   4
ENDBRANCH   2   3
ENDBRANCH   1   2
BRANCH   1  25
ATOM     25  C   UNL A   1      40.424  21.316  26.759  1.00  0.00     0.116 C 
BRANCH  25  26
ATOM     26  N   UNL A   1      39.124  21.665  26.206  1.00  0.00    -0.352 N 
ATOM     27  C   UNL A   1      38.516  22.903  26.174  1.00  0.00     0.251 C 
ATOM     28  H   UNL A   1      38.615  20.926  25.802  1.00  0.00     0.163 HD
ATOM     29  O   UNL A   1      37.383  23.025  25.733  1.00  0.00    -0.269 OA
BRANCH  27  30
ATOM     30  C   UNL A   1      39.241  24.065  26.735  1.00  0.00     0.039 A 
ATOM     31  C   UNL A   1      40.058  24.819  25.890  1.00  0.00     0.014 A 
ATOM     32  C   UNL A   1      39.042  24.452  28.062  1.00  0.00     0.014 A 
ATOM     33  C   UNL A   1      40.599  26.021  26.351  1.00  0.00     0.010 A 
ATOM     34  C   UNL A   1      39.531  25.679  28.499  1.00  0.00     0.010 A 
ATOM     35  C   UNL A   1      40.293  26.486  27.641  1.00  0.00    -0.014 A 
BRANCH  35  36
ATOM     36  C   UNL A   1      40.725  27.830  28.103  1.00  0.00     0.031 A 
ATOM     37  C   UNL A   1      42.183  28.188  28.120  1.00  0.00     0.074 A 
ATOM     38  C   UNL A   1      39.809  28.695  28.579  1.00  0.00     0.049 A 
ATOM     39  N   UNL A   1      42.768  29.249  28.612  1.00  0.00    -0.248 NA
ATOM     40  C   UNL A   1      43.108  27.209  27.529  1.00  0.00     0.031 C 
ATOM     41  C   UNL A   1      38.366  28.454  28.640  1.00  0.00     0.029 A 
ATOM     42  N   UNL A   1      39.956  29.952  29.110  1.00  0.00    -0.354 N 
ATOM     43  C   UNL A   1      44.129  29.060  28.407  1.00  0.00     0.074 A 
ATOM     44  C   UNL A   1      44.284  27.762  27.783  1.00  0.00     0.031 C 
ATOM     45  C   UNL A   1      37.758  29.539  29.146  1.00  0.00     0.029 A 
ATOM     46  C   UNL A   1      38.769  30.535  29.489  1.00  0.00     0.049 A 
ATOM     47  H   UNL A   1      40.829  30.396  29.209  1.00  0.00     0.167 HD
ATOM     48  C   UNL A   1      45.153  29.900  28.697  1.00  0.00     0.034 A 
ATOM     49  C   UNL A   1      38.523  31.730  30.059  1.00  0.00     0.034 A 
ATOM     50  C   UNL A   1      44.987  31.197  29.300  1.00  0.00     0.049 A 
ATOM     51  C   UNL A   1      39.675  32.642  30.379  1.00  0.00     0.074 A 
ATOM     52  C   UNL A   1      45.957  32.133  29.618  1.00  0.00     0.029 A 
ATOM     53  N   UNL A   1      43.768  31.750  29.670  1.00  0.00    -0.354 N 
ATOM     54  N   UNL A   1      40.959  32.436  30.205  1.00  0.00    -0.248 NA
ATOM     55  C   UNL A   1      39.345  33.943  30.975  1.00  0.00     0.031 C 
ATOM     56  C   UNL A   1      45.331  33.232  30.214  1.00  0.00     0.029 A 
ATOM     57  C   UNL A   1      43.963  33.008  30.219  1.00  0.00     0.049 A 
ATOM     58  H   UNL A   1      42.893  31.312  29.559  1.00  0.00     0.167 HD
ATOM     59  C   UNL A   1      41.590  33.592  30.651  1.00  0.00     0.074 A 
ATOM     60  C   UNL A   1      40.547  34.491  31.102  1.00  0.00     0.031 C 
ATOM     61  C   UNL A   1      42.914  33.885  30.678  1.00  0.00     0.034 A 
BRANCH  48  62
ATOM     62  C   UNL A   1      46.545  29.422  28.378  1.00  0.00     0.023 A 
ATOM     63  C   UNL A   1      47.289  28.666  29.300  1.00  0.00     0.031 A 
ATOM     64  C   UNL A   1      47.142  29.738  27.145  1.00  0.00     0.131 A 
ATOM     65  C   UNL A   1      48.609  28.302  29.001  1.00  0.00     0.055 A 
ATOM     66  C   UNL A   1      48.432  29.313  26.825  1.00  0.00     0.041 A 
ATOM     67  F   UNL A   1      46.483  30.475  26.237  1.00  0.00    -0.206 F 
ATOM     68  C   UNL A   1      49.178  28.600  27.759  1.00  0.00     0.022 A 
BRANCH  65  69
ATOM     69  S   UNL A   1      49.609  27.518  30.293  1.00  0.00     0.124 S 
ATOM     70  O   UNL A   1      48.791  27.757  31.479  1.00  0.00    -0.237 OA
ATOM     71  O   UNL A   1      49.687  26.134  29.840  1.00  0.00    -0.237 OA
ATOM     72  O   UNL A   1      50.867  28.259  30.249  1.00  0.00    -0.744 OA
ENDBRANCH  65  69
ENDBRANCH  48  62
BRANCH  49  73
ATOM     73  C   UNL A   1      37.125  32.134  30.363  1.00  0.00     0.023 A 
ATOM     74  C   UNL A   1      36.272  32.584  29.344  1.00  0.00     0.031 A 
ATOM     75  C   UNL A   1      36.621  32.071  31.673  1.00  0.00     0.131 A 
ATOM     76  C   UNL A   1      34.960  32.975  29.655  1.00  0.00     0.055 A 
ATOM     77  C   UNL A   1      35.307  32.432  31.973  1.00  0.00     0.041 A 
ATOM     78  F   UNL A   1      37.398  31.633  32.677  1.00  0.00    -0.206 F 
ATOM     79  C   UNL A   1      34.469  32.891  30.961  1.00  0.00     0.022 A 
BRANCH  76  80
ATOM     80  S   UNL A   1      33.902  33.609  28.325  1.00  0.00     0.124 S 
ATOM     81  O   UNL A   1      32.915  34.378  29.075  1.00  0.00    -0.237 OA
ATOM     82  O   UNL A   1      34.845  34.382  27.525  1.00  0.00    -0.237 OA
ATOM     83  O   UNL A   1      33.397  32.395  27.687  1.00  0.00    -0.744 OA
ENDBRANCH  76  80
ENDBRANCH  49  73
BRANCH  61  84
ATOM     84  C   UNL A   1      43.306  35.249  31.175  1.00  0.00     0.023 A 
ATOM     85  C   UNL A   1      43.438  35.522  32.546  1.00  0.00     0.031 A 
ATOM     86  C   UNL A   1      43.574  36.280  30.258  1.00  0.00     0.131 A 
ATOM     87  C   UNL A   1      43.801  36.810  32.966  1.00  0.00     0.055 A 
ATOM     88  C   UNL A   1      43.974  37.548  30.680  1.00  0.00     0.041 A 
ATOM     89  F   UNL A   1      43.461  36.065  28.938  1.00  0.00    -0.206 F 
ATOM     90  C   UNL A   1      44.084  37.821  32.041  1.00  0.00     0.022 A 
BRANCH  87  91
ATOM     91  S   UNL A   1      43.871  37.163  34.742  1.00  0.00     0.124 S 
ATOM     92  O   UNL A   1      42.471  37.030  35.132  1.00  0.00    -0.237 OA
ATOM     93  O   UNL A   1      44.771  36.126  35.236  1.00  0.00    -0.237 OA
ATOM     94  O   UNL A   1      44.406  38.523  34.802  1.00  0.00    -0.744 OA
ENDBRANCH  87  91
ENDBRANCH  61  84
ENDBRANCH  35  36
ENDBRANCH  27  30
ENDBRANCH  25  26
ENDBRANCH   1  25
TORSDOF 16
ENDMDL
MODEL 3
REMARK VINA RESULT:      -9.9      5.948     10.681
REMARK SMILES Cc1cc(C)cc(-c2ccc([C@@H](C)C(=O)NCCCCNC(=O)c3ccc(-c4c5nc(c(-c6cc(S(=O)(=O)[O-])ccc6F)c6ccc([nH]6)c(-c6cc(S(=O)(=O)[O-])ccc6F)c6nc(c(-c7cc(S(=O)(=O)[O-])ccc7F)c7ccc4[nH]7)C=C6)C=C5)cc3)cc2F)c1
REMARK SMILES IDX 19 1 18 2 17 3 16 4 14 5 15 6 12 8 13 9 11 10 8 11 9 12
REMARK SMILES IDX 88 13 10 14 87 15 89 16 7 17 1 18 2 19 3 20 90 21 4 22 5 23
REMARK SMILES IDX 6 24 20 25 21 26 22 27 23 29 24 30 25 31 86 32 26 33 85 34
REMARK SMILES IDX 27 35 28 36 29 37 79 38 30 39 84 40 78 41 80 42 31 43 83 44
REMARK SMILES IDX 77 45 76 46 32 48 64 49 44 50 63 51 45 52 48 53 62 54 81 55
REMARK SMILES IDX 46 56 47 57 61 59 82 60 49 61 33 62 34 63 42 64 35 65 41 66
REMARK SMILES IDX 43 67 40 68 36 69 37 70 38 71 39 72 65 73 66 74 74 75 67 76
REMARK SMILES IDX 73 77 75 78 72 79 68 80 69 81 70 82 71 83 50 84 51 85 59 86
REMARK SMILES IDX 52 87 58 88 60 89 57 90 53 91 54 92 55 93 56 94
REMARK H PARENT 16 7 21 28 80 47 48 58
REMARK Flexibility Score: inf
ROOT
ATOM      1  C   UNL A   1      32.464  30.444  27.100  1.00  0.00     0.023 C 
ENDROOT
BRANCH   1   2
ATOM      2  C   UNL A   1      31.609  30.676  25.855  1.00  0.00     0.023 C 
BRANCH   2   3
ATOM      3  C   UNL A   1      31.323  29.426  25.023  1.00  0.00     0.116 C 
BRANCH   3   4
ATOM      4  N   UNL A   1      30.898  29.747  23.676  1.00  0.00    -0.356 N 
ATOM      5  C   UNL A   1      30.347  28.980  22.697  1.00  0.00     0.227 C 
ATOM      6  O   UNL A   1      30.140  29.531  21.609  1.00  0.00    -0.274 OA
ATOM      7  H   UNL A   1      31.031  30.690  23.424  1.00  0.00     0.163 HD
BRANCH   5   8
ATOM      8  C   UNL A   1      29.969  27.501  22.881  1.00  0.00     0.105 C 
ATOM      9  C   UNL A   1      28.629  27.285  23.584  1.00  0.00     0.023 C 
BRANCH   8  10
ATOM     10  C   UNL A   1      31.127  26.637  23.356  1.00  0.00    -0.033 A 
ATOM     11  C   UNL A   1      33.185  24.835  24.219  1.00  0.00     0.017 A 
ATOM     12  C   UNL A   1      33.343  25.664  23.093  1.00  0.00     0.012 A 
ATOM     13  C   UNL A   1      31.978  24.971  24.922  1.00  0.00     0.131 A 
ATOM     14  C   UNL A   1      32.352  26.568  22.688  1.00  0.00     0.005 A 
ATOM     15  C   UNL A   1      30.963  25.833  24.494  1.00  0.00     0.044 A 
ATOM     16  F   UNL A   1      31.755  24.266  26.042  1.00  0.00    -0.206 F 
BRANCH  11  17
ATOM     17  C   UNL A   1      34.236  23.859  24.597  1.00  0.00    -0.015 A 
ATOM     18  C   UNL A   1      37.751  23.808  26.118  1.00  0.00     0.044 C 
ATOM     19  C   UNL A   1      36.442  23.347  25.552  1.00  0.00    -0.050 A 
ATOM     20  C   UNL A   1      36.181  21.978  25.429  1.00  0.00     0.006 A 
ATOM     21  C   UNL A   1      35.466  24.269  25.142  1.00  0.00     0.012 A 
ATOM     22  C   UNL A   1      34.968  21.531  24.899  1.00  0.00    -0.050 A 
ATOM     23  C   UNL A   1      34.689  20.061  24.800  1.00  0.00     0.044 C 
ATOM     24  C   UNL A   1      34.021  22.472  24.471  1.00  0.00     0.012 A 
ENDBRANCH  11  17
ENDBRANCH   8  10
ENDBRANCH   5   8
ENDBRANCH   3   4
ENDBRANCH   2   3
ENDBRANCH   1   2
BRANCH   1  25
ATOM     25  C   UNL A   1      33.528  31.504  27.374  1.00  0.00     0.116 C 
BRANCH  25  26
ATOM     26  N   UNL A   1      32.995  32.849  27.536  1.00  0.00    -0.352 N 
ATOM     27  C   UNL A   1      33.410  33.829  28.414  1.00  0.00     0.251 C 
ATOM     28  H   UNL A   1      32.247  33.090  26.944  1.00  0.00     0.163 HD
ATOM     29  O   UNL A   1      32.813  34.893  28.480  1.00  0.00    -0.269 OA
BRANCH  27  30
ATOM     30  C   UNL A   1      34.552  33.543  29.311  1.00  0.00     0.039 A 
ATOM     31  C   UNL A   1      34.350  32.706  30.411  1.00  0.00     0.014 A 
ATOM     32  C   UNL A   1      35.827  34.029  29.013  1.00  0.00     0.014 A 
ATOM     33  C   UNL A   1      35.449  32.277  31.157  1.00  0.00     0.010 A 
ATOM     34  C   UNL A   1      36.926  33.551  29.719  1.00  0.00     0.010 A 
ATOM     35  C   UNL A   1      36.750  32.652  30.782  1.00  0.00    -0.014 A 
BRANCH  35  36
ATOM     36  C   UNL A   1      37.945  32.088  31.459  1.00  0.00     0.031 A 
ATOM     37  C   UNL A   1      38.746  31.005  30.796  1.00  0.00     0.074 A 
ATOM     38  C   UNL A   1      38.259  32.497  32.704  1.00  0.00     0.049 A 
ATOM     39  N   UNL A   1      39.731  30.293  31.278  1.00  0.00    -0.248 NA
ATOM     40  C   UNL A   1      38.369  30.660  29.417  1.00  0.00     0.031 C 
ATOM     41  C   UNL A   1      37.543  33.523  33.466  1.00  0.00     0.029 A 
ATOM     42  N   UNL A   1      39.260  32.096  33.552  1.00  0.00    -0.354 N 
ATOM     43  C   UNL A   1      40.083  29.403  30.269  1.00  0.00     0.074 A 
ATOM     44  C   UNL A   1      39.175  29.639  29.165  1.00  0.00     0.031 C 
ATOM     45  C   UNL A   1      38.147  33.693  34.653  1.00  0.00     0.029 A 
ATOM     46  C   UNL A   1      39.263  32.758  34.758  1.00  0.00     0.049 A 
ATOM     47  H   UNL A   1      39.916  31.400  33.320  1.00  0.00     0.167 HD
ATOM     48  C   UNL A   1      41.081  28.486  30.260  1.00  0.00     0.034 A 
ATOM     49  C   UNL A   1      40.064  32.621  35.831  1.00  0.00     0.034 A 
ATOM     50  C   UNL A   1      41.991  28.272  31.356  1.00  0.00     0.049 A 
ATOM     51  C   UNL A   1      41.161  31.592  35.802  1.00  0.00     0.074 A 
ATOM     52  C   UNL A   1      43.048  27.382  31.440  1.00  0.00     0.029 A 
ATOM     53  N   UNL A   1      41.959  28.964  32.560  1.00  0.00    -0.354 N 
ATOM     54  N   UNL A   1      41.462  30.739  34.851  1.00  0.00    -0.248 NA
ATOM     55  C   UNL A   1      42.021  31.505  36.988  1.00  0.00     0.031 C 
ATOM     56  C   UNL A   1      43.630  27.507  32.706  1.00  0.00     0.029 A 
ATOM     57  C   UNL A   1      42.971  28.514  33.394  1.00  0.00     0.049 A 
ATOM     58  H   UNL A   1      41.312  29.670  32.789  1.00  0.00     0.167 HD
ATOM     59  C   UNL A   1      42.562  30.027  35.318  1.00  0.00     0.074 A 
ATOM     60  C   UNL A   1      42.871  30.550  36.633  1.00  0.00     0.031 C 
ATOM     61  C   UNL A   1      43.257  29.035  34.708  1.00  0.00     0.034 A 
BRANCH  48  62
ATOM     62  C   UNL A   1      41.222  27.635  29.025  1.00  0.00     0.023 A 
ATOM     63  C   UNL A   1      42.203  27.907  28.057  1.00  0.00     0.031 A 
ATOM     64  C   UNL A   1      40.355  26.550  28.806  1.00  0.00     0.131 A 
ATOM     65  C   UNL A   1      42.257  27.141  26.885  1.00  0.00     0.055 A 
ATOM     66  C   UNL A   1      40.458  25.748  27.669  1.00  0.00     0.041 A 
ATOM     67  F   UNL A   1      39.387  26.260  29.689  1.00  0.00    -0.206 F 
ATOM     68  C   UNL A   1      41.407  26.048  26.694  1.00  0.00     0.022 A 
BRANCH  65  69
ATOM     69  S   UNL A   1      43.389  27.651  25.565  1.00  0.00     0.124 S 
ATOM     70  O   UNL A   1      44.094  28.762  26.199  1.00  0.00    -0.237 OA
ATOM     71  O   UNL A   1      44.175  26.445  25.335  1.00  0.00    -0.237 OA
ATOM     72  O   UNL A   1      42.495  28.028  24.473  1.00  0.00    -0.744 OA
ENDBRANCH  65  69
ENDBRANCH  48  62
BRANCH  49  73
ATOM     73  C   UNL A   1      39.861  33.483  37.025  1.00  0.00     0.023 A 
ATOM     74  C   UNL A   1      39.150  33.008  38.138  1.00  0.00     0.031 A 
ATOM     75  C   UNL A   1      40.380  34.788  37.074  1.00  0.00     0.131 A 
ATOM     76  C   UNL A   1      38.957  33.844  39.249  1.00  0.00     0.055 A 
ATOM     77  C   UNL A   1      40.211  35.604  38.193  1.00  0.00     0.041 A 
ATOM     78  F   UNL A   1      41.079  35.278  36.038  1.00  0.00    -0.206 F 
ATOM     79  C   UNL A   1      39.492  35.134  39.288  1.00  0.00     0.022 A 
BRANCH  76  80
ATOM     80  S   UNL A   1      37.981  33.222  40.646  1.00  0.00     0.124 S 
ATOM     81  O   UNL A   1      36.679  33.007  40.025  1.00  0.00    -0.237 OA
ATOM     82  O   UNL A   1      38.718  32.022  41.025  1.00  0.00    -0.237 OA
ATOM     83  O   UNL A   1      38.040  34.316  41.614  1.00  0.00    -0.744 OA
ENDBRANCH  76  80
ENDBRANCH  49  73
BRANCH  61  84
ATOM     84  C   UNL A   1      44.445  28.478  35.442  1.00  0.00     0.023 A 
ATOM     85  C   UNL A   1      44.301  27.507  36.446  1.00  0.00     0.031 A 
ATOM     86  C   UNL A   1      45.741  28.910  35.110  1.00  0.00     0.131 A 
ATOM     87  C   UNL A   1      45.437  27.018  37.108  1.00  0.00     0.055 A 
ATOM     88  C   UNL A   1      46.870  28.391  35.744  1.00  0.00     0.041 A 
ATOM     89  F   UNL A   1      45.928  29.836  34.156  1.00  0.00    -0.206 F 
ATOM     90  C   UNL A   1      46.721  27.443  36.753  1.00  0.00     0.022 A 
BRANCH  87  91
ATOM     91  S   UNL A   1      45.217  25.838  38.466  1.00  0.00     0.124 S 
ATOM     92  O   UNL A   1      46.511  25.903  39.136  1.00  0.00    -0.237 OA
ATOM     93  O   UNL A   1      44.090  26.406  39.200  1.00  0.00    -0.237 OA
ATOM     94  O   UNL A   1      44.934  24.577  37.782  1.00  0.00    -0.744 OA
ENDBRANCH  87  91
ENDBRANCH  61  84
ENDBRANCH  35  36
ENDBRANCH  27  30
ENDBRANCH  25  26
ENDBRANCH   1  25
TORSDOF 16
ENDMDL
