MODEL 1
REMARK VINA RESULT:     -11.9      0.000      0.000
REMARK SMILES C[C@@H](C(=O)NCCCCNC(=O)c1ccc(-c2c3nc(c(-c4cc(S(=O)(=O)[O-])ccc4F)c4ccc([nH]4)c(-c4cc(S(=O)(=O)[O-])ccc4F)c4nc(c(-c5cc(S(=O)(=O)[O-])ccc5F)c5ccc2[nH]5)C=C4)C=C3)cc1)c1ccc(Cc2ccoc2)cc1F
REMARK SMILES IDX 7 1 6 2 5 3 3 4 4 5 2 7 1 8 76 9 77 10 87 11 78 12 86 13
REMARK SMILES IDX 88 14 79 15 80 16 81 17 82 18 85 19 83 20 84 21 8 22 9 23
REMARK SMILES IDX 10 24 11 25 12 27 13 28 14 29 75 30 15 31 74 32 16 33 17 34
REMARK SMILES IDX 18 35 68 36 19 37 73 38 67 39 69 40 20 41 72 42 66 43 65 44
REMARK SMILES IDX 21 46 53 47 33 48 52 49 34 50 37 51 51 52 70 53 35 54 36 55
REMARK SMILES IDX 50 57 71 58 38 59 22 60 23 61 31 62 24 63 30 64 32 65 29 66
REMARK SMILES IDX 25 67 26 68 27 69 28 70 54 71 55 72 63 73 56 74 62 75 64 76
REMARK SMILES IDX 61 77 57 78 58 79 59 80 60 81 39 82 40 83 48 84 41 85 47 86
REMARK SMILES IDX 49 87 46 88 42 89 43 90 44 91 45 92
REMARK H PARENT 5 6 10 26 69 45 37 56
REMARK Flexibility Score: inf
ROOT
ATOM      1  C   UNL A   1      34.816  22.813  23.464  1.00  0.00     0.023 C 
ENDROOT
BRANCH   1   2
ATOM      2  C   UNL A   1      34.339  24.249  23.247  1.00  0.00     0.116 C 
BRANCH   2   3
ATOM      3  N   UNL A   1      34.046  24.926  24.494  1.00  0.00    -0.356 N 
ATOM      4  C   UNL A   1      33.614  26.201  24.737  1.00  0.00     0.227 C 
ATOM      5  O   UNL A   1      33.313  26.463  25.904  1.00  0.00    -0.274 OA
ATOM      6  H   UNL A   1      34.180  24.378  25.300  1.00  0.00     0.163 HD
BRANCH   4   7
ATOM      7  C   UNL A   1      33.445  27.201  23.579  1.00  0.00     0.108 C 
ATOM      8  C   UNL A   1      34.374  28.414  23.685  1.00  0.00     0.023 C 
BRANCH   7   9
ATOM      9  C   UNL A   1      32.010  27.695  23.425  1.00  0.00    -0.000 A 
ATOM     10  C   UNL A   1      31.652  28.980  23.856  1.00  0.00     0.008 A 
ATOM     11  C   UNL A   1      31.006  26.876  22.894  1.00  0.00     0.127 A 
ATOM     12  C   UNL A   1      30.328  29.422  23.754  1.00  0.00     0.004 A 
ATOM     13  C   UNL A   1      29.685  27.310  22.792  1.00  0.00     0.043 A 
ATOM     14  F   UNL A   1      31.297  25.631  22.491  1.00  0.00    -0.207 F 
ATOM     15  C   UNL A   1      29.326  28.592  23.226  1.00  0.00    -0.041 A 
BRANCH  15  16
ATOM     16  C   UNL A   1      27.901  29.073  23.107  1.00  0.00     0.074 C 
BRANCH  16  17
ATOM     17  C   UNL A   1      27.943  30.445  22.521  1.00  0.00    -0.005 A 
ATOM     18  C   UNL A   1      28.179  30.818  21.163  1.00  0.00     0.046 A 
ATOM     19  C   UNL A   1      27.695  31.635  23.178  1.00  0.00     0.198 A 
ATOM     20  C   UNL A   1      28.071  32.186  21.104  1.00  0.00     0.195 A 
ATOM     21  O   UNL A   1      27.769  32.688  22.326  1.00  0.00    -0.472 OA
ENDBRANCH  16  17
ENDBRANCH  15  16
ENDBRANCH   7   9
ENDBRANCH   4   7
ENDBRANCH   2   3
ENDBRANCH   1   2
BRANCH   1  22
ATOM     22  C   UNL A   1      36.278  22.668  23.897  1.00  0.00     0.023 C 
BRANCH  22  23
ATOM     23  C   UNL A   1      36.508  22.071  25.282  1.00  0.00     0.116 C 
BRANCH  23  24
ATOM     24  N   UNL A   1      37.510  21.015  25.290  1.00  0.00    -0.352 N 
ATOM     25  C   UNL A   1      38.807  21.049  25.749  1.00  0.00     0.251 C 
ATOM     26  H   UNL A   1      37.218  20.154  24.914  1.00  0.00     0.163 HD
ATOM     27  O   UNL A   1      39.542  20.082  25.563  1.00  0.00    -0.269 OA
BRANCH  25  28
ATOM     28  C   UNL A   1      39.322  22.261  26.422  1.00  0.00     0.039 A 
ATOM     29  C   UNL A   1      40.295  22.117  27.415  1.00  0.00     0.014 A 
ATOM     30  C   UNL A   1      38.878  23.533  26.052  1.00  0.00     0.014 A 
ATOM     31  C   UNL A   1      40.894  23.252  27.967  1.00  0.00     0.010 A 
ATOM     32  C   UNL A   1      39.517  24.663  26.562  1.00  0.00     0.010 A 
ATOM     33  C   UNL A   1      40.549  24.533  27.504  1.00  0.00    -0.014 A 
BRANCH  33  34
ATOM     34  C   UNL A   1      41.301  25.741  27.937  1.00  0.00     0.031 A 
ATOM     35  C   UNL A   1      40.608  26.843  28.687  1.00  0.00     0.074 A 
ATOM     36  C   UNL A   1      42.591  25.879  27.564  1.00  0.00     0.049 A 
ATOM     37  N   UNL A   1      41.068  28.015  29.042  1.00  0.00    -0.248 NA
ATOM     38  C   UNL A   1      39.207  26.607  29.068  1.00  0.00     0.031 C 
ATOM     39  C   UNL A   1      43.358  24.893  26.798  1.00  0.00     0.029 A 
ATOM     40  N   UNL A   1      43.477  26.910  27.754  1.00  0.00    -0.354 N 
ATOM     41  C   UNL A   1      40.013  28.664  29.673  1.00  0.00     0.074 A 
ATOM     42  C   UNL A   1      38.878  27.766  29.620  1.00  0.00     0.031 C 
ATOM     43  C   UNL A   1      44.597  25.366  26.587  1.00  0.00     0.029 A 
ATOM     44  C   UNL A   1      44.700  26.706  27.154  1.00  0.00     0.049 A 
ATOM     45  H   UNL A   1      43.260  27.720  28.270  1.00  0.00     0.167 HD
ATOM     46  C   UNL A   1      39.999  29.890  30.251  1.00  0.00     0.034 A 
ATOM     47  C   UNL A   1      45.773  27.516  27.046  1.00  0.00     0.034 A 
ATOM     48  C   UNL A   1      41.144  30.765  30.314  1.00  0.00     0.049 A 
ATOM     49  C   UNL A   1      45.716  28.887  27.671  1.00  0.00     0.074 A 
ATOM     50  C   UNL A   1      41.261  31.983  30.962  1.00  0.00     0.029 A 
ATOM     51  N   UNL A   1      42.363  30.528  29.694  1.00  0.00    -0.354 N 
ATOM     52  N   UNL A   1      44.732  29.452  28.332  1.00  0.00    -0.248 NA
ATOM     53  C   UNL A   1      46.912  29.728  27.538  1.00  0.00     0.031 C 
ATOM     54  C   UNL A   1      42.524  32.513  30.676  1.00  0.00     0.029 A 
ATOM     55  C   UNL A   1      43.221  31.597  29.907  1.00  0.00     0.049 A 
ATOM     56  H   UNL A   1      42.586  29.719  29.179  1.00  0.00     0.167 HD
ATOM     57  C   UNL A   1      45.202  30.706  28.710  1.00  0.00     0.074 A 
ATOM     58  C   UNL A   1      46.562  30.806  28.223  1.00  0.00     0.031 C 
ATOM     59  C   UNL A   1      44.568  31.690  29.397  1.00  0.00     0.034 A 
BRANCH  46  60
ATOM     60  C   UNL A   1      38.700  30.375  30.842  1.00  0.00     0.023 A 
ATOM     61  C   UNL A   1      37.734  31.035  30.065  1.00  0.00     0.031 A 
ATOM     62  C   UNL A   1      38.414  30.148  32.201  1.00  0.00     0.131 A 
ATOM     63  C   UNL A   1      36.547  31.488  30.662  1.00  0.00     0.055 A 
ATOM     64  C   UNL A   1      37.206  30.544  32.774  1.00  0.00     0.041 A 
ATOM     65  F   UNL A   1      39.310  29.537  32.993  1.00  0.00    -0.206 F 
ATOM     66  C   UNL A   1      36.266  31.226  32.005  1.00  0.00     0.022 A 
BRANCH  63  67
ATOM     67  S   UNL A   1      35.412  32.505  29.680  1.00  0.00     0.124 S 
ATOM     68  O   UNL A   1      34.419  32.890  30.680  1.00  0.00    -0.237 OA
ATOM     69  O   UNL A   1      36.280  33.574  29.199  1.00  0.00    -0.237 OA
ATOM     70  O   UNL A   1      34.929  31.586  28.652  1.00  0.00    -0.744 OA
ENDBRANCH  63  67
ENDBRANCH  46  60
BRANCH  47  71
ATOM     71  C   UNL A   1      46.979  27.086  26.281  1.00  0.00     0.023 A 
ATOM     72  C   UNL A   1      48.020  26.382  26.906  1.00  0.00     0.031 A 
ATOM     73  C   UNL A   1      47.140  27.435  24.928  1.00  0.00     0.131 A 
ATOM     74  C   UNL A   1      49.199  26.101  26.199  1.00  0.00     0.055 A 
ATOM     75  C   UNL A   1      48.292  27.103  24.212  1.00  0.00     0.041 A 
ATOM     76  F   UNL A   1      46.176  28.107  24.280  1.00  0.00    -0.206 F 
ATOM     77  C   UNL A   1      49.337  26.447  24.853  1.00  0.00     0.022 A 
BRANCH  74  78
ATOM     78  S   UNL A   1      50.597  25.375  27.099  1.00  0.00     0.124 S 
ATOM     79  O   UNL A   1      51.468  24.956  26.006  1.00  0.00    -0.237 OA
ATOM     80  O   UNL A   1      51.065  26.505  27.893  1.00  0.00    -0.237 OA
ATOM     81  O   UNL A   1      49.985  24.289  27.860  1.00  0.00    -0.744 OA
ENDBRANCH  74  78
ENDBRANCH  47  71
BRANCH  59  82
ATOM     82  C   UNL A   1      45.357  32.943  29.679  1.00  0.00     0.023 A 
ATOM     83  C   UNL A   1      45.321  34.044  28.805  1.00  0.00     0.031 A 
ATOM     84  C   UNL A   1      46.165  33.030  30.826  1.00  0.00     0.131 A 
ATOM     85  C   UNL A   1      46.120  35.167  29.066  1.00  0.00     0.055 A 
ATOM     86  C   UNL A   1      46.913  34.173  31.110  1.00  0.00     0.041 A 
ATOM     87  F   UNL A   1      46.236  32.006  31.691  1.00  0.00    -0.206 F 
ATOM     88  C   UNL A   1      46.902  35.246  30.222  1.00  0.00     0.022 A 
BRANCH  85  89
ATOM     89  S   UNL A   1      46.180  36.498  27.836  1.00  0.00     0.124 S 
ATOM     90  O   UNL A   1      44.897  36.343  27.159  1.00  0.00    -0.237 OA
ATOM     91  O   UNL A   1      46.321  37.689  28.669  1.00  0.00    -0.237 OA
ATOM     92  O   UNL A   1      47.352  36.166  27.028  1.00  0.00    -0.744 OA
ENDBRANCH  85  89
ENDBRANCH  59  82
ENDBRANCH  33  34
ENDBRANCH  25  28
ENDBRANCH  23  24
ENDBRANCH  22  23
ENDBRANCH   1  22
TORSDOF 17
ENDMDL
MODEL 2
REMARK VINA RESULT:     -11.7      4.176      7.928
REMARK SMILES C[C@@H](C(=O)NCCCCNC(=O)c1ccc(-c2c3nc(c(-c4cc(S(=O)(=O)[O-])ccc4F)c4ccc([nH]4)c(-c4cc(S(=O)(=O)[O-])ccc4F)c4nc(c(-c5cc(S(=O)(=O)[O-])ccc5F)c5ccc2[nH]5)C=C4)C=C3)cc1)c1ccc(Cc2ccoc2)cc1F
REMARK SMILES IDX 7 1 6 2 5 3 3 4 4 5 2 7 1 8 76 9 77 10 87 11 78 12 86 13
REMARK SMILES IDX 88 14 79 15 80 16 81 17 82 18 85 19 83 20 84 21 8 22 9 23
REMARK SMILES IDX 10 24 11 25 12 27 13 28 14 29 75 30 15 31 74 32 16 33 17 34
REMARK SMILES IDX 18 35 68 36 19 37 73 38 67 39 69 40 20 41 72 42 66 43 65 44
REMARK SMILES IDX 21 46 53 47 33 48 52 49 34 50 37 51 51 52 70 53 35 54 36 55
REMARK SMILES IDX 50 57 71 58 38 59 22 60 23 61 31 62 24 63 30 64 32 65 29 66
REMARK SMILES IDX 25 67 26 68 27 69 28 70 54 71 55 72 63 73 56 74 62 75 64 76
REMARK SMILES IDX 61 77 57 78 58 79 59 80 60 81 39 82 40 83 48 84 41 85 47 86
REMARK SMILES IDX 49 87 46 88 42 89 43 90 44 91 45 92
REMARK H PARENT 5 6 10 26 69 45 37 56
REMARK Flexibility Score: inf
ROOT
ATOM      1  C   UNL A   1      31.531  29.628  25.169  1.00  0.00     0.023 C 
ENDROOT
BRANCH   1   2
ATOM      2  C   UNL A   1      31.140  29.132  23.777  1.00  0.00     0.116 C 
BRANCH   2   3
ATOM      3  N   UNL A   1      30.665  27.762  23.795  1.00  0.00    -0.356 N 
ATOM      4  C   UNL A   1      31.349  26.580  23.722  1.00  0.00     0.227 C 
ATOM      5  O   UNL A   1      30.689  25.555  23.902  1.00  0.00    -0.274 OA
ATOM      6  H   UNL A   1      29.689  27.667  23.872  1.00  0.00     0.163 HD
BRANCH   4   7
ATOM      7  C   UNL A   1      32.874  26.574  23.510  1.00  0.00     0.108 C 
ATOM      8  C   UNL A   1      33.291  26.965  22.089  1.00  0.00     0.023 C 
BRANCH   7   9
ATOM      9  C   UNL A   1      33.517  25.234  23.858  1.00  0.00    -0.000 A 
ATOM     10  C   UNL A   1      33.718  24.265  22.865  1.00  0.00     0.008 A 
ATOM     11  C   UNL A   1      33.883  24.917  25.171  1.00  0.00     0.127 A 
ATOM     12  C   UNL A   1      34.269  23.020  23.188  1.00  0.00     0.004 A 
ATOM     13  C   UNL A   1      34.430  23.677  25.499  1.00  0.00     0.043 A 
ATOM     14  F   UNL A   1      33.687  25.803  26.158  1.00  0.00    -0.207 F 
ATOM     15  C   UNL A   1      34.628  22.707  24.509  1.00  0.00    -0.041 A 
BRANCH  15  16
ATOM     16  C   UNL A   1      35.231  21.368  24.854  1.00  0.00     0.074 C 
BRANCH  16  17
ATOM     17  C   UNL A   1      34.121  20.373  24.878  1.00  0.00    -0.005 A 
ATOM     18  C   UNL A   1      34.165  18.991  24.523  1.00  0.00     0.046 A 
ATOM     19  C   UNL A   1      32.826  20.585  25.315  1.00  0.00     0.198 A 
ATOM     20  C   UNL A   1      32.911  18.481  24.757  1.00  0.00     0.195 A 
ATOM     21  O   UNL A   1      32.094  19.445  25.245  1.00  0.00    -0.472 OA
ENDBRANCH  16  17
ENDBRANCH  15  16
ENDBRANCH   7   9
ENDBRANCH   4   7
ENDBRANCH   2   3
ENDBRANCH   1   2
BRANCH   1  22
ATOM     22  C   UNL A   1      33.032  29.608  25.473  1.00  0.00     0.023 C 
BRANCH  22  23
ATOM     23  C   UNL A   1      33.414  29.608  26.950  1.00  0.00     0.116 C 
BRANCH  23  24
ATOM     24  N   UNL A   1      33.553  30.946  27.505  1.00  0.00    -0.352 N 
ATOM     25  C   UNL A   1      34.555  31.462  28.293  1.00  0.00     0.251 C 
ATOM     26  H   UNL A   1      32.825  31.571  27.284  1.00  0.00     0.163 HD
ATOM     27  O   UNL A   1      34.437  32.591  28.764  1.00  0.00    -0.269 OA
BRANCH  25  28
ATOM     28  C   UNL A   1      35.745  30.642  28.608  1.00  0.00     0.039 A 
ATOM     29  C   UNL A   1      36.851  30.706  27.756  1.00  0.00     0.014 A 
ATOM     30  C   UNL A   1      35.787  29.844  29.755  1.00  0.00     0.014 A 
ATOM     31  C   UNL A   1      38.034  30.049  28.105  1.00  0.00     0.010 A 
ATOM     32  C   UNL A   1      36.984  29.236  30.130  1.00  0.00     0.010 A 
ATOM     33  C   UNL A   1      38.126  29.354  29.323  1.00  0.00    -0.014 A 
BRANCH  33  34
ATOM     34  C   UNL A   1      39.423  28.808  29.805  1.00  0.00     0.031 A 
ATOM     35  C   UNL A   1      40.202  29.523  30.873  1.00  0.00     0.074 A 
ATOM     36  C   UNL A   1      39.940  27.717  29.203  1.00  0.00     0.049 A 
ATOM     37  N   UNL A   1      41.397  29.264  31.335  1.00  0.00    -0.248 NA
ATOM     38  C   UNL A   1      39.561  30.696  31.487  1.00  0.00     0.031 C 
ATOM     39  C   UNL A   1      39.293  26.962  28.125  1.00  0.00     0.029 A 
ATOM     40  N   UNL A   1      41.134  27.065  29.391  1.00  0.00    -0.354 N 
ATOM     41  C   UNL A   1      41.663  30.248  32.280  1.00  0.00     0.074 A 
ATOM     42  C   UNL A   1      40.514  31.130  32.300  1.00  0.00     0.031 C 
ATOM     43  C   UNL A   1      40.097  25.953  27.751  1.00  0.00     0.029 A 
ATOM     44  C   UNL A   1      41.333  26.015  28.522  1.00  0.00     0.049 A 
ATOM     45  H   UNL A   1      41.785  27.323  30.081  1.00  0.00     0.167 HD
ATOM     46  C   UNL A   1      42.759  30.393  33.065  1.00  0.00     0.034 A 
ATOM     47  C   UNL A   1      42.402  25.212  28.344  1.00  0.00     0.034 A 
ATOM     48  C   UNL A   1      43.887  29.494  33.048  1.00  0.00     0.049 A 
ATOM     49  C   UNL A   1      43.620  25.419  29.210  1.00  0.00     0.074 A 
ATOM     50  C   UNL A   1      45.001  29.496  33.871  1.00  0.00     0.029 A 
ATOM     51  N   UNL A   1      44.058  28.445  32.154  1.00  0.00    -0.354 N 
ATOM     52  N   UNL A   1      43.819  26.309  30.154  1.00  0.00    -0.248 NA
ATOM     53  C   UNL A   1      44.754  24.513  28.988  1.00  0.00     0.031 C 
ATOM     54  C   UNL A   1      45.874  28.495  33.431  1.00  0.00     0.029 A 
ATOM     55  C   UNL A   1      45.277  27.824  32.377  1.00  0.00     0.049 A 
ATOM     56  H   UNL A   1      43.407  28.181  31.464  1.00  0.00     0.167 HD
ATOM     57  C   UNL A   1      45.094  26.054  30.650  1.00  0.00     0.074 A 
ATOM     58  C   UNL A   1      45.607  24.914  29.918  1.00  0.00     0.031 C 
ATOM     59  C   UNL A   1      45.783  26.701  31.624  1.00  0.00     0.034 A 
BRANCH  46  60
ATOM     60  C   UNL A   1      42.809  31.580  33.992  1.00  0.00     0.023 A 
ATOM     61  C   UNL A   1      42.385  31.495  35.329  1.00  0.00     0.031 A 
ATOM     62  C   UNL A   1      43.314  32.811  33.536  1.00  0.00     0.131 A 
ATOM     63  C   UNL A   1      42.429  32.632  36.149  1.00  0.00     0.055 A 
ATOM     64  C   UNL A   1      43.415  33.921  34.375  1.00  0.00     0.041 A 
ATOM     65  F   UNL A   1      43.716  32.953  32.262  1.00  0.00    -0.206 F 
ATOM     66  C   UNL A   1      42.963  33.838  35.689  1.00  0.00     0.022 A 
BRANCH  63  67
ATOM     67  S   UNL A   1      41.695  32.539  37.805  1.00  0.00     0.124 S 
ATOM     68  O   UNL A   1      41.963  33.879  38.322  1.00  0.00    -0.237 OA
ATOM     69  O   UNL A   1      40.299  32.234  37.516  1.00  0.00    -0.237 OA
ATOM     70  O   UNL A   1      42.445  31.466  38.453  1.00  0.00    -0.744 OA
ENDBRANCH  63  67
ENDBRANCH  46  60
BRANCH  47  71
ATOM     71  C   UNL A   1      42.403  24.168  27.278  1.00  0.00     0.023 A 
ATOM     72  C   UNL A   1      41.785  22.925  27.483  1.00  0.00     0.031 A 
ATOM     73  C   UNL A   1      43.084  24.374  26.065  1.00  0.00     0.131 A 
ATOM     74  C   UNL A   1      41.909  21.914  26.518  1.00  0.00     0.055 A 
ATOM     75  C   UNL A   1      43.156  23.385  25.082  1.00  0.00     0.041 A 
ATOM     76  F   UNL A   1      43.691  25.545  25.816  1.00  0.00    -0.206 F 
ATOM     77  C   UNL A   1      42.580  22.140  25.313  1.00  0.00     0.022 A 
BRANCH  74  78
ATOM     78  S   UNL A   1      41.274  20.260  26.907  1.00  0.00     0.124 S 
ATOM     79  O   UNL A   1      40.238  20.093  25.893  1.00  0.00    -0.237 OA
ATOM     80  O   UNL A   1      42.466  19.434  26.749  1.00  0.00    -0.237 OA
ATOM     81  O   UNL A   1      40.789  20.396  28.279  1.00  0.00    -0.744 OA
ENDBRANCH  74  78
ENDBRANCH  47  71
BRANCH  59  82
ATOM     82  C   UNL A   1      47.152  26.168  31.961  1.00  0.00     0.023 A 
ATOM     83  C   UNL A   1      48.276  26.491  31.182  1.00  0.00     0.031 A 
ATOM     84  C   UNL A   1      47.330  25.317  33.065  1.00  0.00     0.131 A 
ATOM     85  C   UNL A   1      49.523  25.924  31.488  1.00  0.00     0.055 A 
ATOM     86  C   UNL A   1      48.583  24.801  33.398  1.00  0.00     0.041 A 
ATOM     87  F   UNL A   1      46.289  24.975  33.841  1.00  0.00    -0.206 F 
ATOM     88  C   UNL A   1      49.686  25.096  32.601  1.00  0.00     0.022 A 
BRANCH  85  89
ATOM     89  S   UNL A   1      50.916  26.226  30.367  1.00  0.00     0.124 S 
ATOM     90  O   UNL A   1      50.873  27.677  30.215  1.00  0.00    -0.237 OA
ATOM     91  O   UNL A   1      52.047  25.699  31.123  1.00  0.00    -0.237 OA
ATOM     92  O   UNL A   1      50.564  25.465  29.169  1.00  0.00    -0.744 OA
ENDBRANCH  85  89
ENDBRANCH  59  82
ENDBRANCH  33  34
ENDBRANCH  25  28
ENDBRANCH  23  24
ENDBRANCH  22  23
ENDBRANCH   1  22
TORSDOF 17
ENDMDL
MODEL 3
REMARK VINA RESULT:     -11.6      5.517     10.112
REMARK SMILES C[C@@H](C(=O)NCCCCNC(=O)c1ccc(-c2c3nc(c(-c4cc(S(=O)(=O)[O-])ccc4F)c4ccc([nH]4)c(-c4cc(S(=O)(=O)[O-])ccc4F)c4nc(c(-c5cc(S(=O)(=O)[O-])ccc5F)c5ccc2[nH]5)C=C4)C=C3)cc1)c1ccc(Cc2ccoc2)cc1F
REMARK SMILES IDX 7 1 6 2 5 3 3 4 4 5 2 7 1 8 76 9 77 10 87 11 78 12 86 13
REMARK SMILES IDX 88 14 79 15 80 16 81 17 82 18 85 19 83 20 84 21 8 22 9 23
REMARK SMILES IDX 10 24 11 25 12 27 13 28 14 29 75 30 15 31 74 32 16 33 17 34
REMARK SMILES IDX 18 35 68 36 19 37 73 38 67 39 69 40 20 41 72 42 66 43 65 44
REMARK SMILES IDX 21 46 53 47 33 48 52 49 34 50 37 51 51 52 70 53 35 54 36 55
REMARK SMILES IDX 50 57 71 58 38 59 22 60 23 61 31 62 24 63 30 64 32 65 29 66
REMARK SMILES IDX 25 67 26 68 27 69 28 70 54 71 55 72 63 73 56 74 62 75 64 76
REMARK SMILES IDX 61 77 57 78 58 79 59 80 60 81 39 82 40 83 48 84 41 85 47 86
REMARK SMILES IDX 49 87 46 88 42 89 43 90 44 91 45 92
REMARK H PARENT 5 6 10 26 69 45 37 56
REMARK Flexibility Score: inf
ROOT
ATOM      1  C   UNL A   1      32.418  29.822  25.787  1.00  0.00     0.023 C 
ENDROOT
BRANCH   1   2
ATOM      2  C   UNL A   1      33.514  28.757  25.827  1.00  0.00     0.116 C 
BRANCH   2   3
ATOM      3  N   UNL A   1      33.052  27.513  26.410  1.00  0.00    -0.356 N 
ATOM      4  C   UNL A   1      32.594  26.367  25.820  1.00  0.00     0.227 C 
ATOM      5  O   UNL A   1      32.397  25.408  26.569  1.00  0.00    -0.274 OA
ATOM      6  H   UNL A   1      33.071  27.489  27.393  1.00  0.00     0.163 HD
BRANCH   4   7
ATOM      7  C   UNL A   1      32.425  26.291  24.291  1.00  0.00     0.108 C 
ATOM      8  C   UNL A   1      33.626  26.847  23.520  1.00  0.00     0.023 C 
BRANCH   7   9
ATOM      9  C   UNL A   1      31.160  26.986  23.797  1.00  0.00    -0.000 A 
ATOM     10  C   UNL A   1      31.246  28.063  22.904  1.00  0.00     0.008 A 
ATOM     11  C   UNL A   1      29.891  26.604  24.248  1.00  0.00     0.127 A 
ATOM     12  C   UNL A   1      30.091  28.729  22.481  1.00  0.00     0.004 A 
ATOM     13  C   UNL A   1      28.737  27.266  23.831  1.00  0.00     0.043 A 
ATOM     14  F   UNL A   1      29.762  25.595  25.121  1.00  0.00    -0.207 F 
ATOM     15  C   UNL A   1      28.822  28.343  22.942  1.00  0.00    -0.041 A 
BRANCH  15  16
ATOM     16  C   UNL A   1      27.576  29.057  22.477  1.00  0.00     0.074 C 
BRANCH  16  17
ATOM     17  C   UNL A   1      27.871  30.519  22.486  1.00  0.00    -0.005 A 
ATOM     18  C   UNL A   1      28.196  31.362  21.380  1.00  0.00     0.046 A 
ATOM     19  C   UNL A   1      27.828  31.367  23.577  1.00  0.00     0.198 A 
ATOM     20  C   UNL A   1      28.333  32.635  21.879  1.00  0.00     0.195 A 
ATOM     21  O   UNL A   1      28.104  32.644  23.214  1.00  0.00    -0.472 OA
ENDBRANCH  16  17
ENDBRANCH  15  16
ENDBRANCH   7   9
ENDBRANCH   4   7
ENDBRANCH   2   3
ENDBRANCH   1   2
BRANCH   1  22
ATOM     22  C   UNL A   1      32.310  30.697  27.040  1.00  0.00     0.023 C 
BRANCH  22  23
ATOM     23  C   UNL A   1      33.413  31.734  27.227  1.00  0.00     0.116 C 
BRANCH  23  24
ATOM     24  N   UNL A   1      32.902  33.070  27.495  1.00  0.00    -0.352 N 
ATOM     25  C   UNL A   1      33.299  33.979  28.448  1.00  0.00     0.251 C 
ATOM     26  H   UNL A   1      32.167  33.365  26.910  1.00  0.00     0.163 HD
ATOM     27  O   UNL A   1      32.664  35.020  28.596  1.00  0.00    -0.269 OA
BRANCH  25  28
ATOM     28  C   UNL A   1      34.457  33.681  29.318  1.00  0.00     0.039 A 
ATOM     29  C   UNL A   1      34.287  32.792  30.383  1.00  0.00     0.014 A 
ATOM     30  C   UNL A   1      35.711  34.244  29.066  1.00  0.00     0.014 A 
ATOM     31  C   UNL A   1      35.396  32.390  31.133  1.00  0.00     0.010 A 
ATOM     32  C   UNL A   1      36.824  33.799  29.778  1.00  0.00     0.010 A 
ATOM     33  C   UNL A   1      36.682  32.849  30.801  1.00  0.00    -0.014 A 
BRANCH  33  34
ATOM     34  C   UNL A   1      37.894  32.294  31.459  1.00  0.00     0.031 A 
ATOM     35  C   UNL A   1      38.696  31.210  30.792  1.00  0.00     0.074 A 
ATOM     36  C   UNL A   1      38.212  32.704  32.704  1.00  0.00     0.049 A 
ATOM     37  N   UNL A   1      39.707  30.527  31.260  1.00  0.00    -0.248 NA
ATOM     38  C   UNL A   1      38.292  30.831  29.430  1.00  0.00     0.031 C 
ATOM     39  C   UNL A   1      37.483  33.721  33.469  1.00  0.00     0.029 A 
ATOM     40  N   UNL A   1      39.210  32.304  33.558  1.00  0.00    -0.354 N 
ATOM     41  C   UNL A   1      40.053  29.625  30.261  1.00  0.00     0.074 A 
ATOM     42  C   UNL A   1      39.118  29.827  29.173  1.00  0.00     0.031 C 
ATOM     43  C   UNL A   1      38.059  33.864  34.673  1.00  0.00     0.029 A 
ATOM     44  C   UNL A   1      39.164  32.918  34.790  1.00  0.00     0.049 A 
ATOM     45  H   UNL A   1      39.894  31.641  33.313  1.00  0.00     0.167 HD
ATOM     46  C   UNL A   1      41.064  28.722  30.250  1.00  0.00     0.034 A 
ATOM     47  C   UNL A   1      39.907  32.723  35.899  1.00  0.00     0.034 A 
ATOM     48  C   UNL A   1      42.001  28.547  31.333  1.00  0.00     0.049 A 
ATOM     49  C   UNL A   1      41.003  31.687  35.867  1.00  0.00     0.074 A 
ATOM     50  C   UNL A   1      43.118  27.730  31.381  1.00  0.00     0.029 A 
ATOM     51  N   UNL A   1      41.922  29.182  32.566  1.00  0.00    -0.354 N 
ATOM     52  N   UNL A   1      41.364  30.898  34.881  1.00  0.00    -0.248 NA
ATOM     53  C   UNL A   1      41.792  31.518  37.093  1.00  0.00     0.031 C 
ATOM     54  C   UNL A   1      43.672  27.818  32.662  1.00  0.00     0.029 A 
ATOM     55  C   UNL A   1      42.944  28.741  33.393  1.00  0.00     0.049 A 
ATOM     56  H   UNL A   1      41.241  29.848  32.814  1.00  0.00     0.167 HD
ATOM     57  C   UNL A   1      42.435  30.154  35.367  1.00  0.00     0.074 A 
ATOM     58  C   UNL A   1      42.676  30.605  36.722  1.00  0.00     0.031 C 
ATOM     59  C   UNL A   1      43.158  29.185  34.750  1.00  0.00     0.034 A 
BRANCH  46  60
ATOM     60  C   UNL A   1      41.200  27.832  29.041  1.00  0.00     0.023 A 
ATOM     61  C   UNL A   1      42.171  28.066  28.054  1.00  0.00     0.031 A 
ATOM     62  C   UNL A   1      40.357  26.715  28.889  1.00  0.00     0.131 A 
ATOM     63  C   UNL A   1      42.246  27.223  26.934  1.00  0.00     0.055 A 
ATOM     64  C   UNL A   1      40.479  25.844  27.806  1.00  0.00     0.041 A 
ATOM     65  F   UNL A   1      39.400  26.455  29.794  1.00  0.00    -0.206 F 
ATOM     66  C   UNL A   1      41.423  26.100  26.816  1.00  0.00     0.022 A 
BRANCH  63  67
ATOM     67  S   UNL A   1      43.377  27.665  25.588  1.00  0.00     0.124 S 
ATOM     68  O   UNL A   1      44.200  26.462  25.487  1.00  0.00    -0.237 OA
ATOM     69  O   UNL A   1      42.466  27.910  24.476  1.00  0.00    -0.237 OA
ATOM     70  O   UNL A   1      44.071  28.847  26.096  1.00  0.00    -0.744 OA
ENDBRANCH  63  67
ENDBRANCH  46  60
BRANCH  47  71
ATOM     71  C   UNL A   1      39.620  33.479  37.152  1.00  0.00     0.023 A 
ATOM     72  C   UNL A   1      40.410  34.575  37.531  1.00  0.00     0.031 A 
ATOM     73  C   UNL A   1      38.596  33.073  38.024  1.00  0.00     0.131 A 
ATOM     74  C   UNL A   1      40.203  35.191  38.775  1.00  0.00     0.055 A 
ATOM     75  C   UNL A   1      38.355  33.725  39.236  1.00  0.00     0.041 A 
ATOM     76  F   UNL A   1      37.808  32.032  37.711  1.00  0.00    -0.206 F 
ATOM     77  C   UNL A   1      39.173  34.780  39.625  1.00  0.00     0.022 A 
BRANCH  74  78
ATOM     78  S   UNL A   1      41.373  36.466  39.317  1.00  0.00     0.124 S 
ATOM     79  O   UNL A   1      40.693  37.689  38.904  1.00  0.00    -0.237 OA
ATOM     80  O   UNL A   1      41.440  36.224  40.754  1.00  0.00    -0.237 OA
ATOM     81  O   UNL A   1      42.591  36.149  38.576  1.00  0.00    -0.744 OA
ENDBRANCH  74  78
ENDBRANCH  47  71
BRANCH  59  82
ATOM     82  C   UNL A   1      44.289  28.573  35.536  1.00  0.00     0.023 A 
ATOM     83  C   UNL A   1      44.079  27.475  36.388  1.00  0.00     0.031 A 
ATOM     84  C   UNL A   1      45.587  29.103  35.442  1.00  0.00     0.131 A 
ATOM     85  C   UNL A   1      45.143  26.973  37.153  1.00  0.00     0.055 A 
ATOM     86  C   UNL A   1      46.653  28.564  36.163  1.00  0.00     0.041 A 
ATOM     87  F   UNL A   1      45.841  30.153  34.644  1.00  0.00    -0.206 F 
ATOM     88  C   UNL A   1      46.431  27.499  37.033  1.00  0.00     0.022 A 
BRANCH  85  89
ATOM     89  S   UNL A   1      44.804  25.667  38.365  1.00  0.00     0.124 S 
ATOM     90  O   UNL A   1      43.774  24.886  37.689  1.00  0.00    -0.237 OA
ATOM     91  O   UNL A   1      46.105  25.021  38.503  1.00  0.00    -0.237 OA
ATOM     92  O   UNL A   1      44.351  26.404  39.545  1.00  0.00    -0.744 OA
ENDBRANCH  85  89
ENDBRANCH  59  82
ENDBRANCH  33  34
ENDBRANCH  25  28
ENDBRANCH  23  24
ENDBRANCH  22  23
ENDBRANCH   1  22
TORSDOF 17
ENDMDL
