MODEL 1
REMARK VINA RESULT:     -12.8      0.000      0.000
REMARK SMILES O=C(NCCCCNC(=O)c1ccc(-c2c3nc(c(-c4cc(S(=O)(=O)[O-])ccc4F)c4ccc([nH]4)c(-c4cc(S(=O)(=O)[O-])ccc4F)c4nc(c(-c5cc(S(=O)(=O)[O-])ccc5F)c5ccc2[nH]5)C=C4)C=C3)cc1)C1=Cc2ccc(Cl)c(Cl)c2O[C@@H]1C(F)(F)F
REMARK SMILES IDX 6 1 5 2 4 3 3 4 1 5 2 6 74 8 75 9 85 10 76 11 84 12 77 13
REMARK SMILES IDX 83 14 78 15 81 16 79 17 82 18 80 19 86 20 87 21 88 22 89 23
REMARK SMILES IDX 7 24 8 25 9 26 10 28 11 29 12 30 73 31 13 32 72 33 14 34
REMARK SMILES IDX 15 35 16 36 66 37 17 38 71 39 65 40 67 41 18 42 70 43 64 44
REMARK SMILES IDX 63 45 19 47 51 48 31 49 50 50 32 51 35 52 49 53 68 54 33 55
REMARK SMILES IDX 34 56 48 58 69 59 36 60 20 61 21 62 29 63 22 64 28 65 30 66
REMARK SMILES IDX 27 67 23 68 24 69 25 70 26 71 52 72 53 73 61 74 54 75 60 76
REMARK SMILES IDX 62 77 59 78 55 79 56 80 57 81 58 82 37 83 38 84 46 85 39 86
REMARK SMILES IDX 45 87 47 88 44 89 40 90 41 91 42 92 43 93
REMARK H PARENT 3 7 8 27 67 46 35 57
REMARK Flexibility Score: inf
ROOT
ATOM      1  C   UNL A   1      36.895  20.016  24.968  1.00  0.00     0.023 C 
ENDROOT
BRANCH   1   2
ATOM      2  C   UNL A   1      35.566  20.764  25.074  1.00  0.00     0.023 C 
BRANCH   2   3
ATOM      3  C   UNL A   1      35.683  22.267  24.818  1.00  0.00     0.116 C 
BRANCH   3   4
ATOM      4  N   UNL A   1      35.137  22.690  23.524  1.00  0.00    -0.352 N 
ATOM      5  O   UNL A   1      34.100  24.116  22.086  1.00  0.00    -0.270 OA
ATOM      6  C   UNL A   1      34.276  23.723  23.231  1.00  0.00     0.251 C 
ATOM      7  H   UNL A   1      35.430  22.155  22.751  1.00  0.00     0.163 HD
BRANCH   6   8
ATOM      8  C   UNL A   1      33.611  24.381  24.369  1.00  0.00     0.067 C 
ATOM      9  C   UNL A   1      34.090  25.574  24.742  1.00  0.00     0.025 C 
ATOM     10  C   UNL A   1      32.258  23.884  24.766  1.00  0.00     0.314 C 
ATOM     11  C   UNL A   1      33.044  26.578  24.964  1.00  0.00     0.019 A 
ATOM     12  O   UNL A   1      31.258  24.928  24.694  1.00  0.00    -0.474 OA
ATOM     13  C   UNL A   1      33.436  27.919  24.925  1.00  0.00     0.013 A 
ATOM     14  C   UNL A   1      31.687  26.235  24.778  1.00  0.00     0.148 A 
ATOM     15  C   UNL A   1      32.505  28.905  24.603  1.00  0.00     0.023 A 
ATOM     16  C   UNL A   1      30.745  27.236  24.481  1.00  0.00     0.102 A 
ATOM     17  C   UNL A   1      31.169  28.566  24.363  1.00  0.00     0.063 A 
ATOM     18  Cl  UNL A   1      29.107  26.783  24.126  1.00  0.00    -0.079 Cl
ATOM     19  Cl  UNL A   1      30.117  29.832  23.842  1.00  0.00    -0.083 Cl
BRANCH  10  20
ATOM     20  C   UNL A   1      32.270  23.245  26.165  1.00  0.00     0.429 C 
ATOM     21  F   UNL A   1      31.063  23.366  26.771  1.00  0.00    -0.167 F 
ATOM     22  F   UNL A   1      32.553  21.923  26.120  1.00  0.00    -0.167 F 
ATOM     23  F   UNL A   1      33.183  23.823  26.984  1.00  0.00    -0.167 F 
ENDBRANCH  10  20
ENDBRANCH   6   8
ENDBRANCH   3   4
ENDBRANCH   2   3
ENDBRANCH   1   2
BRANCH   1  24
ATOM     24  C   UNL A   1      38.147  20.809  25.345  1.00  0.00     0.116 C 
BRANCH  24  25
ATOM     25  N   UNL A   1      39.275  19.991  25.768  1.00  0.00    -0.352 N 
ATOM     26  C   UNL A   1      40.369  20.374  26.520  1.00  0.00     0.251 C 
ATOM     27  H   UNL A   1      39.255  19.048  25.485  1.00  0.00     0.163 HD
ATOM     28  O   UNL A   1      41.279  19.582  26.745  1.00  0.00    -0.269 OA
BRANCH  26  29
ATOM     29  C   UNL A   1      40.452  21.775  26.989  1.00  0.00     0.039 A 
ATOM     30  C   UNL A   1      41.340  22.091  28.020  1.00  0.00     0.014 A 
ATOM     31  C   UNL A   1      39.758  22.782  26.316  1.00  0.00     0.014 A 
ATOM     32  C   UNL A   1      41.629  23.431  28.291  1.00  0.00     0.010 A 
ATOM     33  C   UNL A   1      40.102  24.111  26.539  1.00  0.00     0.010 A 
ATOM     34  C   UNL A   1      41.064  24.449  27.507  1.00  0.00    -0.014 A 
BRANCH  34  35
ATOM     35  C   UNL A   1      41.487  25.870  27.639  1.00  0.00     0.031 A 
ATOM     36  C   UNL A   1      42.811  26.307  27.073  1.00  0.00     0.074 A 
ATOM     37  C   UNL A   1      40.743  26.728  28.369  1.00  0.00     0.049 A 
ATOM     38  N   UNL A   1      43.447  27.437  27.233  1.00  0.00    -0.248 NA
ATOM     39  C   UNL A   1      43.529  25.322  26.250  1.00  0.00     0.031 C 
ATOM     40  C   UNL A   1      39.462  26.409  29.007  1.00  0.00     0.029 A 
ATOM     41  N   UNL A   1      40.966  28.037  28.724  1.00  0.00    -0.354 N 
ATOM     42  C   UNL A   1      44.659  27.286  26.567  1.00  0.00     0.074 A 
ATOM     43  C   UNL A   1      44.679  25.941  26.031  1.00  0.00     0.031 C 
ATOM     44  C   UNL A   1      39.012  27.492  29.662  1.00  0.00     0.029 A 
ATOM     45  C   UNL A   1      39.990  28.567  29.540  1.00  0.00     0.049 A 
ATOM     46  H   UNL A   1      41.751  28.549  28.422  1.00  0.00     0.167 HD
ATOM     47  C   UNL A   1      45.657  28.189  26.412  1.00  0.00     0.034 A 
ATOM     48  C   UNL A   1      39.905  29.773  30.139  1.00  0.00     0.034 A 
ATOM     49  C   UNL A   1      45.599  29.540  26.912  1.00  0.00     0.049 A 
ATOM     50  C   UNL A   1      41.021  30.768  29.927  1.00  0.00     0.074 A 
ATOM     51  C   UNL A   1      46.513  30.564  26.733  1.00  0.00     0.029 A 
ATOM     52  N   UNL A   1      44.570  30.056  27.688  1.00  0.00    -0.354 N 
ATOM     53  N   UNL A   1      42.132  30.626  29.243  1.00  0.00    -0.248 NA
ATOM     54  C   UNL A   1      40.870  32.084  30.562  1.00  0.00     0.031 C 
ATOM     55  C   UNL A   1      46.064  31.681  27.445  1.00  0.00     0.029 A 
ATOM     56  C   UNL A   1      44.839  31.375  28.016  1.00  0.00     0.049 A 
ATOM     57  H   UNL A   1      43.767  29.558  27.965  1.00  0.00     0.167 HD
ATOM     58  C   UNL A   1      42.790  31.851  29.331  1.00  0.00     0.074 A 
ATOM     59  C   UNL A   1      41.950  32.719  30.128  1.00  0.00     0.031 C 
ATOM     60  C   UNL A   1      43.979  32.227  28.797  1.00  0.00     0.034 A 
BRANCH  47  61
ATOM     61  C   UNL A   1      46.905  27.739  25.697  1.00  0.00     0.023 A 
ATOM     62  C   UNL A   1      47.115  28.004  24.333  1.00  0.00     0.031 A 
ATOM     63  C   UNL A   1      47.900  27.029  26.393  1.00  0.00     0.131 A 
ATOM     64  C   UNL A   1      48.262  27.508  23.694  1.00  0.00     0.055 A 
ATOM     65  C   UNL A   1      49.072  26.602  25.768  1.00  0.00     0.041 A 
ATOM     66  F   UNL A   1      47.744  26.732  27.693  1.00  0.00    -0.206 F 
ATOM     67  C   UNL A   1      49.253  26.830  24.407  1.00  0.00     0.022 A 
BRANCH  64  68
ATOM     68  S   UNL A   1      48.386  27.667  21.893  1.00  0.00     0.124 S 
ATOM     69  O   UNL A   1      47.076  28.219  21.557  1.00  0.00    -0.237 OA
ATOM     70  O   UNL A   1      49.519  28.569  21.731  1.00  0.00    -0.237 OA
ATOM     71  O   UNL A   1      48.612  26.295  21.442  1.00  0.00    -0.744 OA
ENDBRANCH  64  68
ENDBRANCH  47  61
BRANCH  48  72
ATOM     72  C   UNL A   1      38.747  30.118  31.015  1.00  0.00     0.023 A 
ATOM     73  C   UNL A   1      37.649  30.834  30.510  1.00  0.00     0.031 A 
ATOM     74  C   UNL A   1      38.751  29.807  32.387  1.00  0.00     0.131 A 
ATOM     75  C   UNL A   1      36.635  31.271  31.378  1.00  0.00     0.055 A 
ATOM     76  C   UNL A   1      37.712  30.194  33.236  1.00  0.00     0.041 A 
ATOM     77  F   UNL A   1      39.772  29.119  32.924  1.00  0.00    -0.206 F 
ATOM     78  C   UNL A   1      36.654  30.947  32.736  1.00  0.00     0.022 A 
BRANCH  75  79
ATOM     79  S   UNL A   1      35.351  32.375  30.725  1.00  0.00     0.124 S 
ATOM     80  O   UNL A   1      34.332  32.294  31.766  1.00  0.00    -0.237 OA
ATOM     81  O   UNL A   1      36.068  33.642  30.625  1.00  0.00    -0.237 OA
ATOM     82  O   UNL A   1      34.992  31.760  29.449  1.00  0.00    -0.744 OA
ENDBRANCH  75  79
ENDBRANCH  48  72
BRANCH  60  83
ATOM     83  C   UNL A   1      44.400  33.660  29.000  1.00  0.00     0.023 A 
ATOM     84  C   UNL A   1      43.860  34.707  28.237  1.00  0.00     0.031 A 
ATOM     85  C   UNL A   1      45.351  33.976  29.987  1.00  0.00     0.131 A 
ATOM     86  C   UNL A   1      44.307  36.020  28.441  1.00  0.00     0.055 A 
ATOM     87  C   UNL A   1      45.755  35.290  30.221  1.00  0.00     0.041 A 
ATOM     88  F   UNL A   1      45.897  33.011  30.744  1.00  0.00    -0.206 F 
ATOM     89  C   UNL A   1      45.239  36.320  29.440  1.00  0.00     0.022 A 
BRANCH  86  90
ATOM     90  S   UNL A   1      43.698  37.330  27.344  1.00  0.00     0.124 S 
ATOM     91  O   UNL A   1      44.940  37.917  26.853  1.00  0.00    -0.237 OA
ATOM     92  O   UNL A   1      42.917  36.580  26.365  1.00  0.00    -0.237 OA
ATOM     93  O   UNL A   1      42.916  38.187  28.234  1.00  0.00    -0.744 OA
ENDBRANCH  86  90
ENDBRANCH  60  83
ENDBRANCH  34  35
ENDBRANCH  26  29
ENDBRANCH  24  25
ENDBRANCH   1  24
TORSDOF 15
ENDMDL
MODEL 2
REMARK VINA RESULT:     -12.6      0.945      7.543
REMARK SMILES O=C(NCCCCNC(=O)c1ccc(-c2c3nc(c(-c4cc(S(=O)(=O)[O-])ccc4F)c4ccc([nH]4)c(-c4cc(S(=O)(=O)[O-])ccc4F)c4nc(c(-c5cc(S(=O)(=O)[O-])ccc5F)c5ccc2[nH]5)C=C4)C=C3)cc1)C1=Cc2ccc(Cl)c(Cl)c2O[C@@H]1C(F)(F)F
REMARK SMILES IDX 6 1 5 2 4 3 3 4 1 5 2 6 74 8 75 9 85 10 76 11 84 12 77 13
REMARK SMILES IDX 83 14 78 15 81 16 79 17 82 18 80 19 86 20 87 21 88 22 89 23
REMARK SMILES IDX 7 24 8 25 9 26 10 28 11 29 12 30 73 31 13 32 72 33 14 34
REMARK SMILES IDX 15 35 16 36 66 37 17 38 71 39 65 40 67 41 18 42 70 43 64 44
REMARK SMILES IDX 63 45 19 47 51 48 31 49 50 50 32 51 35 52 49 53 68 54 33 55
REMARK SMILES IDX 34 56 48 58 69 59 36 60 20 61 21 62 29 63 22 64 28 65 30 66
REMARK SMILES IDX 27 67 23 68 24 69 25 70 26 71 52 72 53 73 61 74 54 75 60 76
REMARK SMILES IDX 62 77 59 78 55 79 56 80 57 81 58 82 37 83 38 84 46 85 39 86
REMARK SMILES IDX 45 87 47 88 44 89 40 90 41 91 42 92 43 93
REMARK H PARENT 3 7 8 27 67 46 35 57
REMARK Flexibility Score: inf
ROOT
ATOM      1  C   UNL A   1      36.360  20.651  25.004  1.00  0.00     0.023 C 
ENDROOT
BRANCH   1   2
ATOM      2  C   UNL A   1      35.168  21.593  25.171  1.00  0.00     0.023 C 
BRANCH   2   3
ATOM      3  C   UNL A   1      35.319  22.918  24.420  1.00  0.00     0.116 C 
BRANCH   3   4
ATOM      4  N   UNL A   1      34.589  22.963  23.150  1.00  0.00    -0.352 N 
ATOM      5  O   UNL A   1      33.318  23.934  21.532  1.00  0.00    -0.270 OA
ATOM      6  C   UNL A   1      33.662  23.878  22.704  1.00  0.00     0.251 C 
ATOM      7  H   UNL A   1      34.790  22.230  22.524  1.00  0.00     0.163 HD
BRANCH   6   8
ATOM      8  C   UNL A   1      33.137  24.834  23.695  1.00  0.00     0.067 C 
ATOM      9  C   UNL A   1      33.460  26.121  23.522  1.00  0.00     0.025 C 
ATOM     10  C   UNL A   1      32.006  24.385  24.564  1.00  0.00     0.314 C 
ATOM     11  C   UNL A   1      32.319  27.032  23.663  1.00  0.00     0.019 A 
ATOM     12  O   UNL A   1      30.842  25.232  24.411  1.00  0.00    -0.474 OA
ATOM     13  C   UNL A   1      32.448  28.301  23.089  1.00  0.00     0.013 A 
ATOM     14  C   UNL A   1      31.037  26.517  23.952  1.00  0.00     0.148 A 
ATOM     15  C   UNL A   1      31.308  29.010  22.712  1.00  0.00     0.023 A 
ATOM     16  C   UNL A   1      29.890  27.247  23.595  1.00  0.00     0.102 A 
ATOM     17  C   UNL A   1      30.035  28.480  22.945  1.00  0.00     0.063 A 
ATOM     18  Cl  UNL A   1      28.323  26.541  23.838  1.00  0.00    -0.079 Cl
ATOM     19  Cl  UNL A   1      28.688  29.366  22.325  1.00  0.00    -0.083 Cl
BRANCH  10  20
ATOM     20  C   UNL A   1      32.420  24.298  26.042  1.00  0.00     0.429 C 
ATOM     21  F   UNL A   1      32.513  23.008  26.451  1.00  0.00    -0.167 F 
ATOM     22  F   UNL A   1      33.627  24.866  26.269  1.00  0.00    -0.167 F 
ATOM     23  F   UNL A   1      31.529  24.909  26.861  1.00  0.00    -0.167 F 
ENDBRANCH  10  20
ENDBRANCH   6   8
ENDBRANCH   3   4
ENDBRANCH   2   3
ENDBRANCH   1   2
BRANCH   1  24
ATOM     24  C   UNL A   1      37.742  21.264  25.235  1.00  0.00     0.116 C 
BRANCH  24  25
ATOM     25  N   UNL A   1      38.800  20.292  25.470  1.00  0.00    -0.352 N 
ATOM     26  C   UNL A   1      39.976  20.469  26.174  1.00  0.00     0.251 C 
ATOM     27  H   UNL A   1      38.661  19.399  25.080  1.00  0.00     0.163 HD
ATOM     28  O   UNL A   1      40.809  19.569  26.233  1.00  0.00    -0.269 OA
BRANCH  26  29
ATOM     29  C   UNL A   1      40.239  21.785  26.797  1.00  0.00     0.039 A 
ATOM     30  C   UNL A   1      41.057  21.846  27.928  1.00  0.00     0.014 A 
ATOM     31  C   UNL A   1      39.791  22.954  26.180  1.00  0.00     0.014 A 
ATOM     32  C   UNL A   1      41.532  23.085  28.365  1.00  0.00     0.010 A 
ATOM     33  C   UNL A   1      40.324  24.178  26.573  1.00  0.00     0.010 A 
ATOM     34  C   UNL A   1      41.224  24.254  27.650  1.00  0.00    -0.014 A 
BRANCH  34  35
ATOM     35  C   UNL A   1      41.859  25.562  27.970  1.00  0.00     0.031 A 
ATOM     36  C   UNL A   1      41.057  26.624  28.673  1.00  0.00     0.074 A 
ATOM     37  C   UNL A   1      43.102  25.834  27.522  1.00  0.00     0.049 A 
ATOM     38  N   UNL A   1      41.352  27.880  28.882  1.00  0.00    -0.248 NA
ATOM     39  C   UNL A   1      39.732  26.224  29.170  1.00  0.00     0.031 C 
ATOM     40  C   UNL A   1      43.962  24.900  26.787  1.00  0.00     0.029 A 
ATOM     41  N   UNL A   1      43.855  26.982  27.591  1.00  0.00    -0.354 N 
ATOM     42  C   UNL A   1      40.233  28.432  29.498  1.00  0.00     0.074 A 
ATOM     43  C   UNL A   1      39.244  27.379  29.596  1.00  0.00     0.031 C 
ATOM     44  C   UNL A   1      45.122  25.509  26.487  1.00  0.00     0.029 A 
ATOM     45  C   UNL A   1      45.074  26.889  26.955  1.00  0.00     0.049 A 
ATOM     46  H   UNL A   1      43.550  27.796  28.053  1.00  0.00     0.167 HD
ATOM     47  C   UNL A   1      40.053  29.699  29.945  1.00  0.00     0.034 A 
ATOM     48  C   UNL A   1      46.033  27.817  26.754  1.00  0.00     0.034 A 
ATOM     49  C   UNL A   1      41.067  30.721  29.884  1.00  0.00     0.049 A 
ATOM     50  C   UNL A   1      45.815  29.213  27.286  1.00  0.00     0.074 A 
ATOM     51  C   UNL A   1      41.023  32.009  30.390  1.00  0.00     0.029 A 
ATOM     52  N   UNL A   1      42.308  30.573  29.280  1.00  0.00    -0.354 N 
ATOM     53  N   UNL A   1      44.772  29.699  27.920  1.00  0.00    -0.248 NA
ATOM     54  C   UNL A   1      46.900  30.181  27.084  1.00  0.00     0.031 C 
ATOM     55  C   UNL A   1      42.213  32.656  30.044  1.00  0.00     0.029 A 
ATOM     56  C   UNL A   1      43.027  31.753  29.380  1.00  0.00     0.049 A 
ATOM     57  H   UNL A   1      42.630  29.750  28.845  1.00  0.00     0.167 HD
ATOM     58  C   UNL A   1      45.098  31.018  28.227  1.00  0.00     0.074 A 
ATOM     59  C   UNL A   1      46.432  31.248  27.716  1.00  0.00     0.031 C 
ATOM     60  C   UNL A   1      44.364  31.955  28.878  1.00  0.00     0.034 A 
BRANCH  47  61
ATOM     61  C   UNL A   1      38.705  30.055  30.516  1.00  0.00     0.023 A 
ATOM     62  C   UNL A   1      37.710  30.673  29.741  1.00  0.00     0.031 A 
ATOM     63  C   UNL A   1      38.412  29.773  31.863  1.00  0.00     0.131 A 
ATOM     64  C   UNL A   1      36.493  31.046  30.332  1.00  0.00     0.055 A 
ATOM     65  C   UNL A   1      37.173  30.081  32.427  1.00  0.00     0.041 A 
ATOM     66  F   UNL A   1      39.332  29.201  32.656  1.00  0.00    -0.206 F 
ATOM     67  C   UNL A   1      36.209  30.732  31.664  1.00  0.00     0.022 A 
BRANCH  64  68
ATOM     68  S   UNL A   1      35.331  32.046  29.365  1.00  0.00     0.124 S 
ATOM     69  O   UNL A   1      34.434  32.541  30.407  1.00  0.00    -0.237 OA
ATOM     70  O   UNL A   1      36.202  33.038  28.749  1.00  0.00    -0.237 OA
ATOM     71  O   UNL A   1      34.734  31.081  28.444  1.00  0.00    -0.744 OA
ENDBRANCH  64  68
ENDBRANCH  47  61
BRANCH  48  72
ATOM     72  C   UNL A   1      47.278  27.486  25.999  1.00  0.00     0.023 A 
ATOM     73  C   UNL A   1      47.400  27.804  24.636  1.00  0.00     0.031 A 
ATOM     74  C   UNL A   1      48.333  26.780  26.604  1.00  0.00     0.131 A 
ATOM     75  C   UNL A   1      48.517  27.362  23.909  1.00  0.00     0.055 A 
ATOM     76  C   UNL A   1      49.469  26.394  25.891  1.00  0.00     0.041 A 
ATOM     77  F   UNL A   1      48.274  26.455  27.906  1.00  0.00    -0.206 F 
ATOM     78  C   UNL A   1      49.557  26.668  24.529  1.00  0.00     0.022 A 
BRANCH  75  79
ATOM     79  S   UNL A   1      48.532  27.604  22.110  1.00  0.00     0.124 S 
ATOM     80  O   UNL A   1      48.728  26.241  21.629  1.00  0.00    -0.237 OA
ATOM     81  O   UNL A   1      47.215  28.186  21.876  1.00  0.00    -0.237 OA
ATOM     82  O   UNL A   1      49.660  28.509  21.900  1.00  0.00    -0.744 OA
ENDBRANCH  75  79
ENDBRANCH  48  72
BRANCH  60  83
ATOM     83  C   UNL A   1      45.021  33.286  29.134  1.00  0.00     0.023 A 
ATOM     84  C   UNL A   1      45.025  34.309  28.173  1.00  0.00     0.031 A 
ATOM     85  C   UNL A   1      45.643  33.532  30.371  1.00  0.00     0.131 A 
ATOM     86  C   UNL A   1      45.678  35.520  28.446  1.00  0.00     0.055 A 
ATOM     87  C   UNL A   1      46.247  34.756  30.658  1.00  0.00     0.041 A 
ATOM     88  F   UNL A   1      45.666  32.586  31.325  1.00  0.00    -0.206 F 
ATOM     89  C   UNL A   1      46.274  35.755  29.689  1.00  0.00     0.022 A 
BRANCH  86  90
ATOM     90  S   UNL A   1      45.790  36.766  27.135  1.00  0.00     0.124 S 
ATOM     91  O   UNL A   1      44.422  37.268  27.074  1.00  0.00    -0.237 OA
ATOM     92  O   UNL A   1      46.785  37.692  27.666  1.00  0.00    -0.237 OA
ATOM     93  O   UNL A   1      46.222  35.999  25.967  1.00  0.00    -0.744 OA
ENDBRANCH  86  90
ENDBRANCH  60  83
ENDBRANCH  34  35
ENDBRANCH  26  29
ENDBRANCH  24  25
ENDBRANCH   1  24
TORSDOF 15
ENDMDL
MODEL 3
REMARK VINA RESULT:     -12.5      1.202      7.594
REMARK SMILES O=C(NCCCCNC(=O)c1ccc(-c2c3nc(c(-c4cc(S(=O)(=O)[O-])ccc4F)c4ccc([nH]4)c(-c4cc(S(=O)(=O)[O-])ccc4F)c4nc(c(-c5cc(S(=O)(=O)[O-])ccc5F)c5ccc2[nH]5)C=C4)C=C3)cc1)C1=Cc2ccc(Cl)c(Cl)c2O[C@@H]1C(F)(F)F
REMARK SMILES IDX 6 1 5 2 4 3 3 4 1 5 2 6 74 8 75 9 85 10 76 11 84 12 77 13
REMARK SMILES IDX 83 14 78 15 81 16 79 17 82 18 80 19 86 20 87 21 88 22 89 23
REMARK SMILES IDX 7 24 8 25 9 26 10 28 11 29 12 30 73 31 13 32 72 33 14 34
REMARK SMILES IDX 15 35 16 36 66 37 17 38 71 39 65 40 67 41 18 42 70 43 64 44
REMARK SMILES IDX 63 45 19 47 51 48 31 49 50 50 32 51 35 52 49 53 68 54 33 55
REMARK SMILES IDX 34 56 48 58 69 59 36 60 20 61 21 62 29 63 22 64 28 65 30 66
REMARK SMILES IDX 27 67 23 68 24 69 25 70 26 71 52 72 53 73 61 74 54 75 60 76
REMARK SMILES IDX 62 77 59 78 55 79 56 80 57 81 58 82 37 83 38 84 46 85 39 86
REMARK SMILES IDX 45 87 47 88 44 89 40 90 41 91 42 92 43 93
REMARK H PARENT 3 7 8 27 67 46 35 57
REMARK Flexibility Score: inf
ROOT
ATOM      1  C   UNL A   1      36.665  22.169  23.778  1.00  0.00     0.023 C 
ENDROOT
BRANCH   1   2
ATOM      2  C   UNL A   1      35.713  23.344  23.553  1.00  0.00     0.023 C 
BRANCH   2   3
ATOM      3  C   UNL A   1      34.257  22.925  23.339  1.00  0.00     0.116 C 
BRANCH   3   4
ATOM      4  N   UNL A   1      33.884  21.703  24.058  1.00  0.00    -0.352 N 
ATOM      5  O   UNL A   1      32.571  20.412  25.395  1.00  0.00    -0.270 OA
ATOM      6  C   UNL A   1      32.957  21.523  25.059  1.00  0.00     0.251 C 
ATOM      7  H   UNL A   1      34.368  20.891  23.784  1.00  0.00     0.163 HD
BRANCH   6   8
ATOM      8  C   UNL A   1      32.400  22.738  25.680  1.00  0.00     0.067 C 
ATOM      9  C   UNL A   1      33.277  23.641  26.135  1.00  0.00     0.025 C 
ATOM     10  C   UNL A   1      30.962  23.056  25.420  1.00  0.00     0.314 C 
ATOM     11  C   UNL A   1      32.953  25.017  25.743  1.00  0.00     0.019 A 
ATOM     12  O   UNL A   1      30.802  24.349  24.790  1.00  0.00    -0.474 OA
ATOM     13  C   UNL A   1      33.995  25.948  25.785  1.00  0.00     0.013 A 
ATOM     14  C   UNL A   1      31.808  25.275  24.959  1.00  0.00     0.148 A 
ATOM     15  C   UNL A   1      33.945  27.081  24.975  1.00  0.00     0.023 A 
ATOM     16  C   UNL A   1      31.749  26.434  24.164  1.00  0.00     0.102 A 
ATOM     17  C   UNL A   1      32.837  27.316  24.153  1.00  0.00     0.063 A 
ATOM     18  Cl  UNL A   1      30.393  26.671  23.107  1.00  0.00    -0.079 Cl
ATOM     19  Cl  UNL A   1      32.921  28.672  23.087  1.00  0.00    -0.083 Cl
BRANCH  10  20
ATOM     20  C   UNL A   1      30.116  22.971  26.701  1.00  0.00     0.429 C 
ATOM     21  F   UNL A   1      29.413  24.113  26.902  1.00  0.00    -0.167 F 
ATOM     22  F   UNL A   1      29.216  21.962  26.653  1.00  0.00    -0.167 F 
ATOM     23  F   UNL A   1      30.877  22.777  27.806  1.00  0.00    -0.167 F 
ENDBRANCH  10  20
ENDBRANCH   6   8
ENDBRANCH   3   4
ENDBRANCH   2   3
ENDBRANCH   1   2
BRANCH   1  24
ATOM     24  C   UNL A   1      37.196  21.994  25.201  1.00  0.00     0.116 C 
BRANCH  24  25
ATOM     25  N   UNL A   1      38.179  20.930  25.351  1.00  0.00    -0.352 N 
ATOM     26  C   UNL A   1      39.376  20.969  26.041  1.00  0.00     0.251 C 
ATOM     27  H   UNL A   1      37.964  20.078  24.908  1.00  0.00     0.163 HD
ATOM     28  O   UNL A   1      40.136  20.006  26.025  1.00  0.00    -0.269 OA
BRANCH  26  29
ATOM     29  C   UNL A   1      39.751  22.217  26.741  1.00  0.00     0.039 A 
ATOM     30  C   UNL A   1      40.733  22.167  27.733  1.00  0.00     0.014 A 
ATOM     31  C   UNL A   1      39.232  23.442  26.316  1.00  0.00     0.014 A 
ATOM     32  C   UNL A   1      41.289  23.357  28.210  1.00  0.00     0.010 A 
ATOM     33  C   UNL A   1      39.837  24.621  26.740  1.00  0.00     0.010 A 
ATOM     34  C   UNL A   1      40.893  24.591  27.667  1.00  0.00    -0.014 A 
BRANCH  34  35
ATOM     35  C   UNL A   1      41.589  25.861  28.012  1.00  0.00     0.031 A 
ATOM     36  C   UNL A   1      40.835  26.950  28.726  1.00  0.00     0.074 A 
ATOM     37  C   UNL A   1      42.848  26.077  27.576  1.00  0.00     0.049 A 
ATOM     38  N   UNL A   1      41.190  28.187  28.956  1.00  0.00    -0.248 NA
ATOM     39  C   UNL A   1      39.488  26.609  29.208  1.00  0.00     0.031 C 
ATOM     40  C   UNL A   1      43.666  25.113  26.833  1.00  0.00     0.029 A 
ATOM     41  N   UNL A   1      43.655  27.185  27.668  1.00  0.00    -0.354 N 
ATOM     42  C   UNL A   1      40.095  28.785  29.572  1.00  0.00     0.074 A 
ATOM     43  C   UNL A   1      39.055  27.781  29.647  1.00  0.00     0.031 C 
ATOM     44  C   UNL A   1      44.856  25.668  26.550  1.00  0.00     0.029 A 
ATOM     45  C   UNL A   1      44.873  27.042  27.039  1.00  0.00     0.049 A 
ATOM     46  H   UNL A   1      43.388  28.006  28.141  1.00  0.00     0.167 HD
ATOM     47  C   UNL A   1      39.975  30.052  30.038  1.00  0.00     0.034 A 
ATOM     48  C   UNL A   1      45.878  27.924  26.859  1.00  0.00     0.034 A 
ATOM     49  C   UNL A   1      41.038  31.024  29.999  1.00  0.00     0.049 A 
ATOM     50  C   UNL A   1      45.725  29.321  27.411  1.00  0.00     0.074 A 
ATOM     51  C   UNL A   1      41.054  32.304  30.524  1.00  0.00     0.029 A 
ATOM     52  N   UNL A   1      42.275  30.823  29.401  1.00  0.00    -0.354 N 
ATOM     53  N   UNL A   1      44.704  29.849  28.045  1.00  0.00    -0.248 NA
ATOM     54  C   UNL A   1      46.858  30.238  27.231  1.00  0.00     0.031 C 
ATOM     55  C   UNL A   1      42.278  32.896  30.197  1.00  0.00     0.029 A 
ATOM     56  C   UNL A   1      43.051  31.965  29.524  1.00  0.00     0.049 A 
ATOM     57  H   UNL A   1      42.560  29.992  28.956  1.00  0.00     0.167 HD
ATOM     58  C   UNL A   1      45.092  31.145  28.374  1.00  0.00     0.074 A 
ATOM     59  C   UNL A   1      46.439  31.317  27.875  1.00  0.00     0.031 C 
ATOM     60  C   UNL A   1      44.400  32.107  29.034  1.00  0.00     0.034 A 
BRANCH  47  61
ATOM     61  C   UNL A   1      38.642  30.466  30.605  1.00  0.00     0.023 A 
ATOM     62  C   UNL A   1      37.632  31.020  29.800  1.00  0.00     0.031 A 
ATOM     63  C   UNL A   1      38.378  30.305  31.978  1.00  0.00     0.131 A 
ATOM     64  C   UNL A   1      36.431  31.452  30.384  1.00  0.00     0.055 A 
ATOM     65  C   UNL A   1      37.154  30.670  32.539  1.00  0.00     0.041 A 
ATOM     66  F   UNL A   1      39.313  29.799  32.797  1.00  0.00    -0.206 F 
ATOM     67  C   UNL A   1      36.175  31.258  31.743  1.00  0.00     0.022 A 
BRANCH  64  68
ATOM     68  S   UNL A   1      35.252  32.370  29.359  1.00  0.00     0.124 S 
ATOM     69  O   UNL A   1      36.122  33.354  28.720  1.00  0.00    -0.237 OA
ATOM     70  O   UNL A   1      34.714  31.333  28.487  1.00  0.00    -0.237 OA
ATOM     71  O   UNL A   1      34.308  32.920  30.330  1.00  0.00    -0.744 OA
ENDBRANCH  64  68
ENDBRANCH  47  61
BRANCH  48  72
ATOM     72  C   UNL A   1      47.111  27.543  26.107  1.00  0.00     0.023 A 
ATOM     73  C   UNL A   1      47.251  27.858  24.746  1.00  0.00     0.031 A 
ATOM     74  C   UNL A   1      48.134  26.794  26.715  1.00  0.00     0.131 A 
ATOM     75  C   UNL A   1      48.351  27.371  24.022  1.00  0.00     0.055 A 
ATOM     76  C   UNL A   1      49.256  26.362  26.004  1.00  0.00     0.041 A 
ATOM     77  F   UNL A   1      48.057  26.469  28.016  1.00  0.00    -0.206 F 
ATOM     78  C   UNL A   1      49.359  26.634  24.644  1.00  0.00     0.022 A 
BRANCH  75  79
ATOM     79  S   UNL A   1      48.382  27.615  22.223  1.00  0.00     0.124 S 
ATOM     80  O   UNL A   1      47.060  28.182  21.977  1.00  0.00    -0.237 OA
ATOM     81  O   UNL A   1      49.511  28.525  22.064  1.00  0.00    -0.237 OA
ATOM     82  O   UNL A   1      48.590  26.266  21.702  1.00  0.00    -0.744 OA
ENDBRANCH  75  79
ENDBRANCH  48  72
BRANCH  60  83
ATOM     83  C   UNL A   1      45.120  33.400  29.315  1.00  0.00     0.023 A 
ATOM     84  C   UNL A   1      44.995  34.517  28.474  1.00  0.00     0.031 A 
ATOM     85  C   UNL A   1      45.936  33.513  30.455  1.00  0.00     0.131 A 
ATOM     86  C   UNL A   1      45.710  35.689  28.761  1.00  0.00     0.055 A 
ATOM     87  C   UNL A   1      46.606  34.696  30.764  1.00  0.00     0.041 A 
ATOM     88  F   UNL A   1      46.089  32.473  31.291  1.00  0.00    -0.206 F 
ATOM     89  C   UNL A   1      46.502  35.790  29.909  1.00  0.00     0.022 A 
BRANCH  86  90
ATOM     90  S   UNL A   1      45.641  37.064  27.581  1.00  0.00     0.124 S 
ATOM     91  O   UNL A   1      46.732  36.738  26.669  1.00  0.00    -0.237 OA
ATOM     92  O   UNL A   1      44.294  36.940  27.033  1.00  0.00    -0.237 OA
ATOM     93  O   UNL A   1      45.862  38.244  28.416  1.00  0.00    -0.744 OA
ENDBRANCH  86  90
ENDBRANCH  60  83
ENDBRANCH  34  35
ENDBRANCH  26  29
ENDBRANCH  24  25
ENDBRANCH   1  24
TORSDOF 15
ENDMDL
