MODEL 1
REMARK VINA RESULT:     -12.9      0.000      0.000
REMARK SMILES Cc1ccccc1NC(=O)NC[C@@H]1CC[C@@H](C(=O)NCCCCNC(=O)c2ccc(-c3c4nc(c(-c5cc(S(=O)(=O)[O-])ccc5F)c5ccc([nH]5)c(-c5cc(S(=O)(=O)[O-])ccc5F)c5nc(c(-c6cc(S(=O)(=O)[O-])ccc6F)c6ccc3[nH]6)C=C5)C=C4)cc2)O1
REMARK SMILES IDX 21 1 20 2 19 3 17 4 18 5 16 7 13 8 14 9 90 10 15 11 12 12
REMARK SMILES IDX 11 13 8 14 9 15 10 17 7 19 1 20 2 21 3 22 4 23 6 24 5 25
REMARK SMILES IDX 22 26 23 27 24 28 25 29 26 31 27 32 28 33 89 34 29 35 88 36
REMARK SMILES IDX 30 37 31 38 32 39 82 40 33 41 87 42 81 43 83 44 34 45 86 46
REMARK SMILES IDX 80 47 79 48 35 50 67 51 47 52 66 53 48 54 51 55 65 56 84 57
REMARK SMILES IDX 49 58 50 59 64 61 85 62 52 63 36 64 37 65 45 66 38 67 44 68
REMARK SMILES IDX 46 69 43 70 39 71 40 72 41 73 42 74 68 75 69 76 77 77 70 78
REMARK SMILES IDX 76 79 78 80 75 81 71 82 72 83 73 84 74 85 53 86 54 87 62 88
REMARK SMILES IDX 55 89 61 90 63 91 60 92 56 93 57 94 58 95 59 96
REMARK H PARENT 19 6 8 16 11 18 24 30 83 49 51 60
REMARK Flexibility Score: inf
ROOT
ATOM      1  C   UNL A   1      32.242  29.785  26.727  1.00  0.00     0.023 C 
ENDROOT
BRANCH   1   2
ATOM      2  C   UNL A   1      32.436  29.743  25.200  1.00  0.00     0.116 C 
BRANCH   2   3
ATOM      3  N   UNL A   1      31.173  29.536  24.497  1.00  0.00    -0.354 N 
ATOM      4  C   UNL A   1      30.778  28.602  23.582  1.00  0.00     0.249 C 
ATOM      5  O   UNL A   1      29.646  28.753  23.106  1.00  0.00    -0.272 OA
ATOM      6  H   UNL A   1      30.476  30.192  24.724  1.00  0.00     0.163 HD
BRANCH   4   7
ATOM      7  C   UNL A   1      31.653  27.378  23.209  1.00  0.00     0.207 C 
ATOM      8  C   UNL A   1      30.890  25.161  23.253  1.00  0.00     0.138 C 
ATOM      9  C   UNL A   1      31.654  25.360  21.966  1.00  0.00     0.037 C 
ATOM     10  O   UNL A   1      31.372  26.236  24.084  1.00  0.00    -0.363 OA
ATOM     11  C   UNL A   1      31.495  26.844  21.794  1.00  0.00     0.045 C 
BRANCH   8  12
ATOM     12  C   UNL A   1      31.088  23.767  23.870  1.00  0.00     0.149 C 
BRANCH  12  13
ATOM     13  N   UNL A   1      30.387  23.648  25.149  1.00  0.00    -0.335 N 
ATOM     14  N   UNL A   1      31.932  23.731  26.990  1.00  0.00    -0.308 N 
ATOM     15  C   UNL A   1      30.707  23.737  26.441  1.00  0.00     0.319 C 
ATOM     16  H   UNL A   1      31.904  24.100  27.902  1.00  0.00     0.171 HD
ATOM     17  O   UNL A   1      29.765  23.902  27.230  1.00  0.00    -0.249 OA
ATOM     18  H   UNL A   1      29.430  23.451  25.023  1.00  0.00     0.165 HD
BRANCH  14  19
ATOM     19  C   UNL A   1      33.244  23.355  26.649  1.00  0.00     0.045 A 
ATOM     20  C   UNL A   1      33.803  25.755  25.880  1.00  0.00     0.046 C 
ATOM     21  C   UNL A   1      34.112  24.288  26.035  1.00  0.00    -0.027 A 
ATOM     22  C   UNL A   1      35.403  23.880  25.631  1.00  0.00     0.005 A 
ATOM     23  C   UNL A   1      35.847  22.582  25.851  1.00  0.00     0.000 A 
ATOM     24  C   UNL A   1      33.766  22.109  26.972  1.00  0.00     0.026 A 
ATOM     25  C   UNL A   1      35.037  21.703  26.549  1.00  0.00     0.002 A 
ENDBRANCH  14  19
ENDBRANCH  12  13
ENDBRANCH   8  12
ENDBRANCH   4   7
ENDBRANCH   2   3
ENDBRANCH   1   2
BRANCH   1  26
ATOM     26  C   UNL A   1      33.061  30.854  27.458  1.00  0.00     0.023 C 
BRANCH  26  27
ATOM     27  C   UNL A   1      34.499  30.433  27.734  1.00  0.00     0.116 C 
BRANCH  27  28
ATOM     28  N   UNL A   1      35.301  31.385  28.490  1.00  0.00    -0.352 N 
ATOM     29  C   UNL A   1      36.509  31.148  29.132  1.00  0.00     0.251 C 
ATOM     30  H   UNL A   1      34.945  32.302  28.553  1.00  0.00     0.163 HD
ATOM     31  O   UNL A   1      37.056  31.997  29.831  1.00  0.00    -0.269 OA
BRANCH  29  32
ATOM     32  C   UNL A   1      37.202  29.870  28.844  1.00  0.00     0.039 A 
ATOM     33  C   UNL A   1      37.385  29.000  29.923  1.00  0.00     0.014 A 
ATOM     34  C   UNL A   1      37.925  29.707  27.665  1.00  0.00     0.014 A 
ATOM     35  C   UNL A   1      38.476  28.136  29.917  1.00  0.00     0.010 A 
ATOM     36  C   UNL A   1      39.059  28.914  27.696  1.00  0.00     0.010 A 
ATOM     37  C   UNL A   1      39.381  28.199  28.857  1.00  0.00    -0.014 A 
BRANCH  37  38
ATOM     38  C   UNL A   1      40.755  27.708  28.967  1.00  0.00     0.031 A 
ATOM     39  C   UNL A   1      41.099  26.319  28.600  1.00  0.00     0.074 A 
ATOM     40  C   UNL A   1      41.736  28.536  29.398  1.00  0.00     0.049 A 
ATOM     41  N   UNL A   1      42.209  25.745  28.921  1.00  0.00    -0.248 NA
ATOM     42  C   UNL A   1      40.170  25.420  27.921  1.00  0.00     0.031 C 
ATOM     43  C   UNL A   1      43.180  28.314  29.342  1.00  0.00     0.029 A 
ATOM     44  N   UNL A   1      41.588  29.613  30.273  1.00  0.00    -0.354 N 
ATOM     45  C   UNL A   1      42.269  24.543  28.268  1.00  0.00     0.074 A 
ATOM     46  C   UNL A   1      40.932  24.330  27.777  1.00  0.00     0.031 C 
ATOM     47  C   UNL A   1      43.758  28.990  30.344  1.00  0.00     0.029 A 
ATOM     48  C   UNL A   1      42.702  29.579  31.142  1.00  0.00     0.049 A 
ATOM     49  H   UNL A   1      40.854  30.268  30.283  1.00  0.00     0.167 HD
ATOM     50  C   UNL A   1      43.480  23.934  28.126  1.00  0.00     0.034 A 
ATOM     51  C   UNL A   1      42.534  29.436  32.488  1.00  0.00     0.034 A 
ATOM     52  C   UNL A   1      44.456  24.458  29.091  1.00  0.00     0.049 A 
ATOM     53  C   UNL A   1      43.159  28.179  33.060  1.00  0.00     0.074 A 
ATOM     54  C   UNL A   1      45.613  25.214  29.034  1.00  0.00     0.029 A 
ATOM     55  N   UNL A   1      44.141  24.358  30.439  1.00  0.00    -0.354 N 
ATOM     56  N   UNL A   1      43.837  27.308  32.363  1.00  0.00    -0.248 NA
ATOM     57  C   UNL A   1      42.990  27.761  34.453  1.00  0.00     0.031 C 
ATOM     58  C   UNL A   1      45.948  25.612  30.369  1.00  0.00     0.029 A 
ATOM     59  C   UNL A   1      45.017  25.068  31.235  1.00  0.00     0.049 A 
ATOM     60  H   UNL A   1      43.380  23.840  30.789  1.00  0.00     0.167 HD
ATOM     61  C   UNL A   1      44.134  26.225  33.147  1.00  0.00     0.074 A 
ATOM     62  C   UNL A   1      43.586  26.557  34.451  1.00  0.00     0.031 C 
ATOM     63  C   UNL A   1      44.764  25.110  32.669  1.00  0.00     0.034 A 
BRANCH  50  64
ATOM     64  C   UNL A   1      43.830  22.938  27.033  1.00  0.00     0.023 A 
ATOM     65  C   UNL A   1      43.096  21.735  26.943  1.00  0.00     0.031 A 
ATOM     66  C   UNL A   1      44.930  23.029  26.148  1.00  0.00     0.131 A 
ATOM     67  C   UNL A   1      43.461  20.715  26.038  1.00  0.00     0.055 A 
ATOM     68  C   UNL A   1      45.252  22.044  25.206  1.00  0.00     0.041 A 
ATOM     69  F   UNL A   1      45.807  24.036  26.178  1.00  0.00    -0.206 F 
ATOM     70  C   UNL A   1      44.521  20.874  25.152  1.00  0.00     0.022 A 
BRANCH  67  71
ATOM     71  S   UNL A   1      42.590  19.124  26.087  1.00  0.00     0.124 S 
ATOM     72  O   UNL A   1      42.447  18.897  27.521  1.00  0.00    -0.237 OA
ATOM     73  O   UNL A   1      41.368  19.417  25.349  1.00  0.00    -0.237 OA
ATOM     74  O   UNL A   1      43.514  18.212  25.413  1.00  0.00    -0.744 OA
ENDBRANCH  67  71
ENDBRANCH  50  64
BRANCH  51  75
ATOM     75  C   UNL A   1      41.319  30.148  32.984  1.00  0.00     0.023 A 
ATOM     76  C   UNL A   1      41.396  31.558  33.008  1.00  0.00     0.031 A 
ATOM     77  C   UNL A   1      40.049  29.561  33.019  1.00  0.00     0.131 A 
ATOM     78  C   UNL A   1      40.243  32.331  32.835  1.00  0.00     0.055 A 
ATOM     79  C   UNL A   1      38.889  30.346  32.961  1.00  0.00     0.041 A 
ATOM     80  F   UNL A   1      39.904  28.229  32.968  1.00  0.00    -0.206 F 
ATOM     81  C   UNL A   1      38.983  31.732  32.810  1.00  0.00     0.022 A 
BRANCH  78  82
ATOM     82  S   UNL A   1      40.439  34.059  32.300  1.00  0.00     0.124 S 
ATOM     83  O   UNL A   1      41.304  33.928  31.136  1.00  0.00    -0.237 OA
ATOM     84  O   UNL A   1      39.063  34.477  32.028  1.00  0.00    -0.237 OA
ATOM     85  O   UNL A   1      41.034  34.708  33.467  1.00  0.00    -0.744 OA
ENDBRANCH  78  82
ENDBRANCH  51  75
BRANCH  63  86
ATOM     86  C   UNL A   1      45.136  23.938  33.547  1.00  0.00     0.023 A 
ATOM     87  C   UNL A   1      46.453  23.730  33.988  1.00  0.00     0.031 A 
ATOM     88  C   UNL A   1      44.193  22.953  33.913  1.00  0.00     0.131 A 
ATOM     89  C   UNL A   1      46.772  22.641  34.819  1.00  0.00     0.055 A 
ATOM     90  C   UNL A   1      44.532  21.825  34.669  1.00  0.00     0.041 A 
ATOM     91  F   UNL A   1      42.897  23.062  33.588  1.00  0.00    -0.206 F 
ATOM     92  C   UNL A   1      45.826  21.671  35.141  1.00  0.00     0.022 A 
BRANCH  89  93
ATOM     93  S   UNL A   1      48.432  22.564  35.542  1.00  0.00     0.124 S 
ATOM     94  O   UNL A   1      49.288  22.912  34.413  1.00  0.00    -0.237 OA
ATOM     95  O   UNL A   1      48.340  23.567  36.601  1.00  0.00    -0.237 OA
ATOM     96  O   UNL A   1      48.544  21.184  36.007  1.00  0.00    -0.744 OA
ENDBRANCH  89  93
ENDBRANCH  63  86
ENDBRANCH  37  38
ENDBRANCH  29  32
ENDBRANCH  27  28
ENDBRANCH  26  27
ENDBRANCH   1  26
TORSDOF 17
ENDMDL
MODEL 2
REMARK VINA RESULT:     -12.8      4.071     10.503
REMARK SMILES Cc1ccccc1NC(=O)NC[C@@H]1CC[C@@H](C(=O)NCCCCNC(=O)c2ccc(-c3c4nc(c(-c5cc(S(=O)(=O)[O-])ccc5F)c5ccc([nH]5)c(-c5cc(S(=O)(=O)[O-])ccc5F)c5nc(c(-c6cc(S(=O)(=O)[O-])ccc6F)c6ccc3[nH]6)C=C5)C=C4)cc2)O1
REMARK SMILES IDX 21 1 20 2 19 3 17 4 18 5 16 7 13 8 14 9 90 10 15 11 12 12
REMARK SMILES IDX 11 13 8 14 9 15 10 17 7 19 1 20 2 21 3 22 4 23 6 24 5 25
REMARK SMILES IDX 22 26 23 27 24 28 25 29 26 31 27 32 28 33 89 34 29 35 88 36
REMARK SMILES IDX 30 37 31 38 32 39 82 40 33 41 87 42 81 43 83 44 34 45 86 46
REMARK SMILES IDX 80 47 79 48 35 50 67 51 47 52 66 53 48 54 51 55 65 56 84 57
REMARK SMILES IDX 49 58 50 59 64 61 85 62 52 63 36 64 37 65 45 66 38 67 44 68
REMARK SMILES IDX 46 69 43 70 39 71 40 72 41 73 42 74 68 75 69 76 77 77 70 78
REMARK SMILES IDX 76 79 78 80 75 81 71 82 72 83 73 84 74 85 53 86 54 87 62 88
REMARK SMILES IDX 55 89 61 90 63 91 60 92 56 93 57 94 58 95 59 96
REMARK H PARENT 19 6 8 16 11 18 24 30 83 49 51 60
REMARK Flexibility Score: inf
ROOT
ATOM      1  C   UNL A   1      36.822  20.940  25.342  1.00  0.00     0.023 C 
ENDROOT
BRANCH   1   2
ATOM      2  C   UNL A   1      35.412  21.472  25.029  1.00  0.00     0.116 C 
BRANCH   2   3
ATOM      3  N   UNL A   1      35.446  22.574  24.072  1.00  0.00    -0.354 N 
ATOM      4  C   UNL A   1      34.466  23.384  23.573  1.00  0.00     0.249 C 
ATOM      5  O   UNL A   1      34.815  24.185  22.698  1.00  0.00    -0.272 OA
ATOM      6  H   UNL A   1      36.343  22.771  23.720  1.00  0.00     0.163 HD
BRANCH   4   7
ATOM      7  C   UNL A   1      33.013  23.365  24.114  1.00  0.00     0.207 C 
ATOM      8  C   UNL A   1      31.471  25.102  23.789  1.00  0.00     0.138 C 
ATOM      9  C   UNL A   1      30.763  23.798  23.512  1.00  0.00     0.037 C 
ATOM     10  O   UNL A   1      32.602  24.691  24.585  1.00  0.00    -0.363 OA
ATOM     11  C   UNL A   1      31.934  22.939  23.132  1.00  0.00     0.045 C 
BRANCH   8  12
ATOM     12  C   UNL A   1      30.579  26.147  24.479  1.00  0.00     0.149 C 
BRANCH  12  13
ATOM     13  N   UNL A   1      30.070  27.127  23.518  1.00  0.00    -0.335 N 
ATOM     14  N   UNL A   1      31.427  29.113  23.512  1.00  0.00    -0.308 N 
ATOM     15  C   UNL A   1      30.467  28.305  23.034  1.00  0.00     0.319 C 
ATOM     16  H   UNL A   1      31.717  29.752  22.822  1.00  0.00     0.171 HD
ATOM     17  O   UNL A   1      29.926  28.677  21.983  1.00  0.00    -0.249 OA
ATOM     18  H   UNL A   1      29.212  26.843  23.128  1.00  0.00     0.165 HD
BRANCH  14  19
ATOM     19  C   UNL A   1      32.144  29.316  24.705  1.00  0.00     0.045 A 
ATOM     20  C   UNL A   1      34.090  27.842  23.867  1.00  0.00     0.046 C 
ATOM     21  C   UNL A   1      33.368  28.641  24.921  1.00  0.00    -0.027 A 
ATOM     22  C   UNL A   1      34.043  28.797  26.152  1.00  0.00     0.005 A 
ATOM     23  C   UNL A   1      33.538  29.623  27.150  1.00  0.00     0.000 A 
ATOM     24  C   UNL A   1      31.738  30.233  25.667  1.00  0.00     0.026 A 
ATOM     25  C   UNL A   1      32.398  30.365  26.894  1.00  0.00     0.002 A 
ENDBRANCH  14  19
ENDBRANCH  12  13
ENDBRANCH   8  12
ENDBRANCH   4   7
ENDBRANCH   2   3
ENDBRANCH   1   2
BRANCH   1  26
ATOM     26  C   UNL A   1      37.971  21.884  24.974  1.00  0.00     0.023 C 
BRANCH  26  27
ATOM     27  C   UNL A   1      38.396  22.797  26.117  1.00  0.00     0.116 C 
BRANCH  27  28
ATOM     28  N   UNL A   1      39.817  22.790  26.436  1.00  0.00    -0.352 N 
ATOM     29  C   UNL A   1      40.633  23.887  26.673  1.00  0.00     0.251 C 
ATOM     30  H   UNL A   1      40.247  21.905  26.490  1.00  0.00     0.163 HD
ATOM     31  O   UNL A   1      41.845  23.778  26.835  1.00  0.00    -0.269 OA
BRANCH  29  32
ATOM     32  C   UNL A   1      39.979  25.204  26.862  1.00  0.00     0.039 A 
ATOM     33  C   UNL A   1      40.584  26.298  26.237  1.00  0.00     0.014 A 
ATOM     34  C   UNL A   1      39.039  25.389  27.873  1.00  0.00     0.014 A 
ATOM     35  C   UNL A   1      40.444  27.562  26.801  1.00  0.00     0.010 A 
ATOM     36  C   UNL A   1      38.972  26.628  28.487  1.00  0.00     0.010 A 
ATOM     37  C   UNL A   1      39.746  27.691  28.003  1.00  0.00    -0.014 A 
BRANCH  37  38
ATOM     38  C   UNL A   1      39.933  28.830  28.901  1.00  0.00     0.031 A 
ATOM     39  C   UNL A   1      38.956  29.939  28.939  1.00  0.00     0.074 A 
ATOM     40  C   UNL A   1      41.006  28.873  29.726  1.00  0.00     0.049 A 
ATOM     41  N   UNL A   1      39.187  31.080  29.493  1.00  0.00    -0.248 NA
ATOM     42  C   UNL A   1      37.664  29.886  28.261  1.00  0.00     0.031 C 
ATOM     43  C   UNL A   1      41.235  29.782  30.848  1.00  0.00     0.029 A 
ATOM     44  N   UNL A   1      42.255  28.294  29.493  1.00  0.00    -0.354 N 
ATOM     45  C   UNL A   1      38.016  31.791  29.504  1.00  0.00     0.074 A 
ATOM     46  C   UNL A   1      37.146  31.068  28.613  1.00  0.00     0.031 C 
ATOM     47  C   UNL A   1      42.556  29.939  31.011  1.00  0.00     0.029 A 
ATOM     48  C   UNL A   1      43.218  29.228  29.937  1.00  0.00     0.049 A 
ATOM     49  H   UNL A   1      42.431  27.410  29.098  1.00  0.00     0.167 HD
ATOM     50  C   UNL A   1      37.895  32.841  30.363  1.00  0.00     0.034 A 
ATOM     51  C   UNL A   1      44.137  29.748  29.073  1.00  0.00     0.034 A 
ATOM     52  C   UNL A   1      39.210  33.312  30.819  1.00  0.00     0.049 A 
ATOM     53  C   UNL A   1      44.043  31.251  28.899  1.00  0.00     0.074 A 
ATOM     54  C   UNL A   1      39.912  33.321  32.010  1.00  0.00     0.029 A 
ATOM     55  N   UNL A   1      40.115  33.722  29.848  1.00  0.00    -0.354 N 
ATOM     56  N   UNL A   1      43.195  32.017  29.532  1.00  0.00    -0.248 NA
ATOM     57  C   UNL A   1      44.842  31.999  27.927  1.00  0.00     0.031 C 
ATOM     58  C   UNL A   1      41.268  33.687  31.724  1.00  0.00     0.029 A 
ATOM     59  C   UNL A   1      41.377  33.934  30.367  1.00  0.00     0.049 A 
ATOM     60  H   UNL A   1      39.884  33.847  28.900  1.00  0.00     0.167 HD
ATOM     61  C   UNL A   1      43.273  33.292  29.039  1.00  0.00     0.074 A 
ATOM     62  C   UNL A   1      44.324  33.233  28.037  1.00  0.00     0.031 C 
ATOM     63  C   UNL A   1      42.445  34.300  29.447  1.00  0.00     0.034 A 
BRANCH  50  64
ATOM     64  C   UNL A   1      36.578  33.382  30.895  1.00  0.00     0.023 A 
ATOM     65  C   UNL A   1      35.669  33.977  29.993  1.00  0.00     0.031 A 
ATOM     66  C   UNL A   1      36.208  33.476  32.257  1.00  0.00     0.131 A 
ATOM     67  C   UNL A   1      34.494  34.616  30.445  1.00  0.00     0.055 A 
ATOM     68  C   UNL A   1      35.012  34.054  32.699  1.00  0.00     0.041 A 
ATOM     69  F   UNL A   1      37.003  33.081  33.256  1.00  0.00    -0.206 F 
ATOM     70  C   UNL A   1      34.150  34.637  31.792  1.00  0.00     0.022 A 
BRANCH  67  71
ATOM     71  S   UNL A   1      33.453  35.513  29.260  1.00  0.00     0.124 S 
ATOM     72  O   UNL A   1      34.415  35.887  28.229  1.00  0.00    -0.237 OA
ATOM     73  O   UNL A   1      32.465  34.506  28.893  1.00  0.00    -0.237 OA
ATOM     74  O   UNL A   1      32.931  36.631  30.046  1.00  0.00    -0.744 OA
ENDBRANCH  67  71
ENDBRANCH  50  64
BRANCH  51  75
ATOM     75  C   UNL A   1      44.590  28.748  28.062  1.00  0.00     0.023 A 
ATOM     76  C   UNL A   1      45.386  27.690  28.553  1.00  0.00     0.031 A 
ATOM     77  C   UNL A   1      43.964  28.574  26.823  1.00  0.00     0.131 A 
ATOM     78  C   UNL A   1      45.354  26.435  27.935  1.00  0.00     0.055 A 
ATOM     79  C   UNL A   1      44.027  27.347  26.147  1.00  0.00     0.041 A 
ATOM     80  F   UNL A   1      43.169  29.526  26.313  1.00  0.00    -0.206 F 
ATOM     81  C   UNL A   1      44.675  26.255  26.730  1.00  0.00     0.022 A 
BRANCH  78  82
ATOM     82  S   UNL A   1      45.906  24.990  28.893  1.00  0.00     0.124 S 
ATOM     83  O   UNL A   1      46.941  25.559  29.746  1.00  0.00    -0.237 OA
ATOM     84  O   UNL A   1      44.684  24.561  29.575  1.00  0.00    -0.237 OA
ATOM     85  O   UNL A   1      46.367  24.060  27.865  1.00  0.00    -0.744 OA
ENDBRANCH  78  82
ENDBRANCH  51  75
BRANCH  63  86
ATOM     86  C   UNL A   1      42.567  35.718  28.940  1.00  0.00     0.023 A 
ATOM     87  C   UNL A   1      43.258  36.707  29.660  1.00  0.00     0.031 A 
ATOM     88  C   UNL A   1      41.935  36.141  27.751  1.00  0.00     0.131 A 
ATOM     89  C   UNL A   1      43.373  38.016  29.159  1.00  0.00     0.055 A 
ATOM     90  C   UNL A   1      41.979  37.464  27.299  1.00  0.00     0.041 A 
ATOM     91  F   UNL A   1      41.281  35.282  26.955  1.00  0.00    -0.206 F 
ATOM     92  C   UNL A   1      42.715  38.409  27.997  1.00  0.00     0.022 A 
BRANCH  89  93
ATOM     93  S   UNL A   1      44.472  39.174  30.016  1.00  0.00     0.124 S 
ATOM     94  O   UNL A   1      45.473  39.476  28.998  1.00  0.00    -0.237 OA
ATOM     95  O   UNL A   1      43.556  40.263  30.346  1.00  0.00    -0.237 OA
ATOM     96  O   UNL A   1      44.959  38.408  31.160  1.00  0.00    -0.744 OA
ENDBRANCH  89  93
ENDBRANCH  63  86
ENDBRANCH  37  38
ENDBRANCH  29  32
ENDBRANCH  27  28
ENDBRANCH  26  27
ENDBRANCH   1  26
TORSDOF 17
ENDMDL
MODEL 3
REMARK VINA RESULT:     -12.7      4.170     10.620
REMARK SMILES Cc1ccccc1NC(=O)NC[C@@H]1CC[C@@H](C(=O)NCCCCNC(=O)c2ccc(-c3c4nc(c(-c5cc(S(=O)(=O)[O-])ccc5F)c5ccc([nH]5)c(-c5cc(S(=O)(=O)[O-])ccc5F)c5nc(c(-c6cc(S(=O)(=O)[O-])ccc6F)c6ccc3[nH]6)C=C5)C=C4)cc2)O1
REMARK SMILES IDX 21 1 20 2 19 3 17 4 18 5 16 7 13 8 14 9 90 10 15 11 12 12
REMARK SMILES IDX 11 13 8 14 9 15 10 17 7 19 1 20 2 21 3 22 4 23 6 24 5 25
REMARK SMILES IDX 22 26 23 27 24 28 25 29 26 31 27 32 28 33 89 34 29 35 88 36
REMARK SMILES IDX 30 37 31 38 32 39 82 40 33 41 87 42 81 43 83 44 34 45 86 46
REMARK SMILES IDX 80 47 79 48 35 50 67 51 47 52 66 53 48 54 51 55 65 56 84 57
REMARK SMILES IDX 49 58 50 59 64 61 85 62 52 63 36 64 37 65 45 66 38 67 44 68
REMARK SMILES IDX 46 69 43 70 39 71 40 72 41 73 42 74 68 75 69 76 77 77 70 78
REMARK SMILES IDX 76 79 78 80 75 81 71 82 72 83 73 84 74 85 53 86 54 87 62 88
REMARK SMILES IDX 55 89 61 90 63 91 60 92 56 93 57 94 58 95 59 96
REMARK H PARENT 19 6 8 16 11 18 24 30 83 49 51 60
REMARK Flexibility Score: inf
ROOT
ATOM      1  C   UNL A   1      37.515  23.315  25.738  1.00  0.00     0.023 C 
ENDROOT
BRANCH   1   2
ATOM      2  C   UNL A   1      36.664  23.166  24.463  1.00  0.00     0.116 C 
BRANCH   2   3
ATOM      3  N   UNL A   1      36.037  21.850  24.378  1.00  0.00    -0.354 N 
ATOM      4  C   UNL A   1      34.811  21.393  24.768  1.00  0.00     0.249 C 
ATOM      5  O   UNL A   1      34.612  20.180  24.627  1.00  0.00    -0.272 OA
ATOM      6  H   UNL A   1      36.605  21.162  23.961  1.00  0.00     0.163 HD
BRANCH   4   7
ATOM      7  C   UNL A   1      33.697  22.337  25.289  1.00  0.00     0.207 C 
ATOM      8  C   UNL A   1      31.852  23.015  24.009  1.00  0.00     0.138 C 
ATOM      9  C   UNL A   1      31.346  22.624  25.377  1.00  0.00     0.037 C 
ATOM     10  O   UNL A   1      33.253  23.264  24.243  1.00  0.00    -0.363 OA
ATOM     11  C   UNL A   1      32.428  21.668  25.792  1.00  0.00     0.045 C 
BRANCH   8  12
ATOM     12  C   UNL A   1      31.105  24.215  23.404  1.00  0.00     0.149 C 
BRANCH  12  13
ATOM     13  N   UNL A   1      31.779  24.707  22.201  1.00  0.00    -0.335 N 
ATOM     14  N   UNL A   1      33.066  26.682  22.683  1.00  0.00    -0.308 N 
ATOM     15  C   UNL A   1      32.670  25.657  21.911  1.00  0.00     0.319 C 
ATOM     16  H   UNL A   1      33.922  27.046  22.362  1.00  0.00     0.171 HD
ATOM     17  O   UNL A   1      33.249  25.552  20.820  1.00  0.00    -0.249 OA
ATOM     18  H   UNL A   1      31.503  24.208  21.399  1.00  0.00     0.165 HD
BRANCH  14  19
ATOM     19  C   UNL A   1      32.620  27.389  23.814  1.00  0.00     0.045 A 
ATOM     20  C   UNL A   1      34.172  26.024  25.361  1.00  0.00     0.046 C 
ATOM     21  C   UNL A   1      33.072  27.021  25.103  1.00  0.00    -0.027 A 
ATOM     22  C   UNL A   1      32.563  27.691  26.239  1.00  0.00     0.005 A 
ATOM     23  C   UNL A   1      31.644  28.726  26.111  1.00  0.00     0.000 A 
ATOM     24  C   UNL A   1      31.806  28.510  23.715  1.00  0.00     0.026 A 
ATOM     25  C   UNL A   1      31.288  29.155  24.844  1.00  0.00     0.002 A 
ENDBRANCH  14  19
ENDBRANCH  12  13
ENDBRANCH   8  12
ENDBRANCH   4   7
ENDBRANCH   2   3
ENDBRANCH   1   2
BRANCH   1  26
ATOM     26  C   UNL A   1      38.672  22.319  25.868  1.00  0.00     0.023 C 
BRANCH  26  27
ATOM     27  C   UNL A   1      39.573  22.590  27.067  1.00  0.00     0.116 C 
BRANCH  27  28
ATOM     28  N   UNL A   1      40.944  22.970  26.752  1.00  0.00    -0.352 N 
ATOM     29  C   UNL A   1      41.437  24.252  26.546  1.00  0.00     0.251 C 
ATOM     30  H   UNL A   1      41.595  22.234  26.677  1.00  0.00     0.163 HD
ATOM     31  O   UNL A   1      42.592  24.458  26.185  1.00  0.00    -0.269 OA
BRANCH  29  32
ATOM     32  C   UNL A   1      40.561  25.392  26.907  1.00  0.00     0.039 A 
ATOM     33  C   UNL A   1      40.739  26.572  26.179  1.00  0.00     0.014 A 
ATOM     34  C   UNL A   1      39.863  25.395  28.113  1.00  0.00     0.014 A 
ATOM     35  C   UNL A   1      40.449  27.791  26.784  1.00  0.00     0.010 A 
ATOM     36  C   UNL A   1      39.659  26.608  28.749  1.00  0.00     0.010 A 
ATOM     37  C   UNL A   1      40.037  27.800  28.118  1.00  0.00    -0.014 A 
BRANCH  37  38
ATOM     38  C   UNL A   1      40.161  28.984  28.969  1.00  0.00     0.031 A 
ATOM     39  C   UNL A   1      39.136  30.048  28.949  1.00  0.00     0.074 A 
ATOM     40  C   UNL A   1      41.221  29.109  29.803  1.00  0.00     0.049 A 
ATOM     41  N   UNL A   1      39.309  31.221  29.457  1.00  0.00    -0.248 NA
ATOM     42  C   UNL A   1      37.856  29.909  28.260  1.00  0.00     0.031 C 
ATOM     43  C   UNL A   1      41.395  30.073  30.888  1.00  0.00     0.029 A 
ATOM     44  N   UNL A   1      42.497  28.578  29.608  1.00  0.00    -0.354 N 
ATOM     45  C   UNL A   1      38.107  31.877  29.426  1.00  0.00     0.074 A 
ATOM     46  C   UNL A   1      37.281  31.080  28.556  1.00  0.00     0.031 C 
ATOM     47  C   UNL A   1      42.705  30.297  31.059  1.00  0.00     0.029 A 
ATOM     48  C   UNL A   1      43.412  29.572  30.023  1.00  0.00     0.049 A 
ATOM     49  H   UNL A   1      42.717  27.687  29.253  1.00  0.00     0.167 HD
ATOM     50  C   UNL A   1      37.928  32.956  30.238  1.00  0.00     0.034 A 
ATOM     51  C   UNL A   1      44.318  30.096  29.148  1.00  0.00     0.034 A 
ATOM     52  C   UNL A   1      39.215  33.504  30.688  1.00  0.00     0.049 A 
ATOM     53  C   UNL A   1      44.159  31.585  28.910  1.00  0.00     0.074 A 
ATOM     54  C   UNL A   1      39.901  33.594  31.886  1.00  0.00     0.029 A 
ATOM     55  N   UNL A   1      40.113  33.913  29.711  1.00  0.00    -0.354 N 
ATOM     56  N   UNL A   1      43.270  32.337  29.501  1.00  0.00    -0.248 NA
ATOM     57  C   UNL A   1      44.937  32.327  27.916  1.00  0.00     0.031 C 
ATOM     58  C   UNL A   1      41.242  34.008  31.599  1.00  0.00     0.029 A 
ATOM     59  C   UNL A   1      41.357  34.204  30.234  1.00  0.00     0.049 A 
ATOM     60  H   UNL A   1      39.889  33.989  28.756  1.00  0.00     0.167 HD
ATOM     61  C   UNL A   1      43.298  33.593  28.956  1.00  0.00     0.074 A 
ATOM     62  C   UNL A   1      44.363  33.539  27.968  1.00  0.00     0.031 C 
ATOM     63  C   UNL A   1      42.420  34.579  29.311  1.00  0.00     0.034 A 
BRANCH  50  64
ATOM     64  C   UNL A   1      36.582  33.459  30.732  1.00  0.00     0.023 A 
ATOM     65  C   UNL A   1      35.660  33.978  29.797  1.00  0.00     0.031 A 
ATOM     66  C   UNL A   1      36.190  33.589  32.085  1.00  0.00     0.131 A 
ATOM     67  C   UNL A   1      34.453  34.581  30.209  1.00  0.00     0.055 A 
ATOM     68  C   UNL A   1      34.963  34.131  32.489  1.00  0.00     0.041 A 
ATOM     69  F   UNL A   1      36.987  33.270  33.108  1.00  0.00    -0.206 F 
ATOM     70  C   UNL A   1      34.089  34.639  31.550  1.00  0.00     0.022 A 
BRANCH  67  71
ATOM     71  S   UNL A   1      33.389  35.384  28.976  1.00  0.00     0.124 S 
ATOM     72  O   UNL A   1      32.860  34.243  28.239  1.00  0.00    -0.237 OA
ATOM     73  O   UNL A   1      32.445  36.114  29.812  1.00  0.00    -0.237 OA
ATOM     74  O   UNL A   1      34.320  36.223  28.221  1.00  0.00    -0.744 OA
ENDBRANCH  67  71
ENDBRANCH  50  64
BRANCH  51  75
ATOM     75  C   UNL A   1      44.828  29.076  28.185  1.00  0.00     0.023 A 
ATOM     76  C   UNL A   1      45.750  28.141  28.706  1.00  0.00     0.031 A 
ATOM     77  C   UNL A   1      44.170  28.751  26.994  1.00  0.00     0.131 A 
ATOM     78  C   UNL A   1      45.821  26.849  28.176  1.00  0.00     0.055 A 
ATOM     79  C   UNL A   1      44.331  27.492  26.399  1.00  0.00     0.041 A 
ATOM     80  F   UNL A   1      43.260  29.580  26.461  1.00  0.00    -0.206 F 
ATOM     81  C   UNL A   1      45.113  26.515  27.021  1.00  0.00     0.022 A 
BRANCH  78  82
ATOM     82  S   UNL A   1      46.559  25.539  29.200  1.00  0.00     0.124 S 
ATOM     83  O   UNL A   1      45.742  25.588  30.406  1.00  0.00    -0.237 OA
ATOM     84  O   UNL A   1      46.400  24.343  28.371  1.00  0.00    -0.237 OA
ATOM     85  O   UNL A   1      47.946  25.972  29.352  1.00  0.00    -0.744 OA
ENDBRANCH  78  82
ENDBRANCH  51  75
BRANCH  63  86
ATOM     86  C   UNL A   1      42.486  35.978  28.746  1.00  0.00     0.023 A 
ATOM     87  C   UNL A   1      42.941  37.066  29.510  1.00  0.00     0.031 A 
ATOM     88  C   UNL A   1      42.026  36.279  27.446  1.00  0.00     0.131 A 
ATOM     89  C   UNL A   1      43.010  38.358  28.956  1.00  0.00     0.055 A 
ATOM     90  C   UNL A   1      42.016  37.579  26.928  1.00  0.00     0.041 A 
ATOM     91  F   UNL A   1      41.607  35.321  26.607  1.00  0.00    -0.206 F 
ATOM     92  C   UNL A   1      42.524  38.627  27.679  1.00  0.00     0.022 A 
BRANCH  89  93
ATOM     93  S   UNL A   1      43.826  39.664  29.911  1.00  0.00     0.124 S 
ATOM     94  O   UNL A   1      45.130  39.765  29.263  1.00  0.00    -0.237 OA
ATOM     95  O   UNL A   1      42.924  40.793  29.699  1.00  0.00    -0.237 OA
ATOM     96  O   UNL A   1      43.846  39.136  31.273  1.00  0.00    -0.744 OA
ENDBRANCH  89  93
ENDBRANCH  63  86
ENDBRANCH  37  38
ENDBRANCH  29  32
ENDBRANCH  27  28
ENDBRANCH  26  27
ENDBRANCH   1  26
TORSDOF 17
ENDMDL
