MODEL 1
REMARK VINA RESULT:     -12.9      0.000      0.000
REMARK SMILES [NH3+][C@H]1C=C[C@H](C(=O)N2CCCc3c(C(=O)NCCCCNC(=O)c4ccc(-c5c6nc(c(-c7cc(S(=O)(=O)[O-])ccc7F)c7ccc([nH]7)c(-c7cc(S(=O)(=O)[O-])ccc7F)c7nc(c(-c8cc(S(=O)(=O)[O-])ccc8F)c8ccc5[nH]8)C=C7)C=C6)cc4)cccc32)C1
REMARK SMILES IDX 18 1 17 2 16 3 14 4 15 5 13 7 8 8 9 9 90 10 10 11 12 12
REMARK SMILES IDX 89 13 11 14 88 15 87 16 6 17 7 18 5 19 2 20 3 21 91 22 4 23
REMARK SMILES IDX 1 24 19 28 20 29 21 30 22 31 23 33 24 34 25 35 86 36 26 37
REMARK SMILES IDX 85 38 27 39 28 40 29 41 79 42 30 43 84 44 78 45 80 46 31 47
REMARK SMILES IDX 83 48 77 49 76 50 32 52 64 53 44 54 63 55 45 56 48 57 62 58
REMARK SMILES IDX 81 59 46 60 47 61 61 63 82 64 49 65 33 66 34 67 42 68 35 69
REMARK SMILES IDX 41 70 43 71 40 72 36 73 37 74 38 75 39 76 65 77 66 78 74 79
REMARK SMILES IDX 67 80 73 81 75 82 72 83 68 84 69 85 70 86 71 87 50 88 51 89
REMARK SMILES IDX 59 90 52 91 58 92 60 93 57 94 53 95 54 96 55 97 56 98
REMARK H PARENT 16 6 1 25 1 26 1 27 21 32 80 51 48 62
REMARK Flexibility Score: inf
ROOT
ATOM      1  C   UNL A   1      32.259  28.779  24.440  1.00  0.00     0.023 C 
ENDROOT
BRANCH   1   2
ATOM      2  C   UNL A   1      31.574  28.400  23.120  1.00  0.00     0.116 C 
BRANCH   2   3
ATOM      3  N   UNL A   1      30.348  27.668  23.373  1.00  0.00    -0.352 N 
ATOM      4  C   UNL A   1      29.950  26.473  23.900  1.00  0.00     0.251 C 
ATOM      5  O   UNL A   1      28.718  26.329  23.876  1.00  0.00    -0.269 OA
ATOM      6  H   UNL A   1      29.568  28.191  23.077  1.00  0.00     0.163 HD
BRANCH   4   7
ATOM      7  C   UNL A   1      30.755  25.351  24.519  1.00  0.00     0.045 A 
ATOM      8  N   UNL A   1      33.378  22.611  24.218  1.00  0.00    -0.312 N 
ATOM      9  C   UNL A   1      34.079  23.105  23.042  1.00  0.00     0.126 C 
ATOM     10  C   UNL A   1      32.290  23.419  24.724  1.00  0.00     0.048 A 
ATOM     11  C   UNL A   1      33.100  23.594  22.005  1.00  0.00     0.027 C 
ATOM     12  C   UNL A   1      31.776  24.524  23.975  1.00  0.00    -0.011 A 
ATOM     13  C   UNL A   1      31.754  23.140  25.988  1.00  0.00     0.027 A 
ATOM     14  C   UNL A   1      32.303  24.736  22.593  1.00  0.00     0.040 C 
ATOM     15  C   UNL A   1      30.753  23.930  26.529  1.00  0.00     0.003 A 
ATOM     16  C   UNL A   1      30.278  25.021  25.811  1.00  0.00     0.014 A 
BRANCH   8  17
ATOM     17  C   UNL A   1      33.653  21.345  24.738  1.00  0.00     0.234 C 
ATOM     18  O   UNL A   1      34.719  21.083  25.310  1.00  0.00    -0.274 OA
BRANCH  17  19
ATOM     19  C   UNL A   1      32.611  20.216  24.602  1.00  0.00     0.108 C 
ATOM     20  C   UNL A   1      33.013  17.805  24.321  1.00  0.00     0.205 C 
ATOM     21  C   UNL A   1      32.528  18.445  23.064  1.00  0.00     0.033 C 
ATOM     22  C   UNL A   1      32.844  18.912  25.377  1.00  0.00     0.087 C 
ATOM     23  C   UNL A   1      32.347  19.764  23.201  1.00  0.00    -0.012 C 
BRANCH  20  24
ATOM     24  N   UNL A   1      32.254  16.617  24.656  1.00  0.00    -0.352 N 
ATOM     25  H   UNL A   1      32.828  15.789  24.493  1.00  0.00     0.345 HD
ATOM     26  H   UNL A   1      31.419  16.571  24.070  1.00  0.00     0.345 HD
ATOM     27  H   UNL A   1      31.979  16.654  25.637  1.00  0.00     0.345 HD
ENDBRANCH  20  24
ENDBRANCH  17  19
ENDBRANCH   8  17
ENDBRANCH   4   7
ENDBRANCH   2   3
ENDBRANCH   1   2
BRANCH   1  28
ATOM     28  C   UNL A   1      31.510  29.772  25.319  1.00  0.00     0.023 C 
BRANCH  28  29
ATOM     29  C   UNL A   1      32.322  30.309  26.484  1.00  0.00     0.116 C 
BRANCH  29  30
ATOM     30  N   UNL A   1      32.084  31.717  26.776  1.00  0.00    -0.352 N 
ATOM     31  C   UNL A   1      32.941  32.603  27.402  1.00  0.00     0.251 C 
ATOM     32  H   UNL A   1      31.213  32.079  26.497  1.00  0.00     0.163 HD
ATOM     33  O   UNL A   1      32.598  33.746  27.637  1.00  0.00    -0.269 OA
BRANCH  31  34
ATOM     34  C   UNL A   1      34.261  32.088  27.830  1.00  0.00     0.039 A 
ATOM     35  C   UNL A   1      35.313  32.990  28.002  1.00  0.00     0.014 A 
ATOM     36  C   UNL A   1      34.397  30.751  28.207  1.00  0.00     0.014 A 
ATOM     37  C   UNL A   1      36.476  32.566  28.649  1.00  0.00     0.010 A 
ATOM     38  C   UNL A   1      35.516  30.359  28.930  1.00  0.00     0.010 A 
ATOM     39  C   UNL A   1      36.562  31.264  29.168  1.00  0.00    -0.014 A 
BRANCH  39  40
ATOM     40  C   UNL A   1      37.737  30.815  29.958  1.00  0.00     0.031 A 
ATOM     41  C   UNL A   1      38.725  29.866  29.338  1.00  0.00     0.074 A 
ATOM     42  C   UNL A   1      37.862  31.181  31.250  1.00  0.00     0.049 A 
ATOM     43  N   UNL A   1      39.735  29.243  29.887  1.00  0.00    -0.248 NA
ATOM     44  C   UNL A   1      38.516  29.542  27.919  1.00  0.00     0.031 C 
ATOM     45  C   UNL A   1      36.934  32.050  31.980  1.00  0.00     0.029 A 
ATOM     46  N   UNL A   1      38.811  30.854  32.186  1.00  0.00    -0.354 N 
ATOM     47  C   UNL A   1      40.270  28.440  28.887  1.00  0.00     0.074 A 
ATOM     48  C   UNL A   1      39.425  28.599  27.723  1.00  0.00     0.031 C 
ATOM     49  C   UNL A   1      37.371  32.199  33.242  1.00  0.00     0.029 A 
ATOM     50  C   UNL A   1      38.583  31.407  33.425  1.00  0.00     0.049 A 
ATOM     51  H   UNL A   1      39.584  30.277  31.988  1.00  0.00     0.167 HD
ATOM     52  C   UNL A   1      41.382  27.665  28.924  1.00  0.00     0.034 A 
ATOM     53  C   UNL A   1      39.268  31.280  34.579  1.00  0.00     0.034 A 
ATOM     54  C   UNL A   1      42.225  27.533  30.085  1.00  0.00     0.049 A 
ATOM     55  C   UNL A   1      40.510  30.425  34.595  1.00  0.00     0.074 A 
ATOM     56  C   UNL A   1      43.393  26.805  30.228  1.00  0.00     0.029 A 
ATOM     57  N   UNL A   1      41.992  28.153  31.306  1.00  0.00    -0.354 N 
ATOM     58  N   UNL A   1      41.027  29.701  33.628  1.00  0.00    -0.248 NA
ATOM     59  C   UNL A   1      41.271  30.381  35.851  1.00  0.00     0.031 C 
ATOM     60  C   UNL A   1      43.842  26.950  31.545  1.00  0.00     0.029 A 
ATOM     61  C   UNL A   1      42.988  27.817  32.208  1.00  0.00     0.049 A 
ATOM     62  H   UNL A   1      41.230  28.745  31.502  1.00  0.00     0.167 HD
ATOM     63  C   UNL A   1      42.188  29.142  34.151  1.00  0.00     0.074 A 
ATOM     64  C   UNL A   1      42.304  29.622  35.513  1.00  0.00     0.031 C 
ATOM     65  C   UNL A   1      43.084  28.310  33.561  1.00  0.00     0.034 A 
BRANCH  52  66
ATOM     66  C   UNL A   1      41.726  26.899  27.669  1.00  0.00     0.023 A 
ATOM     67  C   UNL A   1      41.447  25.526  27.552  1.00  0.00     0.031 A 
ATOM     68  C   UNL A   1      42.385  27.530  26.601  1.00  0.00     0.131 A 
ATOM     69  C   UNL A   1      41.908  24.810  26.439  1.00  0.00     0.055 A 
ATOM     70  C   UNL A   1      42.763  26.829  25.454  1.00  0.00     0.041 A 
ATOM     71  F   UNL A   1      42.696  28.834  26.663  1.00  0.00    -0.206 F 
ATOM     72  C   UNL A   1      42.542  25.456  25.376  1.00  0.00     0.022 A 
BRANCH  69  73
ATOM     73  S   UNL A   1      41.808  22.999  26.476  1.00  0.00     0.124 S 
ATOM     74  O   UNL A   1      40.369  22.788  26.620  1.00  0.00    -0.237 OA
ATOM     75  O   UNL A   1      42.383  22.624  25.190  1.00  0.00    -0.237 OA
ATOM     76  O   UNL A   1      42.605  22.637  27.646  1.00  0.00    -0.744 OA
ENDBRANCH  69  73
ENDBRANCH  52  66
BRANCH  53  77
ATOM     77  C   UNL A   1      38.804  31.966  35.818  1.00  0.00     0.023 A 
ATOM     78  C   UNL A   1      38.153  31.256  36.839  1.00  0.00     0.031 A 
ATOM     79  C   UNL A   1      38.961  33.354  35.978  1.00  0.00     0.131 A 
ATOM     80  C   UNL A   1      37.635  31.940  37.949  1.00  0.00     0.055 A 
ATOM     81  C   UNL A   1      38.488  34.025  37.108  1.00  0.00     0.041 A 
ATOM     82  F   UNL A   1      39.586  34.080  35.037  1.00  0.00    -0.206 F 
ATOM     83  C   UNL A   1      37.807  33.319  38.096  1.00  0.00     0.022 A 
BRANCH  80  84
ATOM     84  S   UNL A   1      36.653  31.014  39.160  1.00  0.00     0.124 S 
ATOM     85  O   UNL A   1      35.446  31.828  39.251  1.00  0.00    -0.237 OA
ATOM     86  O   UNL A   1      36.506  29.720  38.501  1.00  0.00    -0.237 OA
ATOM     87  O   UNL A   1      37.496  31.011  40.353  1.00  0.00    -0.744 OA
ENDBRANCH  80  84
ENDBRANCH  53  77
BRANCH  65  88
ATOM     88  C   UNL A   1      44.290  27.918  34.373  1.00  0.00     0.023 A 
ATOM     89  C   UNL A   1      44.292  26.774  35.189  1.00  0.00     0.031 A 
ATOM     90  C   UNL A   1      45.453  28.706  34.328  1.00  0.00     0.131 A 
ATOM     91  C   UNL A   1      45.420  26.475  35.967  1.00  0.00     0.055 A 
ATOM     92  C   UNL A   1      46.591  28.376  35.065  1.00  0.00     0.041 A 
ATOM     93  F   UNL A   1      45.502  29.808  33.563  1.00  0.00    -0.206 F 
ATOM     94  C   UNL A   1      46.575  27.261  35.899  1.00  0.00     0.022 A 
BRANCH  91  95
ATOM     95  S   UNL A   1      45.337  25.083  37.125  1.00  0.00     0.124 S 
ATOM     96  O   UNL A   1      46.741  24.893  37.473  1.00  0.00    -0.237 OA
ATOM     97  O   UNL A   1      44.482  25.608  38.185  1.00  0.00    -0.237 OA
ATOM     98  O   UNL A   1      44.745  24.009  36.329  1.00  0.00    -0.744 OA
ENDBRANCH  91  95
ENDBRANCH  65  88
ENDBRANCH  39  40
ENDBRANCH  31  34
ENDBRANCH  29  30
ENDBRANCH  28  29
ENDBRANCH   1  28
TORSDOF 17
ENDMDL
MODEL 2
REMARK VINA RESULT:     -12.8      2.238      7.838
REMARK SMILES [NH3+][C@H]1C=C[C@H](C(=O)N2CCCc3c(C(=O)NCCCCNC(=O)c4ccc(-c5c6nc(c(-c7cc(S(=O)(=O)[O-])ccc7F)c7ccc([nH]7)c(-c7cc(S(=O)(=O)[O-])ccc7F)c7nc(c(-c8cc(S(=O)(=O)[O-])ccc8F)c8ccc5[nH]8)C=C7)C=C6)cc4)cccc32)C1
REMARK SMILES IDX 18 1 17 2 16 3 14 4 15 5 13 7 8 8 9 9 90 10 10 11 12 12
REMARK SMILES IDX 89 13 11 14 88 15 87 16 6 17 7 18 5 19 2 20 3 21 91 22 4 23
REMARK SMILES IDX 1 24 19 28 20 29 21 30 22 31 23 33 24 34 25 35 86 36 26 37
REMARK SMILES IDX 85 38 27 39 28 40 29 41 79 42 30 43 84 44 78 45 80 46 31 47
REMARK SMILES IDX 83 48 77 49 76 50 32 52 64 53 44 54 63 55 45 56 48 57 62 58
REMARK SMILES IDX 81 59 46 60 47 61 61 63 82 64 49 65 33 66 34 67 42 68 35 69
REMARK SMILES IDX 41 70 43 71 40 72 36 73 37 74 38 75 39 76 65 77 66 78 74 79
REMARK SMILES IDX 67 80 73 81 75 82 72 83 68 84 69 85 70 86 71 87 50 88 51 89
REMARK SMILES IDX 59 90 52 91 58 92 60 93 57 94 53 95 54 96 55 97 56 98
REMARK H PARENT 16 6 1 25 1 26 1 27 21 32 80 51 48 62
REMARK Flexibility Score: inf
ROOT
ATOM      1  C   UNL A   1      32.734  28.025  26.309  1.00  0.00     0.023 C 
ENDROOT
BRANCH   1   2
ATOM      2  C   UNL A   1      33.229  28.250  24.874  1.00  0.00     0.116 C 
BRANCH   2   3
ATOM      3  N   UNL A   1      32.149  28.054  23.926  1.00  0.00    -0.352 N 
ATOM      4  C   UNL A   1      31.549  27.037  23.241  1.00  0.00     0.251 C 
ATOM      5  O   UNL A   1      30.621  27.432  22.519  1.00  0.00    -0.269 OA
ATOM      6  H   UNL A   1      31.719  28.914  23.712  1.00  0.00     0.163 HD
BRANCH   4   7
ATOM      7  C   UNL A   1      31.815  25.547  23.255  1.00  0.00     0.045 A 
ATOM      8  N   UNL A   1      31.738  22.195  25.055  1.00  0.00    -0.312 N 
ATOM      9  C   UNL A   1      30.733  22.508  26.061  1.00  0.00     0.126 C 
ATOM     10  C   UNL A   1      32.044  23.227  24.088  1.00  0.00     0.048 A 
ATOM     11  C   UNL A   1      30.964  23.883  26.635  1.00  0.00     0.027 C 
ATOM     12  C   UNL A   1      31.563  24.564  24.251  1.00  0.00    -0.011 A 
ATOM     13  C   UNL A   1      32.796  22.903  22.951  1.00  0.00     0.027 A 
ATOM     14  C   UNL A   1      30.847  24.898  25.520  1.00  0.00     0.040 C 
ATOM     15  C   UNL A   1      33.058  23.852  21.976  1.00  0.00     0.003 A 
ATOM     16  C   UNL A   1      32.562  25.142  22.124  1.00  0.00     0.014 A 
BRANCH   8  17
ATOM     17  C   UNL A   1      32.469  21.008  25.117  1.00  0.00     0.234 C 
ATOM     18  O   UNL A   1      32.049  19.948  24.638  1.00  0.00    -0.274 OA
BRANCH  17  19
ATOM     19  C   UNL A   1      33.849  20.991  25.807  1.00  0.00     0.108 C 
ATOM     20  C   UNL A   1      35.705  22.582  25.530  1.00  0.00     0.205 C 
ATOM     21  C   UNL A   1      35.984  21.272  24.872  1.00  0.00     0.033 C 
ATOM     22  C   UNL A   1      34.418  22.316  26.332  1.00  0.00     0.087 C 
ATOM     23  C   UNL A   1      34.960  20.418  24.986  1.00  0.00    -0.012 C 
BRANCH  20  24
ATOM     24  N   UNL A   1      36.796  23.007  26.383  1.00  0.00    -0.352 N 
ATOM     25  H   UNL A   1      37.658  23.050  25.838  1.00  0.00     0.345 HD
ATOM     26  H   UNL A   1      36.910  22.339  27.146  1.00  0.00     0.345 HD
ATOM     27  H   UNL A   1      36.589  23.929  26.767  1.00  0.00     0.345 HD
ENDBRANCH  20  24
ENDBRANCH  17  19
ENDBRANCH   8  17
ENDBRANCH   4   7
ENDBRANCH   2   3
ENDBRANCH   1   2
BRANCH   1  28
ATOM     28  C   UNL A   1      32.645  29.266  27.187  1.00  0.00     0.023 C 
BRANCH  28  29
ATOM     29  C   UNL A   1      33.629  30.361  26.818  1.00  0.00     0.116 C 
BRANCH  29  30
ATOM     30  N   UNL A   1      33.561  31.537  27.678  1.00  0.00    -0.352 N 
ATOM     31  C   UNL A   1      34.498  31.959  28.601  1.00  0.00     0.251 C 
ATOM     32  H   UNL A   1      32.754  32.093  27.592  1.00  0.00     0.163 HD
ATOM     33  O   UNL A   1      34.294  32.934  29.300  1.00  0.00    -0.269 OA
BRANCH  31  34
ATOM     34  C   UNL A   1      35.725  31.143  28.751  1.00  0.00     0.039 A 
ATOM     35  C   UNL A   1      36.950  31.692  28.369  1.00  0.00     0.014 A 
ATOM     36  C   UNL A   1      35.666  29.914  29.411  1.00  0.00     0.014 A 
ATOM     37  C   UNL A   1      38.132  31.048  28.741  1.00  0.00     0.010 A 
ATOM     38  C   UNL A   1      36.842  29.326  29.858  1.00  0.00     0.010 A 
ATOM     39  C   UNL A   1      38.086  29.892  29.536  1.00  0.00    -0.014 A 
BRANCH  39  40
ATOM     40  C   UNL A   1      39.324  29.244  30.044  1.00  0.00     0.031 A 
ATOM     41  C   UNL A   1      40.019  29.821  31.246  1.00  0.00     0.074 A 
ATOM     42  C   UNL A   1      39.867  28.208  29.374  1.00  0.00     0.049 A 
ATOM     43  N   UNL A   1      41.175  29.503  31.768  1.00  0.00    -0.248 NA
ATOM     44  C   UNL A   1      39.339  30.937  31.920  1.00  0.00     0.031 C 
ATOM     45  C   UNL A   1      39.317  27.599  28.160  1.00  0.00     0.029 A 
ATOM     46  N   UNL A   1      41.015  27.492  29.609  1.00  0.00    -0.354 N 
ATOM     47  C   UNL A   1      41.369  30.391  32.820  1.00  0.00     0.074 A 
ATOM     48  C   UNL A   1      40.247  31.306  32.810  1.00  0.00     0.031 C 
ATOM     49  C   UNL A   1      40.117  26.594  27.769  1.00  0.00     0.029 A 
ATOM     50  C   UNL A   1      41.258  26.511  28.677  1.00  0.00     0.049 A 
ATOM     51  H   UNL A   1      41.609  27.666  30.374  1.00  0.00     0.167 HD
ATOM     52  C   UNL A   1      42.373  30.423  33.731  1.00  0.00     0.034 A 
ATOM     53  C   UNL A   1      42.289  25.649  28.562  1.00  0.00     0.034 A 
ATOM     54  C   UNL A   1      43.471  29.491  33.740  1.00  0.00     0.049 A 
ATOM     55  C   UNL A   1      43.387  25.691  29.594  1.00  0.00     0.074 A 
ATOM     56  C   UNL A   1      44.526  29.405  34.632  1.00  0.00     0.029 A 
ATOM     57  N   UNL A   1      43.655  28.475  32.811  1.00  0.00    -0.354 N 
ATOM     58  N   UNL A   1      43.537  26.513  30.607  1.00  0.00    -0.248 NA
ATOM     59  C   UNL A   1      44.447  24.681  29.477  1.00  0.00     0.031 C 
ATOM     60  C   UNL A   1      45.367  28.366  34.219  1.00  0.00     0.029 A 
ATOM     61  C   UNL A   1      44.807  27.764  33.104  1.00  0.00     0.049 A 
ATOM     62  H   UNL A   1      43.052  28.286  32.055  1.00  0.00     0.167 HD
ATOM     63  C   UNL A   1      44.690  26.098  31.265  1.00  0.00     0.074 A 
ATOM     64  C   UNL A   1      45.190  24.947  30.542  1.00  0.00     0.031 C 
ATOM     65  C   UNL A   1      45.284  26.617  32.369  1.00  0.00     0.034 A 
BRANCH  52  66
ATOM     66  C   UNL A   1      42.317  31.512  34.775  1.00  0.00     0.023 A 
ATOM     67  C   UNL A   1      41.313  31.527  35.761  1.00  0.00     0.031 A 
ATOM     68  C   UNL A   1      43.238  32.573  34.757  1.00  0.00     0.131 A 
ATOM     69  C   UNL A   1      41.197  32.625  36.625  1.00  0.00     0.055 A 
ATOM     70  C   UNL A   1      43.170  33.620  35.679  1.00  0.00     0.041 A 
ATOM     71  F   UNL A   1      44.204  32.623  33.828  1.00  0.00    -0.206 F 
ATOM     72  C   UNL A   1      42.134  33.659  36.609  1.00  0.00     0.022 A 
BRANCH  69  73
ATOM     73  S   UNL A   1      39.712  32.754  37.659  1.00  0.00     0.124 S 
ATOM     74  O   UNL A   1      38.921  31.622  37.178  1.00  0.00    -0.237 OA
ATOM     75  O   UNL A   1      40.254  32.628  39.006  1.00  0.00    -0.237 OA
ATOM     76  O   UNL A   1      39.174  34.070  37.321  1.00  0.00    -0.744 OA
ENDBRANCH  69  73
ENDBRANCH  52  66
BRANCH  53  77
ATOM     77  C   UNL A   1      42.344  24.678  27.432  1.00  0.00     0.023 A 
ATOM     78  C   UNL A   1      41.559  23.514  27.439  1.00  0.00     0.031 A 
ATOM     79  C   UNL A   1      43.221  24.875  26.351  1.00  0.00     0.131 A 
ATOM     80  C   UNL A   1      41.703  22.566  26.415  1.00  0.00     0.055 A 
ATOM     81  C   UNL A   1      43.325  23.952  25.308  1.00  0.00     0.041 A 
ATOM     82  F   UNL A   1      43.986  25.977  26.290  1.00  0.00    -0.206 F 
ATOM     83  C   UNL A   1      42.573  22.781  25.343  1.00  0.00     0.022 A 
BRANCH  80  84
ATOM     84  S   UNL A   1      40.799  20.999  26.548  1.00  0.00     0.124 S 
ATOM     85  O   UNL A   1      41.625  20.109  25.740  1.00  0.00    -0.237 OA
ATOM     86  O   UNL A   1      40.819  20.762  27.988  1.00  0.00    -0.237 OA
ATOM     87  O   UNL A   1      39.487  21.314  25.988  1.00  0.00    -0.744 OA
ENDBRANCH  80  84
ENDBRANCH  53  77
BRANCH  65  88
ATOM     88  C   UNL A   1      46.506  25.903  32.888  1.00  0.00     0.023 A 
ATOM     89  C   UNL A   1      46.407  24.820  33.777  1.00  0.00     0.031 A 
ATOM     90  C   UNL A   1      47.786  26.321  32.484  1.00  0.00     0.131 A 
ATOM     91  C   UNL A   1      47.574  24.219  34.274  1.00  0.00     0.055 A 
ATOM     92  C   UNL A   1      48.941  25.686  32.942  1.00  0.00     0.041 A 
ATOM     93  F   UNL A   1      47.933  27.350  31.635  1.00  0.00    -0.206 F 
ATOM     94  C   UNL A   1      48.839  24.636  33.851  1.00  0.00     0.022 A 
BRANCH  91  95
ATOM     95  S   UNL A   1      47.419  22.927  35.536  1.00  0.00     0.124 S 
ATOM     96  O   UNL A   1      48.665  23.078  36.279  1.00  0.00    -0.237 OA
ATOM     97  O   UNL A   1      46.204  23.324  36.242  1.00  0.00    -0.237 OA
ATOM     98  O   UNL A   1      47.306  21.696  34.756  1.00  0.00    -0.744 OA
ENDBRANCH  91  95
ENDBRANCH  65  88
ENDBRANCH  39  40
ENDBRANCH  31  34
ENDBRANCH  29  30
ENDBRANCH  28  29
ENDBRANCH   1  28
TORSDOF 17
ENDMDL
MODEL 3
REMARK VINA RESULT:     -12.8      1.702      7.668
REMARK SMILES [NH3+][C@H]1C=C[C@H](C(=O)N2CCCc3c(C(=O)NCCCCNC(=O)c4ccc(-c5c6nc(c(-c7cc(S(=O)(=O)[O-])ccc7F)c7ccc([nH]7)c(-c7cc(S(=O)(=O)[O-])ccc7F)c7nc(c(-c8cc(S(=O)(=O)[O-])ccc8F)c8ccc5[nH]8)C=C7)C=C6)cc4)cccc32)C1
REMARK SMILES IDX 18 1 17 2 16 3 14 4 15 5 13 7 8 8 9 9 90 10 10 11 12 12
REMARK SMILES IDX 89 13 11 14 88 15 87 16 6 17 7 18 5 19 2 20 3 21 91 22 4 23
REMARK SMILES IDX 1 24 19 28 20 29 21 30 22 31 23 33 24 34 25 35 86 36 26 37
REMARK SMILES IDX 85 38 27 39 28 40 29 41 79 42 30 43 84 44 78 45 80 46 31 47
REMARK SMILES IDX 83 48 77 49 76 50 32 52 64 53 44 54 63 55 45 56 48 57 62 58
REMARK SMILES IDX 81 59 46 60 47 61 61 63 82 64 49 65 33 66 34 67 42 68 35 69
REMARK SMILES IDX 41 70 43 71 40 72 36 73 37 74 38 75 39 76 65 77 66 78 74 79
REMARK SMILES IDX 67 80 73 81 75 82 72 83 68 84 69 85 70 86 71 87 50 88 51 89
REMARK SMILES IDX 59 90 52 91 58 92 60 93 57 94 53 95 54 96 55 97 56 98
REMARK H PARENT 16 6 1 25 1 26 1 27 21 32 80 51 48 62
REMARK Flexibility Score: inf
ROOT
ATOM      1  C   UNL A   1      31.825  27.465  26.870  1.00  0.00     0.023 C 
ENDROOT
BRANCH   1   2
ATOM      2  C   UNL A   1      31.294  27.406  25.431  1.00  0.00     0.116 C 
BRANCH   2   3
ATOM      3  N   UNL A   1      32.391  27.410  24.483  1.00  0.00    -0.352 N 
ATOM      4  C   UNL A   1      33.147  26.520  23.775  1.00  0.00     0.251 C 
ATOM      5  O   UNL A   1      34.005  27.077  23.072  1.00  0.00    -0.269 OA
ATOM      6  H   UNL A   1      32.677  28.333  24.292  1.00  0.00     0.163 HD
BRANCH   4   7
ATOM      7  C   UNL A   1      33.076  25.011  23.694  1.00  0.00     0.045 A 
ATOM      8  N   UNL A   1      33.492  21.593  25.313  1.00  0.00    -0.312 N 
ATOM      9  C   UNL A   1      33.407  21.997  26.708  1.00  0.00     0.126 C 
ATOM     10  C   UNL A   1      33.325  22.627  24.316  1.00  0.00     0.048 A 
ATOM     11  C   UNL A   1      34.199  23.258  26.947  1.00  0.00     0.027 C 
ATOM     12  C   UNL A   1      33.313  24.011  24.677  1.00  0.00    -0.011 A 
ATOM     13  C   UNL A   1      33.135  22.268  22.975  1.00  0.00     0.027 A 
ATOM     14  C   UNL A   1      33.614  24.365  26.098  1.00  0.00     0.040 C 
ATOM     15  C   UNL A   1      32.912  23.230  22.004  1.00  0.00     0.003 A 
ATOM     16  C   UNL A   1      32.870  24.571  22.364  1.00  0.00     0.014 A 
BRANCH   8  17
ATOM     17  C   UNL A   1      33.864  20.293  24.965  1.00  0.00     0.234 C 
ATOM     18  O   UNL A   1      35.047  19.962  24.815  1.00  0.00    -0.274 OA
BRANCH  17  19
ATOM     19  C   UNL A   1      32.780  19.217  24.748  1.00  0.00     0.108 C 
ATOM     20  C   UNL A   1      33.009  16.774  24.927  1.00  0.00     0.205 C 
ATOM     21  C   UNL A   1      32.888  17.225  23.510  1.00  0.00     0.033 C 
ATOM     22  C   UNL A   1      32.705  18.047  25.737  1.00  0.00     0.087 C 
ATOM     23  C   UNL A   1      32.804  18.556  23.406  1.00  0.00    -0.012 C 
BRANCH  20  24
ATOM     24  N   UNL A   1      32.086  15.701  25.238  1.00  0.00    -0.352 N 
ATOM     25  H   UNL A   1      32.000  15.608  26.251  1.00  0.00     0.345 HD
ATOM     26  H   UNL A   1      32.437  14.827  24.846  1.00  0.00     0.345 HD
ATOM     27  H   UNL A   1      31.172  15.911  24.837  1.00  0.00     0.345 HD
ENDBRANCH  20  24
ENDBRANCH  17  19
ENDBRANCH   8  17
ENDBRANCH   4   7
ENDBRANCH   2   3
ENDBRANCH   1   2
BRANCH   1  28
ATOM     28  C   UNL A   1      31.956  28.856  27.476  1.00  0.00     0.023 C 
BRANCH  28  29
ATOM     29  C   UNL A   1      32.961  29.749  26.772  1.00  0.00     0.116 C 
BRANCH  29  30
ATOM     30  N   UNL A   1      32.921  31.142  27.198  1.00  0.00    -0.352 N 
ATOM     31  C   UNL A   1      33.923  31.860  27.824  1.00  0.00     0.251 C 
ATOM     32  H   UNL A   1      32.083  31.628  27.022  1.00  0.00     0.163 HD
ATOM     33  O   UNL A   1      33.741  33.009  28.181  1.00  0.00    -0.269 OA
BRANCH  31  34
ATOM     34  C   UNL A   1      35.196  31.157  28.100  1.00  0.00     0.039 A 
ATOM     35  C   UNL A   1      36.395  31.861  27.977  1.00  0.00     0.014 A 
ATOM     36  C   UNL A   1      35.177  29.864  28.625  1.00  0.00     0.014 A 
ATOM     37  C   UNL A   1      37.571  31.299  28.480  1.00  0.00     0.010 A 
ATOM     38  C   UNL A   1      36.328  29.349  29.205  1.00  0.00     0.010 A 
ATOM     39  C   UNL A   1      37.535  30.065  29.148  1.00  0.00    -0.014 A 
BRANCH  39  40
ATOM     40  C   UNL A   1      38.744  29.490  29.792  1.00  0.00     0.031 A 
ATOM     41  C   UNL A   1      39.190  30.016  31.128  1.00  0.00     0.074 A 
ATOM     42  C   UNL A   1      39.486  28.574  29.138  1.00  0.00     0.049 A 
ATOM     43  N   UNL A   1      40.282  29.760  31.799  1.00  0.00    -0.248 NA
ATOM     44  C   UNL A   1      38.304  30.999  31.771  1.00  0.00     0.031 C 
ATOM     45  C   UNL A   1      39.189  28.030  27.810  1.00  0.00     0.029 A 
ATOM     46  N   UNL A   1      40.655  27.948  29.495  1.00  0.00    -0.354 N 
ATOM     47  C   UNL A   1      40.224  30.562  32.932  1.00  0.00     0.074 A 
ATOM     48  C   UNL A   1      39.026  31.367  32.817  1.00  0.00     0.031 C 
ATOM     49  C   UNL A   1      40.140  27.143  27.474  1.00  0.00     0.029 A 
ATOM     50  C   UNL A   1      41.135  27.082  28.540  1.00  0.00     0.049 A 
ATOM     51  H   UNL A   1      41.108  28.106  30.354  1.00  0.00     0.167 HD
ATOM     52  C   UNL A   1      41.073  30.603  33.989  1.00  0.00     0.034 A 
ATOM     53  C   UNL A   1      42.256  26.334  28.522  1.00  0.00     0.034 A 
ATOM     54  C   UNL A   1      42.250  29.779  34.099  1.00  0.00     0.049 A 
ATOM     55  C   UNL A   1      43.179  26.382  29.713  1.00  0.00     0.074 A 
ATOM     56  C   UNL A   1      43.163  29.710  35.136  1.00  0.00     0.029 A 
ATOM     57  N   UNL A   1      42.674  28.873  33.135  1.00  0.00    -0.354 N 
ATOM     58  N   UNL A   1      43.090  27.118  30.798  1.00  0.00    -0.248 NA
ATOM     59  C   UNL A   1      44.345  25.488  29.687  1.00  0.00     0.031 C 
ATOM     60  C   UNL A   1      44.161  28.795  34.782  1.00  0.00     0.029 A 
ATOM     61  C   UNL A   1      43.839  28.248  33.550  1.00  0.00     0.049 A 
ATOM     62  H   UNL A   1      42.214  28.699  32.282  1.00  0.00     0.167 HD
ATOM     63  C   UNL A   1      44.171  26.753  31.594  1.00  0.00     0.074 A 
ATOM     64  C   UNL A   1      44.890  25.723  30.872  1.00  0.00     0.031 C 
ATOM     65  C   UNL A   1      44.537  27.221  32.814  1.00  0.00     0.034 A 
BRANCH  52  66
ATOM     66  C   UNL A   1      40.749  31.582  35.091  1.00  0.00     0.023 A 
ATOM     67  C   UNL A   1      39.706  31.337  36.003  1.00  0.00     0.031 A 
ATOM     68  C   UNL A   1      41.449  32.795  35.204  1.00  0.00     0.131 A 
ATOM     69  C   UNL A   1      39.332  32.326  36.922  1.00  0.00     0.055 A 
ATOM     70  C   UNL A   1      41.129  33.740  36.181  1.00  0.00     0.041 A 
ATOM     71  F   UNL A   1      42.441  33.094  34.351  1.00  0.00    -0.206 F 
ATOM     72  C   UNL A   1      40.052  33.516  37.036  1.00  0.00     0.022 A 
BRANCH  69  73
ATOM     73  S   UNL A   1      37.792  32.099  37.854  1.00  0.00     0.124 S 
ATOM     74  O   UNL A   1      37.500  30.690  37.598  1.00  0.00    -0.237 OA
ATOM     75  O   UNL A   1      38.195  32.431  39.215  1.00  0.00    -0.237 OA
ATOM     76  O   UNL A   1      36.871  33.043  37.227  1.00  0.00    -0.744 OA
ENDBRANCH  69  73
ENDBRANCH  52  66
BRANCH  53  77
ATOM     77  C   UNL A   1      42.580  25.479  27.345  1.00  0.00     0.023 A 
ATOM     78  C   UNL A   1      42.142  24.147  27.274  1.00  0.00     0.031 A 
ATOM     79  C   UNL A   1      43.376  25.967  26.293  1.00  0.00     0.131 A 
ATOM     80  C   UNL A   1      42.543  23.333  26.205  1.00  0.00     0.055 A 
ATOM     81  C   UNL A   1      43.733  25.166  25.206  1.00  0.00     0.041 A 
ATOM     82  F   UNL A   1      43.813  27.236  26.306  1.00  0.00    -0.206 F 
ATOM     83  C   UNL A   1      43.328  23.835  25.164  1.00  0.00     0.022 A 
BRANCH  80  84
ATOM     84  S   UNL A   1      42.099  21.574  26.237  1.00  0.00     0.124 S 
ATOM     85  O   UNL A   1      40.689  21.616  25.865  1.00  0.00    -0.237 OA
ATOM     86  O   UNL A   1      43.009  21.015  25.243  1.00  0.00    -0.237 OA
ATOM     87  O   UNL A   1      42.369  21.180  27.618  1.00  0.00    -0.744 OA
ENDBRANCH  80  84
ENDBRANCH  53  77
BRANCH  65  88
ATOM     88  C   UNL A   1      45.736  26.579  33.461  1.00  0.00     0.023 A 
ATOM     89  C   UNL A   1      45.614  25.448  34.286  1.00  0.00     0.031 A 
ATOM     90  C   UNL A   1      47.019  27.113  33.248  1.00  0.00     0.131 A 
ATOM     91  C   UNL A   1      46.752  24.914  34.909  1.00  0.00     0.055 A 
ATOM     92  C   UNL A   1      48.154  26.547  33.829  1.00  0.00     0.041 A 
ATOM     93  F   UNL A   1      47.188  28.192  32.467  1.00  0.00    -0.206 F 
ATOM     94  C   UNL A   1      48.023  25.448  34.674  1.00  0.00     0.022 A 
BRANCH  91  95
ATOM     95  S   UNL A   1      46.543  23.553  36.088  1.00  0.00     0.124 S 
ATOM     96  O   UNL A   1      46.899  24.188  37.352  1.00  0.00    -0.237 OA
ATOM     97  O   UNL A   1      45.134  23.209  35.921  1.00  0.00    -0.237 OA
ATOM     98  O   UNL A   1      47.486  22.541  35.615  1.00  0.00    -0.744 OA
ENDBRANCH  91  95
ENDBRANCH  65  88
ENDBRANCH  39  40
ENDBRANCH  31  34
ENDBRANCH  29  30
ENDBRANCH  28  29
ENDBRANCH   1  28
TORSDOF 17
ENDMDL
