MODEL 1
REMARK VINA RESULT:     -13.3      0.000      0.000
REMARK SMILES CC1=C([C@H](NC(=O)[C@@H]2[C@H](C)c3cc(F)ccc3N2C)C(=O)NCCCCNC(=O)c2ccc(-c3c4nc(c(-c5cc(S(=O)(=O)[O-])ccc5F)c5ccc([nH]5)c(-c5cc(S(=O)(=O)[O-])ccc5F)c5nc(c(-c6cc(S(=O)(=O)[O-])ccc6F)c6ccc3[nH]6)C=C5)C=C4)cc2)[C@@H](C)N=N1
REMARK SMILES IDX 25 1 24 2 23 3 22 4 20 5 21 6 4 8 3 9 1 10 2 11 96 12 93 13
REMARK SMILES IDX 95 14 94 15 5 16 6 17 7 19 8 20 9 21 18 22 11 23 10 24 17 25
REMARK SMILES IDX 19 26 12 27 16 28 13 29 15 30 14 31 26 32 27 33 28 34 29 36
REMARK SMILES IDX 30 37 31 38 92 39 32 40 91 41 33 42 34 43 35 44 85 45 36 46
REMARK SMILES IDX 90 47 84 48 86 49 37 50 89 51 83 52 82 53 38 55 70 56 50 57
REMARK SMILES IDX 69 58 51 59 54 60 68 61 87 62 52 63 53 64 67 66 88 67 55 68
REMARK SMILES IDX 39 69 40 70 48 71 41 72 47 73 49 74 46 75 42 76 43 77 44 78
REMARK SMILES IDX 45 79 71 80 72 81 80 82 73 83 79 84 81 85 78 86 74 87 75 88
REMARK SMILES IDX 76 89 77 90 56 91 57 92 65 93 58 94 64 95 66 96 63 97 59 98
REMARK SMILES IDX 60 99 61 100 62 101
REMARK H PARENT 22 7 5 18 27 35 86 54 54 65
REMARK Flexibility Score: inf
ROOT
ATOM      1  C   UNL A   1      32.582  30.260  26.501  1.00  0.00     0.023 C 
ENDROOT
BRANCH   1   2
ATOM      2  C   UNL A   1      31.661  29.244  27.171  1.00  0.00     0.023 C 
BRANCH   2   3
ATOM      3  C   UNL A   1      32.047  27.785  26.998  1.00  0.00     0.116 C 
BRANCH   3   4
ATOM      4  N   UNL A   1      30.928  26.870  27.047  1.00  0.00    -0.354 N 
ATOM      5  C   UNL A   1      30.509  25.928  26.174  1.00  0.00     0.247 C 
ATOM      6  O   UNL A   1      29.715  25.090  26.615  1.00  0.00    -0.272 OA
ATOM      7  H   UNL A   1      30.375  26.946  27.857  1.00  0.00     0.163 HD
BRANCH   5   8
ATOM      8  C   UNL A   1      31.040  25.840  24.725  1.00  0.00     0.202 C 
BRANCH   8   9
ATOM      9  C   UNL A   1      30.630  27.094  24.010  1.00  0.00     0.011 C 
ATOM     10  C   UNL A   1      28.117  26.638  23.807  1.00  0.00     0.069 C 
ATOM     11  C   UNL A   1      29.383  27.408  23.620  1.00  0.00     0.064 C 
ATOM     12  N   UNL A   1      29.310  28.627  22.998  1.00  0.00    -0.160 NA
ATOM     13  C   UNL A   1      31.454  28.275  23.610  1.00  0.00     0.156 C 
ATOM     14  N   UNL A   1      30.444  29.169  22.972  1.00  0.00    -0.181 NA
ATOM     15  C   UNL A   1      32.562  28.059  22.591  1.00  0.00     0.040 C 
ENDBRANCH   8   9
BRANCH   8  16
ATOM     16  N   UNL A   1      30.720  24.606  24.020  1.00  0.00    -0.339 N 
ATOM     17  C   UNL A   1      31.533  23.508  23.797  1.00  0.00     0.244 C 
ATOM     18  H   UNL A   1      29.807  24.545  23.654  1.00  0.00     0.164 HD
ATOM     19  O   UNL A   1      31.110  22.692  22.975  1.00  0.00    -0.273 OA
BRANCH  17  20
ATOM     20  C   UNL A   1      32.834  23.294  24.625  1.00  0.00     0.178 C 
ATOM     21  C   UNL A   1      33.981  24.299  24.332  1.00  0.00     0.050 C 
ATOM     22  N   UNL A   1      33.463  21.945  24.514  1.00  0.00    -0.362 N 
ATOM     23  C   UNL A   1      35.150  23.507  24.831  1.00  0.00    -0.016 A 
ATOM     24  C   UNL A   1      34.175  24.679  22.866  1.00  0.00     0.015 C 
ATOM     25  C   UNL A   1      34.806  22.150  24.871  1.00  0.00     0.041 A 
ATOM     26  C   UNL A   1      32.783  20.743  24.961  1.00  0.00     0.144 C 
ATOM     27  C   UNL A   1      36.400  23.970  25.211  1.00  0.00     0.045 A 
ATOM     28  C   UNL A   1      35.755  21.216  25.255  1.00  0.00     0.029 A 
ATOM     29  C   UNL A   1      37.333  23.028  25.619  1.00  0.00     0.123 A 
ATOM     30  C   UNL A   1      37.029  21.663  25.634  1.00  0.00     0.041 A 
ATOM     31  F   UNL A   1      38.550  23.437  26.003  1.00  0.00    -0.207 F 
ENDBRANCH  17  20
ENDBRANCH   8  16
ENDBRANCH   5   8
ENDBRANCH   3   4
ENDBRANCH   2   3
ENDBRANCH   1   2
BRANCH   1  32
ATOM     32  C   UNL A   1      34.001  30.380  27.072  1.00  0.00     0.116 C 
BRANCH  32  33
ATOM     33  N   UNL A   1      34.165  31.336  28.144  1.00  0.00    -0.352 N 
ATOM     34  C   UNL A   1      35.206  31.676  28.960  1.00  0.00     0.251 C 
ATOM     35  H   UNL A   1      33.348  31.856  28.325  1.00  0.00     0.163 HD
ATOM     36  O   UNL A   1      35.002  32.595  29.756  1.00  0.00    -0.269 OA
BRANCH  34  37
ATOM     37  C   UNL A   1      36.505  30.963  28.975  1.00  0.00     0.039 A 
ATOM     38  C   UNL A   1      36.664  29.606  28.699  1.00  0.00     0.014 A 
ATOM     39  C   UNL A   1      37.636  31.721  29.318  1.00  0.00     0.014 A 
ATOM     40  C   UNL A   1      37.875  28.979  28.914  1.00  0.00     0.010 A 
ATOM     41  C   UNL A   1      38.875  31.112  29.464  1.00  0.00     0.010 A 
ATOM     42  C   UNL A   1      38.975  29.730  29.320  1.00  0.00    -0.014 A 
BRANCH  42  43
ATOM     43  C   UNL A   1      40.224  29.002  29.481  1.00  0.00     0.031 A 
ATOM     44  C   UNL A   1      40.585  28.653  30.890  1.00  0.00     0.074 A 
ATOM     45  C   UNL A   1      40.946  28.579  28.429  1.00  0.00     0.049 A 
ATOM     46  N   UNL A   1      41.652  28.948  31.563  1.00  0.00    -0.248 NA
ATOM     47  C   UNL A   1      39.545  27.983  31.686  1.00  0.00     0.031 C 
ATOM     48  C   UNL A   1      40.540  28.544  27.021  1.00  0.00     0.029 A 
ATOM     49  N   UNL A   1      42.144  27.939  28.425  1.00  0.00    -0.354 N 
ATOM     50  C   UNL A   1      41.494  28.357  32.823  1.00  0.00     0.074 A 
ATOM     51  C   UNL A   1      40.128  27.906  32.881  1.00  0.00     0.031 C 
ATOM     52  C   UNL A   1      41.334  27.672  26.364  1.00  0.00     0.029 A 
ATOM     53  C   UNL A   1      42.376  27.217  27.269  1.00  0.00     0.049 A 
ATOM     54  H   UNL A   1      42.785  27.985  29.172  1.00  0.00     0.167 HD
ATOM     55  C   UNL A   1      42.540  28.129  33.671  1.00  0.00     0.034 A 
ATOM     56  C   UNL A   1      43.268  26.207  27.124  1.00  0.00     0.034 A 
ATOM     57  C   UNL A   1      43.697  28.889  33.297  1.00  0.00     0.049 A 
ATOM     58  C   UNL A   1      44.237  26.269  28.246  1.00  0.00     0.074 A 
ATOM     59  C   UNL A   1      44.011  30.230  33.240  1.00  0.00     0.029 A 
ATOM     60  N   UNL A   1      44.695  28.239  32.613  1.00  0.00    -0.354 N 
ATOM     61  N   UNL A   1      45.138  27.199  28.404  1.00  0.00    -0.248 NA
ATOM     62  C   UNL A   1      43.927  25.493  29.440  1.00  0.00     0.031 C 
ATOM     63  C   UNL A   1      44.907  30.352  32.142  1.00  0.00     0.029 A 
ATOM     64  C   UNL A   1      45.107  29.076  31.612  1.00  0.00     0.049 A 
ATOM     65  H   UNL A   1      45.047  27.341  32.807  1.00  0.00     0.167 HD
ATOM     66  C   UNL A   1      45.188  27.411  29.773  1.00  0.00     0.074 A 
ATOM     67  C   UNL A   1      44.507  26.262  30.363  1.00  0.00     0.031 C 
ATOM     68  C   UNL A   1      45.525  28.627  30.300  1.00  0.00     0.034 A 
BRANCH  55  69
ATOM     69  C   UNL A   1      42.618  26.978  34.656  1.00  0.00     0.023 A 
ATOM     70  C   UNL A   1      43.425  25.846  34.453  1.00  0.00     0.031 A 
ATOM     71  C   UNL A   1      42.063  27.104  35.950  1.00  0.00     0.131 A 
ATOM     72  C   UNL A   1      43.676  24.922  35.479  1.00  0.00     0.055 A 
ATOM     73  C   UNL A   1      42.363  26.218  36.992  1.00  0.00     0.041 A 
ATOM     74  F   UNL A   1      41.262  28.134  36.265  1.00  0.00    -0.206 F 
ATOM     75  C   UNL A   1      43.180  25.120  36.760  1.00  0.00     0.022 A 
BRANCH  72  76
ATOM     76  S   UNL A   1      44.680  23.450  35.143  1.00  0.00     0.124 S 
ATOM     77  O   UNL A   1      45.598  23.947  34.116  1.00  0.00    -0.237 OA
ATOM     78  O   UNL A   1      45.283  23.197  36.454  1.00  0.00    -0.237 OA
ATOM     79  O   UNL A   1      43.711  22.463  34.708  1.00  0.00    -0.744 OA
ENDBRANCH  72  76
ENDBRANCH  55  69
BRANCH  56  80
ATOM     80  C   UNL A   1      43.013  24.953  26.381  1.00  0.00     0.023 A 
ATOM     81  C   UNL A   1      42.183  23.959  26.937  1.00  0.00     0.031 A 
ATOM     82  C   UNL A   1      43.789  24.601  25.268  1.00  0.00     0.131 A 
ATOM     83  C   UNL A   1      42.170  22.663  26.410  1.00  0.00     0.055 A 
ATOM     84  C   UNL A   1      43.770  23.306  24.737  1.00  0.00     0.041 A 
ATOM     85  F   UNL A   1      44.626  25.491  24.715  1.00  0.00    -0.206 F 
ATOM     86  C   UNL A   1      42.964  22.327  25.314  1.00  0.00     0.022 A 
BRANCH  83  87
ATOM     87  S   UNL A   1      41.152  21.375  27.182  1.00  0.00     0.124 S 
ATOM     88  O   UNL A   1      40.430  22.122  28.210  1.00  0.00    -0.237 OA
ATOM     89  O   UNL A   1      40.348  20.917  26.056  1.00  0.00    -0.237 OA
ATOM     90  O   UNL A   1      42.136  20.424  27.692  1.00  0.00    -0.744 OA
ENDBRANCH  83  87
ENDBRANCH  56  80
BRANCH  68  91
ATOM     91  C   UNL A   1      46.104  29.695  29.404  1.00  0.00     0.023 A 
ATOM     92  C   UNL A   1      45.192  30.486  28.680  1.00  0.00     0.031 A 
ATOM     93  C   UNL A   1      47.463  29.774  29.048  1.00  0.00     0.131 A 
ATOM     94  C   UNL A   1      45.633  31.275  27.613  1.00  0.00     0.055 A 
ATOM     95  C   UNL A   1      47.909  30.623  28.030  1.00  0.00     0.041 A 
ATOM     96  F   UNL A   1      48.380  28.967  29.596  1.00  0.00    -0.206 F 
ATOM     97  C   UNL A   1      46.990  31.363  27.293  1.00  0.00     0.022 A 
BRANCH  94  98
ATOM     98  S   UNL A   1      44.435  32.054  26.496  1.00  0.00     0.124 S 
ATOM     99  O   UNL A   1      45.282  32.474  25.383  1.00  0.00    -0.237 OA
ATOM    100  O   UNL A   1      43.519  30.952  26.206  1.00  0.00    -0.237 OA
ATOM    101  O   UNL A   1      43.862  33.136  27.291  1.00  0.00    -0.744 OA
ENDBRANCH  94  98
ENDBRANCH  68  91
ENDBRANCH  42  43
ENDBRANCH  34  37
ENDBRANCH  32  33
ENDBRANCH   1  32
TORSDOF 17
ENDMDL
MODEL 2
REMARK VINA RESULT:     -12.9      1.633      2.500
REMARK SMILES CC1=C([C@H](NC(=O)[C@@H]2[C@H](C)c3cc(F)ccc3N2C)C(=O)NCCCCNC(=O)c2ccc(-c3c4nc(c(-c5cc(S(=O)(=O)[O-])ccc5F)c5ccc([nH]5)c(-c5cc(S(=O)(=O)[O-])ccc5F)c5nc(c(-c6cc(S(=O)(=O)[O-])ccc6F)c6ccc3[nH]6)C=C5)C=C4)cc2)[C@@H](C)N=N1
REMARK SMILES IDX 25 1 24 2 23 3 22 4 20 5 21 6 4 8 3 9 1 10 2 11 96 12 93 13
REMARK SMILES IDX 95 14 94 15 5 16 6 17 7 19 8 20 9 21 18 22 11 23 10 24 17 25
REMARK SMILES IDX 19 26 12 27 16 28 13 29 15 30 14 31 26 32 27 33 28 34 29 36
REMARK SMILES IDX 30 37 31 38 92 39 32 40 91 41 33 42 34 43 35 44 85 45 36 46
REMARK SMILES IDX 90 47 84 48 86 49 37 50 89 51 83 52 82 53 38 55 70 56 50 57
REMARK SMILES IDX 69 58 51 59 54 60 68 61 87 62 52 63 53 64 67 66 88 67 55 68
REMARK SMILES IDX 39 69 40 70 48 71 41 72 47 73 49 74 46 75 42 76 43 77 44 78
REMARK SMILES IDX 45 79 71 80 72 81 80 82 73 83 79 84 81 85 78 86 74 87 75 88
REMARK SMILES IDX 76 89 77 90 56 91 57 92 65 93 58 94 64 95 66 96 63 97 59 98
REMARK SMILES IDX 60 99 61 100 62 101
REMARK H PARENT 22 7 5 18 27 35 86 54 54 65
REMARK Flexibility Score: inf
ROOT
ATOM      1  C   UNL A   1      32.571  30.122  25.847  1.00  0.00     0.023 C 
ENDROOT
BRANCH   1   2
ATOM      2  C   UNL A   1      32.652  29.346  24.535  1.00  0.00     0.023 C 
BRANCH   2   3
ATOM      3  C   UNL A   1      33.871  28.454  24.367  1.00  0.00     0.116 C 
BRANCH   3   4
ATOM      4  N   UNL A   1      33.959  27.814  23.074  1.00  0.00    -0.354 N 
ATOM      5  C   UNL A   1      33.701  26.545  22.688  1.00  0.00     0.247 C 
ATOM      6  O   UNL A   1      33.562  26.361  21.474  1.00  0.00    -0.272 OA
ATOM      7  H   UNL A   1      34.259  28.405  22.347  1.00  0.00     0.163 HD
BRANCH   5   8
ATOM      8  C   UNL A   1      33.507  25.391  23.698  1.00  0.00     0.202 C 
BRANCH   8   9
ATOM      9  C   UNL A   1      32.143  25.537  24.305  1.00  0.00     0.011 C 
ATOM     10  C   UNL A   1      32.824  26.366  26.632  1.00  0.00     0.069 C 
ATOM     11  C   UNL A   1      31.876  25.944  25.558  1.00  0.00     0.064 C 
ATOM     12  N   UNL A   1      30.533  25.992  25.828  1.00  0.00    -0.160 NA
ATOM     13  C   UNL A   1      30.798  25.324  23.688  1.00  0.00     0.156 C 
ATOM     14  N   UNL A   1      29.875  25.664  24.809  1.00  0.00    -0.181 NA
ATOM     15  C   UNL A   1      30.440  23.920  23.227  1.00  0.00     0.040 C 
ENDBRANCH   8   9
BRANCH   8  16
ATOM     16  N   UNL A   1      34.586  25.221  24.662  1.00  0.00    -0.339 N 
ATOM     17  C   UNL A   1      35.041  24.051  25.245  1.00  0.00     0.244 C 
ATOM     18  H   UNL A   1      35.051  26.045  24.936  1.00  0.00     0.164 HD
ATOM     19  O   UNL A   1      35.805  24.196  26.203  1.00  0.00    -0.273 OA
BRANCH  17  20
ATOM     20  C   UNL A   1      34.682  22.662  24.640  1.00  0.00     0.178 C 
ATOM     21  C   UNL A   1      33.255  22.145  24.966  1.00  0.00     0.050 C 
ATOM     22  N   UNL A   1      35.593  21.537  25.001  1.00  0.00    -0.362 N 
ATOM     23  C   UNL A   1      33.454  20.678  24.735  1.00  0.00    -0.016 A 
ATOM     24  C   UNL A   1      32.761  22.404  26.387  1.00  0.00     0.015 C 
ATOM     25  C   UNL A   1      34.821  20.380  24.813  1.00  0.00     0.041 A 
ATOM     26  C   UNL A   1      36.992  21.529  24.613  1.00  0.00     0.144 C 
ATOM     27  C   UNL A   1      32.494  19.712  24.480  1.00  0.00     0.045 A 
ATOM     28  C   UNL A   1      35.240  19.066  24.683  1.00  0.00     0.029 A 
ATOM     29  C   UNL A   1      32.930  18.404  24.324  1.00  0.00     0.123 A 
ATOM     30  C   UNL A   1      34.284  18.071  24.433  1.00  0.00     0.041 A 
ATOM     31  F   UNL A   1      32.033  17.442  24.068  1.00  0.00    -0.207 F 
ENDBRANCH  17  20
ENDBRANCH   8  16
ENDBRANCH   5   8
ENDBRANCH   3   4
ENDBRANCH   2   3
ENDBRANCH   1   2
BRANCH   1  32
ATOM     32  C   UNL A   1      33.791  30.033  26.773  1.00  0.00     0.116 C 
BRANCH  32  33
ATOM     33  N   UNL A   1      33.845  31.016  27.831  1.00  0.00    -0.352 N 
ATOM     34  C   UNL A   1      34.833  31.460  28.663  1.00  0.00     0.251 C 
ATOM     35  H   UNL A   1      32.981  31.464  27.985  1.00  0.00     0.163 HD
ATOM     36  O   UNL A   1      34.530  32.369  29.438  1.00  0.00    -0.269 OA
BRANCH  34  37
ATOM     37  C   UNL A   1      36.189  30.866  28.718  1.00  0.00     0.039 A 
ATOM     38  C   UNL A   1      36.480  29.535  28.424  1.00  0.00     0.014 A 
ATOM     39  C   UNL A   1      37.233  31.715  29.121  1.00  0.00     0.014 A 
ATOM     40  C   UNL A   1      37.734  29.014  28.677  1.00  0.00     0.010 A 
ATOM     41  C   UNL A   1      38.515  31.216  29.307  1.00  0.00     0.010 A 
ATOM     42  C   UNL A   1      38.745  29.851  29.141  1.00  0.00    -0.014 A 
BRANCH  42  43
ATOM     43  C   UNL A   1      40.048  29.234  29.340  1.00  0.00     0.031 A 
ATOM     44  C   UNL A   1      40.370  28.861  30.752  1.00  0.00     0.074 A 
ATOM     45  C   UNL A   1      40.856  28.924  28.312  1.00  0.00     0.049 A 
ATOM     46  N   UNL A   1      41.371  29.224  31.490  1.00  0.00    -0.248 NA
ATOM     47  C   UNL A   1      39.361  28.066  31.467  1.00  0.00     0.031 C 
ATOM     48  C   UNL A   1      40.524  28.911  26.885  1.00  0.00     0.029 A 
ATOM     49  N   UNL A   1      42.107  28.397  28.347  1.00  0.00    -0.354 N 
ATOM     50  C   UNL A   1      41.209  28.568  32.717  1.00  0.00     0.074 A 
ATOM     51  C   UNL A   1      39.890  27.992  32.687  1.00  0.00     0.031 C 
ATOM     52  C   UNL A   1      41.426  28.144  26.238  1.00  0.00     0.029 A 
ATOM     53  C   UNL A   1      42.462  27.748  27.178  1.00  0.00     0.049 A 
ATOM     54  H   UNL A   1      42.704  28.470  29.128  1.00  0.00     0.167 HD
ATOM     55  C   UNL A   1      42.229  28.401  33.610  1.00  0.00     0.034 A 
ATOM     56  C   UNL A   1      43.450  26.832  27.042  1.00  0.00     0.034 A 
ATOM     57  C   UNL A   1      43.327  29.279  33.325  1.00  0.00     0.049 A 
ATOM     58  C   UNL A   1      44.353  26.934  28.215  1.00  0.00     0.074 A 
ATOM     59  C   UNL A   1      43.517  30.644  33.335  1.00  0.00     0.029 A 
ATOM     60  N   UNL A   1      44.413  28.753  32.670  1.00  0.00    -0.354 N 
ATOM     61  N   UNL A   1      45.154  27.935  28.454  1.00  0.00    -0.248 NA
ATOM     62  C   UNL A   1      44.060  26.084  29.361  1.00  0.00     0.031 C 
ATOM     63  C   UNL A   1      44.449  30.895  32.290  1.00  0.00     0.029 A 
ATOM     64  C   UNL A   1      44.793  29.665  31.724  1.00  0.00     0.049 A 
ATOM     65  H   UNL A   1      44.837  27.883  32.848  1.00  0.00     0.167 HD
ATOM     66  C   UNL A   1      45.118  28.094  29.831  1.00  0.00     0.074 A 
ATOM     67  C   UNL A   1      44.520  26.863  30.341  1.00  0.00     0.031 C 
ATOM     68  C   UNL A   1      45.314  29.311  30.419  1.00  0.00     0.034 A 
BRANCH  55  69
ATOM     69  C   UNL A   1      42.366  27.223  34.554  1.00  0.00     0.023 A 
ATOM     70  C   UNL A   1      43.164  26.101  34.272  1.00  0.00     0.031 A 
ATOM     71  C   UNL A   1      41.886  27.307  35.880  1.00  0.00     0.131 A 
ATOM     72  C   UNL A   1      43.476  25.148  35.253  1.00  0.00     0.055 A 
ATOM     73  C   UNL A   1      42.247  26.391  36.877  1.00  0.00     0.041 A 
ATOM     74  F   UNL A   1      41.100  28.323  36.271  1.00  0.00    -0.206 F 
ATOM     75  C   UNL A   1      43.053  25.305  36.566  1.00  0.00     0.022 A 
BRANCH  72  76
ATOM     76  S   UNL A   1      44.463  23.691  34.817  1.00  0.00     0.124 S 
ATOM     77  O   UNL A   1      43.423  22.683  34.602  1.00  0.00    -0.237 OA
ATOM     78  O   UNL A   1      45.152  24.150  33.608  1.00  0.00    -0.237 OA
ATOM     79  O   UNL A   1      45.314  23.492  35.974  1.00  0.00    -0.744 OA
ENDBRANCH  72  76
ENDBRANCH  55  69
BRANCH  56  80
ATOM     80  C   UNL A   1      43.349  25.592  26.240  1.00  0.00     0.023 A 
ATOM     81  C   UNL A   1      42.442  24.579  26.615  1.00  0.00     0.031 A 
ATOM     82  C   UNL A   1      44.320  25.268  25.283  1.00  0.00     0.131 A 
ATOM     83  C   UNL A   1      42.541  23.296  26.070  1.00  0.00     0.055 A 
ATOM     84  C   UNL A   1      44.414  23.985  24.732  1.00  0.00     0.041 A 
ATOM     85  F   UNL A   1      45.235  26.177  24.910  1.00  0.00    -0.206 F 
ATOM     86  C   UNL A   1      43.527  22.989  25.131  1.00  0.00     0.022 A 
BRANCH  83  87
ATOM     87  S   UNL A   1      41.413  21.984  26.616  1.00  0.00     0.124 S 
ATOM     88  O   UNL A   1      41.801  21.801  28.014  1.00  0.00    -0.237 OA
ATOM     89  O   UNL A   1      40.111  22.603  26.401  1.00  0.00    -0.237 OA
ATOM     90  O   UNL A   1      41.741  20.865  25.737  1.00  0.00    -0.744 OA
ENDBRANCH  83  87
ENDBRANCH  56  80
BRANCH  68  91
ATOM     91  C   UNL A   1      45.833  30.465  29.596  1.00  0.00     0.023 A 
ATOM     92  C   UNL A   1      44.938  31.053  28.682  1.00  0.00     0.031 A 
ATOM     93  C   UNL A   1      47.194  30.808  29.489  1.00  0.00     0.131 A 
ATOM     94  C   UNL A   1      45.411  31.904  27.678  1.00  0.00     0.055 A 
ATOM     95  C   UNL A   1      47.650  31.719  28.532  1.00  0.00     0.041 A 
ATOM     96  F   UNL A   1      48.130  30.204  30.232  1.00  0.00    -0.206 F 
ATOM     97  C   UNL A   1      46.760  32.255  27.606  1.00  0.00     0.022 A 
BRANCH  94  98
ATOM     98  S   UNL A   1      44.316  32.419  26.327  1.00  0.00     0.124 S 
ATOM     99  O   UNL A   1      45.255  32.594  25.222  1.00  0.00    -0.237 OA
ATOM    100  O   UNL A   1      43.412  31.277  26.208  1.00  0.00    -0.237 OA
ATOM    101  O   UNL A   1      43.696  33.644  26.822  1.00  0.00    -0.744 OA
ENDBRANCH  94  98
ENDBRANCH  68  91
ENDBRANCH  42  43
ENDBRANCH  34  37
ENDBRANCH  32  33
ENDBRANCH   1  32
TORSDOF 17
ENDMDL
MODEL 3
REMARK VINA RESULT:     -12.7      5.381     11.793
REMARK SMILES CC1=C([C@H](NC(=O)[C@@H]2[C@H](C)c3cc(F)ccc3N2C)C(=O)NCCCCNC(=O)c2ccc(-c3c4nc(c(-c5cc(S(=O)(=O)[O-])ccc5F)c5ccc([nH]5)c(-c5cc(S(=O)(=O)[O-])ccc5F)c5nc(c(-c6cc(S(=O)(=O)[O-])ccc6F)c6ccc3[nH]6)C=C5)C=C4)cc2)[C@@H](C)N=N1
REMARK SMILES IDX 25 1 24 2 23 3 22 4 20 5 21 6 4 8 3 9 1 10 2 11 96 12 93 13
REMARK SMILES IDX 95 14 94 15 5 16 6 17 7 19 8 20 9 21 18 22 11 23 10 24 17 25
REMARK SMILES IDX 19 26 12 27 16 28 13 29 15 30 14 31 26 32 27 33 28 34 29 36
REMARK SMILES IDX 30 37 31 38 92 39 32 40 91 41 33 42 34 43 35 44 85 45 36 46
REMARK SMILES IDX 90 47 84 48 86 49 37 50 89 51 83 52 82 53 38 55 70 56 50 57
REMARK SMILES IDX 69 58 51 59 54 60 68 61 87 62 52 63 53 64 67 66 88 67 55 68
REMARK SMILES IDX 39 69 40 70 48 71 41 72 47 73 49 74 46 75 42 76 43 77 44 78
REMARK SMILES IDX 45 79 71 80 72 81 80 82 73 83 79 84 81 85 78 86 74 87 75 88
REMARK SMILES IDX 76 89 77 90 56 91 57 92 65 93 58 94 64 95 66 96 63 97 59 98
REMARK SMILES IDX 60 99 61 100 62 101
REMARK H PARENT 22 7 5 18 27 35 86 54 54 65
REMARK Flexibility Score: inf
ROOT
ATOM      1  C   UNL A   1      44.515  23.125  25.178  1.00  0.00     0.023 C 
ENDROOT
BRANCH   1   2
ATOM      2  C   UNL A   1      44.825  22.699  26.611  1.00  0.00     0.023 C 
BRANCH   2   3
ATOM      3  C   UNL A   1      45.525  23.736  27.474  1.00  0.00     0.116 C 
BRANCH   3   4
ATOM      4  N   UNL A   1      46.924  23.916  27.158  1.00  0.00    -0.354 N 
ATOM      5  C   UNL A   1      47.730  24.995  27.263  1.00  0.00     0.247 C 
ATOM      6  O   UNL A   1      48.946  24.775  27.217  1.00  0.00    -0.272 OA
ATOM      7  H   UNL A   1      47.369  23.111  26.806  1.00  0.00     0.163 HD
BRANCH   5   8
ATOM      8  C   UNL A   1      47.185  26.421  27.506  1.00  0.00     0.202 C 
BRANCH   8   9
ATOM      9  C   UNL A   1      46.983  27.068  26.168  1.00  0.00     0.011 C 
ATOM     10  C   UNL A   1      44.445  26.787  25.962  1.00  0.00     0.069 C 
ATOM     11  C   UNL A   1      45.810  27.204  25.525  1.00  0.00     0.064 C 
ATOM     12  N   UNL A   1      45.933  27.849  24.322  1.00  0.00    -0.160 NA
ATOM     13  C   UNL A   1      47.978  27.736  25.273  1.00  0.00     0.156 C 
ATOM     14  N   UNL A   1      47.130  28.183  24.130  1.00  0.00    -0.181 NA
ATOM     15  C   UNL A   1      49.096  26.886  24.691  1.00  0.00     0.040 C 
ENDBRANCH   8   9
BRANCH   8  16
ATOM     16  N   UNL A   1      47.941  27.221  28.460  1.00  0.00    -0.339 N 
ATOM     17  C   UNL A   1      47.874  27.201  29.842  1.00  0.00     0.244 C 
ATOM     18  H   UNL A   1      48.583  27.859  28.071  1.00  0.00     0.164 HD
ATOM     19  O   UNL A   1      48.442  28.134  30.416  1.00  0.00    -0.273 OA
BRANCH  17  20
ATOM     20  C   UNL A   1      47.214  26.008  30.595  1.00  0.00     0.178 C 
ATOM     21  C   UNL A   1      45.663  25.966  30.542  1.00  0.00     0.050 C 
ATOM     22  N   UNL A   1      47.557  25.879  32.042  1.00  0.00    -0.362 N 
ATOM     23  C   UNL A   1      45.389  25.108  31.740  1.00  0.00    -0.016 A 
ATOM     24  C   UNL A   1      44.956  27.313  30.672  1.00  0.00     0.015 C 
ATOM     25  C   UNL A   1      46.501  25.135  32.591  1.00  0.00     0.041 A 
ATOM     26  C   UNL A   1      48.915  25.626  32.488  1.00  0.00     0.144 C 
ATOM     27  C   UNL A   1      44.247  24.378  32.028  1.00  0.00     0.045 A 
ATOM     28  C   UNL A   1      46.454  24.450  33.795  1.00  0.00     0.029 A 
ATOM     29  C   UNL A   1      44.224  23.675  33.224  1.00  0.00     0.123 A 
ATOM     30  C   UNL A   1      45.304  23.712  34.110  1.00  0.00     0.041 A 
ATOM     31  F   UNL A   1      43.140  22.950  33.535  1.00  0.00    -0.207 F 
ENDBRANCH  17  20
ENDBRANCH   8  16
ENDBRANCH   5   8
ENDBRANCH   3   4
ENDBRANCH   2   3
ENDBRANCH   1   2
BRANCH   1  32
ATOM     32  C   UNL A   1      43.033  23.189  24.787  1.00  0.00     0.116 C 
BRANCH  32  33
ATOM     33  N   UNL A   1      42.119  22.526  25.690  1.00  0.00    -0.352 N 
ATOM     34  C   UNL A   1      41.363  22.942  26.748  1.00  0.00     0.251 C 
ATOM     35  H   UNL A   1      42.021  21.564  25.501  1.00  0.00     0.163 HD
ATOM     36  O   UNL A   1      40.643  22.092  27.276  1.00  0.00    -0.269 OA
BRANCH  34  37
ATOM     37  C   UNL A   1      41.422  24.311  27.313  1.00  0.00     0.039 A 
ATOM     38  C   UNL A   1      42.304  24.714  28.314  1.00  0.00     0.014 A 
ATOM     39  C   UNL A   1      40.501  25.242  26.807  1.00  0.00     0.014 A 
ATOM     40  C   UNL A   1      42.173  25.951  28.915  1.00  0.00     0.010 A 
ATOM     41  C   UNL A   1      40.413  26.515  27.354  1.00  0.00     0.010 A 
ATOM     42  C   UNL A   1      41.211  26.842  28.449  1.00  0.00    -0.014 A 
BRANCH  42  43
ATOM     43  C   UNL A   1      41.168  28.140  29.105  1.00  0.00     0.031 A 
ATOM     44  C   UNL A   1      42.101  29.169  28.551  1.00  0.00     0.074 A 
ATOM     45  C   UNL A   1      40.275  28.424  30.069  1.00  0.00     0.049 A 
ATOM     46  N   UNL A   1      43.032  29.842  29.149  1.00  0.00    -0.248 NA
ATOM     47  C   UNL A   1      42.056  29.377  27.096  1.00  0.00     0.031 C 
ATOM     48  C   UNL A   1      39.098  27.642  30.457  1.00  0.00     0.029 A 
ATOM     49  N   UNL A   1      40.150  29.562  30.800  1.00  0.00    -0.354 N 
ATOM     50  C   UNL A   1      43.586  30.687  28.180  1.00  0.00     0.074 A 
ATOM     51  C   UNL A   1      43.045  30.252  26.918  1.00  0.00     0.031 C 
ATOM     52  C   UNL A   1      38.244  28.449  31.123  1.00  0.00     0.029 A 
ATOM     53  C   UNL A   1      38.884  29.738  31.329  1.00  0.00     0.049 A 
ATOM     54  H   UNL A   1      40.888  30.200  30.939  1.00  0.00     0.167 HD
ATOM     55  C   UNL A   1      44.323  31.793  28.493  1.00  0.00     0.034 A 
ATOM     56  C   UNL A   1      38.356  30.907  31.763  1.00  0.00     0.034 A 
ATOM     57  C   UNL A   1      44.768  31.760  29.857  1.00  0.00     0.049 A 
ATOM     58  C   UNL A   1      39.461  31.875  31.975  1.00  0.00     0.074 A 
ATOM     59  C   UNL A   1      45.619  30.961  30.590  1.00  0.00     0.029 A 
ATOM     60  N   UNL A   1      44.077  32.514  30.773  1.00  0.00    -0.354 N 
ATOM     61  N   UNL A   1      40.354  31.790  32.922  1.00  0.00    -0.248 NA
ATOM     62  C   UNL A   1      39.817  32.737  30.857  1.00  0.00     0.031 C 
ATOM     63  C   UNL A   1      45.066  30.937  31.900  1.00  0.00     0.029 A 
ATOM     64  C   UNL A   1      43.926  31.745  31.894  1.00  0.00     0.049 A 
ATOM     65  H   UNL A   1      43.751  33.434  30.646  1.00  0.00     0.167 HD
ATOM     66  C   UNL A   1      41.532  32.227  32.333  1.00  0.00     0.074 A 
ATOM     67  C   UNL A   1      41.118  32.897  31.103  1.00  0.00     0.031 C 
ATOM     68  C   UNL A   1      42.752  31.768  32.743  1.00  0.00     0.034 A 
BRANCH  55  69
ATOM     69  C   UNL A   1      44.379  33.059  27.661  1.00  0.00     0.023 A 
ATOM     70  C   UNL A   1      43.678  34.231  27.994  1.00  0.00     0.031 A 
ATOM     71  C   UNL A   1      45.339  33.198  26.633  1.00  0.00     0.131 A 
ATOM     72  C   UNL A   1      43.938  35.455  27.360  1.00  0.00     0.055 A 
ATOM     73  C   UNL A   1      45.644  34.431  26.042  1.00  0.00     0.041 A 
ATOM     74  F   UNL A   1      46.064  32.149  26.212  1.00  0.00    -0.206 F 
ATOM     75  C   UNL A   1      44.945  35.572  26.410  1.00  0.00     0.022 A 
BRANCH  72  76
ATOM     76  S   UNL A   1      42.963  36.921  27.792  1.00  0.00     0.124 S 
ATOM     77  O   UNL A   1      42.697  37.498  26.472  1.00  0.00    -0.237 OA
ATOM     78  O   UNL A   1      41.805  36.322  28.460  1.00  0.00    -0.237 OA
ATOM     79  O   UNL A   1      43.848  37.682  28.653  1.00  0.00    -0.744 OA
ENDBRANCH  72  76
ENDBRANCH  55  69
BRANCH  56  80
ATOM     80  C   UNL A   1      36.966  31.351  31.516  1.00  0.00     0.023 A 
ATOM     81  C   UNL A   1      36.498  31.505  30.195  1.00  0.00     0.031 A 
ATOM     82  C   UNL A   1      36.185  31.892  32.546  1.00  0.00     0.131 A 
ATOM     83  C   UNL A   1      35.315  32.203  29.933  1.00  0.00     0.055 A 
ATOM     84  C   UNL A   1      34.997  32.585  32.284  1.00  0.00     0.041 A 
ATOM     85  F   UNL A   1      36.593  31.811  33.822  1.00  0.00    -0.206 F 
ATOM     86  C   UNL A   1      34.561  32.750  30.972  1.00  0.00     0.022 A 
BRANCH  83  87
ATOM     87  S   UNL A   1      34.764  32.455  28.223  1.00  0.00     0.124 S 
ATOM     88  O   UNL A   1      35.945  33.050  27.600  1.00  0.00    -0.237 OA
ATOM     89  O   UNL A   1      34.452  31.094  27.807  1.00  0.00    -0.237 OA
ATOM     90  O   UNL A   1      33.624  33.356  28.363  1.00  0.00    -0.744 OA
ENDBRANCH  83  87
ENDBRANCH  56  80
BRANCH  68  91
ATOM     91  C   UNL A   1      42.862  30.972  34.021  1.00  0.00     0.023 A 
ATOM     92  C   UNL A   1      42.539  29.604  33.952  1.00  0.00     0.031 A 
ATOM     93  C   UNL A   1      42.999  31.547  35.298  1.00  0.00     0.131 A 
ATOM     94  C   UNL A   1      42.316  28.870  35.122  1.00  0.00     0.055 A 
ATOM     95  C   UNL A   1      42.850  30.791  36.465  1.00  0.00     0.041 A 
ATOM     96  F   UNL A   1      43.179  32.864  35.459  1.00  0.00    -0.206 F 
ATOM     97  C   UNL A   1      42.486  29.451  36.380  1.00  0.00     0.022 A 
BRANCH  94  98
ATOM     98  S   UNL A   1      41.613  27.201  35.034  1.00  0.00     0.124 S 
ATOM     99  O   UNL A   1      40.584  27.356  34.010  1.00  0.00    -0.237 OA
ATOM    100  O   UNL A   1      42.770  26.397  34.644  1.00  0.00    -0.237 OA
ATOM    101  O   UNL A   1      41.121  26.953  36.385  1.00  0.00    -0.744 OA
ENDBRANCH  94  98
ENDBRANCH  68  91
ENDBRANCH  42  43
ENDBRANCH  34  37
ENDBRANCH  32  33
ENDBRANCH   1  32
TORSDOF 17
ENDMDL
