MODEL 1
REMARK VINA RESULT:     -10.8      0.000      0.000
REMARK SMILES C[C@H]1[C@H](C(=O)NCCCCNC(=O)c2ccc(-c3c4nc(c(-c5cc(S(=O)(=O)[O-])ccc5F)c5ccc([nH]5)c(-c5cc(S(=O)(=O)[O-])ccc5F)c5nc(c(-c6cc(S(=O)(=O)[O-])ccc6F)c6ccc3[nH]6)C=C5)C=C4)cc2)CCN1C(=O)CC[NH2+]C1CC1
REMARK SMILES IDX 7 1 6 2 4 3 5 4 3 6 1 7 2 8 79 9 77 10 78 11 80 12 81 13
REMARK SMILES IDX 82 14 83 15 84 16 85 19 86 20 87 21 8 22 9 23 10 24 11 25
REMARK SMILES IDX 12 26 13 28 14 29 15 30 76 31 16 32 75 33 17 34 18 35 19 36
REMARK SMILES IDX 69 37 20 38 74 39 68 40 70 41 21 42 73 43 67 44 66 45 22 47
REMARK SMILES IDX 54 48 34 49 53 50 35 51 38 52 52 53 71 54 36 55 37 56 51 58
REMARK SMILES IDX 72 59 39 60 23 61 24 62 32 63 25 64 31 65 33 66 30 67 26 68
REMARK SMILES IDX 27 69 28 70 29 71 55 72 56 73 64 74 57 75 63 76 65 77 62 78
REMARK SMILES IDX 58 79 59 80 60 81 61 82 40 83 41 84 49 85 42 86 48 87 50 88
REMARK SMILES IDX 47 89 43 90 44 91 45 92 46 93
REMARK H PARENT 6 5 84 17 84 18 11 27 70 46 38 57
REMARK Flexibility Score: inf
ROOT
ATOM      1  C   UNL A   1      35.280  24.168  24.814  1.00  0.00     0.116 C 
ENDROOT
BRANCH   1   2
ATOM      2  N   UNL A   1      34.121  24.535  25.603  1.00  0.00    -0.356 N 
ATOM      3  C   UNL A   1      33.356  25.655  25.602  1.00  0.00     0.225 C 
ATOM      4  O   UNL A   1      32.414  25.702  26.398  1.00  0.00    -0.275 OA
ATOM      5  H   UNL A   1      33.839  23.851  26.253  1.00  0.00     0.163 HD
BRANCH   3   6
ATOM      6  C   UNL A   1      33.635  26.849  24.703  1.00  0.00     0.102 C 
ATOM      7  C   UNL A   1      33.615  26.854  22.203  1.00  0.00     0.032 C 
ATOM      8  C   UNL A   1      32.737  26.859  23.457  1.00  0.00     0.094 C 
ATOM      9  N   UNL A   1      31.989  28.112  23.543  1.00  0.00    -0.339 N 
ATOM     10  C   UNL A   1      33.498  28.228  25.355  1.00  0.00     0.037 C 
ATOM     11  C   UNL A   1      32.707  29.070  24.360  1.00  0.00     0.120 C 
BRANCH   9  12
ATOM     12  C   UNL A   1      30.795  28.453  22.942  1.00  0.00     0.228 C 
ATOM     13  O   UNL A   1      30.387  27.859  21.941  1.00  0.00    -0.275 OA
BRANCH  12  14
ATOM     14  C   UNL A   1      29.994  29.616  23.504  1.00  0.00     0.161 C 
BRANCH  14  15
ATOM     15  C   UNL A   1      28.540  29.608  23.036  1.00  0.00     0.270 C 
BRANCH  15  16
ATOM     16  N   UNL A   1      28.429  30.077  21.650  1.00  0.00    -0.343 N 
ATOM     17  H   UNL A   1      27.958  29.354  21.105  1.00  0.00     0.346 HD
ATOM     18  H   UNL A   1      29.378  30.261  21.325  1.00  0.00     0.346 HD
BRANCH  16  19
ATOM     19  C   UNL A   1      27.682  31.327  21.498  1.00  0.00     0.182 C 
ATOM     20  C   UNL A   1      28.304  32.672  21.752  1.00  0.00     0.071 C 
ATOM     21  C   UNL A   1      28.040  32.232  20.345  1.00  0.00     0.071 C 
ENDBRANCH  16  19
ENDBRANCH  15  16
ENDBRANCH  14  15
ENDBRANCH  12  14
ENDBRANCH   9  12
ENDBRANCH   3   6
ENDBRANCH   1   2
BRANCH   1  22
ATOM     22  C   UNL A   1      35.076  22.854  24.067  1.00  0.00     0.023 C 
BRANCH  22  23
ATOM     23  C   UNL A   1      36.192  21.825  24.245  1.00  0.00     0.023 C 
BRANCH  23  24
ATOM     24  C   UNL A   1      36.900  21.852  25.593  1.00  0.00     0.116 C 
BRANCH  24  25
ATOM     25  N   UNL A   1      37.970  20.872  25.702  1.00  0.00    -0.352 N 
ATOM     26  C   UNL A   1      39.263  21.064  26.131  1.00  0.00     0.251 C 
ATOM     27  H   UNL A   1      37.740  19.954  25.434  1.00  0.00     0.163 HD
ATOM     28  O   UNL A   1      40.072  20.144  26.071  1.00  0.00    -0.269 OA
BRANCH  26  29
ATOM     29  C   UNL A   1      39.672  22.398  26.616  1.00  0.00     0.039 A 
ATOM     30  C   UNL A   1      40.703  22.485  27.554  1.00  0.00     0.014 A 
ATOM     31  C   UNL A   1      39.079  23.557  26.105  1.00  0.00     0.014 A 
ATOM     32  C   UNL A   1      41.189  23.740  27.927  1.00  0.00     0.010 A 
ATOM     33  C   UNL A   1      39.612  24.800  26.424  1.00  0.00     0.010 A 
ATOM     34  C   UNL A   1      40.676  24.905  27.335  1.00  0.00    -0.014 A 
BRANCH  34  35
ATOM     35  C   UNL A   1      41.239  26.243  27.654  1.00  0.00     0.031 A 
ATOM     36  C   UNL A   1      42.647  26.578  27.249  1.00  0.00     0.074 A 
ATOM     37  C   UNL A   1      40.507  27.121  28.366  1.00  0.00     0.049 A 
ATOM     38  N   UNL A   1      43.348  27.653  27.505  1.00  0.00    -0.248 NA
ATOM     39  C   UNL A   1      43.373  25.553  26.485  1.00  0.00     0.031 C 
ATOM     40  C   UNL A   1      39.145  26.889  28.854  1.00  0.00     0.029 A 
ATOM     41  N   UNL A   1      40.807  28.383  28.814  1.00  0.00    -0.354 N 
ATOM     42  C   UNL A   1      44.601  27.429  26.946  1.00  0.00     0.074 A 
ATOM     43  C   UNL A   1      44.580  26.090  26.394  1.00  0.00     0.031 C 
ATOM     44  C   UNL A   1      38.722  27.979  29.514  1.00  0.00     0.029 A 
ATOM     45  C   UNL A   1      39.792  28.971  29.534  1.00  0.00     0.049 A 
ATOM     46  H   UNL A   1      41.667  28.827  28.637  1.00  0.00     0.167 HD
ATOM     47  C   UNL A   1      45.663  28.271  26.879  1.00  0.00     0.034 A 
ATOM     48  C   UNL A   1      39.735  30.169  30.148  1.00  0.00     0.034 A 
ATOM     49  C   UNL A   1      45.661  29.607  27.421  1.00  0.00     0.049 A 
ATOM     50  C   UNL A   1      40.930  31.084  30.068  1.00  0.00     0.074 A 
ATOM     51  C   UNL A   1      46.657  30.566  27.358  1.00  0.00     0.029 A 
ATOM     52  N   UNL A   1      44.611  30.174  28.132  1.00  0.00    -0.354 N 
ATOM     53  N   UNL A   1      42.090  30.879  29.489  1.00  0.00    -0.248 NA
ATOM     54  C   UNL A   1      40.802  32.398  30.713  1.00  0.00     0.031 C 
ATOM     55  C   UNL A   1      46.235  31.686  28.082  1.00  0.00     0.029 A 
ATOM     56  C   UNL A   1      44.946  31.457  28.538  1.00  0.00     0.049 A 
ATOM     57  H   UNL A   1      43.752  29.729  28.321  1.00  0.00     0.167 HD
ATOM     58  C   UNL A   1      42.821  32.049  29.678  1.00  0.00     0.074 A 
ATOM     59  C   UNL A   1      41.963  32.960  30.409  1.00  0.00     0.031 C 
ATOM     60  C   UNL A   1      44.083  32.347  29.277  1.00  0.00     0.034 A 
BRANCH  47  61
ATOM     61  C   UNL A   1      46.916  27.751  26.215  1.00  0.00     0.023 A 
ATOM     62  C   UNL A   1      47.194  28.009  24.860  1.00  0.00     0.031 A 
ATOM     63  C   UNL A   1      47.828  26.958  26.931  1.00  0.00     0.131 A 
ATOM     64  C   UNL A   1      48.304  27.412  24.245  1.00  0.00     0.055 A 
ATOM     65  C   UNL A   1      48.978  26.436  26.335  1.00  0.00     0.041 A 
ATOM     66  F   UNL A   1      47.608  26.660  28.222  1.00  0.00    -0.206 F 
ATOM     67  C   UNL A   1      49.213  26.648  24.980  1.00  0.00     0.022 A 
BRANCH  64  68
ATOM     68  S   UNL A   1      48.460  27.526  22.442  1.00  0.00     0.124 S 
ATOM     69  O   UNL A   1      49.599  28.431  22.303  1.00  0.00    -0.237 OA
ATOM     70  O   UNL A   1      48.697  26.140  22.057  1.00  0.00    -0.237 OA
ATOM     71  O   UNL A   1      47.176  28.081  22.021  1.00  0.00    -0.744 OA
ENDBRANCH  64  68
ENDBRANCH  47  61
BRANCH  48  72
ATOM     72  C   UNL A   1      38.513  30.576  30.898  1.00  0.00     0.023 A 
ATOM     73  C   UNL A   1      37.474  31.273  30.261  1.00  0.00     0.031 A 
ATOM     74  C   UNL A   1      38.384  30.309  32.272  1.00  0.00     0.131 A 
ATOM     75  C   UNL A   1      36.372  31.720  31.007  1.00  0.00     0.055 A 
ATOM     76  C   UNL A   1      37.263  30.712  32.999  1.00  0.00     0.041 A 
ATOM     77  F   UNL A   1      39.345  29.639  32.927  1.00  0.00    -0.206 F 
ATOM     78  C   UNL A   1      36.253  31.434  32.369  1.00  0.00     0.022 A 
BRANCH  75  79
ATOM     79  S   UNL A   1      35.127  32.752  30.183  1.00  0.00     0.124 S 
ATOM     80  O   UNL A   1      34.255  33.110  31.296  1.00  0.00    -0.237 OA
ATOM     81  O   UNL A   1      35.943  33.829  29.633  1.00  0.00    -0.237 OA
ATOM     82  O   UNL A   1      34.540  31.851  29.194  1.00  0.00    -0.744 OA
ENDBRANCH  75  79
ENDBRANCH  48  72
BRANCH  60  83
ATOM     83  C   UNL A   1      44.589  33.733  29.591  1.00  0.00     0.023 A 
ATOM     84  C   UNL A   1      45.295  34.014  30.774  1.00  0.00     0.031 A 
ATOM     85  C   UNL A   1      44.345  34.793  28.699  1.00  0.00     0.131 A 
ATOM     86  C   UNL A   1      45.686  35.330  31.058  1.00  0.00     0.055 A 
ATOM     87  C   UNL A   1      44.787  36.089  28.959  1.00  0.00     0.041 A 
ATOM     88  F   UNL A   1      43.673  34.580  27.555  1.00  0.00    -0.206 F 
ATOM     89  C   UNL A   1      45.452  36.367  30.151  1.00  0.00     0.022 A 
BRANCH  86  90
ATOM     90  S   UNL A   1      46.434  35.688  32.672  1.00  0.00     0.124 S 
ATOM     91  O   UNL A   1      47.832  35.338  32.442  1.00  0.00    -0.237 OA
ATOM     92  O   UNL A   1      46.152  37.110  32.837  1.00  0.00    -0.237 OA
ATOM     93  O   UNL A   1      45.715  34.804  33.587  1.00  0.00    -0.744 OA
ENDBRANCH  86  90
ENDBRANCH  60  83
ENDBRANCH  34  35
ENDBRANCH  26  29
ENDBRANCH  24  25
ENDBRANCH  23  24
ENDBRANCH  22  23
ENDBRANCH   1  22
TORSDOF 19
ENDMDL
MODEL 2
REMARK VINA RESULT:     -10.8      2.682      8.776
REMARK SMILES C[C@H]1[C@H](C(=O)NCCCCNC(=O)c2ccc(-c3c4nc(c(-c5cc(S(=O)(=O)[O-])ccc5F)c5ccc([nH]5)c(-c5cc(S(=O)(=O)[O-])ccc5F)c5nc(c(-c6cc(S(=O)(=O)[O-])ccc6F)c6ccc3[nH]6)C=C5)C=C4)cc2)CCN1C(=O)CC[NH2+]C1CC1
REMARK SMILES IDX 7 1 6 2 4 3 5 4 3 6 1 7 2 8 79 9 77 10 78 11 80 12 81 13
REMARK SMILES IDX 82 14 83 15 84 16 85 19 86 20 87 21 8 22 9 23 10 24 11 25
REMARK SMILES IDX 12 26 13 28 14 29 15 30 76 31 16 32 75 33 17 34 18 35 19 36
REMARK SMILES IDX 69 37 20 38 74 39 68 40 70 41 21 42 73 43 67 44 66 45 22 47
REMARK SMILES IDX 54 48 34 49 53 50 35 51 38 52 52 53 71 54 36 55 37 56 51 58
REMARK SMILES IDX 72 59 39 60 23 61 24 62 32 63 25 64 31 65 33 66 30 67 26 68
REMARK SMILES IDX 27 69 28 70 29 71 55 72 56 73 64 74 57 75 63 76 65 77 62 78
REMARK SMILES IDX 58 79 59 80 60 81 61 82 40 83 41 84 49 85 42 86 48 87 50 88
REMARK SMILES IDX 47 89 43 90 44 91 45 92 46 93
REMARK H PARENT 6 5 84 17 84 18 11 27 70 46 38 57
REMARK Flexibility Score: inf
ROOT
ATOM      1  C   UNL A   1      34.523  23.301  22.930  1.00  0.00     0.116 C 
ENDROOT
BRANCH   1   2
ATOM      2  N   UNL A   1      34.106  24.689  22.893  1.00  0.00    -0.356 N 
ATOM      3  C   UNL A   1      33.511  25.469  23.829  1.00  0.00     0.225 C 
ATOM      4  O   UNL A   1      33.261  26.637  23.520  1.00  0.00    -0.275 OA
ATOM      5  H   UNL A   1      34.288  25.145  22.039  1.00  0.00     0.163 HD
BRANCH   3   6
ATOM      6  C   UNL A   1      33.109  24.957  25.202  1.00  0.00     0.102 C 
ATOM      7  C   UNL A   1      30.918  23.918  25.810  1.00  0.00     0.032 C 
ATOM      8  C   UNL A   1      32.263  23.678  25.119  1.00  0.00     0.094 C 
ATOM      9  N   UNL A   1      33.031  22.671  25.850  1.00  0.00    -0.339 N 
ATOM     10  C   UNL A   1      34.257  24.663  26.172  1.00  0.00     0.037 C 
ATOM     11  C   UNL A   1      33.927  23.311  26.794  1.00  0.00     0.120 C 
BRANCH   9  12
ATOM     12  C   UNL A   1      32.962  21.295  25.764  1.00  0.00     0.228 C 
ATOM     13  O   UNL A   1      33.534  20.572  26.582  1.00  0.00    -0.275 OA
BRANCH  12  14
ATOM     14  C   UNL A   1      32.202  20.667  24.608  1.00  0.00     0.161 C 
BRANCH  14  15
ATOM     15  C   UNL A   1      32.456  19.166  24.485  1.00  0.00     0.270 C 
BRANCH  15  16
ATOM     16  N   UNL A   1      33.891  18.881  24.369  1.00  0.00    -0.343 N 
ATOM     17  H   UNL A   1      34.381  19.412  25.089  1.00  0.00     0.346 HD
ATOM     18  H   UNL A   1      34.168  19.147  23.424  1.00  0.00     0.346 HD
BRANCH  16  19
ATOM     19  C   UNL A   1      34.235  17.466  24.526  1.00  0.00     0.182 C 
ATOM     20  C   UNL A   1      33.255  16.363  24.239  1.00  0.00     0.071 C 
ATOM     21  C   UNL A   1      34.374  16.627  23.280  1.00  0.00     0.071 C 
ENDBRANCH  16  19
ENDBRANCH  15  16
ENDBRANCH  14  15
ENDBRANCH  12  14
ENDBRANCH   9  12
ENDBRANCH   3   6
ENDBRANCH   1   2
BRANCH   1  22
ATOM     22  C   UNL A   1      35.934  23.137  23.485  1.00  0.00     0.023 C 
BRANCH  22  23
ATOM     23  C   UNL A   1      36.223  21.787  24.139  1.00  0.00     0.023 C 
BRANCH  23  24
ATOM     24  C   UNL A   1      36.967  21.847  25.467  1.00  0.00     0.116 C 
BRANCH  24  25
ATOM     25  N   UNL A   1      37.940  20.778  25.632  1.00  0.00    -0.352 N 
ATOM     26  C   UNL A   1      39.222  20.858  26.124  1.00  0.00     0.251 C 
ATOM     27  H   UNL A   1      37.643  19.881  25.356  1.00  0.00     0.163 HD
ATOM     28  O   UNL A   1      39.949  19.870  26.107  1.00  0.00    -0.269 OA
BRANCH  26  29
ATOM     29  C   UNL A   1      39.723  22.155  26.624  1.00  0.00     0.039 A 
ATOM     30  C   UNL A   1      40.767  22.160  27.552  1.00  0.00     0.014 A 
ATOM     31  C   UNL A   1      39.201  23.358  26.138  1.00  0.00     0.014 A 
ATOM     32  C   UNL A   1      41.339  23.374  27.938  1.00  0.00     0.010 A 
ATOM     33  C   UNL A   1      39.819  24.559  26.470  1.00  0.00     0.010 A 
ATOM     34  C   UNL A   1      40.896  24.580  27.369  1.00  0.00    -0.014 A 
BRANCH  34  35
ATOM     35  C   UNL A   1      41.549  25.872  27.702  1.00  0.00     0.031 A 
ATOM     36  C   UNL A   1      40.786  26.923  28.459  1.00  0.00     0.074 A 
ATOM     37  C   UNL A   1      42.797  26.121  27.263  1.00  0.00     0.049 A 
ATOM     38  N   UNL A   1      41.146  28.141  28.774  1.00  0.00    -0.248 NA
ATOM     39  C   UNL A   1      39.426  26.567  28.889  1.00  0.00     0.031 C 
ATOM     40  C   UNL A   1      43.618  25.194  26.479  1.00  0.00     0.029 A 
ATOM     41  N   UNL A   1      43.593  27.230  27.401  1.00  0.00    -0.354 N 
ATOM     42  C   UNL A   1      40.053  28.701  29.426  1.00  0.00     0.074 A 
ATOM     43  C   UNL A   1      38.998  27.709  29.403  1.00  0.00     0.031 C 
ATOM     44  C   UNL A   1      44.807  25.766  26.225  1.00  0.00     0.029 A 
ATOM     45  C   UNL A   1      44.820  27.112  26.789  1.00  0.00     0.049 A 
ATOM     46  H   UNL A   1      43.313  28.036  27.892  1.00  0.00     0.167 HD
ATOM     47  C   UNL A   1      39.947  29.922  30.009  1.00  0.00     0.034 A 
ATOM     48  C   UNL A   1      45.835  27.992  26.686  1.00  0.00     0.034 A 
ATOM     49  C   UNL A   1      41.014  30.892  30.035  1.00  0.00     0.049 A 
ATOM     50  C   UNL A   1      45.692  29.345  27.334  1.00  0.00     0.074 A 
ATOM     51  C   UNL A   1      41.037  32.133  30.647  1.00  0.00     0.029 A 
ATOM     52  N   UNL A   1      42.247  30.734  29.416  1.00  0.00    -0.354 N 
ATOM     53  N   UNL A   1      44.670  29.842  27.993  1.00  0.00    -0.248 NA
ATOM     54  C   UNL A   1      46.843  30.252  27.235  1.00  0.00     0.031 C 
ATOM     55  C   UNL A   1      42.258  32.748  30.347  1.00  0.00     0.029 A 
ATOM     56  C   UNL A   1      43.027  31.864  29.607  1.00  0.00     0.049 A 
ATOM     57  H   UNL A   1      42.527  29.934  28.913  1.00  0.00     0.167 HD
ATOM     58  C   UNL A   1      45.068  31.109  28.411  1.00  0.00     0.074 A 
ATOM     59  C   UNL A   1      46.427  31.293  27.942  1.00  0.00     0.031 C 
ATOM     60  C   UNL A   1      44.376  32.035  29.122  1.00  0.00     0.034 A 
BRANCH  47  61
ATOM     61  C   UNL A   1      38.621  30.274  30.641  1.00  0.00     0.023 A 
ATOM     62  C   UNL A   1      37.621  30.957  29.926  1.00  0.00     0.031 A 
ATOM     63  C   UNL A   1      38.365  29.957  31.986  1.00  0.00     0.131 A 
ATOM     64  C   UNL A   1      36.451  31.373  30.578  1.00  0.00     0.055 A 
ATOM     65  C   UNL A   1      37.162  30.299  32.607  1.00  0.00     0.041 A 
ATOM     66  F   UNL A   1      39.288  29.324  32.727  1.00  0.00    -0.206 F 
ATOM     67  C   UNL A   1      36.204  31.026  31.908  1.00  0.00     0.022 A 
BRANCH  64  68
ATOM     68  S   UNL A   1      35.329  32.500  29.708  1.00  0.00     0.124 S 
ATOM     69  O   UNL A   1      34.729  31.609  28.717  1.00  0.00    -0.237 OA
ATOM     70  O   UNL A   1      34.446  32.954  30.775  1.00  0.00    -0.237 OA
ATOM     71  O   UNL A   1      36.222  33.519  29.160  1.00  0.00    -0.744 OA
ENDBRANCH  64  68
ENDBRANCH  47  61
BRANCH  48  72
ATOM     72  C   UNL A   1      47.073  27.633  25.939  1.00  0.00     0.023 A 
ATOM     73  C   UNL A   1      47.197  27.914  24.569  1.00  0.00     0.031 A 
ATOM     74  C   UNL A   1      48.137  26.968  26.575  1.00  0.00     0.131 A 
ATOM     75  C   UNL A   1      48.337  27.491  23.868  1.00  0.00     0.055 A 
ATOM     76  C   UNL A   1      49.290  26.594  25.885  1.00  0.00     0.041 A 
ATOM     77  F   UNL A   1      48.072  26.683  27.885  1.00  0.00    -0.206 F 
ATOM     78  C   UNL A   1      49.390  26.844  24.519  1.00  0.00     0.022 A 
BRANCH  75  79
ATOM     79  S   UNL A   1      48.391  27.732  22.071  1.00  0.00     0.124 S 
ATOM     80  O   UNL A   1      48.655  26.378  21.597  1.00  0.00    -0.237 OA
ATOM     81  O   UNL A   1      47.060  28.262  21.797  1.00  0.00    -0.237 OA
ATOM     82  O   UNL A   1      49.486  28.683  21.888  1.00  0.00    -0.744 OA
ENDBRANCH  75  79
ENDBRANCH  48  72
BRANCH  60  83
ATOM     83  C   UNL A   1      45.102  33.312  29.468  1.00  0.00     0.023 A 
ATOM     84  C   UNL A   1      45.036  34.447  28.643  1.00  0.00     0.031 A 
ATOM     85  C   UNL A   1      45.884  33.385  30.634  1.00  0.00     0.131 A 
ATOM     86  C   UNL A   1      45.782  35.590  28.966  1.00  0.00     0.055 A 
ATOM     87  C   UNL A   1      46.577  34.544  30.982  1.00  0.00     0.041 A 
ATOM     88  F   UNL A   1      45.983  32.328  31.457  1.00  0.00    -0.206 F 
ATOM     89  C   UNL A   1      46.539  35.652  30.139  1.00  0.00     0.022 A 
BRANCH  86  90
ATOM     90  S   UNL A   1      45.817  36.970  27.790  1.00  0.00     0.124 S 
ATOM     91  O   UNL A   1      44.521  36.841  27.131  1.00  0.00    -0.237 OA
ATOM     92  O   UNL A   1      45.973  38.125  28.668  1.00  0.00    -0.237 OA
ATOM     93  O   UNL A   1      46.974  36.673  26.947  1.00  0.00    -0.744 OA
ENDBRANCH  86  90
ENDBRANCH  60  83
ENDBRANCH  34  35
ENDBRANCH  26  29
ENDBRANCH  24  25
ENDBRANCH  23  24
ENDBRANCH  22  23
ENDBRANCH   1  22
TORSDOF 19
ENDMDL
MODEL 3
REMARK VINA RESULT:     -10.7      5.014     10.593
REMARK SMILES C[C@H]1[C@H](C(=O)NCCCCNC(=O)c2ccc(-c3c4nc(c(-c5cc(S(=O)(=O)[O-])ccc5F)c5ccc([nH]5)c(-c5cc(S(=O)(=O)[O-])ccc5F)c5nc(c(-c6cc(S(=O)(=O)[O-])ccc6F)c6ccc3[nH]6)C=C5)C=C4)cc2)CCN1C(=O)CC[NH2+]C1CC1
REMARK SMILES IDX 7 1 6 2 4 3 5 4 3 6 1 7 2 8 79 9 77 10 78 11 80 12 81 13
REMARK SMILES IDX 82 14 83 15 84 16 85 19 86 20 87 21 8 22 9 23 10 24 11 25
REMARK SMILES IDX 12 26 13 28 14 29 15 30 76 31 16 32 75 33 17 34 18 35 19 36
REMARK SMILES IDX 69 37 20 38 74 39 68 40 70 41 21 42 73 43 67 44 66 45 22 47
REMARK SMILES IDX 54 48 34 49 53 50 35 51 38 52 52 53 71 54 36 55 37 56 51 58
REMARK SMILES IDX 72 59 39 60 23 61 24 62 32 63 25 64 31 65 33 66 30 67 26 68
REMARK SMILES IDX 27 69 28 70 29 71 55 72 56 73 64 74 57 75 63 76 65 77 62 78
REMARK SMILES IDX 58 79 59 80 60 81 61 82 40 83 41 84 49 85 42 86 48 87 50 88
REMARK SMILES IDX 47 89 43 90 44 91 45 92 46 93
REMARK H PARENT 6 5 84 17 84 18 11 27 70 46 38 57
REMARK Flexibility Score: inf
ROOT
ATOM      1  C   UNL A   1      32.270  26.726  26.501  1.00  0.00     0.116 C 
ENDROOT
BRANCH   1   2
ATOM      2  N   UNL A   1      31.440  25.570  26.778  1.00  0.00    -0.356 N 
ATOM      3  C   UNL A   1      31.344  24.368  26.157  1.00  0.00     0.225 C 
ATOM      4  O   UNL A   1      30.534  23.556  26.612  1.00  0.00    -0.275 OA
ATOM      5  H   UNL A   1      30.840  25.677  27.552  1.00  0.00     0.163 HD
BRANCH   3   6
ATOM      6  C   UNL A   1      32.151  24.007  24.921  1.00  0.00     0.102 C 
ATOM      7  C   UNL A   1      34.629  23.695  24.813  1.00  0.00     0.032 C 
ATOM      8  C   UNL A   1      33.309  23.051  25.244  1.00  0.00     0.094 C 
ATOM      9  N   UNL A   1      33.046  21.858  24.441  1.00  0.00    -0.339 N 
ATOM     10  C   UNL A   1      31.367  23.375  23.767  1.00  0.00     0.037 C 
ATOM     11  C   UNL A   1      32.209  22.191  23.305  1.00  0.00     0.120 C 
BRANCH   9  12
ATOM     12  C   UNL A   1      33.508  20.570  24.623  1.00  0.00     0.228 C 
ATOM     13  O   UNL A   1      34.711  20.332  24.751  1.00  0.00    -0.275 OA
BRANCH  12  14
ATOM     14  C   UNL A   1      32.511  19.423  24.617  1.00  0.00     0.161 C 
BRANCH  14  15
ATOM     15  C   UNL A   1      32.541  18.625  23.315  1.00  0.00     0.270 C 
BRANCH  15  16
ATOM     16  N   UNL A   1      32.510  17.182  23.579  1.00  0.00    -0.343 N 
ATOM     17  H   UNL A   1      33.207  16.733  22.985  1.00  0.00     0.346 HD
ATOM     18  H   UNL A   1      31.560  16.867  23.381  1.00  0.00     0.346 HD
BRANCH  16  19
ATOM     19  C   UNL A   1      32.790  16.821  24.970  1.00  0.00     0.182 C 
ATOM     20  C   UNL A   1      32.518  15.446  25.515  1.00  0.00     0.071 C 
ATOM     21  C   UNL A   1      33.929  15.868  25.240  1.00  0.00     0.071 C 
ENDBRANCH  16  19
ENDBRANCH  15  16
ENDBRANCH  14  15
ENDBRANCH  12  14
ENDBRANCH   9  12
ENDBRANCH   3   6
ENDBRANCH   1   2
BRANCH   1  22
ATOM     22  C   UNL A   1      31.725  27.563  25.348  1.00  0.00     0.023 C 
BRANCH  22  23
ATOM     23  C   UNL A   1      31.555  29.052  25.649  1.00  0.00     0.023 C 
BRANCH  23  24
ATOM     24  C   UNL A   1      32.825  29.789  26.055  1.00  0.00     0.116 C 
BRANCH  24  25
ATOM     25  N   UNL A   1      32.585  31.157  26.487  1.00  0.00    -0.352 N 
ATOM     26  C   UNL A   1      33.352  31.936  27.321  1.00  0.00     0.251 C 
ATOM     27  H   UNL A   1      31.768  31.580  26.137  1.00  0.00     0.163 HD
ATOM     28  O   UNL A   1      32.954  33.046  27.663  1.00  0.00    -0.269 OA
BRANCH  26  29
ATOM     29  C   UNL A   1      34.629  31.402  27.836  1.00  0.00     0.039 A 
ATOM     30  C   UNL A   1      35.681  32.289  28.076  1.00  0.00     0.014 A 
ATOM     31  C   UNL A   1      34.768  30.042  28.130  1.00  0.00     0.014 A 
ATOM     32  C   UNL A   1      36.849  31.823  28.682  1.00  0.00     0.010 A 
ATOM     33  C   UNL A   1      35.903  29.595  28.796  1.00  0.00     0.010 A 
ATOM     34  C   UNL A   1      36.954  30.481  29.084  1.00  0.00    -0.014 A 
BRANCH  34  35
ATOM     35  C   UNL A   1      38.154  29.985  29.807  1.00  0.00     0.031 A 
ATOM     36  C   UNL A   1      38.463  30.501  31.184  1.00  0.00     0.074 A 
ATOM     37  C   UNL A   1      38.995  29.130  29.195  1.00  0.00     0.049 A 
ATOM     38  N   UNL A   1      39.500  30.258  31.945  1.00  0.00    -0.248 NA
ATOM     39  C   UNL A   1      37.495  31.440  31.768  1.00  0.00     0.031 C 
ATOM     40  C   UNL A   1      38.822  28.597  27.841  1.00  0.00     0.029 A 
ATOM     41  N   UNL A   1      40.168  28.564  29.624  1.00  0.00    -0.354 N 
ATOM     42  C   UNL A   1      39.315  31.025  33.091  1.00  0.00     0.074 A 
ATOM     43  C   UNL A   1      38.100  31.787  32.893  1.00  0.00     0.031 C 
ATOM     44  C   UNL A   1      39.840  27.767  27.561  1.00  0.00     0.029 A 
ATOM     45  C   UNL A   1      40.760  27.739  28.694  1.00  0.00     0.049 A 
ATOM     46  H   UNL A   1      40.552  28.732  30.515  1.00  0.00     0.167 HD
ATOM     47  C   UNL A   1      40.078  31.071  34.212  1.00  0.00     0.034 A 
ATOM     48  C   UNL A   1      41.915  27.049  28.746  1.00  0.00     0.034 A 
ATOM     49  C   UNL A   1      41.278  30.293  34.397  1.00  0.00     0.049 A 
ATOM     50  C   UNL A   1      42.750  27.122  29.999  1.00  0.00     0.074 A 
ATOM     51  C   UNL A   1      42.093  30.217  35.513  1.00  0.00     0.029 A 
ATOM     52  N   UNL A   1      41.840  29.459  33.439  1.00  0.00    -0.354 N 
ATOM     53  N   UNL A   1      42.535  27.811  31.096  1.00  0.00    -0.248 NA
ATOM     54  C   UNL A   1      43.977  26.315  30.025  1.00  0.00     0.031 C 
ATOM     55  C   UNL A   1      43.179  29.387  35.208  1.00  0.00     0.029 A 
ATOM     56  C   UNL A   1      43.005  28.887  33.927  1.00  0.00     0.049 A 
ATOM     57  H   UNL A   1      41.465  29.297  32.542  1.00  0.00     0.167 HD
ATOM     58  C   UNL A   1      43.587  27.498  31.952  1.00  0.00     0.074 A 
ATOM     59  C   UNL A   1      44.425  26.547  31.250  1.00  0.00     0.031 C 
ATOM     60  C   UNL A   1      43.835  27.950  33.208  1.00  0.00     0.034 A 
BRANCH  47  61
ATOM     61  C   UNL A   1      39.639  32.014  35.307  1.00  0.00     0.023 A 
ATOM     62  C   UNL A   1      38.939  31.556  36.438  1.00  0.00     0.031 A 
ATOM     63  C   UNL A   1      39.890  33.393  35.206  1.00  0.00     0.131 A 
ATOM     64  C   UNL A   1      38.442  32.474  37.376  1.00  0.00     0.055 A 
ATOM     65  C   UNL A   1      39.468  34.293  36.186  1.00  0.00     0.041 A 
ATOM     66  F   UNL A   1      40.537  33.893  34.141  1.00  0.00    -0.206 F 
ATOM     67  C   UNL A   1      38.725  33.837  37.271  1.00  0.00     0.022 A 
BRANCH  64  68
ATOM     68  S   UNL A   1      37.299  31.876  38.650  1.00  0.00     0.124 S 
ATOM     69  O   UNL A   1      38.091  32.059  39.864  1.00  0.00    -0.237 OA
ATOM     70  O   UNL A   1      36.157  32.768  38.493  1.00  0.00    -0.237 OA
ATOM     71  O   UNL A   1      37.062  30.485  38.273  1.00  0.00    -0.744 OA
ENDBRANCH  64  68
ENDBRANCH  47  61
BRANCH  48  72
ATOM     72  C   UNL A   1      42.360  26.233  27.582  1.00  0.00     0.023 A 
ATOM     73  C   UNL A   1      42.155  24.844  27.552  1.00  0.00     0.031 A 
ATOM     74  C   UNL A   1      43.033  26.824  26.497  1.00  0.00     0.131 A 
ATOM     75  C   UNL A   1      42.659  24.085  26.484  1.00  0.00     0.055 A 
ATOM     76  C   UNL A   1      43.488  26.072  25.413  1.00  0.00     0.041 A 
ATOM     77  F   UNL A   1      43.248  28.148  26.473  1.00  0.00    -0.206 F 
ATOM     78  C   UNL A   1      43.313  24.691  25.408  1.00  0.00     0.022 A 
BRANCH  75  79
ATOM     79  S   UNL A   1      42.512  22.278  26.558  1.00  0.00     0.124 S 
ATOM     80  O   UNL A   1      43.733  21.853  25.882  1.00  0.00    -0.237 OA
ATOM     81  O   UNL A   1      42.456  22.038  27.995  1.00  0.00    -0.237 OA
ATOM     82  O   UNL A   1      41.271  22.008  25.835  1.00  0.00    -0.744 OA
ENDBRANCH  75  79
ENDBRANCH  48  72
BRANCH  60  83
ATOM     83  C   UNL A   1      45.043  27.382  33.911  1.00  0.00     0.023 A 
ATOM     84  C   UNL A   1      44.970  26.206  34.677  1.00  0.00     0.031 A 
ATOM     85  C   UNL A   1      46.284  28.040  33.824  1.00  0.00     0.131 A 
ATOM     86  C   UNL A   1      46.101  25.752  35.370  1.00  0.00     0.055 A 
ATOM     87  C   UNL A   1      47.420  27.551  34.468  1.00  0.00     0.041 A 
ATOM     88  F   UNL A   1      46.409  29.168  33.108  1.00  0.00    -0.206 F 
ATOM     89  C   UNL A   1      47.330  26.407  35.257  1.00  0.00     0.022 A 
BRANCH  86  90
ATOM     90  S   UNL A   1      45.927  24.337  36.491  1.00  0.00     0.124 S 
ATOM     91  O   UNL A   1      44.487  24.101  36.460  1.00  0.00    -0.237 OA
ATOM     92  O   UNL A   1      46.753  23.323  35.844  1.00  0.00    -0.237 OA
ATOM     93  O   UNL A   1      46.446  24.840  37.762  1.00  0.00    -0.744 OA
ENDBRANCH  86  90
ENDBRANCH  60  83
ENDBRANCH  34  35
ENDBRANCH  26  29
ENDBRANCH  24  25
ENDBRANCH  23  24
ENDBRANCH  22  23
ENDBRANCH   1  22
TORSDOF 19
ENDMDL
