MODEL 1
REMARK VINA RESULT:     -12.8      0.000      0.000
REMARK SMILES O=C(NCCCCNC(=O)[C@@H]1CC[C@@]2(CCN(C(=O)OCc3ccccc3)C2)C1)c1ccc(-c2c3nc(c(-c4cc(S(=O)(=O)[O-])ccc4F)c4ccc([nH]4)c(-c4cc(S(=O)(=O)[O-])ccc4F)c4nc(c(-c5cc(S(=O)(=O)[O-])ccc5F)c5ccc2[nH]5)C=C4)C=C3)cc1
REMARK SMILES IDX 6 1 5 2 4 3 3 4 1 5 2 6 30 8 31 9 92 10 32 11 91 12 33 13
REMARK SMILES IDX 34 14 35 15 85 16 36 17 90 18 84 19 86 20 37 21 89 22 83 23
REMARK SMILES IDX 82 24 38 26 70 27 50 28 69 29 51 30 54 31 68 32 87 33 52 34
REMARK SMILES IDX 53 35 67 37 88 38 55 39 39 40 40 41 48 42 41 43 47 44 49 45
REMARK SMILES IDX 46 46 42 47 43 48 44 49 45 50 71 51 72 52 80 53 73 54 79 55
REMARK SMILES IDX 81 56 78 57 74 58 75 59 76 60 77 61 56 62 57 63 65 64 58 65
REMARK SMILES IDX 64 66 66 67 63 68 59 69 60 70 61 71 62 72 7 73 8 74 9 75
REMARK SMILES IDX 10 77 11 78 12 79 29 80 13 81 14 82 15 83 28 84 16 85 17 86
REMARK SMILES IDX 18 87 19 88 20 89 21 90 22 91 23 92 27 93 24 94 26 95 25 96
REMARK H PARENT 3 7 86 25 54 36 8 76
REMARK Flexibility Score: inf
ROOT
ATOM      1  C   UNL A   1      34.559  20.785  25.693  1.00  0.00     0.023 C 
ENDROOT
BRANCH   1   2
ATOM      2  C   UNL A   1      35.396  21.525  24.656  1.00  0.00     0.023 C 
BRANCH   2   3
ATOM      3  C   UNL A   1      36.777  21.918  25.151  1.00  0.00     0.116 C 
BRANCH   3   4
ATOM      4  N   UNL A   1      37.718  20.807  25.253  1.00  0.00    -0.352 N 
ATOM      5  O   UNL A   1      39.717  19.884  25.833  1.00  0.00    -0.269 OA
ATOM      6  C   UNL A   1      38.960  20.847  25.858  1.00  0.00     0.251 C 
ATOM      7  H   UNL A   1      37.442  19.951  24.854  1.00  0.00     0.163 HD
BRANCH   6   8
ATOM      8  C   UNL A   1      39.360  22.119  26.495  1.00  0.00     0.039 A 
ATOM      9  C   UNL A   1      38.766  23.307  26.066  1.00  0.00     0.014 A 
ATOM     10  C   UNL A   1      40.454  22.139  27.362  1.00  0.00     0.014 A 
ATOM     11  C   UNL A   1      39.388  24.514  26.349  1.00  0.00     0.010 A 
ATOM     12  C   UNL A   1      41.018  23.366  27.725  1.00  0.00     0.010 A 
ATOM     13  C   UNL A   1      40.527  24.560  27.172  1.00  0.00    -0.014 A 
BRANCH  13  14
ATOM     14  C   UNL A   1      41.180  25.873  27.426  1.00  0.00     0.031 A 
ATOM     15  C   UNL A   1      40.535  26.912  28.306  1.00  0.00     0.074 A 
ATOM     16  C   UNL A   1      42.402  26.096  26.902  1.00  0.00     0.049 A 
ATOM     17  N   UNL A   1      40.979  28.096  28.649  1.00  0.00    -0.248 NA
ATOM     18  C   UNL A   1      39.215  26.587  28.865  1.00  0.00     0.031 C 
ATOM     19  C   UNL A   1      43.127  25.161  26.039  1.00  0.00     0.029 A 
ATOM     20  N   UNL A   1      43.261  27.154  27.042  1.00  0.00    -0.354 N 
ATOM     21  C   UNL A   1      39.982  28.671  29.431  1.00  0.00     0.074 A 
ATOM     22  C   UNL A   1      38.900  27.710  29.497  1.00  0.00     0.031 C 
ATOM     23  C   UNL A   1      44.346  25.656  25.781  1.00  0.00     0.029 A 
ATOM     24  C   UNL A   1      44.460  26.974  26.393  1.00  0.00     0.049 A 
ATOM     25  H   UNL A   1      43.042  27.964  27.557  1.00  0.00     0.167 HD
ATOM     26  C   UNL A   1      39.973  29.886  30.038  1.00  0.00     0.034 A 
ATOM     27  C   UNL A   1      45.531  27.784  26.287  1.00  0.00     0.034 A 
ATOM     28  C   UNL A   1      41.074  30.821  29.984  1.00  0.00     0.049 A 
ATOM     29  C   UNL A   1      45.493  29.123  26.966  1.00  0.00     0.074 A 
ATOM     30  C   UNL A   1      41.184  32.061  30.592  1.00  0.00     0.029 A 
ATOM     31  N   UNL A   1      42.256  30.623  29.282  1.00  0.00    -0.354 N 
ATOM     32  N   UNL A   1      44.539  29.652  27.697  1.00  0.00    -0.248 NA
ATOM     33  C   UNL A   1      46.678  29.974  26.805  1.00  0.00     0.031 C 
ATOM     34  C   UNL A   1      42.403  32.635  30.210  1.00  0.00     0.029 A 
ATOM     35  C   UNL A   1      43.086  31.726  29.419  1.00  0.00     0.049 A 
ATOM     36  H   UNL A   1      42.473  29.815  28.762  1.00  0.00     0.167 HD
ATOM     37  C   UNL A   1      45.015  30.898  28.092  1.00  0.00     0.074 A 
ATOM     38  C   UNL A   1      46.350  31.025  27.541  1.00  0.00     0.031 C 
ATOM     39  C   UNL A   1      44.405  31.849  28.843  1.00  0.00     0.034 A 
BRANCH  26  40
ATOM     40  C   UNL A   1      38.712  30.296  30.765  1.00  0.00     0.023 A 
ATOM     41  C   UNL A   1      37.686  31.019  30.134  1.00  0.00     0.031 A 
ATOM     42  C   UNL A   1      38.545  29.970  32.123  1.00  0.00     0.131 A 
ATOM     43  C   UNL A   1      36.573  31.448  30.874  1.00  0.00     0.055 A 
ATOM     44  C   UNL A   1      37.402  30.336  32.837  1.00  0.00     0.041 A 
ATOM     45  F   UNL A   1      39.500  29.297  32.787  1.00  0.00    -0.206 F 
ATOM     46  C   UNL A   1      36.413  31.093  32.215  1.00  0.00     0.022 A 
BRANCH  43  47
ATOM     47  S   UNL A   1      35.404  32.599  30.097  1.00  0.00     0.124 S 
ATOM     48  O   UNL A   1      35.120  31.924  28.832  1.00  0.00    -0.237 OA
ATOM     49  O   UNL A   1      34.310  32.635  31.061  1.00  0.00    -0.237 OA
ATOM     50  O   UNL A   1      36.171  33.837  29.975  1.00  0.00    -0.744 OA
ENDBRANCH  43  47
ENDBRANCH  26  40
BRANCH  27  51
ATOM     51  C   UNL A   1      46.710  27.357  25.486  1.00  0.00     0.023 A 
ATOM     52  C   UNL A   1      46.894  27.812  24.173  1.00  0.00     0.031 A 
ATOM     53  C   UNL A   1      47.668  26.480  26.026  1.00  0.00     0.131 A 
ATOM     54  C   UNL A   1      47.998  27.364  23.430  1.00  0.00     0.055 A 
ATOM     55  C   UNL A   1      48.789  26.077  25.301  1.00  0.00     0.041 A 
ATOM     56  F   UNL A   1      47.540  26.024  27.282  1.00  0.00    -0.206 F 
ATOM     57  C   UNL A   1      48.953  26.512  23.990  1.00  0.00     0.022 A 
BRANCH  54  58
ATOM     58  S   UNL A   1      48.135  27.867  21.693  1.00  0.00     0.124 S 
ATOM     59  O   UNL A   1      48.373  26.590  21.031  1.00  0.00    -0.237 OA
ATOM     60  O   UNL A   1      46.834  28.481  21.453  1.00  0.00    -0.237 OA
ATOM     61  O   UNL A   1      49.267  28.791  21.696  1.00  0.00    -0.744 OA
ENDBRANCH  54  58
ENDBRANCH  27  51
BRANCH  39  62
ATOM     62  C   UNL A   1      45.205  33.095  29.125  1.00  0.00     0.023 A 
ATOM     63  C   UNL A   1      45.149  34.213  28.275  1.00  0.00     0.031 A 
ATOM     64  C   UNL A   1      46.071  33.145  30.231  1.00  0.00     0.131 A 
ATOM     65  C   UNL A   1      45.996  35.308  28.505  1.00  0.00     0.055 A 
ATOM     66  C   UNL A   1      46.868  34.260  30.488  1.00  0.00     0.041 A 
ATOM     67  F   UNL A   1      46.164  32.103  31.073  1.00  0.00    -0.206 F 
ATOM     68  C   UNL A   1      46.845  35.343  29.614  1.00  0.00     0.022 A 
BRANCH  65  69
ATOM     69  S   UNL A   1      46.051  36.639  27.274  1.00  0.00     0.124 S 
ATOM     70  O   UNL A   1      44.636  36.947  27.097  1.00  0.00    -0.237 OA
ATOM     71  O   UNL A   1      46.845  37.658  27.952  1.00  0.00    -0.237 OA
ATOM     72  O   UNL A   1      46.698  36.014  26.121  1.00  0.00    -0.744 OA
ENDBRANCH  65  69
ENDBRANCH  39  62
ENDBRANCH  13  14
ENDBRANCH   6   8
ENDBRANCH   3   4
ENDBRANCH   2   3
ENDBRANCH   1   2
BRANCH   1  73
ATOM     73  C   UNL A   1      34.452  21.504  27.045  1.00  0.00     0.116 C 
BRANCH  73  74
ATOM     74  N   UNL A   1      33.090  21.918  27.328  1.00  0.00    -0.356 N 
ATOM     75  C   UNL A   1      32.311  22.917  26.855  1.00  0.00     0.223 C 
ATOM     76  H   UNL A   1      32.643  21.357  28.002  1.00  0.00     0.163 HD
ATOM     77  O   UNL A   1      31.169  22.992  27.322  1.00  0.00    -0.275 OA
BRANCH  75  78
ATOM     78  C   UNL A   1      32.740  23.868  25.739  1.00  0.00     0.079 C 
ATOM     79  C   UNL A   1      33.558  25.101  26.075  1.00  0.00     0.014 C 
ATOM     80  C   UNL A   1      31.481  24.487  25.102  1.00  0.00     0.022 C 
ATOM     81  C   UNL A   1      33.375  26.017  24.881  1.00  0.00     0.010 C 
ATOM     82  C   UNL A   1      31.907  25.835  24.481  1.00  0.00    -0.009 C 
ATOM     83  C   UNL A   1      31.750  25.853  22.936  1.00  0.00     0.030 C 
ATOM     84  C   UNL A   1      31.002  27.004  24.975  1.00  0.00     0.130 C 
ATOM     85  C   UNL A   1      31.226  27.247  22.649  1.00  0.00     0.124 C 
ATOM     86  N   UNL A   1      30.326  27.422  23.760  1.00  0.00    -0.308 N 
BRANCH  86  87
ATOM     87  C   UNL A   1      28.972  27.287  23.568  1.00  0.00     0.410 C 
ATOM     88  O   UNL A   1      28.260  26.606  24.316  1.00  0.00    -0.224 OA
BRANCH  87  89
ATOM     89  O   UNL A   1      28.505  28.025  22.532  1.00  0.00    -0.445 OA
BRANCH  89  90
ATOM     90  C   UNL A   1      27.410  28.898  22.843  1.00  0.00     0.270 C 
BRANCH  90  91
ATOM     91  C   UNL A   1      27.753  30.345  22.587  1.00  0.00    -0.011 A 
ATOM     92  C   UNL A   1      27.808  30.832  21.273  1.00  0.00     0.007 A 
ATOM     93  C   UNL A   1      28.108  31.190  23.645  1.00  0.00     0.007 A 
ATOM     94  C   UNL A   1      28.242  32.132  21.019  1.00  0.00     0.000 A 
ATOM     95  C   UNL A   1      28.536  32.493  23.389  1.00  0.00     0.000 A 
ATOM     96  C   UNL A   1      28.611  32.960  22.076  1.00  0.00     0.000 A 
ENDBRANCH  90  91
ENDBRANCH  89  90
ENDBRANCH  87  89
ENDBRANCH  86  87
ENDBRANCH  75  78
ENDBRANCH  73  74
ENDBRANCH   1  73
TORSDOF 18
ENDMDL
MODEL 2
REMARK VINA RESULT:     -12.6      2.949      8.007
REMARK SMILES O=C(NCCCCNC(=O)[C@@H]1CC[C@@]2(CCN(C(=O)OCc3ccccc3)C2)C1)c1ccc(-c2c3nc(c(-c4cc(S(=O)(=O)[O-])ccc4F)c4ccc([nH]4)c(-c4cc(S(=O)(=O)[O-])ccc4F)c4nc(c(-c5cc(S(=O)(=O)[O-])ccc5F)c5ccc2[nH]5)C=C4)C=C3)cc1
REMARK SMILES IDX 6 1 5 2 4 3 3 4 1 5 2 6 30 8 31 9 92 10 32 11 91 12 33 13
REMARK SMILES IDX 34 14 35 15 85 16 36 17 90 18 84 19 86 20 37 21 89 22 83 23
REMARK SMILES IDX 82 24 38 26 70 27 50 28 69 29 51 30 54 31 68 32 87 33 52 34
REMARK SMILES IDX 53 35 67 37 88 38 55 39 39 40 40 41 48 42 41 43 47 44 49 45
REMARK SMILES IDX 46 46 42 47 43 48 44 49 45 50 71 51 72 52 80 53 73 54 79 55
REMARK SMILES IDX 81 56 78 57 74 58 75 59 76 60 77 61 56 62 57 63 65 64 58 65
REMARK SMILES IDX 64 66 66 67 63 68 59 69 60 70 61 71 62 72 7 73 8 74 9 75
REMARK SMILES IDX 10 77 11 78 12 79 29 80 13 81 14 82 15 83 28 84 16 85 17 86
REMARK SMILES IDX 18 87 19 88 20 89 21 90 22 91 23 92 27 93 24 94 26 95 25 96
REMARK H PARENT 3 7 86 25 54 36 8 76
REMARK Flexibility Score: inf
ROOT
ATOM      1  C   UNL A   1      35.461  21.645  26.276  1.00  0.00     0.023 C 
ENDROOT
BRANCH   1   2
ATOM      2  C   UNL A   1      35.834  23.103  26.033  1.00  0.00     0.023 C 
BRANCH   2   3
ATOM      3  C   UNL A   1      37.114  23.284  25.235  1.00  0.00     0.116 C 
BRANCH   3   4
ATOM      4  N   UNL A   1      38.202  22.397  25.633  1.00  0.00    -0.352 N 
ATOM      5  O   UNL A   1      40.205  21.957  26.623  1.00  0.00    -0.269 OA
ATOM      6  C   UNL A   1      39.299  22.750  26.396  1.00  0.00     0.251 C 
ATOM      7  H   UNL A   1      38.148  21.462  25.332  1.00  0.00     0.163 HD
BRANCH   6   8
ATOM      8  C   UNL A   1      39.360  24.143  26.887  1.00  0.00     0.039 A 
ATOM      9  C   UNL A   1      39.891  25.131  26.056  1.00  0.00     0.014 A 
ATOM     10  C   UNL A   1      39.079  24.411  28.228  1.00  0.00     0.014 A 
ATOM     11  C   UNL A   1      40.319  26.326  26.615  1.00  0.00     0.010 A 
ATOM     12  C   UNL A   1      39.424  25.655  28.764  1.00  0.00     0.010 A 
ATOM     13  C   UNL A   1      40.102  26.601  27.977  1.00  0.00    -0.014 A 
BRANCH  13  14
ATOM     14  C   UNL A   1      40.605  27.881  28.543  1.00  0.00     0.031 A 
ATOM     15  C   UNL A   1      42.080  28.186  28.604  1.00  0.00     0.074 A 
ATOM     16  C   UNL A   1      39.709  28.803  28.948  1.00  0.00     0.049 A 
ATOM     17  N   UNL A   1      42.684  29.262  29.043  1.00  0.00    -0.248 NA
ATOM     18  C   UNL A   1      42.997  27.145  28.118  1.00  0.00     0.031 C 
ATOM     19  C   UNL A   1      38.255  28.621  28.933  1.00  0.00     0.029 A 
ATOM     20  N   UNL A   1      39.878  30.079  29.417  1.00  0.00    -0.354 N 
ATOM     21  C   UNL A   1      44.049  29.016  28.924  1.00  0.00     0.074 A 
ATOM     22  C   UNL A   1      44.182  27.677  28.385  1.00  0.00     0.031 C 
ATOM     23  C   UNL A   1      37.666  29.765  29.306  1.00  0.00     0.029 A 
ATOM     24  C   UNL A   1      38.695  30.733  29.664  1.00  0.00     0.049 A 
ATOM     25  H   UNL A   1      40.762  30.487  29.563  1.00  0.00     0.167 HD
ATOM     26  C   UNL A   1      45.090  29.830  29.233  1.00  0.00     0.034 A 
ATOM     27  C   UNL A   1      38.458  31.971  30.139  1.00  0.00     0.034 A 
ATOM     28  C   UNL A   1      44.937  31.173  29.745  1.00  0.00     0.049 A 
ATOM     29  C   UNL A   1      39.629  32.851  30.474  1.00  0.00     0.074 A 
ATOM     30  C   UNL A   1      45.922  32.097  30.055  1.00  0.00     0.029 A 
ATOM     31  N   UNL A   1      43.723  31.788  30.022  1.00  0.00    -0.354 N 
ATOM     32  N   UNL A   1      40.912  32.598  30.360  1.00  0.00    -0.248 NA
ATOM     33  C   UNL A   1      39.317  34.183  31.005  1.00  0.00     0.031 C 
ATOM     34  C   UNL A   1      45.307  33.243  30.575  1.00  0.00     0.029 A 
ATOM     35  C   UNL A   1      43.934  33.064  30.525  1.00  0.00     0.049 A 
ATOM     36  H   UNL A   1      42.838  31.377  29.882  1.00  0.00     0.167 HD
ATOM     37  C   UNL A   1      41.562  33.747  30.795  1.00  0.00     0.074 A 
ATOM     38  C   UNL A   1      40.528  34.700  31.147  1.00  0.00     0.031 C 
ATOM     39  C   UNL A   1      42.893  33.994  30.895  1.00  0.00     0.034 A 
BRANCH  26  40
ATOM     40  C   UNL A   1      46.486  29.271  29.080  1.00  0.00     0.023 A 
ATOM     41  C   UNL A   1      47.134  29.206  27.834  1.00  0.00     0.031 A 
ATOM     42  C   UNL A   1      47.174  28.775  30.203  1.00  0.00     0.131 A 
ATOM     43  C   UNL A   1      48.396  28.600  27.731  1.00  0.00     0.055 A 
ATOM     44  C   UNL A   1      48.461  28.241  30.106  1.00  0.00     0.041 A 
ATOM     45  F   UNL A   1      46.600  28.792  31.417  1.00  0.00    -0.206 F 
ATOM     46  C   UNL A   1      49.074  28.138  28.861  1.00  0.00     0.022 A 
BRANCH  43  47
ATOM     47  S   UNL A   1      49.081  28.297  26.078  1.00  0.00     0.124 S 
ATOM     48  O   UNL A   1      47.903  28.475  25.231  1.00  0.00    -0.237 OA
ATOM     49  O   UNL A   1      50.108  29.326  25.969  1.00  0.00    -0.237 OA
ATOM     50  O   UNL A   1      49.578  26.924  26.159  1.00  0.00    -0.744 OA
ENDBRANCH  43  47
ENDBRANCH  26  40
BRANCH  27  51
ATOM     51  C   UNL A   1      37.060  32.434  30.347  1.00  0.00     0.023 A 
ATOM     52  C   UNL A   1      36.374  33.136  29.346  1.00  0.00     0.031 A 
ATOM     53  C   UNL A   1      36.392  32.183  31.559  1.00  0.00     0.131 A 
ATOM     54  C   UNL A   1      35.068  33.590  29.585  1.00  0.00     0.055 A 
ATOM     55  C   UNL A   1      35.076  32.593  31.774  1.00  0.00     0.041 A 
ATOM     56  F   UNL A   1      37.003  31.507  32.545  1.00  0.00    -0.206 F 
ATOM     57  C   UNL A   1      34.410  33.311  30.786  1.00  0.00     0.022 A 
BRANCH  54  58
ATOM     58  S   UNL A   1      34.260  34.608  28.320  1.00  0.00     0.124 S 
ATOM     59  O   UNL A   1      34.453  35.953  28.851  1.00  0.00    -0.237 OA
ATOM     60  O   UNL A   1      35.028  34.273  27.127  1.00  0.00    -0.237 OA
ATOM     61  O   UNL A   1      32.880  34.125  28.327  1.00  0.00    -0.744 OA
ENDBRANCH  54  58
ENDBRANCH  27  51
BRANCH  39  62
ATOM     62  C   UNL A   1      43.286  35.366  31.381  1.00  0.00     0.023 A 
ATOM     63  C   UNL A   1      43.560  36.413  30.484  1.00  0.00     0.031 A 
ATOM     64  C   UNL A   1      43.438  35.613  32.756  1.00  0.00     0.131 A 
ATOM     65  C   UNL A   1      44.037  37.640  30.968  1.00  0.00     0.055 A 
ATOM     66  C   UNL A   1      43.857  36.854  33.235  1.00  0.00     0.041 A 
ATOM     67  F   UNL A   1      43.192  34.646  33.654  1.00  0.00    -0.206 F 
ATOM     68  C   UNL A   1      44.175  37.871  32.339  1.00  0.00     0.022 A 
BRANCH  65  69
ATOM     69  S   UNL A   1      44.579  38.895  29.775  1.00  0.00     0.124 S 
ATOM     70  O   UNL A   1      43.830  40.069  30.209  1.00  0.00    -0.237 OA
ATOM     71  O   UNL A   1      46.020  38.937  30.001  1.00  0.00    -0.237 OA
ATOM     72  O   UNL A   1      44.169  38.341  28.485  1.00  0.00    -0.744 OA
ENDBRANCH  65  69
ENDBRANCH  39  62
ENDBRANCH  13  14
ENDBRANCH   6   8
ENDBRANCH   3   4
ENDBRANCH   2   3
ENDBRANCH   1   2
BRANCH   1  73
ATOM     73  C   UNL A   1      34.093  21.448  26.942  1.00  0.00     0.116 C 
BRANCH  73  74
ATOM     74  N   UNL A   1      33.470  20.203  26.536  1.00  0.00    -0.356 N 
ATOM     75  C   UNL A   1      32.672  19.864  25.497  1.00  0.00     0.223 C 
ATOM     76  H   UNL A   1      33.669  19.451  27.139  1.00  0.00     0.163 HD
ATOM     77  O   UNL A   1      32.306  18.684  25.447  1.00  0.00    -0.275 OA
BRANCH  75  78
ATOM     78  C   UNL A   1      32.293  20.827  24.374  1.00  0.00     0.079 C 
ATOM     79  C   UNL A   1      33.372  21.383  23.464  1.00  0.00     0.014 C 
ATOM     80  C   UNL A   1      31.709  22.110  24.995  1.00  0.00     0.022 C 
ATOM     81  C   UNL A   1      32.746  22.615  22.838  1.00  0.00     0.010 C 
ATOM     82  C   UNL A   1      31.932  23.246  23.972  1.00  0.00    -0.009 C 
ATOM     83  C   UNL A   1      30.597  23.830  23.434  1.00  0.00     0.030 C 
ATOM     84  C   UNL A   1      32.653  24.467  24.620  1.00  0.00     0.130 C 
ATOM     85  C   UNL A   1      30.868  25.319  23.353  1.00  0.00     0.124 C 
ATOM     86  N   UNL A   1      31.646  25.509  24.552  1.00  0.00    -0.308 N 
BRANCH  86  87
ATOM     87  C   UNL A   1      31.059  26.063  25.664  1.00  0.00     0.410 C 
ATOM     88  O   UNL A   1      30.564  25.374  26.566  1.00  0.00    -0.224 OA
BRANCH  87  89
ATOM     89  O   UNL A   1      31.143  27.415  25.694  1.00  0.00    -0.445 OA
BRANCH  89  90
ATOM     90  C   UNL A   1      31.240  27.996  27.003  1.00  0.00     0.270 C 
BRANCH  90  91
ATOM     91  C   UNL A   1      32.485  28.835  27.156  1.00  0.00    -0.011 A 
ATOM     92  C   UNL A   1      32.381  30.225  27.306  1.00  0.00     0.007 A 
ATOM     93  C   UNL A   1      33.753  28.250  27.059  1.00  0.00     0.007 A 
ATOM     94  C   UNL A   1      33.525  31.021  27.326  1.00  0.00     0.000 A 
ATOM     95  C   UNL A   1      34.897  29.048  27.086  1.00  0.00     0.000 A 
ATOM     96  C   UNL A   1      34.782  30.433  27.211  1.00  0.00     0.000 A 
ENDBRANCH  90  91
ENDBRANCH  89  90
ENDBRANCH  87  89
ENDBRANCH  86  87
ENDBRANCH  75  78
ENDBRANCH  73  74
ENDBRANCH   1  73
TORSDOF 18
ENDMDL
MODEL 3
REMARK VINA RESULT:     -12.6      2.435      7.927
REMARK SMILES O=C(NCCCCNC(=O)[C@@H]1CC[C@@]2(CCN(C(=O)OCc3ccccc3)C2)C1)c1ccc(-c2c3nc(c(-c4cc(S(=O)(=O)[O-])ccc4F)c4ccc([nH]4)c(-c4cc(S(=O)(=O)[O-])ccc4F)c4nc(c(-c5cc(S(=O)(=O)[O-])ccc5F)c5ccc2[nH]5)C=C4)C=C3)cc1
REMARK SMILES IDX 6 1 5 2 4 3 3 4 1 5 2 6 30 8 31 9 92 10 32 11 91 12 33 13
REMARK SMILES IDX 34 14 35 15 85 16 36 17 90 18 84 19 86 20 37 21 89 22 83 23
REMARK SMILES IDX 82 24 38 26 70 27 50 28 69 29 51 30 54 31 68 32 87 33 52 34
REMARK SMILES IDX 53 35 67 37 88 38 55 39 39 40 40 41 48 42 41 43 47 44 49 45
REMARK SMILES IDX 46 46 42 47 43 48 44 49 45 50 71 51 72 52 80 53 73 54 79 55
REMARK SMILES IDX 81 56 78 57 74 58 75 59 76 60 77 61 56 62 57 63 65 64 58 65
REMARK SMILES IDX 64 66 66 67 63 68 59 69 60 70 61 71 62 72 7 73 8 74 9 75
REMARK SMILES IDX 10 77 11 78 12 79 29 80 13 81 14 82 15 83 28 84 16 85 17 86
REMARK SMILES IDX 18 87 19 88 20 89 21 90 22 91 23 92 27 93 24 94 26 95 25 96
REMARK H PARENT 3 7 86 25 54 36 8 76
REMARK Flexibility Score: inf
ROOT
ATOM      1  C   UNL A   1      35.283  21.508  26.632  1.00  0.00     0.023 C 
ENDROOT
BRANCH   1   2
ATOM      2  C   UNL A   1      35.618  22.865  26.026  1.00  0.00     0.023 C 
BRANCH   2   3
ATOM      3  C   UNL A   1      36.848  22.851  25.134  1.00  0.00     0.116 C 
BRANCH   3   4
ATOM      4  N   UNL A   1      37.709  21.688  25.315  1.00  0.00    -0.352 N 
ATOM      5  O   UNL A   1      39.607  20.657  26.037  1.00  0.00    -0.269 OA
ATOM      6  C   UNL A   1      38.912  21.665  25.996  1.00  0.00     0.251 C 
ATOM      7  H   UNL A   1      37.405  20.841  24.916  1.00  0.00     0.163 HD
BRANCH   6   8
ATOM      8  C   UNL A   1      39.350  22.925  26.634  1.00  0.00     0.039 A 
ATOM      9  C   UNL A   1      38.937  24.140  26.085  1.00  0.00     0.014 A 
ATOM     10  C   UNL A   1      40.319  22.885  27.638  1.00  0.00     0.014 A 
ATOM     11  C   UNL A   1      39.634  25.296  26.404  1.00  0.00     0.010 A 
ATOM     12  C   UNL A   1      40.951  24.070  28.027  1.00  0.00     0.010 A 
ATOM     13  C   UNL A   1      40.656  25.276  27.370  1.00  0.00    -0.014 A 
BRANCH  13  14
ATOM     14  C   UNL A   1      41.398  26.533  27.660  1.00  0.00     0.031 A 
ATOM     15  C   UNL A   1      42.753  26.800  27.054  1.00  0.00     0.074 A 
ATOM     16  C   UNL A   1      40.808  27.467  28.431  1.00  0.00     0.049 A 
ATOM     17  N   UNL A   1      43.523  27.852  27.184  1.00  0.00    -0.248 NA
ATOM     18  C   UNL A   1      43.322  25.747  26.200  1.00  0.00     0.031 C 
ATOM     19  C   UNL A   1      39.497  27.321  29.069  1.00  0.00     0.029 A 
ATOM     20  N   UNL A   1      41.209  28.728  28.784  1.00  0.00    -0.354 N 
ATOM     21  C   UNL A   1      44.680  27.575  26.462  1.00  0.00     0.074 A 
ATOM     22  C   UNL A   1      44.516  26.246  25.910  1.00  0.00     0.031 C 
ATOM     23  C   UNL A   1      39.173  28.470  29.676  1.00  0.00     0.029 A 
ATOM     24  C   UNL A   1      40.283  29.406  29.541  1.00  0.00     0.049 A 
ATOM     25  H   UNL A   1      42.077  29.112  28.520  1.00  0.00     0.167 HD
ATOM     26  C   UNL A   1      45.774  28.358  26.278  1.00  0.00     0.034 A 
ATOM     27  C   UNL A   1      40.323  30.639  30.081  1.00  0.00     0.034 A 
ATOM     28  C   UNL A   1      45.908  29.693  26.814  1.00  0.00     0.049 A 
ATOM     29  C   UNL A   1      41.546  31.483  29.862  1.00  0.00     0.074 A 
ATOM     30  C   UNL A   1      46.956  30.586  26.657  1.00  0.00     0.029 A 
ATOM     31  N   UNL A   1      44.967  30.331  27.612  1.00  0.00    -0.354 N 
ATOM     32  N   UNL A   1      42.633  31.202  29.182  1.00  0.00    -0.248 NA
ATOM     33  C   UNL A   1      41.547  32.810  30.487  1.00  0.00     0.031 C 
ATOM     34  C   UNL A   1      46.675  31.736  27.406  1.00  0.00     0.029 A 
ATOM     35  C   UNL A   1      45.421  31.591  27.976  1.00  0.00     0.049 A 
ATOM     36  H   UNL A   1      44.102  29.945  27.880  1.00  0.00     0.167 HD
ATOM     37  C   UNL A   1      43.445  32.326  29.288  1.00  0.00     0.074 A 
ATOM     38  C   UNL A   1      42.708  33.296  30.074  1.00  0.00     0.031 C 
ATOM     39  C   UNL A   1      44.686  32.538  28.782  1.00  0.00     0.034 A 
BRANCH  26  40
ATOM     40  C   UNL A   1      46.935  27.768  25.509  1.00  0.00     0.023 A 
ATOM     41  C   UNL A   1      47.183  28.090  24.164  1.00  0.00     0.031 A 
ATOM     42  C   UNL A   1      47.799  26.850  26.134  1.00  0.00     0.131 A 
ATOM     43  C   UNL A   1      48.224  27.451  23.470  1.00  0.00     0.055 A 
ATOM     44  C   UNL A   1      48.878  26.274  25.460  1.00  0.00     0.041 A 
ATOM     45  F   UNL A   1      47.603  26.488  27.412  1.00  0.00    -0.206 F 
ATOM     46  C   UNL A   1      49.087  26.563  24.115  1.00  0.00     0.022 A 
BRANCH  43  47
ATOM     47  S   UNL A   1      48.346  27.692  21.676  1.00  0.00     0.124 S 
ATOM     48  O   UNL A   1      48.646  26.337  21.215  1.00  0.00    -0.237 OA
ATOM     49  O   UNL A   1      47.025  28.204  21.336  1.00  0.00    -0.237 OA
ATOM     50  O   UNL A   1      49.444  28.647  21.531  1.00  0.00    -0.744 OA
ENDBRANCH  43  47
ENDBRANCH  26  40
BRANCH  27  51
ATOM     51  C   UNL A   1      39.182  31.130  30.899  1.00  0.00     0.023 A 
ATOM     52  C   UNL A   1      39.259  31.169  32.298  1.00  0.00     0.031 A 
ATOM     53  C   UNL A   1      37.991  31.563  30.287  1.00  0.00     0.131 A 
ATOM     54  C   UNL A   1      38.153  31.605  33.044  1.00  0.00     0.055 A 
ATOM     55  C   UNL A   1      36.912  32.041  31.030  1.00  0.00     0.041 A 
ATOM     56  F   UNL A   1      37.872  31.552  28.949  1.00  0.00    -0.206 F 
ATOM     57  C   UNL A   1      36.987  32.055  32.419  1.00  0.00     0.022 A 
BRANCH  54  58
ATOM     58  S   UNL A   1      38.240  31.519  34.853  1.00  0.00     0.124 S 
ATOM     59  O   UNL A   1      39.499  32.204  35.124  1.00  0.00    -0.237 OA
ATOM     60  O   UNL A   1      37.027  32.226  35.248  1.00  0.00    -0.237 OA
ATOM     61  O   UNL A   1      38.237  30.083  35.125  1.00  0.00    -0.744 OA
ENDBRANCH  54  58
ENDBRANCH  27  51
BRANCH  39  62
ATOM     62  C   UNL A   1      45.297  33.889  29.049  1.00  0.00     0.023 A 
ATOM     63  C   UNL A   1      45.053  34.987  28.206  1.00  0.00     0.031 A 
ATOM     64  C   UNL A   1      46.175  34.067  30.133  1.00  0.00     0.131 A 
ATOM     65  C   UNL A   1      45.733  36.196  28.419  1.00  0.00     0.055 A 
ATOM     66  C   UNL A   1      46.803  35.289  30.375  1.00  0.00     0.041 A 
ATOM     67  F   UNL A   1      46.444  33.050  30.967  1.00  0.00    -0.206 F 
ATOM     68  C   UNL A   1      46.596  36.357  29.507  1.00  0.00     0.022 A 
BRANCH  65  69
ATOM     69  S   UNL A   1      45.556  37.521  27.194  1.00  0.00     0.124 S 
ATOM     70  O   UNL A   1      46.344  37.009  26.077  1.00  0.00    -0.237 OA
ATOM     71  O   UNL A   1      44.112  37.565  26.988  1.00  0.00    -0.237 OA
ATOM     72  O   UNL A   1      46.123  38.689  27.867  1.00  0.00    -0.744 OA
ENDBRANCH  65  69
ENDBRANCH  39  62
ENDBRANCH  13  14
ENDBRANCH   6   8
ENDBRANCH   3   4
ENDBRANCH   2   3
ENDBRANCH   1   2
BRANCH   1  73
ATOM     73  C   UNL A   1      33.811  21.347  27.038  1.00  0.00     0.116 C 
BRANCH  73  74
ATOM     74  N   UNL A   1      33.224  20.147  26.472  1.00  0.00    -0.356 N 
ATOM     75  C   UNL A   1      32.514  19.910  25.345  1.00  0.00     0.223 C 
ATOM     76  H   UNL A   1      33.373  19.342  27.018  1.00  0.00     0.163 HD
ATOM     77  O   UNL A   1      32.154  18.742  25.159  1.00  0.00    -0.275 OA
BRANCH  75  78
ATOM     78  C   UNL A   1      32.226  20.973  24.287  1.00  0.00     0.079 C 
ATOM     79  C   UNL A   1      33.373  21.577  23.497  1.00  0.00     0.014 C 
ATOM     80  C   UNL A   1      31.629  22.213  24.977  1.00  0.00     0.022 C 
ATOM     81  C   UNL A   1      32.813  22.872  22.941  1.00  0.00     0.010 C 
ATOM     82  C   UNL A   1      31.939  23.425  24.072  1.00  0.00    -0.009 C 
ATOM     83  C   UNL A   1      30.653  24.085  23.503  1.00  0.00     0.030 C 
ATOM     84  C   UNL A   1      32.640  24.569  24.866  1.00  0.00     0.130 C 
ATOM     85  C   UNL A   1      30.958  25.569  23.567  1.00  0.00     0.124 C 
ATOM     86  N   UNL A   1      31.659  25.638  24.824  1.00  0.00    -0.308 N 
BRANCH  86  87
ATOM     87  C   UNL A   1      31.012  26.110  25.941  1.00  0.00     0.410 C 
ATOM     88  O   UNL A   1      30.107  25.479  26.500  1.00  0.00    -0.224 OA
BRANCH  87  89
ATOM     89  O   UNL A   1      31.514  27.286  26.390  1.00  0.00    -0.445 OA
BRANCH  89  90
ATOM     90  C   UNL A   1      32.946  27.381  26.398  1.00  0.00     0.270 C 
BRANCH  90  91
ATOM     91  C   UNL A   1      33.416  28.764  26.775  1.00  0.00    -0.011 A 
ATOM     92  C   UNL A   1      34.737  28.965  27.202  1.00  0.00     0.007 A 
ATOM     93  C   UNL A   1      32.520  29.840  26.790  1.00  0.00     0.007 A 
ATOM     94  C   UNL A   1      35.146  30.214  27.667  1.00  0.00     0.000 A 
ATOM     95  C   UNL A   1      32.934  31.091  27.250  1.00  0.00     0.000 A 
ATOM     96  C   UNL A   1      34.244  31.275  27.696  1.00  0.00     0.000 A 
ENDBRANCH  90  91
ENDBRANCH  89  90
ENDBRANCH  87  89
ENDBRANCH  86  87
ENDBRANCH  75  78
ENDBRANCH  73  74
ENDBRANCH   1  73
TORSDOF 18
ENDMDL
