MODEL 1
REMARK VINA RESULT:     -12.9      0.000      0.000
REMARK SMILES NS(=O)(=O)c1ccc(NS(=O)(=O)c2cccc(C(=O)NCCCCNC(=O)c3ccc(-c4c5nc(c(-c6cc(S(=O)(=O)[O-])ccc6F)c6ccc([nH]6)c(-c6cc(S(=O)(=O)[O-])ccc6F)c6nc(c(-c7cc(S(=O)(=O)[O-])ccc7F)c7ccc4[nH]7)C=C6)C=C5)cc3)c2)cc1
REMARK SMILES IDX 21 1 20 2 18 3 19 4 17 6 13 7 14 8 91 9 15 10 16 11 10 12
REMARK SMILES IDX 11 13 12 14 9 15 8 17 5 18 6 19 93 20 7 21 92 22 2 23 3 24
REMARK SMILES IDX 4 25 1 26 22 29 23 30 24 31 25 32 26 33 27 35 28 36 29 37
REMARK SMILES IDX 90 38 30 39 89 40 31 41 32 42 33 43 83 44 34 45 88 46 82 47
REMARK SMILES IDX 84 48 35 49 87 50 81 51 80 52 36 54 68 55 48 56 67 57 49 58
REMARK SMILES IDX 52 59 66 60 85 61 50 62 51 63 65 65 86 66 53 67 37 68 38 69
REMARK SMILES IDX 46 70 39 71 45 72 47 73 44 74 40 75 41 76 42 77 43 78 69 79
REMARK SMILES IDX 70 80 78 81 71 82 77 83 79 84 76 85 72 86 73 87 74 88 75 89
REMARK SMILES IDX 54 90 55 91 63 92 56 93 62 94 64 95 61 96 57 97 58 98 59 99
REMARK SMILES IDX 60 100
REMARK H PARENT 20 5 9 16 1 27 1 28 25 34 84 53 52 64
REMARK Flexibility Score: inf
ROOT
ATOM      1  C   UNL A   1      35.517  20.665  25.286  1.00  0.00     0.116 C 
ENDROOT
BRANCH   1   2
ATOM      2  N   UNL A   1      34.416  19.711  25.189  1.00  0.00    -0.352 N 
ATOM      3  C   UNL A   1      33.084  19.846  24.852  1.00  0.00     0.251 C 
ATOM      4  O   UNL A   1      32.367  18.847  24.845  1.00  0.00    -0.269 OA
ATOM      5  H   UNL A   1      34.675  18.786  25.409  1.00  0.00     0.163 HD
BRANCH   3   6
ATOM      6  C   UNL A   1      32.470  21.163  24.540  1.00  0.00     0.041 A 
ATOM      7  C   UNL A   1      31.322  23.175  25.250  1.00  0.00     0.088 A 
ATOM      8  C   UNL A   1      31.058  23.532  23.931  1.00  0.00     0.022 A 
ATOM      9  C   UNL A   1      32.105  22.054  25.534  1.00  0.00     0.036 A 
ATOM     10  C   UNL A   1      31.581  22.736  22.907  1.00  0.00     0.002 A 
ATOM     11  C   UNL A   1      32.259  21.544  23.209  1.00  0.00     0.014 A 
BRANCH   7  12
ATOM     12  S   UNL A   1      30.725  24.102  26.637  1.00  0.00     0.261 S 
ATOM     13  O   UNL A   1      31.816  24.900  27.154  1.00  0.00    -0.201 OA
ATOM     14  O   UNL A   1      30.030  23.167  27.496  1.00  0.00    -0.201 OA
BRANCH  12  15
ATOM     15  N   UNL A   1      29.569  25.156  26.060  1.00  0.00    -0.280 N 
ATOM     16  H   UNL A   1      28.720  25.195  26.558  1.00  0.00     0.180 HD
BRANCH  15  17
ATOM     17  C   UNL A   1      29.683  26.008  24.921  1.00  0.00     0.049 A 
ATOM     18  C   UNL A   1      29.638  28.326  23.349  1.00  0.00     0.082 A 
ATOM     19  C   UNL A   1      28.607  27.402  23.244  1.00  0.00     0.024 A 
ATOM     20  C   UNL A   1      30.747  28.055  24.151  1.00  0.00     0.024 A 
ATOM     21  C   UNL A   1      28.651  26.240  24.012  1.00  0.00     0.028 A 
ATOM     22  C   UNL A   1      30.759  26.902  24.941  1.00  0.00     0.028 A 
BRANCH  18  23
ATOM     23  S   UNL A   1      29.531  29.897  22.552  1.00  0.00     0.238 S 
ATOM     24  O   UNL A   1      29.495  30.920  23.564  1.00  0.00    -0.207 OA
ATOM     25  O   UNL A   1      28.541  29.793  21.500  1.00  0.00    -0.207 OA
BRANCH  23  26
ATOM     26  N   UNL A   1      31.005  30.072  21.765  1.00  0.00    -0.225 NA
ATOM     27  H   UNL A   1      31.543  30.813  22.214  1.00  0.00     0.137 HD
ATOM     28  H   UNL A   1      30.842  30.314  20.788  1.00  0.00     0.137 HD
ENDBRANCH  23  26
ENDBRANCH  18  23
ENDBRANCH  15  17
ENDBRANCH  12  15
ENDBRANCH   7  12
ENDBRANCH   3   6
ENDBRANCH   1   2
BRANCH   1  29
ATOM     29  C   UNL A   1      36.889  20.090  24.978  1.00  0.00     0.023 C 
BRANCH  29  30
ATOM     30  C   UNL A   1      38.033  21.089  24.972  1.00  0.00     0.023 C 
BRANCH  30  31
ATOM     31  C   UNL A   1      39.040  20.944  26.107  1.00  0.00     0.116 C 
BRANCH  31  32
ATOM     32  N   UNL A   1      39.879  19.756  26.012  1.00  0.00    -0.352 N 
ATOM     33  C   UNL A   1      41.250  19.658  26.094  1.00  0.00     0.251 C 
ATOM     34  H   UNL A   1      39.400  18.908  25.871  1.00  0.00     0.163 HD
ATOM     35  O   UNL A   1      41.804  18.579  25.908  1.00  0.00    -0.269 OA
BRANCH  33  36
ATOM     36  C   UNL A   1      42.046  20.875  26.358  1.00  0.00     0.039 A 
ATOM     37  C   UNL A   1      42.381  21.707  25.288  1.00  0.00     0.014 A 
ATOM     38  C   UNL A   1      42.390  21.231  27.664  1.00  0.00     0.014 A 
ATOM     39  C   UNL A   1      42.977  22.944  25.540  1.00  0.00     0.010 A 
ATOM     40  C   UNL A   1      42.898  22.500  27.918  1.00  0.00     0.010 A 
ATOM     41  C   UNL A   1      43.191  23.375  26.860  1.00  0.00    -0.014 A 
BRANCH  41  42
ATOM     42  C   UNL A   1      43.704  24.740  27.151  1.00  0.00     0.031 A 
ATOM     43  C   UNL A   1      42.775  25.795  27.691  1.00  0.00     0.074 A 
ATOM     44  C   UNL A   1      44.988  25.045  26.873  1.00  0.00     0.049 A 
ATOM     45  N   UNL A   1      43.016  27.055  27.949  1.00  0.00    -0.248 NA
ATOM     46  C   UNL A   1      41.384  25.386  27.944  1.00  0.00     0.031 C 
ATOM     47  C   UNL A   1      45.971  24.120  26.301  1.00  0.00     0.029 A 
ATOM     48  N   UNL A   1      45.689  26.215  27.026  1.00  0.00    -0.354 N 
ATOM     49  C   UNL A   1      41.808  27.590  28.383  1.00  0.00     0.074 A 
ATOM     50  C   UNL A   1      40.823  26.534  28.291  1.00  0.00     0.031 C 
ATOM     51  C   UNL A   1      47.152  24.749  26.183  1.00  0.00     0.029 A 
ATOM     52  C   UNL A   1      47.002  26.134  26.617  1.00  0.00     0.049 A 
ATOM     53  H   UNL A   1      45.291  27.036  27.393  1.00  0.00     0.167 HD
ATOM     54  C   UNL A   1      41.550  28.841  28.840  1.00  0.00     0.034 A 
ATOM     55  C   UNL A   1      47.971  27.071  26.583  1.00  0.00     0.034 A 
ATOM     56  C   UNL A   1      42.548  29.877  28.940  1.00  0.00     0.049 A 
ATOM     57  C   UNL A   1      47.652  28.461  27.076  1.00  0.00     0.074 A 
ATOM     58  C   UNL A   1      42.410  31.158  29.447  1.00  0.00     0.029 A 
ATOM     59  N   UNL A   1      43.866  29.759  28.517  1.00  0.00    -0.354 N 
ATOM     60  N   UNL A   1      46.519  28.932  27.545  1.00  0.00    -0.248 NA
ATOM     61  C   UNL A   1      48.744  29.443  27.046  1.00  0.00     0.031 C 
ATOM     62  C   UNL A   1      43.618  31.837  29.258  1.00  0.00     0.029 A 
ATOM     63  C   UNL A   1      44.539  30.955  28.716  1.00  0.00     0.049 A 
ATOM     64  H   UNL A   1      44.265  28.946  28.131  1.00  0.00     0.167 HD
ATOM     65  C   UNL A   1      46.775  30.255  27.896  1.00  0.00     0.074 A 
ATOM     66  C   UNL A   1      48.172  30.498  27.605  1.00  0.00     0.031 C 
ATOM     67  C   UNL A   1      45.932  31.186  28.413  1.00  0.00     0.034 A 
BRANCH  54  68
ATOM     68  C   UNL A   1      40.131  29.161  29.243  1.00  0.00     0.023 A 
ATOM     69  C   UNL A   1      39.725  29.161  30.589  1.00  0.00     0.031 A 
ATOM     70  C   UNL A   1      39.169  29.472  28.266  1.00  0.00     0.131 A 
ATOM     71  C   UNL A   1      38.381  29.402  30.916  1.00  0.00     0.055 A 
ATOM     72  C   UNL A   1      37.853  29.791  28.604  1.00  0.00     0.041 A 
ATOM     73  F   UNL A   1      39.491  29.466  26.963  1.00  0.00    -0.206 F 
ATOM     74  C   UNL A   1      37.449  29.745  29.935  1.00  0.00     0.022 A 
BRANCH  71  75
ATOM     75  S   UNL A   1      37.844  29.135  32.627  1.00  0.00     0.124 S 
ATOM     76  O   UNL A   1      38.805  29.947  33.369  1.00  0.00    -0.237 OA
ATOM     77  O   UNL A   1      36.471  29.629  32.608  1.00  0.00    -0.237 OA
ATOM     78  O   UNL A   1      37.985  27.692  32.810  1.00  0.00    -0.744 OA
ENDBRANCH  71  75
ENDBRANCH  54  68
BRANCH  55  79
ATOM     79  C   UNL A   1      49.329  26.748  26.051  1.00  0.00     0.023 A 
ATOM     80  C   UNL A   1      49.747  27.219  24.796  1.00  0.00     0.031 A 
ATOM     81  C   UNL A   1      50.204  25.906  26.760  1.00  0.00     0.131 A 
ATOM     82  C   UNL A   1      50.975  26.797  24.261  1.00  0.00     0.055 A 
ATOM     83  C   UNL A   1      51.453  25.542  26.253  1.00  0.00     0.041 A 
ATOM     84  F   UNL A   1      49.858  25.426  27.965  1.00  0.00    -0.206 F 
ATOM     85  C   UNL A   1      51.838  25.974  24.987  1.00  0.00     0.022 A 
BRANCH  82  86
ATOM     86  S   UNL A   1      51.378  27.246  22.549  1.00  0.00     0.124 S 
ATOM     87  O   UNL A   1      51.431  28.701  22.630  1.00  0.00    -0.237 OA
ATOM     88  O   UNL A   1      52.654  26.566  22.352  1.00  0.00    -0.237 OA
ATOM     89  O   UNL A   1      50.259  26.703  21.783  1.00  0.00    -0.744 OA
ENDBRANCH  82  86
ENDBRANCH  55  79
BRANCH  67  90
ATOM     90  C   UNL A   1      46.520  32.539  28.738  1.00  0.00     0.023 A 
ATOM     91  C   UNL A   1      46.572  33.573  27.788  1.00  0.00     0.031 A 
ATOM     92  C   UNL A   1      47.049  32.790  30.017  1.00  0.00     0.131 A 
ATOM     93  C   UNL A   1      47.199  34.786  28.109  1.00  0.00     0.055 A 
ATOM     94  C   UNL A   1      47.609  34.024  30.352  1.00  0.00     0.041 A 
ATOM     95  F   UNL A   1      47.030  31.839  30.965  1.00  0.00    -0.206 F 
ATOM     96  C   UNL A   1      47.699  35.026  29.391  1.00  0.00     0.022 A 
BRANCH  93  97
ATOM     97  S   UNL A   1      47.448  36.011  26.794  1.00  0.00     0.124 S 
ATOM     98  O   UNL A   1      46.248  36.831  26.912  1.00  0.00    -0.237 OA
ATOM     99  O   UNL A   1      48.698  36.649  27.193  1.00  0.00    -0.237 OA
ATOM    100  O   UNL A   1      47.527  35.199  25.580  1.00  0.00    -0.744 OA
ENDBRANCH  93  97
ENDBRANCH  67  90
ENDBRANCH  41  42
ENDBRANCH  33  36
ENDBRANCH  31  32
ENDBRANCH  30  31
ENDBRANCH  29  30
ENDBRANCH   1  29
TORSDOF 19
ENDMDL
MODEL 2
REMARK VINA RESULT:     -12.7      5.810     11.712
REMARK SMILES NS(=O)(=O)c1ccc(NS(=O)(=O)c2cccc(C(=O)NCCCCNC(=O)c3ccc(-c4c5nc(c(-c6cc(S(=O)(=O)[O-])ccc6F)c6ccc([nH]6)c(-c6cc(S(=O)(=O)[O-])ccc6F)c6nc(c(-c7cc(S(=O)(=O)[O-])ccc7F)c7ccc4[nH]7)C=C6)C=C5)cc3)c2)cc1
REMARK SMILES IDX 21 1 20 2 18 3 19 4 17 6 13 7 14 8 91 9 15 10 16 11 10 12
REMARK SMILES IDX 11 13 12 14 9 15 8 17 5 18 6 19 93 20 7 21 92 22 2 23 3 24
REMARK SMILES IDX 4 25 1 26 22 29 23 30 24 31 25 32 26 33 27 35 28 36 29 37
REMARK SMILES IDX 90 38 30 39 89 40 31 41 32 42 33 43 83 44 34 45 88 46 82 47
REMARK SMILES IDX 84 48 35 49 87 50 81 51 80 52 36 54 68 55 48 56 67 57 49 58
REMARK SMILES IDX 52 59 66 60 85 61 50 62 51 63 65 65 86 66 53 67 37 68 38 69
REMARK SMILES IDX 46 70 39 71 45 72 47 73 44 74 40 75 41 76 42 77 43 78 69 79
REMARK SMILES IDX 70 80 78 81 71 82 77 83 79 84 76 85 72 86 73 87 74 88 75 89
REMARK SMILES IDX 54 90 55 91 63 92 56 93 62 94 64 95 61 96 57 97 58 98 59 99
REMARK SMILES IDX 60 100
REMARK H PARENT 20 5 9 16 1 27 1 28 25 34 84 53 52 64
REMARK Flexibility Score: inf
ROOT
ATOM      1  C   UNL A   1      33.520  29.378  26.630  1.00  0.00     0.116 C 
ENDROOT
BRANCH   1   2
ATOM      2  N   UNL A   1      33.627  29.538  25.183  1.00  0.00    -0.352 N 
ATOM      3  C   UNL A   1      32.978  28.940  24.123  1.00  0.00     0.251 C 
ATOM      4  O   UNL A   1      33.268  29.280  22.977  1.00  0.00    -0.269 OA
ATOM      5  H   UNL A   1      34.297  30.206  24.909  1.00  0.00     0.163 HD
BRANCH   3   6
ATOM      6  C   UNL A   1      31.969  27.863  24.309  1.00  0.00     0.041 A 
ATOM      7  C   UNL A   1      31.358  25.668  25.129  1.00  0.00     0.088 A 
ATOM      8  C   UNL A   1      30.155  25.703  24.431  1.00  0.00     0.022 A 
ATOM      9  C   UNL A   1      32.201  26.781  25.140  1.00  0.00     0.036 A 
ATOM     10  C   UNL A   1      29.822  26.869  23.733  1.00  0.00     0.002 A 
ATOM     11  C   UNL A   1      30.736  27.932  23.650  1.00  0.00     0.014 A 
BRANCH   7  12
ATOM     12  S   UNL A   1      31.892  24.256  26.058  1.00  0.00     0.261 S 
ATOM     13  O   UNL A   1      31.174  24.240  27.315  1.00  0.00    -0.201 OA
ATOM     14  O   UNL A   1      33.339  24.268  26.042  1.00  0.00    -0.201 OA
BRANCH  12  15
ATOM     15  N   UNL A   1      31.425  22.903  25.203  1.00  0.00    -0.280 N 
ATOM     16  H   UNL A   1      30.480  22.857  24.930  1.00  0.00     0.180 HD
BRANCH  15  17
ATOM     17  C   UNL A   1      32.253  21.804  24.824  1.00  0.00     0.049 A 
ATOM     18  C   UNL A   1      33.019  19.209  24.099  1.00  0.00     0.082 A 
ATOM     19  C   UNL A   1      33.268  19.667  25.386  1.00  0.00     0.024 A 
ATOM     20  C   UNL A   1      32.489  20.069  23.136  1.00  0.00     0.024 A 
ATOM     21  C   UNL A   1      32.906  20.968  25.729  1.00  0.00     0.028 A 
ATOM     22  C   UNL A   1      32.099  21.359  23.507  1.00  0.00     0.028 A 
BRANCH  18  23
ATOM     23  S   UNL A   1      33.275  17.515  23.675  1.00  0.00     0.238 S 
ATOM     24  O   UNL A   1      34.591  17.129  24.112  1.00  0.00    -0.207 OA
ATOM     25  O   UNL A   1      32.806  17.322  22.320  1.00  0.00    -0.207 OA
BRANCH  23  26
ATOM     26  N   UNL A   1      32.196  16.671  24.647  1.00  0.00    -0.225 NA
ATOM     27  H   UNL A   1      31.627  16.054  24.067  1.00  0.00     0.137 HD
ATOM     28  H   UNL A   1      31.591  17.330  25.137  1.00  0.00     0.137 HD
ENDBRANCH  23  26
ENDBRANCH  18  23
ENDBRANCH  15  17
ENDBRANCH  12  15
ENDBRANCH   7  12
ENDBRANCH   3   6
ENDBRANCH   1   2
BRANCH   1  29
ATOM     29  C   UNL A   1      32.308  30.044  27.258  1.00  0.00     0.023 C 
BRANCH  29  30
ATOM     30  C   UNL A   1      32.111  31.509  26.914  1.00  0.00     0.023 C 
BRANCH  30  31
ATOM     31  C   UNL A   1      33.221  32.448  27.376  1.00  0.00     0.116 C 
BRANCH  31  32
ATOM     32  N   UNL A   1      32.776  33.810  27.645  1.00  0.00    -0.352 N 
ATOM     33  C   UNL A   1      33.253  34.706  28.575  1.00  0.00     0.251 C 
ATOM     34  H   UNL A   1      32.034  34.133  27.086  1.00  0.00     0.163 HD
ATOM     35  O   UNL A   1      32.702  35.792  28.725  1.00  0.00    -0.269 OA
BRANCH  33  36
ATOM     36  C   UNL A   1      34.402  34.323  29.423  1.00  0.00     0.039 A 
ATOM     37  C   UNL A   1      34.161  33.651  30.622  1.00  0.00     0.014 A 
ATOM     38  C   UNL A   1      35.711  34.558  28.995  1.00  0.00     0.014 A 
ATOM     39  C   UNL A   1      35.235  33.130  31.345  1.00  0.00     0.010 A 
ATOM     40  C   UNL A   1      36.771  33.959  29.668  1.00  0.00     0.010 A 
ATOM     41  C   UNL A   1      36.545  33.231  30.847  1.00  0.00    -0.014 A 
BRANCH  41  42
ATOM     42  C   UNL A   1      37.685  32.570  31.536  1.00  0.00     0.031 A 
ATOM     43  C   UNL A   1      38.400  31.421  30.876  1.00  0.00     0.074 A 
ATOM     44  C   UNL A   1      38.035  32.965  32.777  1.00  0.00     0.049 A 
ATOM     45  N   UNL A   1      39.372  30.678  31.339  1.00  0.00    -0.248 NA
ATOM     46  C   UNL A   1      37.940  31.038  29.532  1.00  0.00     0.031 C 
ATOM     47  C   UNL A   1      37.384  34.034  33.539  1.00  0.00     0.029 A 
ATOM     48  N   UNL A   1      39.019  32.513  33.622  1.00  0.00    -0.354 N 
ATOM     49  C   UNL A   1      39.632  29.735  30.350  1.00  0.00     0.074 A 
ATOM     50  C   UNL A   1      38.672  29.961  29.291  1.00  0.00     0.031 C 
ATOM     51  C   UNL A   1      38.005  34.175  34.721  1.00  0.00     0.029 A 
ATOM     52  C   UNL A   1      39.062  33.175  34.829  1.00  0.00     0.049 A 
ATOM     53  H   UNL A   1      39.635  31.782  33.387  1.00  0.00     0.167 HD
ATOM     54  C   UNL A   1      40.599  28.784  30.318  1.00  0.00     0.034 A 
ATOM     55  C   UNL A   1      39.855  32.991  35.904  1.00  0.00     0.034 A 
ATOM     56  C   UNL A   1      41.558  28.584  31.375  1.00  0.00     0.049 A 
ATOM     57  C   UNL A   1      40.908  31.911  35.851  1.00  0.00     0.074 A 
ATOM     58  C   UNL A   1      42.618  27.693  31.417  1.00  0.00     0.029 A 
ATOM     59  N   UNL A   1      41.573  29.272  32.581  1.00  0.00    -0.354 N 
ATOM     60  N   UNL A   1      41.182  31.070  34.879  1.00  0.00    -0.248 NA
ATOM     61  C   UNL A   1      41.766  31.762  37.033  1.00  0.00     0.031 C 
ATOM     62  C   UNL A   1      43.221  27.788  32.675  1.00  0.00     0.029 A 
ATOM     63  C   UNL A   1      42.597  28.800  33.387  1.00  0.00     0.049 A 
ATOM     64  H   UNL A   1      40.947  29.991  32.828  1.00  0.00     0.167 HD
ATOM     65  C   UNL A   1      42.266  30.317  35.323  1.00  0.00     0.074 A 
ATOM     66  C   UNL A   1      42.607  30.819  36.638  1.00  0.00     0.031 C 
ATOM     67  C   UNL A   1      42.921  29.303  34.702  1.00  0.00     0.034 A 
BRANCH  54  68
ATOM     68  C   UNL A   1      40.650  27.877  29.111  1.00  0.00     0.023 A 
ATOM     69  C   UNL A   1      41.596  28.059  28.087  1.00  0.00     0.031 A 
ATOM     70  C   UNL A   1      39.738  26.815  28.984  1.00  0.00     0.131 A 
ATOM     71  C   UNL A   1      41.569  27.233  26.953  1.00  0.00     0.055 A 
ATOM     72  C   UNL A   1      39.768  25.946  27.892  1.00  0.00     0.041 A 
ATOM     73  F   UNL A   1      38.797  26.605  29.918  1.00  0.00    -0.206 F 
ATOM     74  C   UNL A   1      40.680  26.159  26.862  1.00  0.00     0.022 A 
BRANCH  71  75
ATOM     75  S   UNL A   1      42.626  27.660  25.543  1.00  0.00     0.124 S 
ATOM     76  O   UNL A   1      43.909  27.898  26.198  1.00  0.00    -0.237 OA
ATOM     77  O   UNL A   1      42.544  26.463  24.713  1.00  0.00    -0.237 OA
ATOM     78  O   UNL A   1      41.988  28.851  24.985  1.00  0.00    -0.744 OA
ENDBRANCH  71  75
ENDBRANCH  54  68
BRANCH  55  79
ATOM     79  C   UNL A   1      39.683  33.823  37.132  1.00  0.00     0.023 A 
ATOM     80  C   UNL A   1      40.518  34.923  37.386  1.00  0.00     0.031 A 
ATOM     81  C   UNL A   1      38.725  33.489  38.106  1.00  0.00     0.131 A 
ATOM     82  C   UNL A   1      40.422  35.611  38.606  1.00  0.00     0.055 A 
ATOM     83  C   UNL A   1      38.589  34.217  39.290  1.00  0.00     0.041 A 
ATOM     84  F   UNL A   1      37.899  32.448  37.918  1.00  0.00    -0.206 F 
ATOM     85  C   UNL A   1      39.453  35.275  39.554  1.00  0.00     0.022 A 
BRANCH  82  86
ATOM     86  S   UNL A   1      41.662  36.880  38.988  1.00  0.00     0.124 S 
ATOM     87  O   UNL A   1      40.830  37.957  39.514  1.00  0.00    -0.237 OA
ATOM     88  O   UNL A   1      42.510  36.192  39.956  1.00  0.00    -0.237 OA
ATOM     89  O   UNL A   1      42.286  37.147  37.694  1.00  0.00    -0.744 OA
ENDBRANCH  82  86
ENDBRANCH  55  79
BRANCH  67  90
ATOM     90  C   UNL A   1      44.104  28.705  35.426  1.00  0.00     0.023 A 
ATOM     91  C   UNL A   1      43.960  27.633  36.323  1.00  0.00     0.031 A 
ATOM     92  C   UNL A   1      45.395  29.227  35.223  1.00  0.00     0.131 A 
ATOM     93  C   UNL A   1      45.073  27.161  37.034  1.00  0.00     0.055 A 
ATOM     94  C   UNL A   1      46.510  28.706  35.881  1.00  0.00     0.041 A 
ATOM     95  F   UNL A   1      45.593  30.253  34.380  1.00  0.00    -0.206 F 
ATOM     96  C   UNL A   1      46.351  27.677  36.803  1.00  0.00     0.022 A 
BRANCH  93  97
ATOM     97  S   UNL A   1      44.813  25.934  38.344  1.00  0.00     0.124 S 
ATOM     98  O   UNL A   1      43.729  25.128  37.793  1.00  0.00    -0.237 OA
ATOM     99  O   UNL A   1      46.115  25.282  38.425  1.00  0.00    -0.237 OA
ATOM    100  O   UNL A   1      44.453  26.746  39.506  1.00  0.00    -0.744 OA
ENDBRANCH  93  97
ENDBRANCH  67  90
ENDBRANCH  41  42
ENDBRANCH  33  36
ENDBRANCH  31  32
ENDBRANCH  30  31
ENDBRANCH  29  30
ENDBRANCH   1  29
TORSDOF 19
ENDMDL
MODEL 3
REMARK VINA RESULT:     -12.7      5.812     12.049
REMARK SMILES NS(=O)(=O)c1ccc(NS(=O)(=O)c2cccc(C(=O)NCCCCNC(=O)c3ccc(-c4c5nc(c(-c6cc(S(=O)(=O)[O-])ccc6F)c6ccc([nH]6)c(-c6cc(S(=O)(=O)[O-])ccc6F)c6nc(c(-c7cc(S(=O)(=O)[O-])ccc7F)c7ccc4[nH]7)C=C6)C=C5)cc3)c2)cc1
REMARK SMILES IDX 21 1 20 2 18 3 19 4 17 6 13 7 14 8 91 9 15 10 16 11 10 12
REMARK SMILES IDX 11 13 12 14 9 15 8 17 5 18 6 19 93 20 7 21 92 22 2 23 3 24
REMARK SMILES IDX 4 25 1 26 22 29 23 30 24 31 25 32 26 33 27 35 28 36 29 37
REMARK SMILES IDX 90 38 30 39 89 40 31 41 32 42 33 43 83 44 34 45 88 46 82 47
REMARK SMILES IDX 84 48 35 49 87 50 81 51 80 52 36 54 68 55 48 56 67 57 49 58
REMARK SMILES IDX 52 59 66 60 85 61 50 62 51 63 65 65 86 66 53 67 37 68 38 69
REMARK SMILES IDX 46 70 39 71 45 72 47 73 44 74 40 75 41 76 42 77 43 78 69 79
REMARK SMILES IDX 70 80 78 81 71 82 77 83 79 84 76 85 72 86 73 87 74 88 75 89
REMARK SMILES IDX 54 90 55 91 63 92 56 93 62 94 64 95 61 96 57 97 58 98 59 99
REMARK SMILES IDX 60 100
REMARK H PARENT 20 5 9 16 1 27 1 28 25 34 84 53 52 64
REMARK Flexibility Score: inf
ROOT
ATOM      1  C   UNL A   1      34.213  29.229  27.307  1.00  0.00     0.116 C 
ENDROOT
BRANCH   1   2
ATOM      2  N   UNL A   1      33.913  29.191  25.879  1.00  0.00    -0.352 N 
ATOM      3  C   UNL A   1      33.541  28.172  25.025  1.00  0.00     0.251 C 
ATOM      4  O   UNL A   1      33.339  28.431  23.840  1.00  0.00    -0.269 OA
ATOM      5  H   UNL A   1      33.992  30.067  25.436  1.00  0.00     0.163 HD
BRANCH   3   6
ATOM      6  C   UNL A   1      33.418  26.760  25.474  1.00  0.00     0.041 A 
ATOM      7  C   UNL A   1      34.297  24.506  25.604  1.00  0.00     0.088 A 
ATOM      8  C   UNL A   1      33.080  24.021  26.074  1.00  0.00     0.022 A 
ATOM      9  C   UNL A   1      34.482  25.876  25.405  1.00  0.00     0.036 A 
ATOM     10  C   UNL A   1      32.050  24.934  26.324  1.00  0.00     0.002 A 
ATOM     11  C   UNL A   1      32.209  26.291  26.000  1.00  0.00     0.014 A 
BRANCH   7  12
ATOM     12  S   UNL A   1      35.682  23.457  25.256  1.00  0.00     0.261 S 
ATOM     13  O   UNL A   1      36.822  23.945  26.003  1.00  0.00    -0.201 OA
ATOM     14  O   UNL A   1      35.754  23.324  23.816  1.00  0.00    -0.201 OA
BRANCH  12  15
ATOM     15  N   UNL A   1      35.311  21.944  25.849  1.00  0.00    -0.280 N 
ATOM     16  H   UNL A   1      35.204  21.866  26.824  1.00  0.00     0.180 HD
BRANCH  15  17
ATOM     17  C   UNL A   1      35.133  20.749  25.089  1.00  0.00     0.049 A 
ATOM     18  C   UNL A   1      34.453  18.107  24.453  1.00  0.00     0.082 A 
ATOM     19  C   UNL A   1      35.787  18.453  24.629  1.00  0.00     0.024 A 
ATOM     20  C   UNL A   1      33.462  19.088  24.484  1.00  0.00     0.024 A 
ATOM     21  C   UNL A   1      36.116  19.775  24.920  1.00  0.00     0.028 A 
ATOM     22  C   UNL A   1      33.806  20.403  24.812  1.00  0.00     0.028 A 
BRANCH  18  23
ATOM     23  S   UNL A   1      33.971  16.418  24.281  1.00  0.00     0.238 S 
ATOM     24  O   UNL A   1      34.159  16.027  22.909  1.00  0.00    -0.207 OA
ATOM     25  O   UNL A   1      32.719  16.242  24.988  1.00  0.00    -0.207 OA
BRANCH  23  26
ATOM     26  N   UNL A   1      35.111  15.562  25.170  1.00  0.00    -0.225 NA
ATOM     27  H   UNL A   1      35.045  14.571  24.941  1.00  0.00     0.137 HD
ATOM     28  H   UNL A   1      34.934  15.693  26.167  1.00  0.00     0.137 HD
ENDBRANCH  23  26
ENDBRANCH  18  23
ENDBRANCH  15  17
ENDBRANCH  12  15
ENDBRANCH   7  12
ENDBRANCH   3   6
ENDBRANCH   1   2
BRANCH   1  29
ATOM     29  C   UNL A   1      34.968  30.463  27.769  1.00  0.00     0.023 C 
BRANCH  29  30
ATOM     30  C   UNL A   1      34.398  31.793  27.308  1.00  0.00     0.023 C 
BRANCH  30  31
ATOM     31  C   UNL A   1      32.973  32.091  27.763  1.00  0.00     0.116 C 
BRANCH  31  32
ATOM     32  N   UNL A   1      32.660  33.511  27.849  1.00  0.00    -0.352 N 
ATOM     33  C   UNL A   1      33.250  34.481  28.629  1.00  0.00     0.251 C 
ATOM     34  H   UNL A   1      31.927  33.820  27.270  1.00  0.00     0.163 HD
ATOM     35  O   UNL A   1      32.802  35.623  28.638  1.00  0.00    -0.269 OA
BRANCH  33  36
ATOM     36  C   UNL A   1      34.394  34.116  29.491  1.00  0.00     0.039 A 
ATOM     37  C   UNL A   1      34.159  33.356  30.637  1.00  0.00     0.014 A 
ATOM     38  C   UNL A   1      35.698  34.457  29.123  1.00  0.00     0.014 A 
ATOM     39  C   UNL A   1      35.242  32.857  31.364  1.00  0.00     0.010 A 
ATOM     40  C   UNL A   1      36.772  33.883  29.794  1.00  0.00     0.010 A 
ATOM     41  C   UNL A   1      36.557  33.069  30.917  1.00  0.00    -0.014 A 
BRANCH  41  42
ATOM     42  C   UNL A   1      37.716  32.437  31.604  1.00  0.00     0.031 A 
ATOM     43  C   UNL A   1      38.450  31.298  30.948  1.00  0.00     0.074 A 
ATOM     44  C   UNL A   1      38.065  32.848  32.840  1.00  0.00     0.049 A 
ATOM     45  N   UNL A   1      39.440  30.579  31.409  1.00  0.00    -0.248 NA
ATOM     46  C   UNL A   1      37.989  30.896  29.609  1.00  0.00     0.031 C 
ATOM     47  C   UNL A   1      37.397  33.909  33.598  1.00  0.00     0.029 A 
ATOM     48  N   UNL A   1      39.064  32.423  33.681  1.00  0.00    -0.354 N 
ATOM     49  C   UNL A   1      39.713  29.634  30.425  1.00  0.00     0.074 A 
ATOM     50  C   UNL A   1      38.741  29.832  29.371  1.00  0.00     0.031 C 
ATOM     51  C   UNL A   1      38.023  34.071  34.775  1.00  0.00     0.029 A 
ATOM     52  C   UNL A   1      39.101  33.095  34.883  1.00  0.00     0.049 A 
ATOM     53  H   UNL A   1      39.693  31.703  33.448  1.00  0.00     0.167 HD
ATOM     54  C   UNL A   1      40.699  28.704  30.393  1.00  0.00     0.034 A 
ATOM     55  C   UNL A   1      39.904  32.934  35.954  1.00  0.00     0.034 A 
ATOM     56  C   UNL A   1      41.669  28.531  31.446  1.00  0.00     0.049 A 
ATOM     57  C   UNL A   1      40.979  31.876  35.902  1.00  0.00     0.074 A 
ATOM     58  C   UNL A   1      42.748  27.663  31.487  1.00  0.00     0.029 A 
ATOM     59  N   UNL A   1      41.677  29.228  32.647  1.00  0.00    -0.354 N 
ATOM     60  N   UNL A   1      41.264  31.035  34.934  1.00  0.00    -0.248 NA
ATOM     61  C   UNL A   1      41.848  31.754  37.080  1.00  0.00     0.031 C 
ATOM     62  C   UNL A   1      43.356  27.779  32.740  1.00  0.00     0.029 A 
ATOM     63  C   UNL A   1      42.717  28.783  33.449  1.00  0.00     0.049 A 
ATOM     64  H   UNL A   1      41.038  29.935  32.893  1.00  0.00     0.167 HD
ATOM     65  C   UNL A   1      42.366  30.307  35.377  1.00  0.00     0.074 A 
ATOM     66  C   UNL A   1      42.705  30.825  36.685  1.00  0.00     0.031 C 
ATOM     67  C   UNL A   1      43.038  29.303  34.758  1.00  0.00     0.034 A 
BRANCH  54  68
ATOM     68  C   UNL A   1      40.761  27.789  29.193  1.00  0.00     0.023 A 
ATOM     69  C   UNL A   1      41.690  27.989  28.157  1.00  0.00     0.031 A 
ATOM     70  C   UNL A   1      39.878  26.701  29.084  1.00  0.00     0.131 A 
ATOM     71  C   UNL A   1      41.672  27.154  27.029  1.00  0.00     0.055 A 
ATOM     72  C   UNL A   1      39.919  25.825  27.998  1.00  0.00     0.041 A 
ATOM     73  F   UNL A   1      38.953  26.473  30.030  1.00  0.00    -0.206 F 
ATOM     74  C   UNL A   1      40.812  26.056  26.956  1.00  0.00     0.022 A 
BRANCH  71  75
ATOM     75  S   UNL A   1      42.701  27.599  25.603  1.00  0.00     0.124 S 
ATOM     76  O   UNL A   1      43.995  27.838  26.236  1.00  0.00    -0.237 OA
ATOM     77  O   UNL A   1      42.609  26.409  24.764  1.00  0.00    -0.237 OA
ATOM     78  O   UNL A   1      42.047  28.792  25.068  1.00  0.00    -0.744 OA
ENDBRANCH  71  75
ENDBRANCH  54  68
BRANCH  55  79
ATOM     79  C   UNL A   1      39.724  33.772  37.178  1.00  0.00     0.023 A 
ATOM     80  C   UNL A   1      39.035  33.280  38.299  1.00  0.00     0.031 A 
ATOM     81  C   UNL A   1      40.178  35.102  37.219  1.00  0.00     0.131 A 
ATOM     82  C   UNL A   1      38.766  34.128  39.385  1.00  0.00     0.055 A 
ATOM     83  C   UNL A   1      39.965  35.922  38.329  1.00  0.00     0.041 A 
ATOM     84  F   UNL A   1      40.842  35.626  36.177  1.00  0.00    -0.206 F 
ATOM     85  C   UNL A   1      39.240  35.441  39.414  1.00  0.00     0.022 A 
BRANCH  82  86
ATOM     86  S   UNL A   1      37.685  33.524  40.712  1.00  0.00     0.124 S 
ATOM     87  O   UNL A   1      37.360  34.761  41.414  1.00  0.00    -0.237 OA
ATOM     88  O   UNL A   1      36.599  32.907  39.959  1.00  0.00    -0.237 OA
ATOM     89  O   UNL A   1      38.539  32.594  41.448  1.00  0.00    -0.744 OA
ENDBRANCH  82  86
ENDBRANCH  55  79
BRANCH  67  90
ATOM     90  C   UNL A   1      44.238  28.734  35.478  1.00  0.00     0.023 A 
ATOM     91  C   UNL A   1      44.117  27.691  36.412  1.00  0.00     0.031 A 
ATOM     92  C   UNL A   1      45.522  29.257  35.235  1.00  0.00     0.131 A 
ATOM     93  C   UNL A   1      45.247  27.248  37.116  1.00  0.00     0.055 A 
ATOM     94  C   UNL A   1      46.652  28.763  35.887  1.00  0.00     0.041 A 
ATOM     95  F   UNL A   1      45.698  30.256  34.356  1.00  0.00    -0.206 F 
ATOM     96  C   UNL A   1      46.517  27.763  36.845  1.00  0.00     0.022 A 
BRANCH  93  97
ATOM     97  S   UNL A   1      45.018  26.062  38.470  1.00  0.00     0.124 S 
ATOM     98  O   UNL A   1      44.813  24.812  37.746  1.00  0.00    -0.237 OA
ATOM     99  O   UNL A   1      46.275  26.177  39.202  1.00  0.00    -0.237 OA
ATOM    100  O   UNL A   1      43.842  26.570  39.175  1.00  0.00    -0.744 OA
ENDBRANCH  93  97
ENDBRANCH  67  90
ENDBRANCH  41  42
ENDBRANCH  33  36
ENDBRANCH  31  32
ENDBRANCH  30  31
ENDBRANCH  29  30
ENDBRANCH   1  29
TORSDOF 19
ENDMDL
