MODEL 1
REMARK VINA RESULT:     -12.8      0.000      0.000
REMARK SMILES NS(=O)(=O)c1ccc(N2N=C(C(=O)NCCCCNC(=O)c3ccc(-c4c5nc(c(-c6cc(S(=O)(=O)[O-])ccc6F)c6ccc([nH]6)c(-c6cc(S(=O)(=O)[O-])ccc6F)c6nc(c(-c7cc(S(=O)(=O)[O-])ccc7F)c7ccc4[nH]7)C=C6)C=C5)cc3)C[C@H]2c2cccs2)cc1
REMARK SMILES IDX 16 1 15 2 14 3 12 4 13 5 11 7 9 8 10 9 86 10 85 11 8 12 5 13
REMARK SMILES IDX 6 14 93 15 7 16 92 17 2 18 3 19 4 20 1 21 87 24 88 25 91 26
REMARK SMILES IDX 89 27 90 28 17 29 18 30 19 31 20 32 21 34 22 35 23 36 84 37
REMARK SMILES IDX 24 38 83 39 25 40 26 41 27 42 77 43 28 44 82 45 76 46 78 47
REMARK SMILES IDX 29 48 81 49 75 50 74 51 30 53 62 54 42 55 61 56 43 57 46 58
REMARK SMILES IDX 60 59 79 60 44 61 45 62 59 64 80 65 47 66 31 67 32 68 40 69
REMARK SMILES IDX 33 70 39 71 41 72 38 73 34 74 35 75 36 76 37 77 63 78 64 79
REMARK SMILES IDX 72 80 65 81 71 82 73 83 70 84 66 85 67 86 68 87 69 88 48 89
REMARK SMILES IDX 49 90 57 91 50 92 56 93 58 94 55 95 51 96 52 97 53 98 54 99
REMARK H PARENT 14 6 1 22 1 23 19 33 78 52 46 63
REMARK Flexibility Score: inf
ROOT
ATOM      1  C   UNL A   1      34.382  21.490  26.899  1.00  0.00     0.023 C 
ENDROOT
BRANCH   1   2
ATOM      2  C   UNL A   1      33.850  22.887  27.192  1.00  0.00     0.116 C 
BRANCH   2   3
ATOM      3  N   UNL A   1      32.419  22.874  27.436  1.00  0.00    -0.351 N 
ATOM      4  C   UNL A   1      31.350  23.567  26.926  1.00  0.00     0.267 C 
ATOM      5  O   UNL A   1      30.245  23.365  27.426  1.00  0.00    -0.268 OA
ATOM      6  H   UNL A   1      32.156  22.220  28.124  1.00  0.00     0.163 HD
BRANCH   4   7
ATOM      7  C   UNL A   1      31.446  24.534  25.755  1.00  0.00     0.128 C 
ATOM      8  N   UNL A   1      30.789  25.906  24.244  1.00  0.00    -0.256 N 
ATOM      9  N   UNL A   1      30.437  25.275  25.404  1.00  0.00    -0.171 NA
ATOM     10  C   UNL A   1      32.189  25.678  23.858  1.00  0.00     0.154 C 
ATOM     11  C   UNL A   1      32.672  24.704  24.933  1.00  0.00     0.097 C 
BRANCH   8  12
ATOM     12  C   UNL A   1      30.153  27.098  23.892  1.00  0.00     0.060 A 
ATOM     13  C   UNL A   1      28.899  29.539  23.295  1.00  0.00     0.082 A 
ATOM     14  C   UNL A   1      28.161  28.354  23.250  1.00  0.00     0.024 A 
ATOM     15  C   UNL A   1      30.256  29.518  23.609  1.00  0.00     0.024 A 
ATOM     16  C   UNL A   1      28.795  27.139  23.538  1.00  0.00     0.029 A 
ATOM     17  C   UNL A   1      30.872  28.300  23.895  1.00  0.00     0.029 A 
BRANCH  13  18
ATOM     18  S   UNL A   1      28.117  31.081  22.936  1.00  0.00     0.238 S 
ATOM     19  O   UNL A   1      26.998  31.272  23.835  1.00  0.00    -0.207 OA
ATOM     20  O   UNL A   1      27.991  31.218  21.507  1.00  0.00    -0.207 OA
BRANCH  18  21
ATOM     21  N   UNL A   1      29.265  32.203  23.424  1.00  0.00    -0.225 NA
ATOM     22  H   UNL A   1      29.250  33.003  22.792  1.00  0.00     0.137 HD
ATOM     23  H   UNL A   1      30.190  31.774  23.406  1.00  0.00     0.137 HD
ENDBRANCH  18  21
ENDBRANCH  13  18
ENDBRANCH   8  12
BRANCH  10  24
ATOM     24  C   UNL A   1      32.463  25.217  22.429  1.00  0.00     0.030 A 
ATOM     25  C   UNL A   1      32.225  25.933  21.265  1.00  0.00     0.017 A 
ATOM     26  S   UNL A   1      33.140  23.681  22.045  1.00  0.00    -0.147 S 
ATOM     27  C   UNL A   1      32.616  25.235  20.087  1.00  0.00     0.012 A 
ATOM     28  C   UNL A   1      33.188  24.020  20.378  1.00  0.00     0.065 A 
ENDBRANCH  10  24
ENDBRANCH   4   7
ENDBRANCH   2   3
ENDBRANCH   1   2
BRANCH   1  29
ATOM     29  C   UNL A   1      35.151  21.381  25.587  1.00  0.00     0.023 C 
BRANCH  29  30
ATOM     30  C   UNL A   1      36.554  21.978  25.613  1.00  0.00     0.116 C 
BRANCH  30  31
ATOM     31  N   UNL A   1      37.606  20.971  25.657  1.00  0.00    -0.352 N 
ATOM     32  C   UNL A   1      38.928  21.124  26.006  1.00  0.00     0.251 C 
ATOM     33  H   UNL A   1      37.335  20.059  25.403  1.00  0.00     0.163 HD
ATOM     34  O   UNL A   1      39.715  20.196  25.853  1.00  0.00    -0.269 OA
BRANCH  32  35
ATOM     35  C   UNL A   1      39.385  22.430  26.523  1.00  0.00     0.039 A 
ATOM     36  C   UNL A   1      40.434  22.465  27.442  1.00  0.00     0.014 A 
ATOM     37  C   UNL A   1      38.823  23.615  26.042  1.00  0.00     0.014 A 
ATOM     38  C   UNL A   1      40.976  23.695  27.816  1.00  0.00     0.010 A 
ATOM     39  C   UNL A   1      39.422  24.833  26.347  1.00  0.00     0.010 A 
ATOM     40  C   UNL A   1      40.508  24.886  27.233  1.00  0.00    -0.014 A 
BRANCH  40  41
ATOM     41  C   UNL A   1      41.154  26.191  27.528  1.00  0.00     0.031 A 
ATOM     42  C   UNL A   1      42.534  26.486  27.010  1.00  0.00     0.074 A 
ATOM     43  C   UNL A   1      40.520  27.084  28.316  1.00  0.00     0.049 A 
ATOM     44  N   UNL A   1      43.286  27.537  27.210  1.00  0.00    -0.248 NA
ATOM     45  C   UNL A   1      43.162  25.446  26.180  1.00  0.00     0.031 C 
ATOM     46  C   UNL A   1      39.198  26.893  28.916  1.00  0.00     0.029 A 
ATOM     47  N   UNL A   1      40.902  28.329  28.752  1.00  0.00    -0.354 N 
ATOM     48  C   UNL A   1      44.479  27.283  26.541  1.00  0.00     0.074 A 
ATOM     49  C   UNL A   1      44.373  25.948  25.989  1.00  0.00     0.031 C 
ATOM     50  C   UNL A   1      38.866  27.992  29.611  1.00  0.00     0.029 A 
ATOM     51  C   UNL A   1      39.970  28.943  29.557  1.00  0.00     0.049 A 
ATOM     52  H   UNL A   1      41.763  28.743  28.512  1.00  0.00     0.167 HD
ATOM     53  C   UNL A   1      45.552  28.097  26.379  1.00  0.00     0.034 A 
ATOM     54  C   UNL A   1      40.006  30.132  30.192  1.00  0.00     0.034 A 
ATOM     55  C   UNL A   1      45.637  29.426  26.935  1.00  0.00     0.049 A 
ATOM     56  C   UNL A   1      41.226  31.003  30.032  1.00  0.00     0.074 A 
ATOM     57  C   UNL A   1      46.650  30.357  26.787  1.00  0.00     0.029 A 
ATOM     58  N   UNL A   1      44.681  30.010  27.757  1.00  0.00    -0.354 N 
ATOM     59  N   UNL A   1      42.322  30.773  29.345  1.00  0.00    -0.248 NA
ATOM     60  C   UNL A   1      41.211  32.297  30.726  1.00  0.00     0.031 C 
ATOM     61  C   UNL A   1      46.348  31.464  27.587  1.00  0.00     0.029 A 
ATOM     62  C   UNL A   1      45.101  31.270  28.159  1.00  0.00     0.049 A 
ATOM     63  H   UNL A   1      43.829  29.591  28.017  1.00  0.00     0.167 HD
ATOM     64  C   UNL A   1      43.113  31.909  29.502  1.00  0.00     0.074 A 
ATOM     65  C   UNL A   1      42.360  32.827  30.331  1.00  0.00     0.031 C 
ATOM     66  C   UNL A   1      44.348  32.171  29.001  1.00  0.00     0.034 A 
BRANCH  53  67
ATOM     67  C   UNL A   1      46.725  27.555  25.595  1.00  0.00     0.023 A 
ATOM     68  C   UNL A   1      47.019  28.007  24.296  1.00  0.00     0.031 A 
ATOM     69  C   UNL A   1      47.545  26.553  26.142  1.00  0.00     0.131 A 
ATOM     70  C   UNL A   1      48.048  27.402  23.559  1.00  0.00     0.055 A 
ATOM     71  C   UNL A   1      48.626  26.019  25.436  1.00  0.00     0.041 A 
ATOM     72  F   UNL A   1      47.302  26.063  27.368  1.00  0.00    -0.206 F 
ATOM     73  C   UNL A   1      48.873  26.431  24.131  1.00  0.00     0.022 A 
BRANCH  70  74
ATOM     74  S   UNL A   1      48.187  27.788  21.793  1.00  0.00     0.124 S 
ATOM     75  O   UNL A   1      49.274  28.765  21.789  1.00  0.00    -0.237 OA
ATOM     76  O   UNL A   1      48.494  26.489  21.207  1.00  0.00    -0.237 OA
ATOM     77  O   UNL A   1      46.872  28.331  21.457  1.00  0.00    -0.744 OA
ENDBRANCH  70  74
ENDBRANCH  53  67
BRANCH  54  78
ATOM     78  C   UNL A   1      38.864  30.567  31.048  1.00  0.00     0.023 A 
ATOM     79  C   UNL A   1      37.734  31.189  30.490  1.00  0.00     0.031 A 
ATOM     80  C   UNL A   1      38.902  30.403  32.445  1.00  0.00     0.131 A 
ATOM     81  C   UNL A   1      36.713  31.665  31.327  1.00  0.00     0.055 A 
ATOM     82  C   UNL A   1      37.856  30.826  33.267  1.00  0.00     0.041 A 
ATOM     83  F   UNL A   1      39.956  29.814  33.031  1.00  0.00    -0.206 F 
ATOM     84  C   UNL A   1      36.759  31.473  32.710  1.00  0.00     0.022 A 
BRANCH  81  85
ATOM     85  S   UNL A   1      35.362  32.624  30.589  1.00  0.00     0.124 S 
ATOM     86  O   UNL A   1      35.115  31.886  29.356  1.00  0.00    -0.237 OA
ATOM     87  O   UNL A   1      34.327  32.529  31.613  1.00  0.00    -0.237 OA
ATOM     88  O   UNL A   1      35.944  33.952  30.415  1.00  0.00    -0.744 OA
ENDBRANCH  81  85
ENDBRANCH  54  78
BRANCH  66  89
ATOM     89  C   UNL A   1      44.941  33.526  29.307  1.00  0.00     0.023 A 
ATOM     90  C   UNL A   1      44.645  34.658  28.527  1.00  0.00     0.031 A 
ATOM     91  C   UNL A   1      45.825  33.684  30.389  1.00  0.00     0.131 A 
ATOM     92  C   UNL A   1      45.274  35.882  28.804  1.00  0.00     0.055 A 
ATOM     93  C   UNL A   1      46.392  34.919  30.703  1.00  0.00     0.041 A 
ATOM     94  F   UNL A   1      46.150  32.637  31.166  1.00  0.00    -0.206 F 
ATOM     95  C   UNL A   1      46.129  36.024  29.899  1.00  0.00     0.022 A 
BRANCH  92  96
ATOM     96  S   UNL A   1      45.043  37.260  27.648  1.00  0.00     0.124 S 
ATOM     97  O   UNL A   1      46.321  37.280  26.943  1.00  0.00    -0.237 OA
ATOM     98  O   UNL A   1      43.891  36.824  26.868  1.00  0.00    -0.237 OA
ATOM     99  O   UNL A   1      44.802  38.405  28.524  1.00  0.00    -0.744 OA
ENDBRANCH  92  96
ENDBRANCH  66  89
ENDBRANCH  40  41
ENDBRANCH  32  35
ENDBRANCH  30  31
ENDBRANCH  29  30
ENDBRANCH   1  29
TORSDOF 18
ENDMDL
MODEL 2
REMARK VINA RESULT:     -12.7      1.622      2.244
REMARK SMILES NS(=O)(=O)c1ccc(N2N=C(C(=O)NCCCCNC(=O)c3ccc(-c4c5nc(c(-c6cc(S(=O)(=O)[O-])ccc6F)c6ccc([nH]6)c(-c6cc(S(=O)(=O)[O-])ccc6F)c6nc(c(-c7cc(S(=O)(=O)[O-])ccc7F)c7ccc4[nH]7)C=C6)C=C5)cc3)C[C@H]2c2cccs2)cc1
REMARK SMILES IDX 16 1 15 2 14 3 12 4 13 5 11 7 9 8 10 9 86 10 85 11 8 12 5 13
REMARK SMILES IDX 6 14 93 15 7 16 92 17 2 18 3 19 4 20 1 21 87 24 88 25 91 26
REMARK SMILES IDX 89 27 90 28 17 29 18 30 19 31 20 32 21 34 22 35 23 36 84 37
REMARK SMILES IDX 24 38 83 39 25 40 26 41 27 42 77 43 28 44 82 45 76 46 78 47
REMARK SMILES IDX 29 48 81 49 75 50 74 51 30 53 62 54 42 55 61 56 43 57 46 58
REMARK SMILES IDX 60 59 79 60 44 61 45 62 59 64 80 65 47 66 31 67 32 68 40 69
REMARK SMILES IDX 33 70 39 71 41 72 38 73 34 74 35 75 36 76 37 77 63 78 64 79
REMARK SMILES IDX 72 80 65 81 71 82 73 83 70 84 66 85 67 86 68 87 69 88 48 89
REMARK SMILES IDX 49 90 57 91 50 92 56 93 58 94 55 95 51 96 52 97 53 98 54 99
REMARK H PARENT 14 6 1 22 1 23 19 33 78 52 46 63
REMARK Flexibility Score: inf
ROOT
ATOM      1  C   UNL A   1      35.755  23.141  23.596  1.00  0.00     0.023 C 
ENDROOT
BRANCH   1   2
ATOM      2  C   UNL A   1      34.593  23.052  24.576  1.00  0.00     0.116 C 
BRANCH   2   3
ATOM      3  N   UNL A   1      33.349  22.726  23.903  1.00  0.00    -0.351 N 
ATOM      4  C   UNL A   1      32.130  23.345  23.782  1.00  0.00     0.267 C 
ATOM      5  O   UNL A   1      31.237  22.741  23.191  1.00  0.00    -0.268 OA
ATOM      6  H   UNL A   1      33.388  21.865  23.427  1.00  0.00     0.163 HD
BRANCH   4   7
ATOM      7  C   UNL A   1      31.835  24.747  24.295  1.00  0.00     0.128 C 
ATOM      8  N   UNL A   1      31.418  26.849  24.222  1.00  0.00    -0.256 N 
ATOM      9  N   UNL A   1      31.448  25.694  23.492  1.00  0.00    -0.171 NA
ATOM     10  C   UNL A   1      31.671  26.639  25.655  1.00  0.00     0.154 C 
ATOM     11  C   UNL A   1      31.964  25.140  25.722  1.00  0.00     0.097 C 
BRANCH   8  12
ATOM     12  C   UNL A   1      30.603  27.903  23.805  1.00  0.00     0.060 A 
ATOM     13  C   UNL A   1      28.947  30.054  23.082  1.00  0.00     0.082 A 
ATOM     14  C   UNL A   1      28.575  28.751  22.745  1.00  0.00     0.024 A 
ATOM     15  C   UNL A   1      30.145  30.297  23.752  1.00  0.00     0.024 A 
ATOM     16  C   UNL A   1      29.410  27.684  23.098  1.00  0.00     0.029 A 
ATOM     17  C   UNL A   1      30.964  29.223  24.099  1.00  0.00     0.029 A 
BRANCH  13  18
ATOM     18  S   UNL A   1      27.908  31.412  22.646  1.00  0.00     0.238 S 
ATOM     19  O   UNL A   1      26.929  31.622  23.692  1.00  0.00    -0.207 OA
ATOM     20  O   UNL A   1      27.539  31.290  21.258  1.00  0.00    -0.207 OA
BRANCH  18  21
ATOM     21  N   UNL A   1      28.946  32.726  22.751  1.00  0.00    -0.225 NA
ATOM     22  H   UNL A   1      29.801  32.447  23.233  1.00  0.00     0.137 HD
ATOM     23  H   UNL A   1      28.493  33.477  23.272  1.00  0.00     0.137 HD
ENDBRANCH  18  21
ENDBRANCH  13  18
ENDBRANCH   8  12
BRANCH  10  24
ATOM     24  C   UNL A   1      32.730  27.514  26.322  1.00  0.00     0.030 A 
ATOM     25  C   UNL A   1      34.086  27.544  26.031  1.00  0.00     0.017 A 
ATOM     26  S   UNL A   1      32.373  28.637  27.577  1.00  0.00    -0.147 S 
ATOM     27  C   UNL A   1      34.806  28.492  26.813  1.00  0.00     0.012 A 
ATOM     28  C   UNL A   1      33.978  29.199  27.651  1.00  0.00     0.065 A 
ENDBRANCH  10  24
ENDBRANCH   4   7
ENDBRANCH   2   3
ENDBRANCH   1   2
BRANCH   1  29
ATOM     29  C   UNL A   1      36.918  22.212  23.926  1.00  0.00     0.023 C 
BRANCH  29  30
ATOM     30  C   UNL A   1      37.277  22.132  25.406  1.00  0.00     0.116 C 
BRANCH  30  31
ATOM     31  N   UNL A   1      38.346  21.183  25.687  1.00  0.00    -0.352 N 
ATOM     32  C   UNL A   1      39.574  21.419  26.261  1.00  0.00     0.251 C 
ATOM     33  H   UNL A   1      38.166  20.249  25.433  1.00  0.00     0.163 HD
ATOM     34  O   UNL A   1      40.416  20.528  26.297  1.00  0.00    -0.269 OA
BRANCH  32  35
ATOM     35  C   UNL A   1      39.871  22.766  26.788  1.00  0.00     0.039 A 
ATOM     36  C   UNL A   1      40.733  22.892  27.878  1.00  0.00     0.014 A 
ATOM     37  C   UNL A   1      39.354  23.901  26.158  1.00  0.00     0.014 A 
ATOM     38  C   UNL A   1      41.144  24.162  28.284  1.00  0.00     0.010 A 
ATOM     39  C   UNL A   1      39.833  25.159  26.507  1.00  0.00     0.010 A 
ATOM     40  C   UNL A   1      40.737  25.303  27.570  1.00  0.00    -0.014 A 
BRANCH  40  41
ATOM     41  C   UNL A   1      41.259  26.651  27.913  1.00  0.00     0.031 A 
ATOM     42  C   UNL A   1      42.683  27.014  27.595  1.00  0.00     0.074 A 
ATOM     43  C   UNL A   1      40.467  27.525  28.568  1.00  0.00     0.049 A 
ATOM     44  N   UNL A   1      43.339  28.112  27.869  1.00  0.00    -0.248 NA
ATOM     45  C   UNL A   1      43.484  25.991  26.903  1.00  0.00     0.031 C 
ATOM     46  C   UNL A   1      39.082  27.272  28.972  1.00  0.00     0.029 A 
ATOM     47  N   UNL A   1      40.711  28.801  29.014  1.00  0.00    -0.354 N 
ATOM     48  C   UNL A   1      44.630  27.910  27.392  1.00  0.00     0.074 A 
ATOM     49  C   UNL A   1      44.680  26.559  26.876  1.00  0.00     0.031 C 
ATOM     50  C   UNL A   1      38.591  28.367  29.573  1.00  0.00     0.029 A 
ATOM     51  C   UNL A   1      39.638  29.380  29.651  1.00  0.00     0.049 A 
ATOM     52  H   UNL A   1      41.575  29.258  28.890  1.00  0.00     0.167 HD
ATOM     53  C   UNL A   1      45.669  28.782  27.363  1.00  0.00     0.034 A 
ATOM     54  C   UNL A   1      39.514  30.584  30.244  1.00  0.00     0.034 A 
ATOM     55  C   UNL A   1      45.598  30.127  27.880  1.00  0.00     0.049 A 
ATOM     56  C   UNL A   1      40.695  31.521  30.237  1.00  0.00     0.074 A 
ATOM     57  C   UNL A   1      46.570  31.112  27.853  1.00  0.00     0.029 A 
ATOM     58  N   UNL A   1      44.500  30.675  28.533  1.00  0.00    -0.354 N 
ATOM     59  N   UNL A   1      41.893  31.338  29.727  1.00  0.00    -0.248 NA
ATOM     60  C   UNL A   1      40.507  32.829  30.877  1.00  0.00     0.031 C 
ATOM     61  C   UNL A   1      46.093  32.219  28.561  1.00  0.00     0.029 A 
ATOM     62  C   UNL A   1      44.787  31.967  28.949  1.00  0.00     0.049 A 
ATOM     63  H   UNL A   1      43.642  30.213  28.678  1.00  0.00     0.167 HD
ATOM     64  C   UNL A   1      42.589  32.522  29.961  1.00  0.00     0.074 A 
ATOM     65  C   UNL A   1      41.671  33.415  30.639  1.00  0.00     0.031 C 
ATOM     66  C   UNL A   1      43.869  32.843  29.640  1.00  0.00     0.034 A 
BRANCH  53  67
ATOM     67  C   UNL A   1      46.974  28.290  26.780  1.00  0.00     0.023 A 
ATOM     68  C   UNL A   1      47.203  28.268  25.393  1.00  0.00     0.031 A 
ATOM     69  C   UNL A   1      47.994  27.811  27.620  1.00  0.00     0.131 A 
ATOM     70  C   UNL A   1      48.382  27.703  24.885  1.00  0.00     0.055 A 
ATOM     71  C   UNL A   1      49.204  27.333  27.111  1.00  0.00     0.041 A 
ATOM     72  F   UNL A   1      47.828  27.783  28.952  1.00  0.00    -0.206 F 
ATOM     73  C   UNL A   1      49.397  27.262  25.735  1.00  0.00     0.022 A 
BRANCH  70  74
ATOM     74  S   UNL A   1      48.497  27.405  23.099  1.00  0.00     0.124 S 
ATOM     75  O   UNL A   1      47.354  28.164  22.599  1.00  0.00    -0.237 OA
ATOM     76  O   UNL A   1      49.813  27.942  22.773  1.00  0.00    -0.237 OA
ATOM     77  O   UNL A   1      48.369  25.953  22.986  1.00  0.00    -0.744 OA
ENDBRANCH  70  74
ENDBRANCH  53  67
BRANCH  54  78
ATOM     78  C   UNL A   1      38.235  30.973  30.907  1.00  0.00     0.023 A 
ATOM     79  C   UNL A   1      37.245  31.688  30.212  1.00  0.00     0.031 A 
ATOM     80  C   UNL A   1      37.999  30.669  32.260  1.00  0.00     0.131 A 
ATOM     81  C   UNL A   1      36.089  32.116  30.883  1.00  0.00     0.055 A 
ATOM     82  C   UNL A   1      36.820  31.045  32.907  1.00  0.00     0.041 A 
ATOM     83  F   UNL A   1      38.909  29.986  32.971  1.00  0.00    -0.206 F 
ATOM     84  C   UNL A   1      35.863  31.785  32.222  1.00  0.00     0.022 A 
BRANCH  81  85
ATOM     85  S   UNL A   1      34.923  33.192  30.005  1.00  0.00     0.124 S 
ATOM     86  O   UNL A   1      35.818  34.186  29.424  1.00  0.00    -0.237 OA
ATOM     87  O   UNL A   1      34.299  32.264  29.069  1.00  0.00    -0.237 OA
ATOM     88  O   UNL A   1      34.050  33.685  31.068  1.00  0.00    -0.744 OA
ENDBRANCH  81  85
ENDBRANCH  54  78
BRANCH  66  89
ATOM     89  C   UNL A   1      44.335  34.238  29.984  1.00  0.00     0.023 A 
ATOM     90  C   UNL A   1      44.178  35.314  29.093  1.00  0.00     0.031 A 
ATOM     91  C   UNL A   1      44.956  34.492  31.220  1.00  0.00     0.131 A 
ATOM     92  C   UNL A   1      44.690  36.578  29.424  1.00  0.00     0.055 A 
ATOM     93  C   UNL A   1      45.399  35.766  31.574  1.00  0.00     0.041 A 
ATOM     94  F   UNL A   1      45.139  33.502  32.110  1.00  0.00    -0.206 F 
ATOM     95  C   UNL A   1      45.281  36.816  30.667  1.00  0.00     0.022 A 
BRANCH  92  96
ATOM     96  S   UNL A   1      44.670  37.883  28.165  1.00  0.00     0.124 S 
ATOM     97  O   UNL A   1      43.514  37.506  27.358  1.00  0.00    -0.237 OA
ATOM     98  O   UNL A   1      44.520  39.091  28.969  1.00  0.00    -0.237 OA
ATOM     99  O   UNL A   1      45.964  37.737  27.500  1.00  0.00    -0.744 OA
ENDBRANCH  92  96
ENDBRANCH  66  89
ENDBRANCH  40  41
ENDBRANCH  32  35
ENDBRANCH  30  31
ENDBRANCH  29  30
ENDBRANCH   1  29
TORSDOF 18
ENDMDL
MODEL 3
REMARK VINA RESULT:     -12.7      0.645      7.364
REMARK SMILES NS(=O)(=O)c1ccc(N2N=C(C(=O)NCCCCNC(=O)c3ccc(-c4c5nc(c(-c6cc(S(=O)(=O)[O-])ccc6F)c6ccc([nH]6)c(-c6cc(S(=O)(=O)[O-])ccc6F)c6nc(c(-c7cc(S(=O)(=O)[O-])ccc7F)c7ccc4[nH]7)C=C6)C=C5)cc3)C[C@H]2c2cccs2)cc1
REMARK SMILES IDX 16 1 15 2 14 3 12 4 13 5 11 7 9 8 10 9 86 10 85 11 8 12 5 13
REMARK SMILES IDX 6 14 93 15 7 16 92 17 2 18 3 19 4 20 1 21 87 24 88 25 91 26
REMARK SMILES IDX 89 27 90 28 17 29 18 30 19 31 20 32 21 34 22 35 23 36 84 37
REMARK SMILES IDX 24 38 83 39 25 40 26 41 27 42 77 43 28 44 82 45 76 46 78 47
REMARK SMILES IDX 29 48 81 49 75 50 74 51 30 53 62 54 42 55 61 56 43 57 46 58
REMARK SMILES IDX 60 59 79 60 44 61 45 62 59 64 80 65 47 66 31 67 32 68 40 69
REMARK SMILES IDX 33 70 39 71 41 72 38 73 34 74 35 75 36 76 37 77 63 78 64 79
REMARK SMILES IDX 72 80 65 81 71 82 73 83 70 84 66 85 67 86 68 87 69 88 48 89
REMARK SMILES IDX 49 90 57 91 50 92 56 93 58 94 55 95 51 96 52 97 53 98 54 99
REMARK H PARENT 14 6 1 22 1 23 19 33 78 52 46 63
REMARK Flexibility Score: inf
ROOT
ATOM      1  C   UNL A   1      33.953  21.243  26.528  1.00  0.00     0.023 C 
ENDROOT
BRANCH   1   2
ATOM      2  C   UNL A   1      33.530  22.501  27.276  1.00  0.00     0.116 C 
BRANCH   2   3
ATOM      3  N   UNL A   1      32.090  22.564  27.445  1.00  0.00    -0.351 N 
ATOM      4  C   UNL A   1      31.095  23.358  26.931  1.00  0.00     0.267 C 
ATOM      5  O   UNL A   1      29.954  23.194  27.358  1.00  0.00    -0.268 OA
ATOM      6  H   UNL A   1      31.750  21.885  28.071  1.00  0.00     0.163 HD
BRANCH   4   7
ATOM      7  C   UNL A   1      31.315  24.392  25.836  1.00  0.00     0.128 C 
ATOM      8  N   UNL A   1      30.835  25.935  24.427  1.00  0.00    -0.256 N 
ATOM      9  N   UNL A   1      30.398  25.262  25.533  1.00  0.00    -0.171 NA
ATOM     10  C   UNL A   1      32.209  25.584  24.038  1.00  0.00     0.154 C 
ATOM     11  C   UNL A   1      32.566  24.488  25.041  1.00  0.00     0.097 C 
BRANCH   8  12
ATOM     12  C   UNL A   1      30.338  27.212  24.159  1.00  0.00     0.060 A 
ATOM     13  C   UNL A   1      29.342  29.754  23.502  1.00  0.00     0.082 A 
ATOM     14  C   UNL A   1      30.554  29.643  24.186  1.00  0.00     0.024 A 
ATOM     15  C   UNL A   1      28.612  28.617  23.164  1.00  0.00     0.024 A 
ATOM     16  C   UNL A   1      31.039  28.372  24.521  1.00  0.00     0.029 A 
ATOM     17  C   UNL A   1      29.110  27.359  23.503  1.00  0.00     0.029 A 
BRANCH  13  18
ATOM     18  S   UNL A   1      28.713  31.347  23.071  1.00  0.00     0.238 S 
ATOM     19  O   UNL A   1      29.390  32.358  23.855  1.00  0.00    -0.207 OA
ATOM     20  O   UNL A   1      27.277  31.272  22.982  1.00  0.00    -0.207 OA
BRANCH  18  21
ATOM     21  N   UNL A   1      29.279  31.559  21.506  1.00  0.00    -0.225 NA
ATOM     22  H   UNL A   1      29.582  32.525  21.381  1.00  0.00     0.137 HD
ATOM     23  H   UNL A   1      28.532  31.350  20.842  1.00  0.00     0.137 HD
ENDBRANCH  18  21
ENDBRANCH  13  18
ENDBRANCH   8  12
BRANCH  10  24
ATOM     24  C   UNL A   1      32.456  25.203  22.580  1.00  0.00     0.030 A 
ATOM     25  C   UNL A   1      32.145  25.959  21.460  1.00  0.00     0.017 A 
ATOM     26  S   UNL A   1      33.192  23.721  22.104  1.00  0.00    -0.147 S 
ATOM     27  C   UNL A   1      32.529  25.335  20.238  1.00  0.00     0.012 A 
ATOM     28  C   UNL A   1      33.167  24.138  20.453  1.00  0.00     0.065 A 
ENDBRANCH  10  24
ENDBRANCH   4   7
ENDBRANCH   2   3
ENDBRANCH   1   2
BRANCH   1  29
ATOM     29  C   UNL A   1      34.816  21.512  25.300  1.00  0.00     0.023 C 
BRANCH  29  30
ATOM     30  C   UNL A   1      36.232  21.992  25.603  1.00  0.00     0.116 C 
BRANCH  30  31
ATOM     31  N   UNL A   1      37.232  20.937  25.495  1.00  0.00    -0.352 N 
ATOM     32  C   UNL A   1      38.581  21.003  25.753  1.00  0.00     0.251 C 
ATOM     33  H   UNL A   1      36.897  20.061  25.197  1.00  0.00     0.163 HD
ATOM     34  O   UNL A   1      39.307  20.054  25.474  1.00  0.00    -0.269 OA
BRANCH  32  35
ATOM     35  C   UNL A   1      39.141  22.244  26.327  1.00  0.00     0.039 A 
ATOM     36  C   UNL A   1      40.255  22.162  27.161  1.00  0.00     0.014 A 
ATOM     37  C   UNL A   1      38.604  23.487  25.979  1.00  0.00     0.014 A 
ATOM     38  C   UNL A   1      40.885  23.334  27.580  1.00  0.00     0.010 A 
ATOM     39  C   UNL A   1      39.285  24.649  26.325  1.00  0.00     0.010 A 
ATOM     40  C   UNL A   1      40.435  24.586  27.125  1.00  0.00    -0.014 A 
BRANCH  40  41
ATOM     41  C   UNL A   1      41.165  25.835  27.463  1.00  0.00     0.031 A 
ATOM     42  C   UNL A   1      40.489  26.912  28.266  1.00  0.00     0.074 A 
ATOM     43  C   UNL A   1      42.416  26.023  26.994  1.00  0.00     0.049 A 
ATOM     44  N   UNL A   1      40.936  28.093  28.608  1.00  0.00    -0.248 NA
ATOM     45  C   UNL A   1      39.116  26.634  28.715  1.00  0.00     0.031 C 
ATOM     46  C   UNL A   1      43.160  25.071  26.166  1.00  0.00     0.029 A 
ATOM     47  N   UNL A   1      43.282  27.079  27.139  1.00  0.00    -0.354 N 
ATOM     48  C   UNL A   1      39.898  28.702  29.305  1.00  0.00     0.074 A 
ATOM     49  C   UNL A   1      38.777  27.786  29.274  1.00  0.00     0.031 C 
ATOM     50  C   UNL A   1      44.379  25.570  25.908  1.00  0.00     0.029 A 
ATOM     51  C   UNL A   1      44.487  26.899  26.499  1.00  0.00     0.049 A 
ATOM     52  H   UNL A   1      43.060  27.890  27.653  1.00  0.00     0.167 HD
ATOM     53  C   UNL A   1      39.890  29.904  29.936  1.00  0.00     0.034 A 
ATOM     54  C   UNL A   1      45.553  27.717  26.388  1.00  0.00     0.034 A 
ATOM     55  C   UNL A   1      41.019  30.801  29.959  1.00  0.00     0.049 A 
ATOM     56  C   UNL A   1      45.505  29.065  27.062  1.00  0.00     0.074 A 
ATOM     57  C   UNL A   1      41.140  32.015  30.612  1.00  0.00     0.029 A 
ATOM     58  N   UNL A   1      42.218  30.593  29.287  1.00  0.00    -0.354 N 
ATOM     59  N   UNL A   1      44.538  29.603  27.769  1.00  0.00    -0.248 NA
ATOM     60  C   UNL A   1      46.697  29.913  26.930  1.00  0.00     0.031 C 
ATOM     61  C   UNL A   1      42.373  32.578  30.267  1.00  0.00     0.029 A 
ATOM     62  C   UNL A   1      43.066  31.675  29.476  1.00  0.00     0.049 A 
ATOM     63  H   UNL A   1      42.435  29.794  28.755  1.00  0.00     0.167 HD
ATOM     64  C   UNL A   1      45.018  30.840  28.191  1.00  0.00     0.074 A 
ATOM     65  C   UNL A   1      46.366  30.958  27.674  1.00  0.00     0.031 C 
ATOM     66  C   UNL A   1      44.403  31.790  28.941  1.00  0.00     0.034 A 
BRANCH  53  67
ATOM     67  C   UNL A   1      38.610  30.320  30.623  1.00  0.00     0.023 A 
ATOM     68  C   UNL A   1      37.600  31.023  29.943  1.00  0.00     0.031 A 
ATOM     69  C   UNL A   1      38.406  30.034  31.984  1.00  0.00     0.131 A 
ATOM     70  C   UNL A   1      36.476  31.488  30.642  1.00  0.00     0.055 A 
ATOM     71  C   UNL A   1      37.242  30.421  32.653  1.00  0.00     0.041 A 
ATOM     72  F   UNL A   1      39.343  29.387  32.696  1.00  0.00    -0.206 F 
ATOM     73  C   UNL A   1      36.275  31.166  31.985  1.00  0.00     0.022 A 
BRANCH  70  74
ATOM     74  S   UNL A   1      35.362  32.653  29.809  1.00  0.00     0.124 S 
ATOM     75  O   UNL A   1      34.893  31.856  28.679  1.00  0.00    -0.237 OA
ATOM     76  O   UNL A   1      34.375  32.941  30.843  1.00  0.00    -0.237 OA
ATOM     77  O   UNL A   1      36.239  33.768  29.453  1.00  0.00    -0.744 OA
ENDBRANCH  70  74
ENDBRANCH  53  67
BRANCH  54  78
ATOM     78  C   UNL A   1      46.748  27.299  25.599  1.00  0.00     0.023 A 
ATOM     79  C   UNL A   1      46.968  27.788  24.300  1.00  0.00     0.031 A 
ATOM     80  C   UNL A   1      47.669  26.370  26.116  1.00  0.00     0.131 A 
ATOM     81  C   UNL A   1      48.053  27.312  23.547  1.00  0.00     0.055 A 
ATOM     82  C   UNL A   1      48.780  25.945  25.385  1.00  0.00     0.041 A 
ATOM     83  F   UNL A   1      47.508  25.871  27.352  1.00  0.00    -0.206 F 
ATOM     84  C   UNL A   1      48.969  26.406  24.087  1.00  0.00     0.022 A 
BRANCH  81  85
ATOM     85  S   UNL A   1      48.199  27.826  21.814  1.00  0.00     0.124 S 
ATOM     86  O   UNL A   1      48.278  26.541  21.130  1.00  0.00    -0.237 OA
ATOM     87  O   UNL A   1      46.968  28.584  21.618  1.00  0.00    -0.237 OA
ATOM     88  O   UNL A   1      49.426  28.619  21.798  1.00  0.00    -0.744 OA
ENDBRANCH  81  85
ENDBRANCH  54  78
BRANCH  66  89
ATOM     89  C   UNL A   1      45.204  33.024  29.281  1.00  0.00     0.023 A 
ATOM     90  C   UNL A   1      45.154  34.184  28.488  1.00  0.00     0.031 A 
ATOM     91  C   UNL A   1      46.040  33.037  30.413  1.00  0.00     0.131 A 
ATOM     92  C   UNL A   1      45.970  35.282  28.801  1.00  0.00     0.055 A 
ATOM     93  C   UNL A   1      46.794  34.156  30.760  1.00  0.00     0.041 A 
ATOM     94  F   UNL A   1      46.133  31.956  31.205  1.00  0.00    -0.206 F 
ATOM     95  C   UNL A   1      46.773  35.284  29.944  1.00  0.00     0.022 A 
BRANCH  92  96
ATOM     96  S   UNL A   1      46.047  36.670  27.636  1.00  0.00     0.124 S 
ATOM     97  O   UNL A   1      46.250  37.805  28.530  1.00  0.00    -0.237 OA
ATOM     98  O   UNL A   1      47.184  36.309  26.795  1.00  0.00    -0.237 OA
ATOM     99  O   UNL A   1      44.747  36.630  26.970  1.00  0.00    -0.744 OA
ENDBRANCH  92  96
ENDBRANCH  66  89
ENDBRANCH  40  41
ENDBRANCH  32  35
ENDBRANCH  30  31
ENDBRANCH  29  30
ENDBRANCH   1  29
TORSDOF 18
ENDMDL
