MODEL 1
REMARK VINA RESULT:     -12.7      0.000      0.000
REMARK SMILES CS(=O)(=O)c1cc(F)ccc1N1CCC[C@@H](C(=O)NCCCCNC(=O)c2ccc(-c3c4nc(c(-c5cc(S(=O)(=O)[O-])ccc5F)c5ccc([nH]5)c(-c5cc(S(=O)(=O)[O-])ccc5F)c5nc(c(-c6cc(S(=O)(=O)[O-])ccc6F)c6ccc3[nH]6)C=C5)C=C4)cc2)C1
REMARK SMILES IDX 22 1 21 2 20 3 19 4 17 5 18 6 16 8 12 9 13 10 90 11 14 12
REMARK SMILES IDX 15 13 11 14 5 15 6 16 7 17 10 18 8 19 9 20 2 21 1 22 3 23
REMARK SMILES IDX 4 24 23 25 24 26 25 27 26 29 27 30 28 31 89 32 29 33 88 34
REMARK SMILES IDX 30 35 31 36 32 37 82 38 33 39 87 40 81 41 83 42 34 43 86 44
REMARK SMILES IDX 80 45 79 46 35 48 67 49 47 50 66 51 48 52 51 53 65 54 84 55
REMARK SMILES IDX 49 56 50 57 64 59 85 60 52 61 36 62 37 63 45 64 38 65 44 66
REMARK SMILES IDX 46 67 43 68 39 69 40 70 41 71 42 72 68 73 69 74 77 75 70 76
REMARK SMILES IDX 76 77 78 78 75 79 71 80 72 81 73 82 74 83 53 84 54 85 62 86
REMARK SMILES IDX 55 87 61 88 63 89 60 90 56 91 57 92 58 93 59 94
REMARK H PARENT 19 7 24 28 83 47 51 58
REMARK Flexibility Score: inf
ROOT
ATOM      1  C   UNL A   1      31.751  28.764  26.268  1.00  0.00     0.023 C 
ENDROOT
BRANCH   1   2
ATOM      2  C   UNL A   1      32.266  27.508  26.969  1.00  0.00     0.023 C 
BRANCH   2   3
ATOM      3  C   UNL A   1      32.087  26.207  26.199  1.00  0.00     0.116 C 
BRANCH   3   4
ATOM      4  N   UNL A   1      31.245  25.231  26.875  1.00  0.00    -0.356 N 
ATOM      5  C   UNL A   1      31.123  23.891  26.625  1.00  0.00     0.224 C 
ATOM      6  O   UNL A   1      30.442  23.209  27.390  1.00  0.00    -0.275 OA
ATOM      7  H   UNL A   1      30.691  25.582  27.608  1.00  0.00     0.163 HD
BRANCH   5   8
ATOM      8  C   UNL A   1      31.797  23.303  25.396  1.00  0.00     0.098 C 
ATOM      9  N   UNL A   1      32.595  21.257  24.334  1.00  0.00    -0.370 N 
ATOM     10  C   UNL A   1      32.027  21.580  23.021  1.00  0.00     0.116 C 
ATOM     11  C   UNL A   1      31.831  21.776  25.476  1.00  0.00     0.130 C 
ATOM     12  C   UNL A   1      31.814  23.092  22.880  1.00  0.00     0.022 C 
ATOM     13  C   UNL A   1      31.089  23.697  24.089  1.00  0.00     0.017 C 
BRANCH   9  14
ATOM     14  C   UNL A   1      33.879  20.767  24.493  1.00  0.00     0.056 A 
ATOM     15  C   UNL A   1      34.227  19.395  24.583  1.00  0.00     0.093 A 
ATOM     16  C   UNL A   1      35.561  18.998  24.795  1.00  0.00     0.061 A 
ATOM     17  C   UNL A   1      36.562  19.950  24.893  1.00  0.00     0.124 A 
ATOM     18  C   UNL A   1      34.943  21.692  24.606  1.00  0.00     0.030 A 
ATOM     19  F   UNL A   1      37.829  19.558  25.078  1.00  0.00    -0.207 F 
ATOM     20  C   UNL A   1      36.269  21.295  24.800  1.00  0.00     0.041 A 
BRANCH  15  21
ATOM     21  S   UNL A   1      33.024  18.085  24.388  1.00  0.00     0.177 S 
ATOM     22  C   UNL A   1      33.892  16.548  24.512  1.00  0.00     0.164 C 
ATOM     23  O   UNL A   1      32.503  18.121  23.034  1.00  0.00    -0.224 OA
ATOM     24  O   UNL A   1      32.143  18.177  25.540  1.00  0.00    -0.224 OA
ENDBRANCH  15  21
ENDBRANCH   9  14
ENDBRANCH   5   8
ENDBRANCH   3   4
ENDBRANCH   2   3
ENDBRANCH   1   2
BRANCH   1  25
ATOM     25  C   UNL A   1      32.815  29.778  25.856  1.00  0.00     0.116 C 
BRANCH  25  26
ATOM     26  N   UNL A   1      32.522  31.131  26.305  1.00  0.00    -0.352 N 
ATOM     27  C   UNL A   1      33.200  31.930  27.198  1.00  0.00     0.251 C 
ATOM     28  H   UNL A   1      31.716  31.537  25.911  1.00  0.00     0.163 HD
ATOM     29  O   UNL A   1      32.708  32.993  27.563  1.00  0.00    -0.269 OA
BRANCH  27  30
ATOM     30  C   UNL A   1      34.507  31.491  27.741  1.00  0.00     0.039 A 
ATOM     31  C   UNL A   1      35.533  32.429  27.883  1.00  0.00     0.014 A 
ATOM     32  C   UNL A   1      34.715  30.164  28.127  1.00  0.00     0.014 A 
ATOM     33  C   UNL A   1      36.731  32.056  28.501  1.00  0.00     0.010 A 
ATOM     34  C   UNL A   1      35.876  29.816  28.814  1.00  0.00     0.010 A 
ATOM     35  C   UNL A   1      36.892  30.761  29.021  1.00  0.00    -0.014 A 
BRANCH  35  36
ATOM     36  C   UNL A   1      38.099  30.381  29.804  1.00  0.00     0.031 A 
ATOM     37  C   UNL A   1      39.125  29.450  29.216  1.00  0.00     0.074 A 
ATOM     38  C   UNL A   1      38.241  30.821  31.071  1.00  0.00     0.049 A 
ATOM     39  N   UNL A   1      40.179  28.920  29.780  1.00  0.00    -0.248 NA
ATOM     40  C   UNL A   1      38.925  29.043  27.816  1.00  0.00     0.031 C 
ATOM     41  C   UNL A   1      37.306  31.708  31.768  1.00  0.00     0.029 A 
ATOM     42  N   UNL A   1      39.223  30.584  32.002  1.00  0.00    -0.354 N 
ATOM     43  C   UNL A   1      40.762  28.109  28.811  1.00  0.00     0.074 A 
ATOM     44  C   UNL A   1      39.914  28.179  27.640  1.00  0.00     0.031 C 
ATOM     45  C   UNL A   1      37.778  31.966  32.999  1.00  0.00     0.029 A 
ATOM     46  C   UNL A   1      39.018  31.225  33.201  1.00  0.00     0.049 A 
ATOM     47  H   UNL A   1      40.002  30.008  31.826  1.00  0.00     0.167 HD
ATOM     48  C   UNL A   1      41.908  27.390  28.885  1.00  0.00     0.034 A 
ATOM     49  C   UNL A   1      39.736  31.210  34.343  1.00  0.00     0.034 A 
ATOM     50  C   UNL A   1      42.759  27.344  30.047  1.00  0.00     0.049 A 
ATOM     51  C   UNL A   1      40.988  30.377  34.411  1.00  0.00     0.074 A 
ATOM     52  C   UNL A   1      43.962  26.679  30.204  1.00  0.00     0.029 A 
ATOM     53  N   UNL A   1      42.501  27.988  31.249  1.00  0.00    -0.354 N 
ATOM     54  N   UNL A   1      41.520  29.614  33.486  1.00  0.00    -0.248 NA
ATOM     55  C   UNL A   1      41.734  30.400  35.677  1.00  0.00     0.031 C 
ATOM     56  C   UNL A   1      44.403  26.872  31.516  1.00  0.00     0.029 A 
ATOM     57  C   UNL A   1      43.512  27.716  32.159  1.00  0.00     0.049 A 
ATOM     58  H   UNL A   1      41.717  28.555  31.430  1.00  0.00     0.167 HD
ATOM     59  C   UNL A   1      42.675  29.083  34.052  1.00  0.00     0.074 A 
ATOM     60  C   UNL A   1      42.767  29.615  35.395  1.00  0.00     0.031 C 
ATOM     61  C   UNL A   1      43.584  28.239  33.501  1.00  0.00     0.034 A 
BRANCH  48  62
ATOM     62  C   UNL A   1      42.306  26.584  27.676  1.00  0.00     0.023 A 
ATOM     63  C   UNL A   1      41.948  25.232  27.545  1.00  0.00     0.031 A 
ATOM     64  C   UNL A   1      43.030  27.183  26.630  1.00  0.00     0.131 A 
ATOM     65  C   UNL A   1      42.352  24.509  26.414  1.00  0.00     0.055 A 
ATOM     66  C   UNL A   1      43.373  26.476  25.477  1.00  0.00     0.041 A 
ATOM     67  F   UNL A   1      43.412  28.467  26.712  1.00  0.00    -0.206 F 
ATOM     68  C   UNL A   1      43.040  25.129  25.367  1.00  0.00     0.022 A 
BRANCH  65  69
ATOM     69  S   UNL A   1      42.030  22.726  26.359  1.00  0.00     0.124 S 
ATOM     70  O   UNL A   1      40.570  22.690  26.415  1.00  0.00    -0.237 OA
ATOM     71  O   UNL A   1      42.630  22.333  25.089  1.00  0.00    -0.237 OA
ATOM     72  O   UNL A   1      42.707  22.219  27.551  1.00  0.00    -0.744 OA
ENDBRANCH  65  69
ENDBRANCH  48  62
BRANCH  49  73
ATOM     73  C   UNL A   1      39.284  32.005  35.517  1.00  0.00     0.023 A 
ATOM     74  C   UNL A   1      38.519  31.414  36.536  1.00  0.00     0.031 A 
ATOM     75  C   UNL A   1      39.612  33.367  35.641  1.00  0.00     0.131 A 
ATOM     76  C   UNL A   1      38.091  32.188  37.625  1.00  0.00     0.055 A 
ATOM     77  C   UNL A   1      39.216  34.123  36.744  1.00  0.00     0.041 A 
ATOM     78  F   UNL A   1      40.349  33.974  34.697  1.00  0.00    -0.206 F 
ATOM     79  C   UNL A   1      38.445  33.534  37.743  1.00  0.00     0.022 A 
BRANCH  76  80
ATOM     80  S   UNL A   1      37.038  31.414  38.884  1.00  0.00     0.124 S 
ATOM     81  O   UNL A   1      36.873  30.068  38.345  1.00  0.00    -0.237 OA
ATOM     82  O   UNL A   1      37.859  31.530  40.084  1.00  0.00    -0.237 OA
ATOM     83  O   UNL A   1      35.835  32.244  38.876  1.00  0.00    -0.744 OA
ENDBRANCH  76  80
ENDBRANCH  49  73
BRANCH  61  84
ATOM     84  C   UNL A   1      44.778  27.861  34.337  1.00  0.00     0.023 A 
ATOM     85  C   UNL A   1      44.796  26.686  35.107  1.00  0.00     0.031 A 
ATOM     86  C   UNL A   1      45.931  28.666  34.322  1.00  0.00     0.131 A 
ATOM     87  C   UNL A   1      45.938  26.363  35.855  1.00  0.00     0.055 A 
ATOM     88  C   UNL A   1      47.080  28.316  35.031  1.00  0.00     0.041 A 
ATOM     89  F   UNL A   1      45.963  29.799  33.600  1.00  0.00    -0.206 F 
ATOM     90  C   UNL A   1      47.085  27.161  35.807  1.00  0.00     0.022 A 
BRANCH  87  91
ATOM     91  S   UNL A   1      45.897  24.897  36.921  1.00  0.00     0.124 S 
ATOM     92  O   UNL A   1      45.161  23.944  36.097  1.00  0.00    -0.237 OA
ATOM     93  O   UNL A   1      47.315  24.609  37.117  1.00  0.00    -0.237 OA
ATOM     94  O   UNL A   1      45.191  25.360  38.115  1.00  0.00    -0.744 OA
ENDBRANCH  87  91
ENDBRANCH  61  84
ENDBRANCH  35  36
ENDBRANCH  27  30
ENDBRANCH  25  26
ENDBRANCH   1  25
TORSDOF 16
ENDMDL
MODEL 2
REMARK VINA RESULT:     -12.5      0.370      7.433
REMARK SMILES CS(=O)(=O)c1cc(F)ccc1N1CCC[C@@H](C(=O)NCCCCNC(=O)c2ccc(-c3c4nc(c(-c5cc(S(=O)(=O)[O-])ccc5F)c5ccc([nH]5)c(-c5cc(S(=O)(=O)[O-])ccc5F)c5nc(c(-c6cc(S(=O)(=O)[O-])ccc6F)c6ccc3[nH]6)C=C5)C=C4)cc2)C1
REMARK SMILES IDX 22 1 21 2 20 3 19 4 17 5 18 6 16 8 12 9 13 10 90 11 14 12
REMARK SMILES IDX 15 13 11 14 5 15 6 16 7 17 10 18 8 19 9 20 2 21 1 22 3 23
REMARK SMILES IDX 4 24 23 25 24 26 25 27 26 29 27 30 28 31 89 32 29 33 88 34
REMARK SMILES IDX 30 35 31 36 32 37 82 38 33 39 87 40 81 41 83 42 34 43 86 44
REMARK SMILES IDX 80 45 79 46 35 48 67 49 47 50 66 51 48 52 51 53 65 54 84 55
REMARK SMILES IDX 49 56 50 57 64 59 85 60 52 61 36 62 37 63 45 64 38 65 44 66
REMARK SMILES IDX 46 67 43 68 39 69 40 70 41 71 42 72 68 73 69 74 77 75 70 76
REMARK SMILES IDX 76 77 78 78 75 79 71 80 72 81 73 82 74 83 53 84 54 85 62 86
REMARK SMILES IDX 55 87 61 88 63 89 60 90 56 91 57 92 58 93 59 94
REMARK H PARENT 19 7 24 28 83 47 51 58
REMARK Flexibility Score: inf
ROOT
ATOM      1  C   UNL A   1      31.772  28.827  26.547  1.00  0.00     0.023 C 
ENDROOT
BRANCH   1   2
ATOM      2  C   UNL A   1      31.494  27.533  25.783  1.00  0.00     0.023 C 
BRANCH   2   3
ATOM      3  C   UNL A   1      32.130  26.278  26.366  1.00  0.00     0.116 C 
BRANCH   3   4
ATOM      4  N   UNL A   1      31.172  25.329  26.913  1.00  0.00    -0.356 N 
ATOM      5  C   UNL A   1      30.975  24.020  26.567  1.00  0.00     0.224 C 
ATOM      6  O   UNL A   1      30.190  23.346  27.233  1.00  0.00    -0.275 OA
ATOM      7  H   UNL A   1      30.588  25.676  27.625  1.00  0.00     0.163 HD
BRANCH   5   8
ATOM      8  C   UNL A   1      31.699  23.458  25.353  1.00  0.00     0.098 C 
ATOM      9  N   UNL A   1      32.648  21.454  24.337  1.00  0.00    -0.370 N 
ATOM     10  C   UNL A   1      32.070  21.712  23.014  1.00  0.00     0.116 C 
ATOM     11  C   UNL A   1      31.839  21.939  25.464  1.00  0.00     0.130 C 
ATOM     12  C   UNL A   1      31.752  23.202  22.842  1.00  0.00     0.022 C 
ATOM     13  C   UNL A   1      30.976  23.777  24.035  1.00  0.00     0.017 C 
BRANCH   9  14
ATOM     14  C   UNL A   1      33.962  21.059  24.515  1.00  0.00     0.056 A 
ATOM     15  C   UNL A   1      34.399  19.721  24.685  1.00  0.00     0.093 A 
ATOM     16  C   UNL A   1      35.757  19.425  24.910  1.00  0.00     0.061 A 
ATOM     17  C   UNL A   1      36.695  20.444  24.941  1.00  0.00     0.124 A 
ATOM     18  C   UNL A   1      34.964  22.056  24.562  1.00  0.00     0.030 A 
ATOM     19  F   UNL A   1      37.985  20.147  25.138  1.00  0.00    -0.207 F 
ATOM     20  C   UNL A   1      36.314  21.759  24.768  1.00  0.00     0.041 A 
BRANCH  15  21
ATOM     21  S   UNL A   1      33.283  18.326  24.582  1.00  0.00     0.177 S 
ATOM     22  C   UNL A   1      34.267  16.857  24.646  1.00  0.00     0.164 C 
ATOM     23  O   UNL A   1      32.664  18.314  23.270  1.00  0.00    -0.224 OA
ATOM     24  O   UNL A   1      32.484  18.363  25.795  1.00  0.00    -0.224 OA
ENDBRANCH  15  21
ENDBRANCH   9  14
ENDBRANCH   5   8
ENDBRANCH   3   4
ENDBRANCH   2   3
ENDBRANCH   1   2
BRANCH   1  25
ATOM     25  C   UNL A   1      32.648  29.848  25.826  1.00  0.00     0.116 C 
BRANCH  25  26
ATOM     26  N   UNL A   1      32.447  31.210  26.297  1.00  0.00    -0.352 N 
ATOM     27  C   UNL A   1      33.184  31.950  27.194  1.00  0.00     0.251 C 
ATOM     28  H   UNL A   1      31.665  31.673  25.917  1.00  0.00     0.163 HD
ATOM     29  O   UNL A   1      32.764  33.037  27.580  1.00  0.00    -0.269 OA
BRANCH  27  30
ATOM     30  C   UNL A   1      34.465  31.420  27.717  1.00  0.00     0.039 A 
ATOM     31  C   UNL A   1      35.534  32.298  27.914  1.00  0.00     0.014 A 
ATOM     32  C   UNL A   1      34.607  30.066  28.030  1.00  0.00     0.014 A 
ATOM     33  C   UNL A   1      36.709  31.835  28.515  1.00  0.00     0.010 A 
ATOM     34  C   UNL A   1      35.746  29.625  28.701  1.00  0.00     0.010 A 
ATOM     35  C   UNL A   1      36.805  30.507  28.964  1.00  0.00    -0.014 A 
BRANCH  35  36
ATOM     36  C   UNL A   1      37.987  30.029  29.730  1.00  0.00     0.031 A 
ATOM     37  C   UNL A   1      38.240  30.528  31.126  1.00  0.00     0.074 A 
ATOM     38  C   UNL A   1      38.871  29.195  29.144  1.00  0.00     0.049 A 
ATOM     39  N   UNL A   1      39.268  30.314  31.906  1.00  0.00    -0.248 NA
ATOM     40  C   UNL A   1      37.214  31.403  31.714  1.00  0.00     0.031 C 
ATOM     41  C   UNL A   1      38.756  28.658  27.786  1.00  0.00     0.029 A 
ATOM     42  N   UNL A   1      40.043  28.653  29.612  1.00  0.00    -0.354 N 
ATOM     43  C   UNL A   1      39.020  31.034  33.070  1.00  0.00     0.074 A 
ATOM     44  C   UNL A   1      37.767  31.731  32.873  1.00  0.00     0.031 C 
ATOM     45  C   UNL A   1      39.792  27.838  27.547  1.00  0.00     0.029 A 
ATOM     46  C   UNL A   1      40.675  27.830  28.709  1.00  0.00     0.049 A 
ATOM     47  H   UNL A   1      40.399  28.836  30.512  1.00  0.00     0.167 HD
ATOM     48  C   UNL A   1      39.758  31.091  34.205  1.00  0.00     0.034 A 
ATOM     49  C   UNL A   1      41.839  27.155  28.795  1.00  0.00     0.034 A 
ATOM     50  C   UNL A   1      40.992  30.375  34.403  1.00  0.00     0.049 A 
ATOM     51  C   UNL A   1      42.657  27.261  30.055  1.00  0.00     0.074 A 
ATOM     52  C   UNL A   1      41.791  30.336  35.533  1.00  0.00     0.029 A 
ATOM     53  N   UNL A   1      41.609  29.573  33.453  1.00  0.00    -0.354 N 
ATOM     54  N   UNL A   1      42.407  27.951  31.142  1.00  0.00    -0.248 NA
ATOM     55  C   UNL A   1      43.915  26.502  30.096  1.00  0.00     0.031 C 
ATOM     56  C   UNL A   1      42.916  29.558  35.249  1.00  0.00     0.029 A 
ATOM     57  C   UNL A   1      42.788  29.054  33.965  1.00  0.00     0.049 A 
ATOM     58  H   UNL A   1      41.261  29.397  32.549  1.00  0.00     0.167 HD
ATOM     59  C   UNL A   1      43.466  27.691  32.007  1.00  0.00     0.074 A 
ATOM     60  C   UNL A   1      44.355  26.779  31.318  1.00  0.00     0.031 C 
ATOM     61  C   UNL A   1      43.675  28.158  33.263  1.00  0.00     0.034 A 
BRANCH  48  62
ATOM     62  C   UNL A   1      39.253  31.967  35.323  1.00  0.00     0.023 A 
ATOM     63  C   UNL A   1      38.604  31.424  36.444  1.00  0.00     0.031 A 
ATOM     64  C   UNL A   1      39.448  33.358  35.278  1.00  0.00     0.131 A 
ATOM     65  C   UNL A   1      38.133  32.272  37.457  1.00  0.00     0.055 A 
ATOM     66  C   UNL A   1      39.035  34.190  36.320  1.00  0.00     0.041 A 
ATOM     67  F   UNL A   1      40.047  33.930  34.223  1.00  0.00    -0.206 F 
ATOM     68  C   UNL A   1      38.366  33.649  37.414  1.00  0.00     0.022 A 
BRANCH  65  69
ATOM     69  S   UNL A   1      37.143  31.560  38.798  1.00  0.00     0.124 S 
ATOM     70  O   UNL A   1      35.967  32.426  38.786  1.00  0.00    -0.237 OA
ATOM     71  O   UNL A   1      36.931  30.190  38.345  1.00  0.00    -0.237 OA
ATOM     72  O   UNL A   1      38.003  31.701  39.971  1.00  0.00    -0.744 OA
ENDBRANCH  65  69
ENDBRANCH  48  62
BRANCH  49  73
ATOM     73  C   UNL A   1      42.304  26.324  27.651  1.00  0.00     0.023 A 
ATOM     74  C   UNL A   1      41.945  24.970  27.551  1.00  0.00     0.031 A 
ATOM     75  C   UNL A   1      43.111  26.872  26.638  1.00  0.00     0.131 A 
ATOM     76  C   UNL A   1      42.409  24.203  26.472  1.00  0.00     0.055 A 
ATOM     77  C   UNL A   1      43.538  26.115  25.547  1.00  0.00     0.041 A 
ATOM     78  F   UNL A   1      43.472  28.164  26.684  1.00  0.00    -0.206 F 
ATOM     79  C   UNL A   1      43.192  24.769  25.462  1.00  0.00     0.022 A 
BRANCH  76  80
ATOM     80  S   UNL A   1      41.994  22.438  26.415  1.00  0.00     0.124 S 
ATOM     81  O   UNL A   1      42.679  22.011  25.200  1.00  0.00    -0.237 OA
ATOM     82  O   UNL A   1      42.550  21.951  27.672  1.00  0.00    -0.237 OA
ATOM     83  O   UNL A   1      40.533  22.436  26.343  1.00  0.00    -0.744 OA
ENDBRANCH  76  80
ENDBRANCH  49  73
BRANCH  61  84
ATOM     84  C   UNL A   1      44.897  27.668  33.993  1.00  0.00     0.023 A 
ATOM     85  C   UNL A   1      44.879  26.484  34.749  1.00  0.00     0.031 A 
ATOM     86  C   UNL A   1      46.109  28.375  33.891  1.00  0.00     0.131 A 
ATOM     87  C   UNL A   1      46.046  26.054  35.397  1.00  0.00     0.055 A 
ATOM     88  C   UNL A   1      47.278  27.918  34.500  1.00  0.00     0.041 A 
ATOM     89  F   UNL A   1      46.178  29.512  33.179  1.00  0.00    -0.206 F 
ATOM     90  C   UNL A   1      47.249  26.754  35.262  1.00  0.00     0.022 A 
BRANCH  87  91
ATOM     91  S   UNL A   1      45.969  24.580  36.450  1.00  0.00     0.124 S 
ATOM     92  O   UNL A   1      45.173  25.055  37.577  1.00  0.00    -0.237 OA
ATOM     93  O   UNL A   1      45.322  23.603  35.580  1.00  0.00    -0.237 OA
ATOM     94  O   UNL A   1      47.371  24.302  36.754  1.00  0.00    -0.744 OA
ENDBRANCH  87  91
ENDBRANCH  61  84
ENDBRANCH  35  36
ENDBRANCH  27  30
ENDBRANCH  25  26
ENDBRANCH   1  25
TORSDOF 16
ENDMDL
MODEL 3
REMARK VINA RESULT:     -12.5      5.322      8.330
REMARK SMILES CS(=O)(=O)c1cc(F)ccc1N1CCC[C@@H](C(=O)NCCCCNC(=O)c2ccc(-c3c4nc(c(-c5cc(S(=O)(=O)[O-])ccc5F)c5ccc([nH]5)c(-c5cc(S(=O)(=O)[O-])ccc5F)c5nc(c(-c6cc(S(=O)(=O)[O-])ccc6F)c6ccc3[nH]6)C=C5)C=C4)cc2)C1
REMARK SMILES IDX 22 1 21 2 20 3 19 4 17 5 18 6 16 8 12 9 13 10 90 11 14 12
REMARK SMILES IDX 15 13 11 14 5 15 6 16 7 17 10 18 8 19 9 20 2 21 1 22 3 23
REMARK SMILES IDX 4 24 23 25 24 26 25 27 26 29 27 30 28 31 89 32 29 33 88 34
REMARK SMILES IDX 30 35 31 36 32 37 82 38 33 39 87 40 81 41 83 42 34 43 86 44
REMARK SMILES IDX 80 45 79 46 35 48 67 49 47 50 66 51 48 52 51 53 65 54 84 55
REMARK SMILES IDX 49 56 50 57 64 59 85 60 52 61 36 62 37 63 45 64 38 65 44 66
REMARK SMILES IDX 46 67 43 68 39 69 40 70 41 71 42 72 68 73 69 74 77 75 70 76
REMARK SMILES IDX 76 77 78 78 75 79 71 80 72 81 73 82 74 83 53 84 54 85 62 86
REMARK SMILES IDX 55 87 61 88 63 89 60 90 56 91 57 92 58 93 59 94
REMARK H PARENT 19 7 24 28 83 47 51 58
REMARK Flexibility Score: inf
ROOT
ATOM      1  C   UNL A   1      36.151  21.193  25.416  1.00  0.00     0.023 C 
ENDROOT
BRANCH   1   2
ATOM      2  C   UNL A   1      35.567  22.533  25.861  1.00  0.00     0.023 C 
BRANCH   2   3
ATOM      3  C   UNL A   1      35.806  23.701  24.912  1.00  0.00     0.116 C 
BRANCH   3   4
ATOM      4  N   UNL A   1      35.203  23.527  23.599  1.00  0.00    -0.356 N 
ATOM      5  C   UNL A   1      33.963  23.916  23.171  1.00  0.00     0.224 C 
ATOM      6  O   UNL A   1      33.682  23.783  21.980  1.00  0.00    -0.275 OA
ATOM      7  H   UNL A   1      35.762  23.069  22.931  1.00  0.00     0.163 HD
BRANCH   5   8
ATOM      8  C   UNL A   1      32.968  24.461  24.184  1.00  0.00     0.098 C 
ATOM      9  N   UNL A   1      31.203  26.098  24.579  1.00  0.00    -0.370 N 
ATOM     10  C   UNL A   1      30.307  25.143  25.239  1.00  0.00     0.116 C 
ATOM     11  C   UNL A   1      32.063  25.512  23.541  1.00  0.00     0.130 C 
ATOM     12  C   UNL A   1      31.099  23.958  25.805  1.00  0.00     0.022 C 
ATOM     13  C   UNL A   1      32.073  23.362  24.781  1.00  0.00     0.017 C 
BRANCH   9  14
ATOM     14  C   UNL A   1      31.439  27.367  25.075  1.00  0.00     0.056 A 
ATOM     15  C   UNL A   1      30.939  28.570  24.516  1.00  0.00     0.093 A 
ATOM     16  C   UNL A   1      31.277  29.821  25.067  1.00  0.00     0.061 A 
ATOM     17  C   UNL A   1      32.088  29.890  26.187  1.00  0.00     0.124 A 
ATOM     18  C   UNL A   1      32.265  27.501  26.215  1.00  0.00     0.030 A 
ATOM     19  F   UNL A   1      32.389  31.085  26.712  1.00  0.00    -0.207 F 
ATOM     20  C   UNL A   1      32.587  28.742  26.770  1.00  0.00     0.041 A 
BRANCH  15  21
ATOM     21  S   UNL A   1      29.820  28.588  23.120  1.00  0.00     0.177 S 
ATOM     22  C   UNL A   1      29.142  30.219  23.007  1.00  0.00     0.164 C 
ATOM     23  O   UNL A   1      28.691  27.724  23.410  1.00  0.00    -0.224 OA
ATOM     24  O   UNL A   1      30.647  28.383  21.942  1.00  0.00    -0.224 OA
ENDBRANCH  15  21
ENDBRANCH   9  14
ENDBRANCH   5   8
ENDBRANCH   3   4
ENDBRANCH   2   3
ENDBRANCH   1   2
BRANCH   1  25
ATOM     25  C   UNL A   1      37.554  21.247  24.819  1.00  0.00     0.116 C 
BRANCH  25  26
ATOM     26  N   UNL A   1      38.463  20.271  25.401  1.00  0.00    -0.352 N 
ATOM     27  C   UNL A   1      39.602  20.463  26.149  1.00  0.00     0.251 C 
ATOM     28  H   UNL A   1      38.229  19.329  25.232  1.00  0.00     0.163 HD
ATOM     29  O   UNL A   1      40.322  19.507  26.422  1.00  0.00    -0.269 OA
BRANCH  27  30
ATOM     30  C   UNL A   1      39.975  21.825  26.596  1.00  0.00     0.039 A 
ATOM     31  C   UNL A   1      41.027  21.978  27.504  1.00  0.00     0.014 A 
ATOM     32  C   UNL A   1      39.302  22.949  26.111  1.00  0.00     0.014 A 
ATOM     33  C   UNL A   1      41.465  23.262  27.845  1.00  0.00     0.010 A 
ATOM     34  C   UNL A   1      39.791  24.224  26.389  1.00  0.00     0.010 A 
ATOM     35  C   UNL A   1      40.887  24.395  27.248  1.00  0.00    -0.014 A 
BRANCH  35  36
ATOM     36  C   UNL A   1      41.426  25.761  27.488  1.00  0.00     0.031 A 
ATOM     37  C   UNL A   1      42.786  26.142  26.969  1.00  0.00     0.074 A 
ATOM     38  C   UNL A   1      40.720  26.639  28.231  1.00  0.00     0.049 A 
ATOM     39  N   UNL A   1      43.469  27.240  27.170  1.00  0.00    -0.248 NA
ATOM     40  C   UNL A   1      43.480  25.149  26.134  1.00  0.00     0.031 C 
ATOM     41  C   UNL A   1      39.401  26.384  28.814  1.00  0.00     0.029 A 
ATOM     42  N   UNL A   1      41.012  27.921  28.626  1.00  0.00    -0.354 N 
ATOM     43  C   UNL A   1      44.674  27.067  26.498  1.00  0.00     0.074 A 
ATOM     44  C   UNL A   1      44.649  25.737  25.927  1.00  0.00     0.031 C 
ATOM     45  C   UNL A   1      38.984  27.486  29.458  1.00  0.00     0.029 A 
ATOM     46  C   UNL A   1      40.024  28.507  29.383  1.00  0.00     0.049 A 
ATOM     47  H   UNL A   1      41.850  28.380  28.388  1.00  0.00     0.167 HD
ATOM     48  C   UNL A   1      45.698  27.943  26.355  1.00  0.00     0.034 A 
ATOM     49  C   UNL A   1      39.963  29.722  29.966  1.00  0.00     0.034 A 
ATOM     50  C   UNL A   1      45.706  29.273  26.907  1.00  0.00     0.049 A 
ATOM     51  C   UNL A   1      41.128  30.665  29.819  1.00  0.00     0.074 A 
ATOM     52  C   UNL A   1      46.679  30.250  26.781  1.00  0.00     0.029 A 
ATOM     53  N   UNL A   1      44.697  29.817  27.689  1.00  0.00    -0.354 N 
ATOM     54  N   UNL A   1      42.261  30.481  29.184  1.00  0.00    -0.248 NA
ATOM     55  C   UNL A   1      41.007  31.976  30.471  1.00  0.00     0.031 C 
ATOM     56  C   UNL A   1      46.286  31.361  27.531  1.00  0.00     0.029 A 
ATOM     57  C   UNL A   1      45.035  31.107  28.070  1.00  0.00     0.049 A 
ATOM     58  H   UNL A   1      43.863  29.356  27.937  1.00  0.00     0.167 HD
ATOM     59  C   UNL A   1      42.979  31.662  29.341  1.00  0.00     0.074 A 
ATOM     60  C   UNL A   1      42.151  32.554  30.127  1.00  0.00     0.031 C 
ATOM     61  C   UNL A   1      44.209  31.981  28.867  1.00  0.00     0.034 A 
BRANCH  48  62
ATOM     62  C   UNL A   1      46.903  27.487  25.574  1.00  0.00     0.023 A 
ATOM     63  C   UNL A   1      47.086  27.849  24.229  1.00  0.00     0.031 A 
ATOM     64  C   UNL A   1      47.894  26.703  26.191  1.00  0.00     0.131 A 
ATOM     65  C   UNL A   1      48.212  27.391  23.530  1.00  0.00     0.055 A 
ATOM     66  C   UNL A   1      49.045  26.304  25.508  1.00  0.00     0.041 A 
ATOM     67  F   UNL A   1      47.761  26.315  27.468  1.00  0.00    -0.206 F 
ATOM     68  C   UNL A   1      49.205  26.642  24.167  1.00  0.00     0.022 A 
BRANCH  65  69
ATOM     69  S   UNL A   1      48.327  27.724  21.752  1.00  0.00     0.124 S 
ATOM     70  O   UNL A   1      47.060  28.406  21.499  1.00  0.00    -0.237 OA
ATOM     71  O   UNL A   1      49.526  28.550  21.660  1.00  0.00    -0.237 OA
ATOM     72  O   UNL A   1      48.441  26.393  21.160  1.00  0.00    -0.744 OA
ENDBRANCH  65  69
ENDBRANCH  48  62
BRANCH  49  73
ATOM     73  C   UNL A   1      38.759  30.113  30.748  1.00  0.00     0.023 A 
ATOM     74  C   UNL A   1      37.748  30.897  30.170  1.00  0.00     0.031 A 
ATOM     75  C   UNL A   1      38.598  29.705  32.084  1.00  0.00     0.131 A 
ATOM     76  C   UNL A   1      36.629  31.267  30.933  1.00  0.00     0.055 A 
ATOM     77  C   UNL A   1      37.466  30.042  32.826  1.00  0.00     0.041 A 
ATOM     78  F   UNL A   1      39.533  28.946  32.678  1.00  0.00    -0.206 F 
ATOM     79  C   UNL A   1      36.475  30.833  32.252  1.00  0.00     0.022 A 
BRANCH  76  80
ATOM     80  S   UNL A   1      35.380  32.346  30.181  1.00  0.00     0.124 S 
ATOM     81  O   UNL A   1      34.412  32.478  31.264  1.00  0.00    -0.237 OA
ATOM     82  O   UNL A   1      36.157  33.540  29.865  1.00  0.00    -0.237 OA
ATOM     83  O   UNL A   1      34.923  31.581  29.022  1.00  0.00    -0.744 OA
ENDBRANCH  76  80
ENDBRANCH  49  73
BRANCH  61  84
ATOM     84  C   UNL A   1      44.728  33.365  29.153  1.00  0.00     0.023 A 
ATOM     85  C   UNL A   1      44.438  34.450  28.309  1.00  0.00     0.031 A 
ATOM     86  C   UNL A   1      45.484  33.607  30.314  1.00  0.00     0.131 A 
ATOM     87  C   UNL A   1      44.926  35.726  28.625  1.00  0.00     0.055 A 
ATOM     88  C   UNL A   1      45.928  34.887  30.647  1.00  0.00     0.041 A 
ATOM     89  F   UNL A   1      45.787  32.602  31.153  1.00  0.00    -0.206 F 
ATOM     90  C   UNL A   1      45.654  35.954  29.798  1.00  0.00     0.022 A 
BRANCH  87  91
ATOM     91  S   UNL A   1      44.626  37.088  27.466  1.00  0.00     0.124 S 
ATOM     92  O   UNL A   1      44.501  38.230  28.367  1.00  0.00    -0.237 OA
ATOM     93  O   UNL A   1      45.824  37.063  26.632  1.00  0.00    -0.237 OA
ATOM     94  O   UNL A   1      43.393  36.696  26.787  1.00  0.00    -0.744 OA
ENDBRANCH  87  91
ENDBRANCH  61  84
ENDBRANCH  35  36
ENDBRANCH  27  30
ENDBRANCH  25  26
ENDBRANCH   1  25
TORSDOF 16
ENDMDL
