MODEL 1
REMARK VINA RESULT:     -11.2      0.000      0.000
REMARK SMILES C[C@H]1CC[C@](C#N)([C@H](O)C(=O)NCCCCNC(=O)c2ccc(-c3c4nc(c(-c5cc(S(=O)(=O)[O-])ccc5F)c5ccc([nH]5)c(-c5cc(S(=O)(=O)[O-])ccc5F)c5nc(c(-c6cc(S(=O)(=O)[O-])ccc6F)c6ccc3[nH]6)C=C5)C=C4)cc2)C1
REMARK SMILES IDX 15 1 14 2 13 3 12 4 10 5 11 6 8 8 5 9 1 10 2 11 3 12 83 13
REMARK SMILES IDX 4 14 6 15 7 16 9 17 16 19 17 20 18 21 19 23 20 24 21 25
REMARK SMILES IDX 82 26 22 27 81 28 23 29 24 30 25 31 75 32 26 33 80 34 74 35
REMARK SMILES IDX 76 36 27 37 79 38 73 39 72 40 28 42 60 43 40 44 59 45 41 46
REMARK SMILES IDX 44 47 58 48 77 49 42 50 43 51 57 53 78 54 45 55 29 56 30 57
REMARK SMILES IDX 38 58 31 59 37 60 39 61 36 62 32 63 33 64 34 65 35 66 61 67
REMARK SMILES IDX 62 68 70 69 63 70 69 71 71 72 68 73 64 74 65 75 66 76 67 77
REMARK SMILES IDX 46 78 47 79 55 80 48 81 54 82 56 83 53 84 49 85 50 86 51 87
REMARK SMILES IDX 52 88
REMARK H PARENT 12 7 9 18 17 22 76 41 44 52
REMARK Flexibility Score: inf
ROOT
ATOM      1  C   UNL A   1      35.738  21.983  24.272  1.00  0.00     0.023 C 
ENDROOT
BRANCH   1   2
ATOM      2  C   UNL A   1      34.246  21.678  24.290  1.00  0.00     0.023 C 
BRANCH   2   3
ATOM      3  C   UNL A   1      33.345  22.876  24.545  1.00  0.00     0.116 C 
BRANCH   3   4
ATOM      4  N   UNL A   1      32.830  22.948  25.891  1.00  0.00    -0.354 N 
ATOM      5  C   UNL A   1      31.867  23.778  26.379  1.00  0.00     0.250 C 
ATOM      6  O   UNL A   1      31.516  23.629  27.553  1.00  0.00    -0.272 OA
ATOM      7  H   UNL A   1      33.225  22.319  26.537  1.00  0.00     0.163 HD
BRANCH   5   8
ATOM      8  C   UNL A   1      31.200  24.865  25.501  1.00  0.00     0.223 C 
BRANCH   8   9
ATOM      9  C   UNL A   1      31.860  26.280  25.521  1.00  0.00     0.092 C 
ATOM     10  C   UNL A   1      33.959  28.757  25.654  1.00  0.00     0.008 C 
ATOM     11  C   UNL A   1      33.530  27.694  26.659  1.00  0.00    -0.013 C 
ATOM     12  C   UNL A   1      32.175  28.000  27.282  1.00  0.00     0.005 C 
ATOM     13  C   UNL A   1      33.320  26.307  26.037  1.00  0.00     0.029 C 
ATOM     14  C   UNL A   1      31.135  27.382  26.345  1.00  0.00     0.026 C 
BRANCH   9  15
ATOM     15  C   UNL A   1      31.849  26.726  24.095  1.00  0.00     0.072 C 
ATOM     16  N   UNL A   1      31.852  27.063  22.987  1.00  0.00    -0.198 NA
ENDBRANCH   9  15
ENDBRANCH   8   9
BRANCH   8  17
ATOM     17  O   UNL A   1      29.786  24.957  25.677  1.00  0.00    -0.382 OA
ATOM     18  H   UNL A   1      29.487  24.247  26.266  1.00  0.00     0.211 HD
ENDBRANCH   8  17
ENDBRANCH   5   8
ENDBRANCH   3   4
ENDBRANCH   2   3
ENDBRANCH   1   2
BRANCH   1  19
ATOM     19  C   UNL A   1      36.435  21.883  25.624  1.00  0.00     0.116 C 
BRANCH  19  20
ATOM     20  N   UNL A   1      37.496  20.886  25.645  1.00  0.00    -0.352 N 
ATOM     21  C   UNL A   1      38.831  21.043  25.942  1.00  0.00     0.251 C 
ATOM     22  H   UNL A   1      37.220  19.969  25.415  1.00  0.00     0.163 HD
ATOM     23  O   UNL A   1      39.615  20.119  25.744  1.00  0.00    -0.269 OA
BRANCH  21  24
ATOM     24  C   UNL A   1      39.314  22.340  26.464  1.00  0.00     0.039 A 
ATOM     25  C   UNL A   1      40.435  22.365  27.294  1.00  0.00     0.014 A 
ATOM     26  C   UNL A   1      38.688  23.532  26.092  1.00  0.00     0.014 A 
ATOM     27  C   UNL A   1      40.980  23.592  27.679  1.00  0.00     0.010 A 
ATOM     28  C   UNL A   1      39.290  24.750  26.392  1.00  0.00     0.010 A 
ATOM     29  C   UNL A   1      40.444  24.795  27.189  1.00  0.00    -0.014 A 
BRANCH  29  30
ATOM     30  C   UNL A   1      41.078  26.106  27.496  1.00  0.00     0.031 A 
ATOM     31  C   UNL A   1      42.460  26.415  26.982  1.00  0.00     0.074 A 
ATOM     32  C   UNL A   1      40.432  26.996  28.279  1.00  0.00     0.049 A 
ATOM     33  N   UNL A   1      43.198  27.475  27.185  1.00  0.00    -0.248 NA
ATOM     34  C   UNL A   1      43.107  25.388  26.149  1.00  0.00     0.031 C 
ATOM     35  C   UNL A   1      39.102  26.800  28.864  1.00  0.00     0.029 A 
ATOM     36  N   UNL A   1      40.802  28.244  28.721  1.00  0.00    -0.354 N 
ATOM     37  C   UNL A   1      44.397  27.238  26.521  1.00  0.00     0.074 A 
ATOM     38  C   UNL A   1      44.308  25.910  25.953  1.00  0.00     0.031 C 
ATOM     39  C   UNL A   1      38.753  27.901  29.548  1.00  0.00     0.029 A 
ATOM     40  C   UNL A   1      39.854  28.857  29.511  1.00  0.00     0.049 A 
ATOM     41  H   UNL A   1      41.664  28.660  28.495  1.00  0.00     0.167 HD
ATOM     42  C   UNL A   1      45.465  28.060  26.382  1.00  0.00     0.034 A 
ATOM     43  C   UNL A   1      39.876  30.048  30.146  1.00  0.00     0.034 A 
ATOM     44  C   UNL A   1      45.533  29.387  26.940  1.00  0.00     0.049 A 
ATOM     45  C   UNL A   1      41.104  30.918  30.014  1.00  0.00     0.074 A 
ATOM     46  C   UNL A   1      46.542  30.324  26.800  1.00  0.00     0.029 A 
ATOM     47  N   UNL A   1      44.567  29.962  27.755  1.00  0.00    -0.354 N 
ATOM     48  N   UNL A   1      42.202  30.701  29.325  1.00  0.00    -0.248 NA
ATOM     49  C   UNL A   1      41.093  32.198  30.736  1.00  0.00     0.031 C 
ATOM     50  C   UNL A   1      46.235  31.422  27.608  1.00  0.00     0.029 A 
ATOM     51  C   UNL A   1      44.983  31.220  28.166  1.00  0.00     0.049 A 
ATOM     52  H   UNL A   1      43.714  29.540  28.005  1.00  0.00     0.167 HD
ATOM     53  C   UNL A   1      42.987  31.839  29.498  1.00  0.00     0.074 A 
ATOM     54  C   UNL A   1      42.231  32.743  30.337  1.00  0.00     0.031 C 
ATOM     55  C   UNL A   1      44.221  32.115  29.003  1.00  0.00     0.034 A 
BRANCH  42  56
ATOM     56  C   UNL A   1      46.666  27.542  25.629  1.00  0.00     0.023 A 
ATOM     57  C   UNL A   1      46.940  27.924  24.305  1.00  0.00     0.031 A 
ATOM     58  C   UNL A   1      47.570  26.668  26.262  1.00  0.00     0.131 A 
ATOM     59  C   UNL A   1      48.059  27.399  23.642  1.00  0.00     0.055 A 
ATOM     60  C   UNL A   1      48.724  26.214  25.625  1.00  0.00     0.041 A 
ATOM     61  F   UNL A   1      47.345  26.245  27.516  1.00  0.00    -0.206 F 
ATOM     62  C   UNL A   1      48.970  26.571  24.303  1.00  0.00     0.022 A 
BRANCH  59  63
ATOM     63  S   UNL A   1      48.245  27.711  21.865  1.00  0.00     0.124 S 
ATOM     64  O   UNL A   1      49.379  28.632  21.844  1.00  0.00    -0.237 OA
ATOM     65  O   UNL A   1      48.497  26.377  21.334  1.00  0.00    -0.237 OA
ATOM     66  O   UNL A   1      46.965  28.303  21.485  1.00  0.00    -0.744 OA
ENDBRANCH  59  63
ENDBRANCH  42  56
BRANCH  43  67
ATOM     67  C   UNL A   1      38.724  30.497  30.986  1.00  0.00     0.023 A 
ATOM     68  C   UNL A   1      37.598  31.100  30.402  1.00  0.00     0.031 A 
ATOM     69  C   UNL A   1      38.771  30.423  32.390  1.00  0.00     0.131 A 
ATOM     70  C   UNL A   1      36.611  31.679  31.215  1.00  0.00     0.055 A 
ATOM     71  C   UNL A   1      37.746  30.928  33.193  1.00  0.00     0.041 A 
ATOM     72  F   UNL A   1      39.823  29.862  33.007  1.00  0.00    -0.206 F 
ATOM     73  C   UNL A   1      36.668  31.581  32.606  1.00  0.00     0.022 A 
BRANCH  70  74
ATOM     74  S   UNL A   1      35.333  32.699  30.428  1.00  0.00     0.124 S 
ATOM     75  O   UNL A   1      34.378  32.863  31.518  1.00  0.00    -0.237 OA
ATOM     76  O   UNL A   1      36.085  33.888  30.047  1.00  0.00    -0.237 OA
ATOM     77  O   UNL A   1      34.875  31.868  29.315  1.00  0.00    -0.744 OA
ENDBRANCH  70  74
ENDBRANCH  43  67
BRANCH  55  78
ATOM     78  C   UNL A   1      44.802  33.476  29.305  1.00  0.00     0.023 A 
ATOM     79  C   UNL A   1      44.537  34.596  28.498  1.00  0.00     0.031 A 
ATOM     80  C   UNL A   1      45.644  33.650  30.419  1.00  0.00     0.131 A 
ATOM     81  C   UNL A   1      45.159  35.822  28.780  1.00  0.00     0.055 A 
ATOM     82  C   UNL A   1      46.195  34.892  30.739  1.00  0.00     0.041 A 
ATOM     83  F   UNL A   1      45.939  32.615  31.222  1.00  0.00    -0.206 F 
ATOM     84  C   UNL A   1      45.967  35.983  29.908  1.00  0.00     0.022 A 
BRANCH  81  85
ATOM     85  S   UNL A   1      44.990  37.176  27.585  1.00  0.00     0.124 S 
ATOM     86  O   UNL A   1      43.772  36.803  26.874  1.00  0.00    -0.237 OA
ATOM     87  O   UNL A   1      44.890  38.347  28.451  1.00  0.00    -0.237 OA
ATOM     88  O   UNL A   1      46.219  37.094  26.797  1.00  0.00    -0.744 OA
ENDBRANCH  81  85
ENDBRANCH  55  78
ENDBRANCH  29  30
ENDBRANCH  21  24
ENDBRANCH  19  20
ENDBRANCH   1  19
TORSDOF 17
ENDMDL
MODEL 2
REMARK VINA RESULT:     -11.2      5.090     10.263
REMARK SMILES C[C@H]1CC[C@](C#N)([C@H](O)C(=O)NCCCCNC(=O)c2ccc(-c3c4nc(c(-c5cc(S(=O)(=O)[O-])ccc5F)c5ccc([nH]5)c(-c5cc(S(=O)(=O)[O-])ccc5F)c5nc(c(-c6cc(S(=O)(=O)[O-])ccc6F)c6ccc3[nH]6)C=C5)C=C4)cc2)C1
REMARK SMILES IDX 15 1 14 2 13 3 12 4 10 5 11 6 8 8 5 9 1 10 2 11 3 12 83 13
REMARK SMILES IDX 4 14 6 15 7 16 9 17 16 19 17 20 18 21 19 23 20 24 21 25
REMARK SMILES IDX 82 26 22 27 81 28 23 29 24 30 25 31 75 32 26 33 80 34 74 35
REMARK SMILES IDX 76 36 27 37 79 38 73 39 72 40 28 42 60 43 40 44 59 45 41 46
REMARK SMILES IDX 44 47 58 48 77 49 42 50 43 51 57 53 78 54 45 55 29 56 30 57
REMARK SMILES IDX 38 58 31 59 37 60 39 61 36 62 32 63 33 64 34 65 35 66 61 67
REMARK SMILES IDX 62 68 70 69 63 70 69 71 71 72 68 73 64 74 65 75 66 76 67 77
REMARK SMILES IDX 46 78 47 79 55 80 48 81 54 82 56 83 53 84 49 85 50 86 51 87
REMARK SMILES IDX 52 88
REMARK H PARENT 12 7 9 18 17 22 76 41 44 52
REMARK Flexibility Score: inf
ROOT
ATOM      1  C   UNL A   1      31.441  29.104  25.420  1.00  0.00     0.023 C 
ENDROOT
BRANCH   1   2
ATOM      2  C   UNL A   1      31.382  29.212  23.902  1.00  0.00     0.023 C 
BRANCH   2   3
ATOM      3  C   UNL A   1      30.441  28.232  23.221  1.00  0.00     0.116 C 
BRANCH   3   4
ATOM      4  N   UNL A   1      30.995  27.604  22.045  1.00  0.00    -0.354 N 
ATOM      5  C   UNL A   1      31.403  26.313  21.895  1.00  0.00     0.250 C 
ATOM      6  O   UNL A   1      31.782  25.953  20.777  1.00  0.00    -0.272 OA
ATOM      7  H   UNL A   1      31.092  28.182  21.254  1.00  0.00     0.163 HD
BRANCH   5   8
ATOM      8  C   UNL A   1      31.374  25.303  23.068  1.00  0.00     0.223 C 
BRANCH   8   9
ATOM      9  C   UNL A   1      32.727  25.051  23.804  1.00  0.00     0.092 C 
ATOM     10  C   UNL A   1      35.040  24.044  25.852  1.00  0.00     0.008 C 
ATOM     11  C   UNL A   1      33.810  24.928  26.016  1.00  0.00    -0.013 C 
ATOM     12  C   UNL A   1      34.033  26.336  25.479  1.00  0.00     0.005 C 
ATOM     13  C   UNL A   1      32.591  24.443  25.222  1.00  0.00     0.029 C 
ATOM     14  C   UNL A   1      33.662  26.280  23.996  1.00  0.00     0.026 C 
BRANCH   9  15
ATOM     15  C   UNL A   1      33.459  24.080  22.935  1.00  0.00     0.072 C 
ATOM     16  N   UNL A   1      34.038  23.329  22.271  1.00  0.00    -0.198 NA
ENDBRANCH   9  15
ENDBRANCH   8   9
BRANCH   8  17
ATOM     17  O   UNL A   1      30.727  24.070  22.749  1.00  0.00    -0.382 OA
ATOM     18  H   UNL A   1      30.200  23.776  23.507  1.00  0.00     0.211 HD
ENDBRANCH   8  17
ENDBRANCH   5   8
ENDBRANCH   3   4
ENDBRANCH   2   3
ENDBRANCH   1   2
BRANCH   1  19
ATOM     19  C   UNL A   1      32.680  29.716  26.065  1.00  0.00     0.116 C 
BRANCH  19  20
ATOM     20  N   UNL A   1      32.507  31.119  26.414  1.00  0.00    -0.352 N 
ATOM     21  C   UNL A   1      33.271  31.909  27.242  1.00  0.00     0.251 C 
ATOM     22  H   UNL A   1      31.734  31.566  25.998  1.00  0.00     0.163 HD
ATOM     23  O   UNL A   1      32.876  33.029  27.553  1.00  0.00    -0.269 OA
BRANCH  21  24
ATOM     24  C   UNL A   1      34.545  31.384  27.778  1.00  0.00     0.039 A 
ATOM     25  C   UNL A   1      35.599  32.267  28.015  1.00  0.00     0.014 A 
ATOM     26  C   UNL A   1      34.679  30.030  28.093  1.00  0.00     0.014 A 
ATOM     27  C   UNL A   1      36.755  31.805  28.649  1.00  0.00     0.010 A 
ATOM     28  C   UNL A   1      35.787  29.595  28.813  1.00  0.00     0.010 A 
ATOM     29  C   UNL A   1      36.839  30.477  29.100  1.00  0.00    -0.014 A 
BRANCH  29  30
ATOM     30  C   UNL A   1      38.015  29.997  29.876  1.00  0.00     0.031 A 
ATOM     31  C   UNL A   1      38.250  30.497  31.278  1.00  0.00     0.074 A 
ATOM     32  C   UNL A   1      38.896  29.151  29.302  1.00  0.00     0.049 A 
ATOM     33  N   UNL A   1      39.240  30.238  32.091  1.00  0.00    -0.248 NA
ATOM     34  C   UNL A   1      37.253  31.431  31.829  1.00  0.00     0.031 C 
ATOM     35  C   UNL A   1      38.795  28.620  27.940  1.00  0.00     0.029 A 
ATOM     36  N   UNL A   1      40.052  28.588  29.787  1.00  0.00    -0.354 N 
ATOM     37  C   UNL A   1      38.995  30.983  33.240  1.00  0.00     0.074 A 
ATOM     38  C   UNL A   1      37.791  31.748  32.997  1.00  0.00     0.031 C 
ATOM     39  C   UNL A   1      39.817  27.779  27.716  1.00  0.00     0.029 A 
ATOM     40  C   UNL A   1      40.685  27.757  28.888  1.00  0.00     0.049 A 
ATOM     41  H   UNL A   1      40.396  28.762  30.692  1.00  0.00     0.167 HD
ATOM     42  C   UNL A   1      39.700  31.013  34.396  1.00  0.00     0.034 A 
ATOM     43  C   UNL A   1      41.843  27.070  28.991  1.00  0.00     0.034 A 
ATOM     44  C   UNL A   1      40.890  30.233  34.630  1.00  0.00     0.049 A 
ATOM     45  C   UNL A   1      42.632  27.166  30.276  1.00  0.00     0.074 A 
ATOM     46  C   UNL A   1      41.639  30.141  35.790  1.00  0.00     0.029 A 
ATOM     47  N   UNL A   1      41.515  29.427  33.689  1.00  0.00    -0.354 N 
ATOM     48  N   UNL A   1      42.347  27.827  31.374  1.00  0.00    -0.248 NA
ATOM     49  C   UNL A   1      43.894  26.416  30.338  1.00  0.00     0.031 C 
ATOM     50  C   UNL A   1      42.768  29.363  35.522  1.00  0.00     0.029 A 
ATOM     51  C   UNL A   1      42.668  28.876  34.229  1.00  0.00     0.049 A 
ATOM     52  H   UNL A   1      41.189  29.269  32.773  1.00  0.00     0.167 HD
ATOM     53  C   UNL A   1      43.373  27.532  32.270  1.00  0.00     0.074 A 
ATOM     54  C   UNL A   1      44.270  26.622  31.590  1.00  0.00     0.031 C 
ATOM     55  C   UNL A   1      43.556  27.969  33.541  1.00  0.00     0.034 A 
BRANCH  42  56
ATOM     56  C   UNL A   1      39.231  31.942  35.490  1.00  0.00     0.023 A 
ATOM     57  C   UNL A   1      39.691  33.266  35.595  1.00  0.00     0.031 A 
ATOM     58  C   UNL A   1      38.282  31.498  36.430  1.00  0.00     0.131 A 
ATOM     59  C   UNL A   1      39.238  34.082  36.642  1.00  0.00     0.055 A 
ATOM     60  C   UNL A   1      37.775  32.341  37.419  1.00  0.00     0.041 A 
ATOM     61  F   UNL A   1      37.828  30.236  36.396  1.00  0.00    -0.206 F 
ATOM     62  C   UNL A   1      38.261  33.639  37.535  1.00  0.00     0.022 A 
BRANCH  59  63
ATOM     63  S   UNL A   1      40.035  35.691  36.897  1.00  0.00     0.124 S 
ATOM     64  O   UNL A   1      39.412  36.135  38.142  1.00  0.00    -0.237 OA
ATOM     65  O   UNL A   1      41.447  35.335  36.983  1.00  0.00    -0.237 OA
ATOM     66  O   UNL A   1      39.655  36.455  35.712  1.00  0.00    -0.744 OA
ENDBRANCH  59  63
ENDBRANCH  42  56
BRANCH  43  67
ATOM     67  C   UNL A   1      42.355  26.246  27.854  1.00  0.00     0.023 A 
ATOM     68  C   UNL A   1      42.039  24.881  27.753  1.00  0.00     0.031 A 
ATOM     69  C   UNL A   1      43.247  26.782  26.907  1.00  0.00     0.131 A 
ATOM     70  C   UNL A   1      42.673  24.083  26.788  1.00  0.00     0.055 A 
ATOM     71  C   UNL A   1      43.812  26.000  25.897  1.00  0.00     0.041 A 
ATOM     72  F   UNL A   1      43.590  28.079  26.953  1.00  0.00    -0.206 F 
ATOM     73  C   UNL A   1      43.543  24.637  25.848  1.00  0.00     0.022 A 
BRANCH  70  74
ATOM     74  S   UNL A   1      42.463  22.283  26.882  1.00  0.00     0.124 S 
ATOM     75  O   UNL A   1      43.736  21.812  26.349  1.00  0.00    -0.237 OA
ATOM     76  O   UNL A   1      42.247  22.077  28.309  1.00  0.00    -0.237 OA
ATOM     77  O   UNL A   1      41.299  22.034  26.033  1.00  0.00    -0.744 OA
ENDBRANCH  70  74
ENDBRANCH  43  67
BRANCH  55  78
ATOM     78  C   UNL A   1      44.738  27.417  34.303  1.00  0.00     0.023 A 
ATOM     79  C   UNL A   1      44.666  26.212  35.022  1.00  0.00     0.031 A 
ATOM     80  C   UNL A   1      45.958  28.119  34.312  1.00  0.00     0.131 A 
ATOM     81  C   UNL A   1      45.770  25.779  35.772  1.00  0.00     0.055 A 
ATOM     82  C   UNL A   1      47.077  27.641  34.996  1.00  0.00     0.041 A 
ATOM     83  F   UNL A   1      46.085  29.280  33.649  1.00  0.00    -0.206 F 
ATOM     84  C   UNL A   1      46.982  26.473  35.744  1.00  0.00     0.022 A 
BRANCH  81  85
ATOM     85  S   UNL A   1      45.565  24.357  36.878  1.00  0.00     0.124 S 
ATOM     86  O   UNL A   1      44.806  23.431  36.044  1.00  0.00    -0.237 OA
ATOM     87  O   UNL A   1      46.946  23.976  37.158  1.00  0.00    -0.237 OA
ATOM     88  O   UNL A   1      44.833  24.909  38.017  1.00  0.00    -0.744 OA
ENDBRANCH  81  85
ENDBRANCH  55  78
ENDBRANCH  29  30
ENDBRANCH  21  24
ENDBRANCH  19  20
ENDBRANCH   1  19
TORSDOF 17
ENDMDL
MODEL 3
REMARK VINA RESULT:     -11.0      5.106      7.699
REMARK SMILES C[C@H]1CC[C@](C#N)([C@H](O)C(=O)NCCCCNC(=O)c2ccc(-c3c4nc(c(-c5cc(S(=O)(=O)[O-])ccc5F)c5ccc([nH]5)c(-c5cc(S(=O)(=O)[O-])ccc5F)c5nc(c(-c6cc(S(=O)(=O)[O-])ccc6F)c6ccc3[nH]6)C=C5)C=C4)cc2)C1
REMARK SMILES IDX 15 1 14 2 13 3 12 4 10 5 11 6 8 8 5 9 1 10 2 11 3 12 83 13
REMARK SMILES IDX 4 14 6 15 7 16 9 17 16 19 17 20 18 21 19 23 20 24 21 25
REMARK SMILES IDX 82 26 22 27 81 28 23 29 24 30 25 31 75 32 26 33 80 34 74 35
REMARK SMILES IDX 76 36 27 37 79 38 73 39 72 40 28 42 60 43 40 44 59 45 41 46
REMARK SMILES IDX 44 47 58 48 77 49 42 50 43 51 57 53 78 54 45 55 29 56 30 57
REMARK SMILES IDX 38 58 31 59 37 60 39 61 36 62 32 63 33 64 34 65 35 66 61 67
REMARK SMILES IDX 62 68 70 69 63 70 69 71 71 72 68 73 64 74 65 75 66 76 67 77
REMARK SMILES IDX 46 78 47 79 55 80 48 81 54 82 56 83 53 84 49 85 50 86 51 87
REMARK SMILES IDX 52 88
REMARK H PARENT 12 7 9 18 17 22 76 41 44 52
REMARK Flexibility Score: inf
ROOT
ATOM      1  C   UNL A   1      32.338  29.241  24.367  1.00  0.00     0.023 C 
ENDROOT
BRANCH   1   2
ATOM      2  C   UNL A   1      30.943  28.669  24.147  1.00  0.00     0.023 C 
BRANCH   2   3
ATOM      3  C   UNL A   1      30.846  27.599  23.072  1.00  0.00     0.116 C 
BRANCH   3   4
ATOM      4  N   UNL A   1      32.049  27.439  22.291  1.00  0.00    -0.354 N 
ATOM      5  C   UNL A   1      32.677  26.282  21.942  1.00  0.00     0.250 C 
ATOM      6  O   UNL A   1      33.661  26.359  21.201  1.00  0.00    -0.272 OA
ATOM      7  H   UNL A   1      32.469  28.270  21.972  1.00  0.00     0.163 HD
BRANCH   5   8
ATOM      8  C   UNL A   1      32.173  24.899  22.424  1.00  0.00     0.223 C 
BRANCH   8   9
ATOM      9  C   UNL A   1      32.485  24.522  23.906  1.00  0.00     0.092 C 
ATOM     10  C   UNL A   1      32.279  23.582  27.010  1.00  0.00     0.008 C 
ATOM     11  C   UNL A   1      31.724  24.773  26.238  1.00  0.00    -0.013 C 
ATOM     12  C   UNL A   1      32.777  25.843  25.987  1.00  0.00     0.005 C 
ATOM     13  C   UNL A   1      31.242  24.422  24.825  1.00  0.00     0.029 C 
ATOM     14  C   UNL A   1      33.465  25.452  24.677  1.00  0.00     0.026 C 
BRANCH   9  15
ATOM     15  C   UNL A   1      33.132  23.177  23.829  1.00  0.00     0.072 C 
ATOM     16  N   UNL A   1      33.643  22.139  23.782  1.00  0.00    -0.198 NA
ENDBRANCH   9  15
ENDBRANCH   8   9
BRANCH   8  17
ATOM     17  O   UNL A   1      32.507  23.827  21.541  1.00  0.00    -0.382 OA
ATOM     18  H   UNL A   1      31.770  23.197  21.505  1.00  0.00     0.211 HD
ENDBRANCH   8  17
ENDBRANCH   5   8
ENDBRANCH   3   4
ENDBRANCH   2   3
ENDBRANCH   1   2
BRANCH   1  19
ATOM     19  C   UNL A   1      32.687  29.556  25.817  1.00  0.00     0.116 C 
BRANCH  19  20
ATOM     20  N   UNL A   1      32.363  30.924  26.197  1.00  0.00    -0.352 N 
ATOM     21  C   UNL A   1      33.008  31.755  27.085  1.00  0.00     0.251 C 
ATOM     22  H   UNL A   1      31.570  31.308  25.757  1.00  0.00     0.163 HD
ATOM     23  O   UNL A   1      32.492  32.821  27.409  1.00  0.00    -0.269 OA
BRANCH  21  24
ATOM     24  C   UNL A   1      34.301  31.336  27.668  1.00  0.00     0.039 A 
ATOM     25  C   UNL A   1      35.300  32.291  27.863  1.00  0.00     0.014 A 
ATOM     26  C   UNL A   1      34.505  30.013  28.065  1.00  0.00     0.014 A 
ATOM     27  C   UNL A   1      36.470  31.934  28.538  1.00  0.00     0.010 A 
ATOM     28  C   UNL A   1      35.625  29.686  28.824  1.00  0.00     0.010 A 
ATOM     29  C   UNL A   1      36.621  30.642  29.070  1.00  0.00    -0.014 A 
BRANCH  29  30
ATOM     30  C   UNL A   1      37.810  30.277  29.888  1.00  0.00     0.031 A 
ATOM     31  C   UNL A   1      38.826  29.304  29.351  1.00  0.00     0.074 A 
ATOM     32  C   UNL A   1      37.946  30.781  31.133  1.00  0.00     0.049 A 
ATOM     33  N   UNL A   1      39.895  28.824  29.930  1.00  0.00    -0.248 NA
ATOM     34  C   UNL A   1      38.599  28.784  27.992  1.00  0.00     0.031 C 
ATOM     35  C   UNL A   1      37.012  31.709  31.778  1.00  0.00     0.029 A 
ATOM     36  N   UNL A   1      38.921  30.588  32.082  1.00  0.00    -0.354 N 
ATOM     37  C   UNL A   1      40.459  27.937  29.018  1.00  0.00     0.074 A 
ATOM     38  C   UNL A   1      39.583  27.906  27.867  1.00  0.00     0.031 C 
ATOM     39  C   UNL A   1      37.481  32.035  32.992  1.00  0.00     0.029 A 
ATOM     40  C   UNL A   1      38.711  31.294  33.247  1.00  0.00     0.049 A 
ATOM     41  H   UNL A   1      39.698  30.000  31.943  1.00  0.00     0.167 HD
ATOM     42  C   UNL A   1      41.609  27.230  29.124  1.00  0.00     0.034 A 
ATOM     43  C   UNL A   1      39.420  31.327  34.395  1.00  0.00     0.034 A 
ATOM     44  C   UNL A   1      42.481  27.285  30.271  1.00  0.00     0.049 A 
ATOM     45  C   UNL A   1      40.671  30.486  34.500  1.00  0.00     0.074 A 
ATOM     46  C   UNL A   1      43.702  26.658  30.448  1.00  0.00     0.029 A 
ATOM     47  N   UNL A   1      42.221  27.987  31.439  1.00  0.00    -0.354 N 
ATOM     48  N   UNL A   1      41.221  29.704  33.598  1.00  0.00    -0.248 NA
ATOM     49  C   UNL A   1      41.402  30.538  35.773  1.00  0.00     0.031 C 
ATOM     50  C   UNL A   1      44.132  26.900  31.755  1.00  0.00     0.029 A 
ATOM     51  C   UNL A   1      43.236  27.767  32.359  1.00  0.00     0.049 A 
ATOM     52  H   UNL A   1      41.433  28.556  31.594  1.00  0.00     0.167 HD
ATOM     53  C   UNL A   1      42.385  29.212  34.183  1.00  0.00     0.074 A 
ATOM     54  C   UNL A   1      42.466  29.797  35.504  1.00  0.00     0.031 C 
ATOM     55  C   UNL A   1      43.307  28.356  33.675  1.00  0.00     0.034 A 
BRANCH  42  56
ATOM     56  C   UNL A   1      41.982  26.308  27.989  1.00  0.00     0.023 A 
ATOM     57  C   UNL A   1      41.472  25.002  27.889  1.00  0.00     0.031 A 
ATOM     58  C   UNL A   1      42.844  26.757  26.972  1.00  0.00     0.131 A 
ATOM     59  C   UNL A   1      41.866  24.177  26.824  1.00  0.00     0.055 A 
ATOM     60  C   UNL A   1      43.166  25.961  25.873  1.00  0.00     0.041 A 
ATOM     61  F   UNL A   1      43.384  27.985  27.029  1.00  0.00    -0.206 F 
ATOM     62  C   UNL A   1      42.684  24.658  25.800  1.00  0.00     0.022 A 
BRANCH  59  63
ATOM     63  S   UNL A   1      41.394  22.426  26.859  1.00  0.00     0.124 S 
ATOM     64  O   UNL A   1      41.993  21.985  28.117  1.00  0.00    -0.237 OA
ATOM     65  O   UNL A   1      39.937  22.491  26.834  1.00  0.00    -0.237 OA
ATOM     66  O   UNL A   1      42.016  21.878  25.656  1.00  0.00    -0.744 OA
ENDBRANCH  59  63
ENDBRANCH  42  56
BRANCH  43  67
ATOM     67  C   UNL A   1      38.974  32.157  35.555  1.00  0.00     0.023 A 
ATOM     68  C   UNL A   1      39.396  33.489  35.693  1.00  0.00     0.031 A 
ATOM     69  C   UNL A   1      38.202  31.605  36.594  1.00  0.00     0.131 A 
ATOM     70  C   UNL A   1      39.119  34.194  36.875  1.00  0.00     0.055 A 
ATOM     71  C   UNL A   1      37.860  32.339  37.732  1.00  0.00     0.041 A 
ATOM     72  F   UNL A   1      37.772  30.335  36.522  1.00  0.00    -0.206 F 
ATOM     73  C   UNL A   1      38.339  33.634  37.887  1.00  0.00     0.022 A 
BRANCH  70  74
ATOM     74  S   UNL A   1      39.929  35.798  37.133  1.00  0.00     0.124 S 
ATOM     75  O   UNL A   1      39.765  36.421  35.825  1.00  0.00    -0.237 OA
ATOM     76  O   UNL A   1      39.138  36.365  38.219  1.00  0.00    -0.237 OA
ATOM     77  O   UNL A   1      41.299  35.432  37.485  1.00  0.00    -0.744 OA
ENDBRANCH  70  74
ENDBRANCH  43  67
BRANCH  55  78
ATOM     78  C   UNL A   1      44.518  28.053  34.526  1.00  0.00     0.023 A 
ATOM     79  C   UNL A   1      44.555  26.961  35.409  1.00  0.00     0.031 A 
ATOM     80  C   UNL A   1      45.654  28.881  34.453  1.00  0.00     0.131 A 
ATOM     81  C   UNL A   1      45.676  26.764  36.230  1.00  0.00     0.055 A 
ATOM     82  C   UNL A   1      46.796  28.633  35.214  1.00  0.00     0.041 A 
ATOM     83  F   UNL A   1      45.675  29.943  33.632  1.00  0.00    -0.206 F 
ATOM     84  C   UNL A   1      46.806  27.579  36.121  1.00  0.00     0.022 A 
BRANCH  81  85
ATOM     85  S   UNL A   1      45.592  25.498  37.526  1.00  0.00     0.124 S 
ATOM     86  O   UNL A   1      44.633  26.082  38.458  1.00  0.00    -0.237 OA
ATOM     87  O   UNL A   1      45.132  24.326  36.789  1.00  0.00    -0.237 OA
ATOM     88  O   UNL A   1      46.967  25.419  38.019  1.00  0.00    -0.744 OA
ENDBRANCH  81  85
ENDBRANCH  55  78
ENDBRANCH  29  30
ENDBRANCH  21  24
ENDBRANCH  19  20
ENDBRANCH   1  19
TORSDOF 17
ENDMDL
