MODEL 1
REMARK VINA RESULT:     -11.4      0.000      0.000
REMARK SMILES Nc1nc(CC(=O)NC2(CC(=O)NCCCCNC(=O)c3ccc(-c4c5nc(c(-c6cc(S(=O)(=O)[O-])ccc6F)c6ccc([nH]6)c(-c6cc(S(=O)(=O)[O-])ccc6F)c6nc(c(-c7cc(S(=O)(=O)[O-])ccc7F)c7ccc4[nH]7)C=C6)C=C5)cc3)CCC2)cs1
REMARK SMILES IDX 14 1 13 2 11 3 12 4 10 6 9 7 84 8 86 9 85 10 8 11 6 12 7 13
REMARK SMILES IDX 5 15 4 16 2 17 3 18 88 19 87 20 1 21 15 24 16 25 17 26 18 27
REMARK SMILES IDX 19 28 20 30 21 31 22 32 83 33 23 34 82 35 24 36 25 37 26 38
REMARK SMILES IDX 76 39 27 40 81 41 75 42 77 43 28 44 80 45 74 46 73 47 29 49
REMARK SMILES IDX 61 50 41 51 60 52 42 53 45 54 59 55 78 56 43 57 44 58 58 60
REMARK SMILES IDX 79 61 46 62 30 63 31 64 39 65 32 66 38 67 40 68 37 69 33 70
REMARK SMILES IDX 34 71 35 72 36 73 62 74 63 75 71 76 64 77 70 78 72 79 69 80
REMARK SMILES IDX 65 81 66 82 67 83 68 84 47 85 48 86 56 87 49 88 55 89 57 90
REMARK SMILES IDX 54 91 50 92 51 93 52 94 53 95
REMARK H PARENT 13 5 8 14 1 22 1 23 18 29 77 48 45 59
REMARK Flexibility Score: inf
ROOT
ATOM      1  C   UNL A   1      33.905  28.917  26.278  1.00  0.00     0.116 C 
ENDROOT
BRANCH   1   2
ATOM      2  N   UNL A   1      33.754  29.430  24.936  1.00  0.00    -0.356 N 
ATOM      3  C   UNL A   1      33.244  28.789  23.851  1.00  0.00     0.222 C 
ATOM      4  O   UNL A   1      33.578  29.188  22.737  1.00  0.00    -0.275 OA
ATOM      5  H   UNL A   1      34.057  30.356  24.790  1.00  0.00     0.163 HD
BRANCH   3   6
ATOM      6  C   UNL A   1      32.233  27.684  24.045  1.00  0.00     0.128 C 
BRANCH   6   7
ATOM      7  C   UNL A   1      31.235  27.415  22.918  1.00  0.00     0.049 C 
ATOM      8  C   UNL A   1      30.300  28.625  22.563  1.00  0.00     0.029 C 
ATOM      9  C   UNL A   1      29.905  26.697  23.363  1.00  0.00     0.029 C 
ATOM     10  C   UNL A   1      29.260  28.074  23.548  1.00  0.00     0.005 C 
BRANCH   7  11
ATOM     11  N   UNL A   1      31.791  26.770  21.703  1.00  0.00    -0.350 N 
ATOM     12  C   UNL A   1      32.874  25.960  21.497  1.00  0.00     0.226 C 
ATOM     13  O   UNL A   1      33.226  25.794  20.321  1.00  0.00    -0.275 OA
ATOM     14  H   UNL A   1      31.281  26.963  20.884  1.00  0.00     0.164 HD
BRANCH  12  15
ATOM     15  C   UNL A   1      33.610  25.263  22.618  1.00  0.00     0.157 C 
BRANCH  15  16
ATOM     16  C   UNL A   1      32.974  23.998  23.078  1.00  0.00     0.063 A 
ATOM     17  C   UNL A   1      32.188  21.959  22.683  1.00  0.00     0.180 A 
ATOM     18  N   UNL A   1      32.790  22.987  22.146  1.00  0.00    -0.225 NA
ATOM     19  S   UNL A   1      31.882  22.096  24.364  1.00  0.00    -0.106 S 
ATOM     20  C   UNL A   1      32.567  23.671  24.356  1.00  0.00     0.093 A 
BRANCH  17  21
ATOM     21  N   UNL A   1      31.814  20.897  21.964  1.00  0.00    -0.375 N 
ATOM     22  H   UNL A   1      31.611  20.997  21.007  1.00  0.00     0.159 HD
ATOM     23  H   UNL A   1      31.741  20.014  22.394  1.00  0.00     0.159 HD
ENDBRANCH  17  21
ENDBRANCH  15  16
ENDBRANCH  12  15
ENDBRANCH   7  11
ENDBRANCH   6   7
ENDBRANCH   3   6
ENDBRANCH   1   2
BRANCH   1  24
ATOM     24  C   UNL A   1      32.778  29.450  27.162  1.00  0.00     0.023 C 
BRANCH  24  25
ATOM     25  C   UNL A   1      32.421  30.915  26.926  1.00  0.00     0.023 C 
BRANCH  25  26
ATOM     26  C   UNL A   1      33.395  31.905  27.534  1.00  0.00     0.116 C 
BRANCH  26  27
ATOM     27  N   UNL A   1      32.852  33.250  27.650  1.00  0.00    -0.352 N 
ATOM     28  C   UNL A   1      33.280  34.250  28.499  1.00  0.00     0.251 C 
ATOM     29  H   UNL A   1      32.098  33.470  27.058  1.00  0.00     0.163 HD
ATOM     30  O   UNL A   1      32.717  35.322  28.548  1.00  0.00    -0.269 OA
BRANCH  28  31
ATOM     31  C   UNL A   1      34.419  33.925  29.380  1.00  0.00     0.039 A 
ATOM     32  C   UNL A   1      34.202  33.078  30.466  1.00  0.00     0.014 A 
ATOM     33  C   UNL A   1      35.705  34.325  29.014  1.00  0.00     0.014 A 
ATOM     34  C   UNL A   1      35.300  32.573  31.162  1.00  0.00     0.010 A 
ATOM     35  C   UNL A   1      36.795  33.760  29.657  1.00  0.00     0.010 A 
ATOM     36  C   UNL A   1      36.602  32.883  30.739  1.00  0.00    -0.014 A 
BRANCH  36  37
ATOM     37  C   UNL A   1      37.797  32.358  31.443  1.00  0.00     0.031 A 
ATOM     38  C   UNL A   1      38.572  31.243  30.800  1.00  0.00     0.074 A 
ATOM     39  C   UNL A   1      38.116  32.803  32.672  1.00  0.00     0.049 A 
ATOM     40  N   UNL A   1      39.512  30.489  31.300  1.00  0.00    -0.248 NA
ATOM     41  C   UNL A   1      38.191  30.902  29.420  1.00  0.00     0.031 C 
ATOM     42  C   UNL A   1      37.414  33.861  33.403  1.00  0.00     0.029 A 
ATOM     43  N   UNL A   1      39.105  32.404  33.536  1.00  0.00    -0.354 N 
ATOM     44  C   UNL A   1      39.806  29.554  30.312  1.00  0.00     0.074 A 
ATOM     45  C   UNL A   1      38.902  29.806  29.210  1.00  0.00     0.031 C 
ATOM     46  C   UNL A   1      38.004  34.034  34.598  1.00  0.00     0.029 A 
ATOM     47  C   UNL A   1      39.091  33.072  34.739  1.00  0.00     0.049 A 
ATOM     48  H   UNL A   1      39.763  31.707  33.315  1.00  0.00     0.167 HD
ATOM     49  C   UNL A   1      40.756  28.588  30.319  1.00  0.00     0.034 A 
ATOM     50  C   UNL A   1      39.858  32.906  35.835  1.00  0.00     0.034 A 
ATOM     51  C   UNL A   1      41.671  28.388  31.413  1.00  0.00     0.049 A 
ATOM     52  C   UNL A   1      40.928  31.842  35.813  1.00  0.00     0.074 A 
ATOM     53  C   UNL A   1      42.707  27.478  31.519  1.00  0.00     0.029 A 
ATOM     54  N   UNL A   1      41.664  29.124  32.591  1.00  0.00    -0.354 N 
ATOM     55  N   UNL A   1      41.208  30.975  34.867  1.00  0.00    -0.248 NA
ATOM     56  C   UNL A   1      41.790  31.739  36.999  1.00  0.00     0.031 C 
ATOM     57  C   UNL A   1      43.299  27.635  32.777  1.00  0.00     0.029 A 
ATOM     58  C   UNL A   1      42.672  28.684  33.432  1.00  0.00     0.049 A 
ATOM     59  H   UNL A   1      41.034  29.852  32.799  1.00  0.00     0.167 HD
ATOM     60  C   UNL A   1      42.303  30.250  35.329  1.00  0.00     0.074 A 
ATOM     61  C   UNL A   1      42.630  30.779  36.637  1.00  0.00     0.031 C 
ATOM     62  C   UNL A   1      42.984  29.245  34.724  1.00  0.00     0.034 A 
BRANCH  49  63
ATOM     63  C   UNL A   1      40.820  27.676  29.119  1.00  0.00     0.023 A 
ATOM     64  C   UNL A   1      41.775  27.860  28.104  1.00  0.00     0.031 A 
ATOM     65  C   UNL A   1      39.875  26.649  28.955  1.00  0.00     0.131 A 
ATOM     66  C   UNL A   1      41.703  27.098  26.929  1.00  0.00     0.055 A 
ATOM     67  C   UNL A   1      39.866  25.832  27.822  1.00  0.00     0.041 A 
ATOM     68  F   UNL A   1      38.926  26.437  29.880  1.00  0.00    -0.206 F 
ATOM     69  C   UNL A   1      40.771  26.067  26.792  1.00  0.00     0.022 A 
BRANCH  66  70
ATOM     70  S   UNL A   1      42.735  27.588  25.520  1.00  0.00     0.124 S 
ATOM     71  O   UNL A   1      42.682  26.389  24.688  1.00  0.00    -0.237 OA
ATOM     72  O   UNL A   1      42.032  28.756  25.003  1.00  0.00    -0.237 OA
ATOM     73  O   UNL A   1      44.036  27.861  26.127  1.00  0.00    -0.744 OA
ENDBRANCH  66  70
ENDBRANCH  49  63
BRANCH  50  74
ATOM     74  C   UNL A   1      39.649  33.753  37.042  1.00  0.00     0.023 A 
ATOM     75  C   UNL A   1      38.987  33.247  38.172  1.00  0.00     0.031 A 
ATOM     76  C   UNL A   1      40.077  35.092  37.073  1.00  0.00     0.131 A 
ATOM     77  C   UNL A   1      38.732  34.086  39.269  1.00  0.00     0.055 A 
ATOM     78  C   UNL A   1      39.862  35.910  38.185  1.00  0.00     0.041 A 
ATOM     79  F   UNL A   1      40.724  35.622  36.024  1.00  0.00    -0.206 F 
ATOM     80  C   UNL A   1      39.175  35.411  39.287  1.00  0.00     0.022 A 
BRANCH  77  81
ATOM     81  S   UNL A   1      37.747  33.438  40.647  1.00  0.00     0.124 S 
ATOM     82  O   UNL A   1      37.540  34.635  41.454  1.00  0.00    -0.237 OA
ATOM     83  O   UNL A   1      36.570  32.917  39.958  1.00  0.00    -0.237 OA
ATOM     84  O   UNL A   1      38.617  32.426  41.241  1.00  0.00    -0.744 OA
ENDBRANCH  77  81
ENDBRANCH  50  74
BRANCH  62  85
ATOM     85  C   UNL A   1      44.196  28.710  35.437  1.00  0.00     0.023 A 
ATOM     86  C   UNL A   1      44.119  27.615  36.311  1.00  0.00     0.031 A 
ATOM     87  C   UNL A   1      45.454  29.293  35.202  1.00  0.00     0.131 A 
ATOM     88  C   UNL A   1      45.282  27.152  36.946  1.00  0.00     0.055 A 
ATOM     89  C   UNL A   1      46.612  28.801  35.802  1.00  0.00     0.041 A 
ATOM     90  F   UNL A   1      45.576  30.340  34.371  1.00  0.00    -0.206 F 
ATOM     91  C   UNL A   1      46.528  27.729  36.685  1.00  0.00     0.022 A 
BRANCH  88  92
ATOM     92  S   UNL A   1      45.141  25.802  38.149  1.00  0.00     0.124 S 
ATOM     93  O   UNL A   1      46.441  25.149  38.025  1.00  0.00    -0.237 OA
ATOM     94  O   UNL A   1      44.903  26.516  39.398  1.00  0.00    -0.237 OA
ATOM     95  O   UNL A   1      44.007  25.022  37.658  1.00  0.00    -0.744 OA
ENDBRANCH  88  92
ENDBRANCH  62  85
ENDBRANCH  36  37
ENDBRANCH  28  31
ENDBRANCH  26  27
ENDBRANCH  25  26
ENDBRANCH  24  25
ENDBRANCH   1  24
TORSDOF 19
ENDMDL
MODEL 2
REMARK VINA RESULT:     -11.1      1.787      3.016
REMARK SMILES Nc1nc(CC(=O)NC2(CC(=O)NCCCCNC(=O)c3ccc(-c4c5nc(c(-c6cc(S(=O)(=O)[O-])ccc6F)c6ccc([nH]6)c(-c6cc(S(=O)(=O)[O-])ccc6F)c6nc(c(-c7cc(S(=O)(=O)[O-])ccc7F)c7ccc4[nH]7)C=C6)C=C5)cc3)CCC2)cs1
REMARK SMILES IDX 14 1 13 2 11 3 12 4 10 6 9 7 84 8 86 9 85 10 8 11 6 12 7 13
REMARK SMILES IDX 5 15 4 16 2 17 3 18 88 19 87 20 1 21 15 24 16 25 17 26 18 27
REMARK SMILES IDX 19 28 20 30 21 31 22 32 83 33 23 34 82 35 24 36 25 37 26 38
REMARK SMILES IDX 76 39 27 40 81 41 75 42 77 43 28 44 80 45 74 46 73 47 29 49
REMARK SMILES IDX 61 50 41 51 60 52 42 53 45 54 59 55 78 56 43 57 44 58 58 60
REMARK SMILES IDX 79 61 46 62 30 63 31 64 39 65 32 66 38 67 40 68 37 69 33 70
REMARK SMILES IDX 34 71 35 72 36 73 62 74 63 75 71 76 64 77 70 78 72 79 69 80
REMARK SMILES IDX 65 81 66 82 67 83 68 84 47 85 48 86 56 87 49 88 55 89 57 90
REMARK SMILES IDX 54 91 50 92 51 93 52 94 53 95
REMARK H PARENT 13 5 8 14 1 22 1 23 18 29 77 48 45 59
REMARK Flexibility Score: inf
ROOT
ATOM      1  C   UNL A   1      31.585  29.460  25.644  1.00  0.00     0.116 C 
ENDROOT
BRANCH   1   2
ATOM      2  N   UNL A   1      32.448  29.413  24.487  1.00  0.00    -0.356 N 
ATOM      3  C   UNL A   1      33.147  28.348  24.012  1.00  0.00     0.222 C 
ATOM      4  O   UNL A   1      34.135  28.572  23.315  1.00  0.00    -0.275 OA
ATOM      5  H   UNL A   1      32.543  30.253  23.982  1.00  0.00     0.163 HD
BRANCH   3   6
ATOM      6  C   UNL A   1      32.645  26.948  24.278  1.00  0.00     0.128 C 
BRANCH   6   7
ATOM      7  C   UNL A   1      31.715  26.308  23.246  1.00  0.00     0.049 C 
ATOM      8  C   UNL A   1      31.900  24.761  23.061  1.00  0.00     0.029 C 
ATOM      9  C   UNL A   1      32.209  26.405  21.753  1.00  0.00     0.029 C 
ATOM     10  C   UNL A   1      32.889  25.042  21.922  1.00  0.00     0.005 C 
BRANCH   7  11
ATOM     11  N   UNL A   1      30.284  26.687  23.344  1.00  0.00    -0.350 N 
ATOM     12  C   UNL A   1      29.596  27.813  22.983  1.00  0.00     0.226 C 
ATOM     13  O   UNL A   1      28.449  27.930  23.434  1.00  0.00    -0.275 OA
ATOM     14  H   UNL A   1      29.718  25.992  23.749  1.00  0.00     0.164 HD
BRANCH  12  15
ATOM     15  C   UNL A   1      30.164  28.870  22.062  1.00  0.00     0.157 C 
BRANCH  15  16
ATOM     16  C   UNL A   1      29.446  30.172  22.105  1.00  0.00     0.063 A 
ATOM     17  C   UNL A   1      28.269  31.780  21.123  1.00  0.00     0.180 A 
ATOM     18  N   UNL A   1      28.822  30.609  20.946  1.00  0.00    -0.225 NA
ATOM     19  S   UNL A   1      28.379  32.398  22.718  1.00  0.00    -0.106 S 
ATOM     20  C   UNL A   1      29.277  31.011  23.189  1.00  0.00     0.093 A 
BRANCH  17  21
ATOM     21  N   UNL A   1      27.690  32.453  20.125  1.00  0.00    -0.375 N 
ATOM     22  H   UNL A   1      28.128  32.504  19.246  1.00  0.00     0.159 HD
ATOM     23  H   UNL A   1      26.823  32.898  20.271  1.00  0.00     0.159 HD
ENDBRANCH  17  21
ENDBRANCH  15  16
ENDBRANCH  12  15
ENDBRANCH   7  11
ENDBRANCH   6   7
ENDBRANCH   3   6
ENDBRANCH   1   2
BRANCH   1  24
ATOM     24  C   UNL A   1      31.770  30.794  26.368  1.00  0.00     0.023 C 
BRANCH  24  25
ATOM     25  C   UNL A   1      32.884  30.803  27.411  1.00  0.00     0.023 C 
BRANCH  25  26
ATOM     26  C   UNL A   1      33.777  32.028  27.366  1.00  0.00     0.116 C 
BRANCH  26  27
ATOM     27  N   UNL A   1      33.064  33.269  27.626  1.00  0.00    -0.352 N 
ATOM     28  C   UNL A   1      33.328  34.188  28.621  1.00  0.00     0.251 C 
ATOM     29  H   UNL A   1      32.312  33.477  27.026  1.00  0.00     0.163 HD
ATOM     30  O   UNL A   1      32.633  35.169  28.777  1.00  0.00    -0.269 OA
BRANCH  28  31
ATOM     31  C   UNL A   1      34.463  33.885  29.515  1.00  0.00     0.039 A 
ATOM     32  C   UNL A   1      34.264  32.989  30.565  1.00  0.00     0.014 A 
ATOM     33  C   UNL A   1      35.736  34.357  29.192  1.00  0.00     0.014 A 
ATOM     34  C   UNL A   1      35.369  32.510  31.267  1.00  0.00     0.010 A 
ATOM     35  C   UNL A   1      36.838  33.820  29.840  1.00  0.00     0.010 A 
ATOM     36  C   UNL A   1      36.664  32.895  30.885  1.00  0.00    -0.014 A 
BRANCH  36  37
ATOM     37  C   UNL A   1      37.867  32.401  31.596  1.00  0.00     0.031 A 
ATOM     38  C   UNL A   1      38.681  31.315  30.952  1.00  0.00     0.074 A 
ATOM     39  C   UNL A   1      38.162  32.846  32.831  1.00  0.00     0.049 A 
ATOM     40  N   UNL A   1      39.640  30.585  31.455  1.00  0.00    -0.248 NA
ATOM     41  C   UNL A   1      38.325  30.974  29.566  1.00  0.00     0.031 C 
ATOM     42  C   UNL A   1      37.422  33.877  33.563  1.00  0.00     0.029 A 
ATOM     43  N   UNL A   1      39.154  32.471  33.702  1.00  0.00    -0.354 N 
ATOM     44  C   UNL A   1      39.970  29.668  30.463  1.00  0.00     0.074 A 
ATOM     45  C   UNL A   1      39.070  29.901  29.355  1.00  0.00     0.031 C 
ATOM     46  C   UNL A   1      37.995  34.059  34.765  1.00  0.00     0.029 A 
ATOM     47  C   UNL A   1      39.109  33.128  34.910  1.00  0.00     0.049 A 
ATOM     48  H   UNL A   1      39.835  31.795  33.481  1.00  0.00     0.167 HD
ATOM     49  C   UNL A   1      40.949  28.731  30.472  1.00  0.00     0.034 A 
ATOM     50  C   UNL A   1      39.871  32.977  36.011  1.00  0.00     0.034 A 
ATOM     51  C   UNL A   1      41.860  28.549  31.573  1.00  0.00     0.049 A 
ATOM     52  C   UNL A   1      40.972  31.946  35.992  1.00  0.00     0.074 A 
ATOM     53  C   UNL A   1      42.921  27.670  31.683  1.00  0.00     0.029 A 
ATOM     54  N   UNL A   1      41.819  29.276  32.757  1.00  0.00    -0.354 N 
ATOM     55  N   UNL A   1      41.287  31.094  35.042  1.00  0.00    -0.248 NA
ATOM     56  C   UNL A   1      41.825  31.859  37.185  1.00  0.00     0.031 C 
ATOM     57  C   UNL A   1      43.496  27.835  32.948  1.00  0.00     0.029 A 
ATOM     58  C   UNL A   1      42.832  28.860  33.604  1.00  0.00     0.049 A 
ATOM     59  H   UNL A   1      41.165  29.983  32.964  1.00  0.00     0.167 HD
ATOM     60  C   UNL A   1      42.398  30.400  35.509  1.00  0.00     0.074 A 
ATOM     61  C   UNL A   1      42.697  30.927  36.824  1.00  0.00     0.031 C 
ATOM     62  C   UNL A   1      43.115  29.420  34.903  1.00  0.00     0.034 A 
BRANCH  49  63
ATOM     63  C   UNL A   1      41.051  27.830  29.266  1.00  0.00     0.023 A 
ATOM     64  C   UNL A   1      42.047  28.016  28.291  1.00  0.00     0.031 A 
ATOM     65  C   UNL A   1      40.104  26.813  29.055  1.00  0.00     0.131 A 
ATOM     66  C   UNL A   1      42.013  27.266  27.106  1.00  0.00     0.055 A 
ATOM     67  C   UNL A   1      40.133  26.008  27.914  1.00  0.00     0.041 A 
ATOM     68  F   UNL A   1      39.118  26.601  29.941  1.00  0.00    -0.206 F 
ATOM     69  C   UNL A   1      41.079  26.245  26.922  1.00  0.00     0.022 A 
BRANCH  66  70
ATOM     70  S   UNL A   1      43.104  27.761  25.743  1.00  0.00     0.124 S 
ATOM     71  O   UNL A   1      43.921  28.790  26.382  1.00  0.00    -0.237 OA
ATOM     72  O   UNL A   1      43.787  26.515  25.416  1.00  0.00    -0.237 OA
ATOM     73  O   UNL A   1      42.179  28.253  24.725  1.00  0.00    -0.744 OA
ENDBRANCH  66  70
ENDBRANCH  49  63
BRANCH  50  74
ATOM     74  C   UNL A   1      39.625  33.808  37.223  1.00  0.00     0.023 A 
ATOM     75  C   UNL A   1      38.908  33.295  38.316  1.00  0.00     0.031 A 
ATOM     76  C   UNL A   1      40.073  35.139  37.294  1.00  0.00     0.131 A 
ATOM     77  C   UNL A   1      38.621  34.120  39.415  1.00  0.00     0.055 A 
ATOM     78  C   UNL A   1      39.825  35.942  38.409  1.00  0.00     0.041 A 
ATOM     79  F   UNL A   1      40.771  35.674  36.281  1.00  0.00    -0.206 F 
ATOM     80  C   UNL A   1      39.084  35.437  39.473  1.00  0.00     0.022 A 
BRANCH  77  81
ATOM     81  S   UNL A   1      37.569  33.467  40.740  1.00  0.00     0.124 S 
ATOM     82  O   UNL A   1      38.463  32.511  41.385  1.00  0.00    -0.237 OA
ATOM     83  O   UNL A   1      37.259  34.672  41.503  1.00  0.00    -0.237 OA
ATOM     84  O   UNL A   1      36.441  32.880  40.021  1.00  0.00    -0.744 OA
ENDBRANCH  77  81
ENDBRANCH  50  74
BRANCH  62  85
ATOM     85  C   UNL A   1      44.336  28.916  35.624  1.00  0.00     0.023 A 
ATOM     86  C   UNL A   1      44.257  27.920  36.609  1.00  0.00     0.031 A 
ATOM     87  C   UNL A   1      45.602  29.424  35.284  1.00  0.00     0.131 A 
ATOM     88  C   UNL A   1      45.428  27.481  37.247  1.00  0.00     0.055 A 
ATOM     89  C   UNL A   1      46.766  28.953  35.890  1.00  0.00     0.041 A 
ATOM     90  F   UNL A   1      45.726  30.375  34.344  1.00  0.00    -0.206 F 
ATOM     91  C   UNL A   1      46.681  27.981  36.882  1.00  0.00     0.022 A 
BRANCH  88  92
ATOM     92  S   UNL A   1      45.290  26.268  38.587  1.00  0.00     0.124 S 
ATOM     93  O   UNL A   1      44.700  27.066  39.658  1.00  0.00    -0.237 OA
ATOM     94  O   UNL A   1      44.426  25.248  38.002  1.00  0.00    -0.237 OA
ATOM     95  O   UNL A   1      46.672  25.850  38.815  1.00  0.00    -0.744 OA
ENDBRANCH  88  92
ENDBRANCH  62  85
ENDBRANCH  36  37
ENDBRANCH  28  31
ENDBRANCH  26  27
ENDBRANCH  25  26
ENDBRANCH  24  25
ENDBRANCH   1  24
TORSDOF 19
ENDMDL
MODEL 3
REMARK VINA RESULT:     -11.1      5.933     11.539
REMARK SMILES Nc1nc(CC(=O)NC2(CC(=O)NCCCCNC(=O)c3ccc(-c4c5nc(c(-c6cc(S(=O)(=O)[O-])ccc6F)c6ccc([nH]6)c(-c6cc(S(=O)(=O)[O-])ccc6F)c6nc(c(-c7cc(S(=O)(=O)[O-])ccc7F)c7ccc4[nH]7)C=C6)C=C5)cc3)CCC2)cs1
REMARK SMILES IDX 14 1 13 2 11 3 12 4 10 6 9 7 84 8 86 9 85 10 8 11 6 12 7 13
REMARK SMILES IDX 5 15 4 16 2 17 3 18 88 19 87 20 1 21 15 24 16 25 17 26 18 27
REMARK SMILES IDX 19 28 20 30 21 31 22 32 83 33 23 34 82 35 24 36 25 37 26 38
REMARK SMILES IDX 76 39 27 40 81 41 75 42 77 43 28 44 80 45 74 46 73 47 29 49
REMARK SMILES IDX 61 50 41 51 60 52 42 53 45 54 59 55 78 56 43 57 44 58 58 60
REMARK SMILES IDX 79 61 46 62 30 63 31 64 39 65 32 66 38 67 40 68 37 69 33 70
REMARK SMILES IDX 34 71 35 72 36 73 62 74 63 75 71 76 64 77 70 78 72 79 69 80
REMARK SMILES IDX 65 81 66 82 67 83 68 84 47 85 48 86 56 87 49 88 55 89 57 90
REMARK SMILES IDX 54 91 50 92 51 93 52 94 53 95
REMARK H PARENT 13 5 8 14 1 22 1 23 18 29 77 48 45 59
REMARK Flexibility Score: inf
ROOT
ATOM      1  C   UNL A   1      35.930  22.128  23.936  1.00  0.00     0.116 C 
ENDROOT
BRANCH   1   2
ATOM      2  N   UNL A   1      35.538  23.325  23.229  1.00  0.00    -0.356 N 
ATOM      3  C   UNL A   1      34.391  24.041  23.375  1.00  0.00     0.222 C 
ATOM      4  O   UNL A   1      34.028  24.744  22.433  1.00  0.00    -0.275 OA
ATOM      5  H   UNL A   1      36.178  23.663  22.561  1.00  0.00     0.163 HD
BRANCH   3   6
ATOM      6  C   UNL A   1      33.661  24.019  24.697  1.00  0.00     0.128 C 
BRANCH   6   7
ATOM      7  C   UNL A   1      32.232  23.475  24.720  1.00  0.00     0.049 C 
ATOM      8  C   UNL A   1      31.109  24.566  24.619  1.00  0.00     0.029 C 
ATOM      9  C   UNL A   1      31.646  23.203  26.157  1.00  0.00     0.029 C 
ATOM     10  C   UNL A   1      31.061  24.620  26.153  1.00  0.00     0.005 C 
BRANCH   7  11
ATOM     11  N   UNL A   1      31.965  22.321  23.826  1.00  0.00    -0.350 N 
ATOM     12  C   UNL A   1      32.301  20.997  23.895  1.00  0.00     0.226 C 
ATOM     13  O   UNL A   1      32.154  20.333  22.860  1.00  0.00    -0.275 OA
ATOM     14  H   UNL A   1      31.444  22.555  23.024  1.00  0.00     0.164 HD
BRANCH  12  15
ATOM     15  C   UNL A   1      32.803  20.336  25.159  1.00  0.00     0.157 C 
BRANCH  15  16
ATOM     16  C   UNL A   1      33.221  18.919  24.986  1.00  0.00     0.063 A 
ATOM     17  C   UNL A   1      32.803  16.740  25.091  1.00  0.00     0.180 A 
ATOM     18  N   UNL A   1      32.284  17.928  25.246  1.00  0.00    -0.225 NA
ATOM     19  S   UNL A   1      34.424  16.724  24.533  1.00  0.00    -0.106 S 
ATOM     20  C   UNL A   1      34.441  18.442  24.549  1.00  0.00     0.093 A 
BRANCH  17  21
ATOM     21  N   UNL A   1      32.126  15.624  25.376  1.00  0.00    -0.375 N 
ATOM     22  H   UNL A   1      31.736  15.086  24.650  1.00  0.00     0.159 HD
ATOM     23  H   UNL A   1      32.018  15.340  26.313  1.00  0.00     0.159 HD
ENDBRANCH  17  21
ENDBRANCH  15  16
ENDBRANCH  12  15
ENDBRANCH   7  11
ENDBRANCH   6   7
ENDBRANCH   3   6
ENDBRANCH   1   2
BRANCH   1  24
ATOM     24  C   UNL A   1      37.272  22.358  24.631  1.00  0.00     0.023 C 
BRANCH  24  25
ATOM     25  C   UNL A   1      37.719  21.222  25.547  1.00  0.00     0.023 C 
BRANCH  25  26
ATOM     26  C   UNL A   1      39.151  21.333  26.032  1.00  0.00     0.116 C 
BRANCH  26  27
ATOM     27  N   UNL A   1      39.878  20.074  25.972  1.00  0.00    -0.352 N 
ATOM     28  C   UNL A   1      41.236  19.889  26.128  1.00  0.00     0.251 C 
ATOM     29  H   UNL A   1      39.342  19.266  25.803  1.00  0.00     0.163 HD
ATOM     30  O   UNL A   1      41.745  18.795  26.006  1.00  0.00    -0.269 OA
BRANCH  28  31
ATOM     31  C   UNL A   1      42.041  21.098  26.394  1.00  0.00     0.039 A 
ATOM     32  C   UNL A   1      42.325  21.957  25.333  1.00  0.00     0.014 A 
ATOM     33  C   UNL A   1      42.347  21.443  27.712  1.00  0.00     0.014 A 
ATOM     34  C   UNL A   1      42.872  23.211  25.603  1.00  0.00     0.010 A 
ATOM     35  C   UNL A   1      42.816  22.719  27.983  1.00  0.00     0.010 A 
ATOM     36  C   UNL A   1      43.087  23.612  26.931  1.00  0.00    -0.014 A 
BRANCH  36  37
ATOM     37  C   UNL A   1      43.654  24.940  27.264  1.00  0.00     0.031 A 
ATOM     38  C   UNL A   1      42.741  25.982  27.846  1.00  0.00     0.074 A 
ATOM     39  C   UNL A   1      44.932  25.234  26.957  1.00  0.00     0.049 A 
ATOM     40  N   UNL A   1      42.945  27.259  28.025  1.00  0.00    -0.248 NA
ATOM     41  C   UNL A   1      41.396  25.524  28.226  1.00  0.00     0.031 C 
ATOM     42  C   UNL A   1      45.898  24.308  26.362  1.00  0.00     0.029 A 
ATOM     43  N   UNL A   1      45.633  26.406  27.085  1.00  0.00    -0.354 N 
ATOM     44  C   UNL A   1      41.739  27.766  28.497  1.00  0.00     0.074 A 
ATOM     45  C   UNL A   1      40.798  26.666  28.520  1.00  0.00     0.031 C 
ATOM     46  C   UNL A   1      47.068  24.945  26.189  1.00  0.00     0.029 A 
ATOM     47  C   UNL A   1      46.924  26.334  26.614  1.00  0.00     0.049 A 
ATOM     48  H   UNL A   1      45.248  27.223  27.477  1.00  0.00     0.167 HD
ATOM     49  C   UNL A   1      41.451  29.029  28.894  1.00  0.00     0.034 A 
ATOM     50  C   UNL A   1      47.871  27.289  26.520  1.00  0.00     0.034 A 
ATOM     51  C   UNL A   1      42.420  30.095  28.901  1.00  0.00     0.049 A 
ATOM     52  C   UNL A   1      47.539  28.683  26.991  1.00  0.00     0.074 A 
ATOM     53  C   UNL A   1      42.266  31.403  29.324  1.00  0.00     0.029 A 
ATOM     54  N   UNL A   1      43.736  29.967  28.472  1.00  0.00    -0.354 N 
ATOM     55  N   UNL A   1      46.400  29.148  27.451  1.00  0.00    -0.248 NA
ATOM     56  C   UNL A   1      48.618  29.679  26.938  1.00  0.00     0.031 C 
ATOM     57  C   UNL A   1      43.474  32.075  29.112  1.00  0.00     0.029 A 
ATOM     58  C   UNL A   1      44.400  31.173  28.614  1.00  0.00     0.049 A 
ATOM     59  H   UNL A   1      44.136  29.140  28.118  1.00  0.00     0.167 HD
ATOM     60  C   UNL A   1      46.639  30.479  27.779  1.00  0.00     0.074 A 
ATOM     61  C   UNL A   1      48.027  30.744  27.460  1.00  0.00     0.031 C 
ATOM     62  C   UNL A   1      45.791  31.399  28.304  1.00  0.00     0.034 A 
BRANCH  49  63
ATOM     63  C   UNL A   1      40.032  29.312  29.319  1.00  0.00     0.023 A 
ATOM     64  C   UNL A   1      39.674  29.401  30.676  1.00  0.00     0.031 A 
ATOM     65  C   UNL A   1      39.011  29.429  28.360  1.00  0.00     0.131 A 
ATOM     66  C   UNL A   1      38.323  29.502  31.038  1.00  0.00     0.055 A 
ATOM     67  C   UNL A   1      37.677  29.622  28.727  1.00  0.00     0.041 A 
ATOM     68  F   UNL A   1      39.288  29.332  27.051  1.00  0.00    -0.206 F 
ATOM     69  C   UNL A   1      37.324  29.640  30.072  1.00  0.00     0.022 A 
BRANCH  66  70
ATOM     70  S   UNL A   1      37.880  29.281  32.784  1.00  0.00     0.124 S 
ATOM     71  O   UNL A   1      37.778  27.827  32.878  1.00  0.00    -0.237 OA
ATOM     72  O   UNL A   1      39.010  29.889  33.476  1.00  0.00    -0.237 OA
ATOM     73  O   UNL A   1      36.612  29.998  32.909  1.00  0.00    -0.744 OA
ENDBRANCH  66  70
ENDBRANCH  49  63
BRANCH  50  74
ATOM     74  C   UNL A   1      49.213  26.971  25.959  1.00  0.00     0.023 A 
ATOM     75  C   UNL A   1      49.577  27.403  24.673  1.00  0.00     0.031 A 
ATOM     76  C   UNL A   1      50.142  26.204  26.684  1.00  0.00     0.131 A 
ATOM     77  C   UNL A   1      50.819  27.027  24.133  1.00  0.00     0.055 A 
ATOM     78  C   UNL A   1      51.394  25.871  26.161  1.00  0.00     0.041 A 
ATOM     79  F   UNL A   1      49.848  25.776  27.921  1.00  0.00    -0.206 F 
ATOM     80  C   UNL A   1      51.733  26.273  24.873  1.00  0.00     0.022 A 
BRANCH  77  81
ATOM     81  S   UNL A   1      51.191  27.480  22.417  1.00  0.00     0.124 S 
ATOM     82  O   UNL A   1      50.963  28.921  22.433  1.00  0.00    -0.237 OA
ATOM     83  O   UNL A   1      52.580  27.051  22.285  1.00  0.00    -0.237 OA
ATOM     84  O   UNL A   1      50.226  26.704  21.643  1.00  0.00    -0.744 OA
ENDBRANCH  77  81
ENDBRANCH  50  74
BRANCH  62  85
ATOM     85  C   UNL A   1      46.366  32.748  28.641  1.00  0.00     0.023 A 
ATOM     86  C   UNL A   1      46.270  33.836  27.760  1.00  0.00     0.031 A 
ATOM     87  C   UNL A   1      46.987  32.948  29.887  1.00  0.00     0.131 A 
ATOM     88  C   UNL A   1      46.817  35.076  28.126  1.00  0.00     0.055 A 
ATOM     89  C   UNL A   1      47.490  34.192  30.263  1.00  0.00     0.041 A 
ATOM     90  F   UNL A   1      47.098  31.937  30.764  1.00  0.00    -0.206 F 
ATOM     91  C   UNL A   1      47.412  35.263  29.377  1.00  0.00     0.022 A 
BRANCH  88  92
ATOM     92  S   UNL A   1      46.772  36.438  26.930  1.00  0.00     0.124 S 
ATOM     93  O   UNL A   1      47.637  37.427  27.565  1.00  0.00    -0.237 OA
ATOM     94  O   UNL A   1      47.298  35.813  25.721  1.00  0.00    -0.237 OA
ATOM     95  O   UNL A   1      45.356  36.798  26.874  1.00  0.00    -0.744 OA
ENDBRANCH  88  92
ENDBRANCH  62  85
ENDBRANCH  36  37
ENDBRANCH  28  31
ENDBRANCH  26  27
ENDBRANCH  25  26
ENDBRANCH  24  25
ENDBRANCH   1  24
TORSDOF 19
ENDMDL
