MODEL 1
REMARK VINA RESULT:      -9.1      0.000      0.000
REMARK SMILES CCCCCCO[C@H](F)C(=O)NCCCCNC(=O)c1ccc(-c2c3nc(c(-c4cc(S(=O)(=O)[O-])ccc4F)c4ccc([nH]4)c(-c4cc(S(=O)(=O)[O-])ccc4F)c4nc(c(-c5cc(S(=O)(=O)[O-])ccc5F)c5ccc2[nH]5)C=C4)C=C3)cc1
REMARK SMILES IDX 13 1 12 2 10 3 11 4 8 6 9 7 7 8 6 9 5 10 4 11 3 12 2 13 1 14
REMARK SMILES IDX 14 15 15 16 16 17 17 18 18 19 19 21 20 22 21 23 82 24 22 25
REMARK SMILES IDX 81 26 23 27 24 28 25 29 75 30 26 31 80 32 74 33 76 34 27 35
REMARK SMILES IDX 79 36 73 37 72 38 28 40 60 41 40 42 59 43 41 44 44 45 58 46
REMARK SMILES IDX 77 47 42 48 43 49 57 51 78 52 45 53 29 54 30 55 38 56 31 57
REMARK SMILES IDX 37 58 39 59 36 60 32 61 33 62 34 63 35 64 61 65 62 66 70 67
REMARK SMILES IDX 63 68 69 69 71 70 68 71 64 72 65 73 66 74 67 75 46 76 47 77
REMARK SMILES IDX 55 78 48 79 54 80 56 81 53 82 49 83 50 84 51 85 52 86
REMARK H PARENT 12 5 17 20 76 39 44 50
REMARK Flexibility Score: inf
ROOT
ATOM      1  C   UNL A   1      33.347  35.702  30.273  1.00  0.00     0.116 C 
ENDROOT
BRANCH   1   2
ATOM      2  N   UNL A   1      33.166  34.650  31.254  1.00  0.00    -0.351 N 
ATOM      3  C   UNL A   1      33.777  34.508  32.475  1.00  0.00     0.282 C 
ATOM      4  O   UNL A   1      33.399  33.576  33.193  1.00  0.00    -0.269 OA
ATOM      5  H   UNL A   1      32.520  33.947  31.015  1.00  0.00     0.163 HD
BRANCH   3   6
ATOM      6  C   UNL A   1      34.867  35.507  32.957  1.00  0.00     0.387 C 
ATOM      7  F   UNL A   1      34.360  36.611  33.585  1.00  0.00    -0.205 F 
BRANCH   6   8
ATOM      8  O   UNL A   1      35.936  35.009  33.753  1.00  0.00    -0.341 OA
BRANCH   8   9
ATOM      9  C   UNL A   1      37.072  34.577  33.012  1.00  0.00     0.164 C 
BRANCH   9  10
ATOM     10  C   UNL A   1      37.003  33.084  32.706  1.00  0.00     0.029 C 
BRANCH  10  11
ATOM     11  C   UNL A   1      37.035  32.204  33.958  1.00  0.00     0.002 C 
BRANCH  11  12
ATOM     12  C   UNL A   1      38.221  32.479  34.887  1.00  0.00    -0.000 C 
BRANCH  12  13
ATOM     13  C   UNL A   1      37.956  32.290  36.387  1.00  0.00    -0.003 C 
ATOM     14  C   UNL A   1      37.230  33.455  37.047  1.00  0.00     0.004 C 
ENDBRANCH  12  13
ENDBRANCH  11  12
ENDBRANCH  10  11
ENDBRANCH   9  10
ENDBRANCH   8   9
ENDBRANCH   6   8
ENDBRANCH   3   6
ENDBRANCH   1   2
BRANCH   1  15
ATOM     15  C   UNL A   1      33.454  35.188  28.837  1.00  0.00     0.023 C 
BRANCH  15  16
ATOM     16  C   UNL A   1      34.869  34.883  28.333  1.00  0.00     0.023 C 
BRANCH  16  17
ATOM     17  C   UNL A   1      35.309  33.425  28.443  1.00  0.00     0.116 C 
BRANCH  17  18
ATOM     18  N   UNL A   1      34.334  32.499  27.889  1.00  0.00    -0.352 N 
ATOM     19  C   UNL A   1      34.441  31.149  27.631  1.00  0.00     0.251 C 
ATOM     20  H   UNL A   1      33.463  32.897  27.664  1.00  0.00     0.163 HD
ATOM     21  O   UNL A   1      33.560  30.585  26.993  1.00  0.00    -0.269 OA
BRANCH  19  22
ATOM     22  C   UNL A   1      35.627  30.389  28.091  1.00  0.00     0.039 A 
ATOM     23  C   UNL A   1      36.766  30.350  27.280  1.00  0.00     0.014 A 
ATOM     24  C   UNL A   1      35.619  29.710  29.310  1.00  0.00     0.014 A 
ATOM     25  C   UNL A   1      37.926  29.712  27.736  1.00  0.00     0.010 A 
ATOM     26  C   UNL A   1      36.794  29.136  29.793  1.00  0.00     0.010 A 
ATOM     27  C   UNL A   1      37.967  29.143  29.018  1.00  0.00    -0.014 A 
BRANCH  27  28
ATOM     28  C   UNL A   1      39.209  28.548  29.586  1.00  0.00     0.031 A 
ATOM     29  C   UNL A   1      39.843  29.163  30.805  1.00  0.00     0.074 A 
ATOM     30  C   UNL A   1      39.819  27.522  28.958  1.00  0.00     0.049 A 
ATOM     31  N   UNL A   1      41.018  28.939  31.333  1.00  0.00    -0.248 NA
ATOM     32  C   UNL A   1      39.054  30.190  31.501  1.00  0.00     0.031 C 
ATOM     33  C   UNL A   1      39.313  26.834  27.769  1.00  0.00     0.029 A 
ATOM     34  N   UNL A   1      41.013  26.894  29.219  1.00  0.00    -0.354 N 
ATOM     35  C   UNL A   1      41.121  29.810  32.413  1.00  0.00     0.074 A 
ATOM     36  C   UNL A   1      39.907  30.601  32.429  1.00  0.00     0.031 C 
ATOM     37  C   UNL A   1      40.183  25.876  27.411  1.00  0.00     0.029 A 
ATOM     38  C   UNL A   1      41.339  25.919  28.302  1.00  0.00     0.049 A 
ATOM     39  H   UNL A   1      41.583  27.119  29.989  1.00  0.00     0.167 HD
ATOM     40  C   UNL A   1      42.126  29.930  33.317  1.00  0.00     0.034 A 
ATOM     41  C   UNL A   1      42.451  25.167  28.175  1.00  0.00     0.034 A 
ATOM     42  C   UNL A   1      43.326  29.129  33.299  1.00  0.00     0.049 A 
ATOM     43  C   UNL A   1      43.582  25.356  29.160  1.00  0.00     0.074 A 
ATOM     44  C   UNL A   1      44.400  29.162  34.172  1.00  0.00     0.029 A 
ATOM     45  N   UNL A   1      43.610  28.146  32.360  1.00  0.00    -0.354 N 
ATOM     46  N   UNL A   1      43.666  26.190  30.170  1.00  0.00    -0.248 NA
ATOM     47  C   UNL A   1      44.764  24.500  28.988  1.00  0.00     0.031 C 
ATOM     48  C   UNL A   1      45.354  28.239  33.732  1.00  0.00     0.029 A 
ATOM     49  C   UNL A   1      44.846  27.577  32.626  1.00  0.00     0.049 A 
ATOM     50  H   UNL A   1      43.020  27.890  31.614  1.00  0.00     0.167 HD
ATOM     51  C   UNL A   1      44.887  25.921  30.782  1.00  0.00     0.074 A 
ATOM     52  C   UNL A   1      45.506  24.852  30.028  1.00  0.00     0.031 C 
ATOM     53  C   UNL A   1      45.442  26.497  31.877  1.00  0.00     0.034 A 
BRANCH  40  54
ATOM     54  C   UNL A   1      41.973  30.984  34.386  1.00  0.00     0.023 A 
ATOM     55  C   UNL A   1      42.241  32.339  34.124  1.00  0.00     0.031 A 
ATOM     56  C   UNL A   1      41.579  30.632  35.689  1.00  0.00     0.131 A 
ATOM     57  C   UNL A   1      42.189  33.277  35.166  1.00  0.00     0.055 A 
ATOM     58  C   UNL A   1      41.447  31.583  36.702  1.00  0.00     0.041 A 
ATOM     59  F   UNL A   1      41.328  29.350  36.004  1.00  0.00    -0.206 F 
ATOM     60  C   UNL A   1      41.768  32.913  36.447  1.00  0.00     0.022 A 
BRANCH  57  61
ATOM     61  S   UNL A   1      42.819  34.949  34.855  1.00  0.00     0.124 S 
ATOM     62  O   UNL A   1      44.263  34.727  34.879  1.00  0.00    -0.237 OA
ATOM     63  O   UNL A   1      42.243  35.267  33.553  1.00  0.00    -0.237 OA
ATOM     64  O   UNL A   1      42.297  35.726  35.976  1.00  0.00    -0.744 OA
ENDBRANCH  57  61
ENDBRANCH  40  54
BRANCH  41  65
ATOM     65  C   UNL A   1      42.580  24.177  27.066  1.00  0.00     0.023 A 
ATOM     66  C   UNL A   1      42.019  22.896  27.180  1.00  0.00     0.031 A 
ATOM     67  C   UNL A   1      43.322  24.469  25.908  1.00  0.00     0.131 A 
ATOM     68  C   UNL A   1      42.258  21.934  26.187  1.00  0.00     0.055 A 
ATOM     69  C   UNL A   1      43.508  23.529  24.893  1.00  0.00     0.041 A 
ATOM     70  F   UNL A   1      43.879  25.680  25.745  1.00  0.00    -0.206 F 
ATOM     71  C   UNL A   1      42.988  22.245  25.038  1.00  0.00     0.022 A 
BRANCH  68  72
ATOM     72  S   UNL A   1      41.694  20.234  26.472  1.00  0.00     0.124 S 
ATOM     73  O   UNL A   1      42.249  19.955  27.791  1.00  0.00    -0.237 OA
ATOM     74  O   UNL A   1      40.243  20.383  26.402  1.00  0.00    -0.237 OA
ATOM     75  O   UNL A   1      42.295  19.487  25.369  1.00  0.00    -0.744 OA
ENDBRANCH  68  72
ENDBRANCH  41  65
BRANCH  53  76
ATOM     76  C   UNL A   1      46.743  25.922  32.380  1.00  0.00     0.023 A 
ATOM     77  C   UNL A   1      46.790  24.940  33.384  1.00  0.00     0.031 A 
ATOM     78  C   UNL A   1      47.958  26.365  31.826  1.00  0.00     0.131 A 
ATOM     79  C   UNL A   1      48.031  24.460  33.831  1.00  0.00     0.055 A 
ATOM     80  C   UNL A   1      49.186  25.848  32.239  1.00  0.00     0.041 A 
ATOM     81  F   UNL A   1      47.969  27.302  30.865  1.00  0.00    -0.206 F 
ATOM     82  C   UNL A   1      49.228  24.896  33.254  1.00  0.00     0.022 A 
BRANCH  79  83
ATOM     83  S   UNL A   1      48.071  23.297  35.222  1.00  0.00     0.124 S 
ATOM     84  O   UNL A   1      47.712  24.155  36.347  1.00  0.00    -0.237 OA
ATOM     85  O   UNL A   1      47.071  22.308  34.831  1.00  0.00    -0.237 OA
ATOM     86  O   UNL A   1      49.450  22.812  35.226  1.00  0.00    -0.744 OA
ENDBRANCH  79  83
ENDBRANCH  53  76
ENDBRANCH  27  28
ENDBRANCH  19  22
ENDBRANCH  17  18
ENDBRANCH  16  17
ENDBRANCH  15  16
ENDBRANCH   1  15
TORSDOF 20
ENDMDL
MODEL 2
REMARK VINA RESULT:      -9.0      5.594      9.609
REMARK SMILES CCCCCCO[C@H](F)C(=O)NCCCCNC(=O)c1ccc(-c2c3nc(c(-c4cc(S(=O)(=O)[O-])ccc4F)c4ccc([nH]4)c(-c4cc(S(=O)(=O)[O-])ccc4F)c4nc(c(-c5cc(S(=O)(=O)[O-])ccc5F)c5ccc2[nH]5)C=C4)C=C3)cc1
REMARK SMILES IDX 13 1 12 2 10 3 11 4 8 6 9 7 7 8 6 9 5 10 4 11 3 12 2 13 1 14
REMARK SMILES IDX 14 15 15 16 16 17 17 18 18 19 19 21 20 22 21 23 82 24 22 25
REMARK SMILES IDX 81 26 23 27 24 28 25 29 75 30 26 31 80 32 74 33 76 34 27 35
REMARK SMILES IDX 79 36 73 37 72 38 28 40 60 41 40 42 59 43 41 44 44 45 58 46
REMARK SMILES IDX 77 47 42 48 43 49 57 51 78 52 45 53 29 54 30 55 38 56 31 57
REMARK SMILES IDX 37 58 39 59 36 60 32 61 33 62 34 63 35 64 61 65 62 66 70 67
REMARK SMILES IDX 63 68 69 69 71 70 68 71 64 72 65 73 66 74 67 75 46 76 47 77
REMARK SMILES IDX 55 78 48 79 54 80 56 81 53 82 49 83 50 84 51 85 52 86
REMARK H PARENT 12 5 17 20 76 39 44 50
REMARK Flexibility Score: inf
ROOT
ATOM      1  C   UNL A   1      34.215  24.316  23.896  1.00  0.00     0.116 C 
ENDROOT
BRANCH   1   2
ATOM      2  N   UNL A   1      33.943  24.700  22.525  1.00  0.00    -0.351 N 
ATOM      3  C   UNL A   1      33.193  25.756  22.068  1.00  0.00     0.282 C 
ATOM      4  O   UNL A   1      33.173  25.950  20.848  1.00  0.00    -0.269 OA
ATOM      5  H   UNL A   1      34.349  24.132  21.832  1.00  0.00     0.163 HD
BRANCH   3   6
ATOM      6  C   UNL A   1      32.440  26.700  23.047  1.00  0.00     0.387 C 
ATOM      7  F   UNL A   1      32.714  28.024  22.852  1.00  0.00    -0.205 F 
BRANCH   6   8
ATOM      8  O   UNL A   1      31.029  26.562  23.167  1.00  0.00    -0.341 OA
BRANCH   8   9
ATOM      9  C   UNL A   1      30.397  27.593  23.918  1.00  0.00     0.164 C 
BRANCH   9  10
ATOM     10  C   UNL A   1      29.232  28.210  23.149  1.00  0.00     0.029 C 
BRANCH  10  11
ATOM     11  C   UNL A   1      29.394  29.711  22.902  1.00  0.00     0.002 C 
BRANCH  11  12
ATOM     12  C   UNL A   1      28.071  30.467  22.739  1.00  0.00    -0.000 C 
BRANCH  12  13
ATOM     13  C   UNL A   1      28.160  31.833  22.044  1.00  0.00    -0.003 C 
ATOM     14  C   UNL A   1      28.749  32.939  22.909  1.00  0.00     0.004 C 
ENDBRANCH  12  13
ENDBRANCH  11  12
ENDBRANCH  10  11
ENDBRANCH   9  10
ENDBRANCH   8   9
ENDBRANCH   6   8
ENDBRANCH   3   6
ENDBRANCH   1   2
BRANCH   1  15
ATOM     15  C   UNL A   1      35.628  23.774  24.112  1.00  0.00     0.023 C 
BRANCH  15  16
ATOM     16  C   UNL A   1      35.735  22.281  24.441  1.00  0.00     0.023 C 
BRANCH  16  17
ATOM     17  C   UNL A   1      36.389  21.944  25.778  1.00  0.00     0.116 C 
BRANCH  17  18
ATOM     18  N   UNL A   1      37.411  20.916  25.663  1.00  0.00    -0.352 N 
ATOM     19  C   UNL A   1      38.772  20.993  25.870  1.00  0.00     0.251 C 
ATOM     20  H   UNL A   1      37.080  20.029  25.395  1.00  0.00     0.163 HD
ATOM     21  O   UNL A   1      39.486  20.051  25.543  1.00  0.00    -0.269 OA
BRANCH  19  22
ATOM     22  C   UNL A   1      39.375  22.216  26.450  1.00  0.00     0.039 A 
ATOM     23  C   UNL A   1      40.398  22.087  27.396  1.00  0.00     0.014 A 
ATOM     24  C   UNL A   1      38.931  23.484  26.075  1.00  0.00     0.014 A 
ATOM     25  C   UNL A   1      41.039  23.229  27.890  1.00  0.00     0.010 A 
ATOM     26  C   UNL A   1      39.617  24.617  26.513  1.00  0.00     0.010 A 
ATOM     27  C   UNL A   1      40.689  24.502  27.414  1.00  0.00    -0.014 A 
BRANCH  27  28
ATOM     28  C   UNL A   1      41.414  25.735  27.832  1.00  0.00     0.031 A 
ATOM     29  C   UNL A   1      40.687  26.803  28.606  1.00  0.00     0.074 A 
ATOM     30  C   UNL A   1      42.687  25.941  27.440  1.00  0.00     0.049 A 
ATOM     31  N   UNL A   1      41.058  28.025  28.886  1.00  0.00    -0.248 NA
ATOM     32  C   UNL A   1      39.348  26.450  29.104  1.00  0.00     0.031 C 
ATOM     33  C   UNL A   1      43.507  24.990  26.687  1.00  0.00     0.029 A 
ATOM     34  N   UNL A   1      43.509  27.031  27.598  1.00  0.00    -0.354 N 
ATOM     35  C   UNL A   1      39.994  28.597  29.575  1.00  0.00     0.074 A 
ATOM     36  C   UNL A   1      38.944  27.599  29.623  1.00  0.00     0.031 C 
ATOM     37  C   UNL A   1      44.713  25.532  26.459  1.00  0.00     0.029 A 
ATOM     38  C   UNL A   1      44.738  26.891  26.991  1.00  0.00     0.049 A 
ATOM     39  H   UNL A   1      43.245  27.835  28.100  1.00  0.00     0.167 HD
ATOM     40  C   UNL A   1      39.905  29.832  30.130  1.00  0.00     0.034 A 
ATOM     41  C   UNL A   1      45.754  27.767  26.852  1.00  0.00     0.034 A 
ATOM     42  C   UNL A   1      40.962  30.813  30.086  1.00  0.00     0.049 A 
ATOM     43  C   UNL A   1      45.612  29.156  27.429  1.00  0.00     0.074 A 
ATOM     44  C   UNL A   1      40.979  32.089  30.624  1.00  0.00     0.029 A 
ATOM     45  N   UNL A   1      42.193  30.627  29.470  1.00  0.00    -0.354 N 
ATOM     46  N   UNL A   1      44.595  29.683  28.071  1.00  0.00    -0.248 NA
ATOM     47  C   UNL A   1      46.755  30.065  27.267  1.00  0.00     0.031 C 
ATOM     48  C   UNL A   1      42.196  32.692  30.289  1.00  0.00     0.029 A 
ATOM     49  C   UNL A   1      42.969  31.768  29.605  1.00  0.00     0.049 A 
ATOM     50  H   UNL A   1      42.474  29.805  29.007  1.00  0.00     0.167 HD
ATOM     51  C   UNL A   1      44.999  30.966  28.431  1.00  0.00     0.074 A 
ATOM     52  C   UNL A   1      46.348  31.135  27.934  1.00  0.00     0.031 C 
ATOM     53  C   UNL A   1      44.320  31.915  29.122  1.00  0.00     0.034 A 
BRANCH  40  54
ATOM     54  C   UNL A   1      38.607  30.193  30.811  1.00  0.00     0.023 A 
ATOM     55  C   UNL A   1      37.587  30.880  30.130  1.00  0.00     0.031 A 
ATOM     56  C   UNL A   1      38.393  29.870  32.163  1.00  0.00     0.131 A 
ATOM     57  C   UNL A   1      36.437  31.290  30.821  1.00  0.00     0.055 A 
ATOM     58  C   UNL A   1      37.210  30.206  32.822  1.00  0.00     0.041 A 
ATOM     59  F   UNL A   1      39.340  29.231  32.871  1.00  0.00    -0.206 F 
ATOM     60  C   UNL A   1      36.230  30.935  32.155  1.00  0.00     0.022 A 
BRANCH  57  61
ATOM     61  S   UNL A   1      35.286  32.417  29.989  1.00  0.00     0.124 S 
ATOM     62  O   UNL A   1      34.847  31.605  28.856  1.00  0.00    -0.237 OA
ATOM     63  O   UNL A   1      34.286  32.667  31.021  1.00  0.00    -0.237 OA
ATOM     64  O   UNL A   1      36.121  33.564  29.638  1.00  0.00    -0.744 OA
ENDBRANCH  57  61
ENDBRANCH  40  54
BRANCH  41  65
ATOM     65  C   UNL A   1      46.996  27.383  26.119  1.00  0.00     0.023 A 
ATOM     66  C   UNL A   1      47.186  27.764  24.782  1.00  0.00     0.031 A 
ATOM     67  C   UNL A   1      47.977  26.572  26.717  1.00  0.00     0.131 A 
ATOM     68  C   UNL A   1      48.296  27.288  24.067  1.00  0.00     0.055 A 
ATOM     69  C   UNL A   1      49.110  26.149  26.020  1.00  0.00     0.041 A 
ATOM     70  F   UNL A   1      47.848  26.179  27.994  1.00  0.00    -0.206 F 
ATOM     71  C   UNL A   1      49.266  26.493  24.680  1.00  0.00     0.022 A 
BRANCH  68  72
ATOM     72  S   UNL A   1      48.394  27.632  22.289  1.00  0.00     0.124 S 
ATOM     73  O   UNL A   1      47.141  28.341  22.055  1.00  0.00    -0.237 OA
ATOM     74  O   UNL A   1      49.612  28.433  22.204  1.00  0.00    -0.237 OA
ATOM     75  O   UNL A   1      48.482  26.302  21.689  1.00  0.00    -0.744 OA
ENDBRANCH  68  72
ENDBRANCH  41  65
BRANCH  53  76
ATOM     76  C   UNL A   1      45.057  33.187  29.461  1.00  0.00     0.023 A 
ATOM     77  C   UNL A   1      44.971  34.339  28.661  1.00  0.00     0.031 A 
ATOM     78  C   UNL A   1      45.852  33.242  30.621  1.00  0.00     0.131 A 
ATOM     79  C   UNL A   1      45.700  35.487  29.011  1.00  0.00     0.055 A 
ATOM     80  C   UNL A   1      46.533  34.402  30.991  1.00  0.00     0.041 A 
ATOM     81  F   UNL A   1      45.969  32.169  31.419  1.00  0.00    -0.206 F 
ATOM     82  C   UNL A   1      46.467  35.530  30.179  1.00  0.00     0.022 A 
BRANCH  79  83
ATOM     83  S   UNL A   1      45.681  36.912  27.889  1.00  0.00     0.124 S 
ATOM     84  O   UNL A   1      46.849  36.655  27.052  1.00  0.00    -0.237 OA
ATOM     85  O   UNL A   1      44.385  36.776  27.232  1.00  0.00    -0.237 OA
ATOM     86  O   UNL A   1      45.801  38.059  28.788  1.00  0.00    -0.744 OA
ENDBRANCH  79  83
ENDBRANCH  53  76
ENDBRANCH  27  28
ENDBRANCH  19  22
ENDBRANCH  17  18
ENDBRANCH  16  17
ENDBRANCH  15  16
ENDBRANCH   1  15
TORSDOF 20
ENDMDL
MODEL 3
REMARK VINA RESULT:      -9.0      5.332      9.289
REMARK SMILES CCCCCCO[C@H](F)C(=O)NCCCCNC(=O)c1ccc(-c2c3nc(c(-c4cc(S(=O)(=O)[O-])ccc4F)c4ccc([nH]4)c(-c4cc(S(=O)(=O)[O-])ccc4F)c4nc(c(-c5cc(S(=O)(=O)[O-])ccc5F)c5ccc2[nH]5)C=C4)C=C3)cc1
REMARK SMILES IDX 13 1 12 2 10 3 11 4 8 6 9 7 7 8 6 9 5 10 4 11 3 12 2 13 1 14
REMARK SMILES IDX 14 15 15 16 16 17 17 18 18 19 19 21 20 22 21 23 82 24 22 25
REMARK SMILES IDX 81 26 23 27 24 28 25 29 75 30 26 31 80 32 74 33 76 34 27 35
REMARK SMILES IDX 79 36 73 37 72 38 28 40 60 41 40 42 59 43 41 44 44 45 58 46
REMARK SMILES IDX 77 47 42 48 43 49 57 51 78 52 45 53 29 54 30 55 38 56 31 57
REMARK SMILES IDX 37 58 39 59 36 60 32 61 33 62 34 63 35 64 61 65 62 66 70 67
REMARK SMILES IDX 63 68 69 69 71 70 68 71 64 72 65 73 66 74 67 75 46 76 47 77
REMARK SMILES IDX 55 78 48 79 54 80 56 81 53 82 49 83 50 84 51 85 52 86
REMARK H PARENT 12 5 17 20 76 39 44 50
REMARK Flexibility Score: inf
ROOT
ATOM      1  C   UNL A   1      33.715  24.141  25.899  1.00  0.00     0.116 C 
ENDROOT
BRANCH   1   2
ATOM      2  N   UNL A   1      32.345  23.931  26.324  1.00  0.00    -0.351 N 
ATOM      3  C   UNL A   1      31.333  24.853  26.426  1.00  0.00     0.282 C 
ATOM      4  O   UNL A   1      30.210  24.431  26.723  1.00  0.00    -0.269 OA
ATOM      5  H   UNL A   1      32.109  23.008  26.571  1.00  0.00     0.163 HD
BRANCH   3   6
ATOM      6  C   UNL A   1      31.577  26.360  26.131  1.00  0.00     0.387 C 
ATOM      7  F   UNL A   1      32.496  26.939  26.961  1.00  0.00    -0.205 F 
BRANCH   6   8
ATOM      8  O   UNL A   1      31.892  26.746  24.799  1.00  0.00    -0.341 OA
BRANCH   8   9
ATOM      9  C   UNL A   1      30.766  26.863  23.936  1.00  0.00     0.164 C 
BRANCH   9  10
ATOM     10  C   UNL A   1      30.339  28.319  23.769  1.00  0.00     0.029 C 
BRANCH  10  11
ATOM     11  C   UNL A   1      29.468  28.560  22.535  1.00  0.00     0.002 C 
BRANCH  11  12
ATOM     12  C   UNL A   1      28.066  29.089  22.851  1.00  0.00    -0.000 C 
BRANCH  12  13
ATOM     13  C   UNL A   1      27.809  30.561  22.499  1.00  0.00    -0.003 C 
ATOM     14  C   UNL A   1      27.532  31.454  23.702  1.00  0.00     0.004 C 
ENDBRANCH  12  13
ENDBRANCH  11  12
ENDBRANCH  10  11
ENDBRANCH   9  10
ENDBRANCH   8   9
ENDBRANCH   6   8
ENDBRANCH   3   6
ENDBRANCH   1   2
BRANCH   1  15
ATOM     15  C   UNL A   1      34.728  23.270  26.643  1.00  0.00     0.023 C 
BRANCH  15  16
ATOM     16  C   UNL A   1      35.134  21.965  25.950  1.00  0.00     0.023 C 
BRANCH  16  17
ATOM     17  C   UNL A   1      36.372  22.048  25.060  1.00  0.00     0.116 C 
BRANCH  17  18
ATOM     18  N   UNL A   1      37.253  20.901  25.214  1.00  0.00    -0.352 N 
ATOM     19  C   UNL A   1      38.552  20.835  25.673  1.00  0.00     0.251 C 
ATOM     20  H   UNL A   1      36.862  20.037  24.949  1.00  0.00     0.163 HD
ATOM     21  O   UNL A   1      39.181  19.791  25.555  1.00  0.00    -0.269 OA
BRANCH  19  22
ATOM     22  C   UNL A   1      39.195  22.028  26.273  1.00  0.00     0.039 A 
ATOM     23  C   UNL A   1      40.269  21.851  27.153  1.00  0.00     0.014 A 
ATOM     24  C   UNL A   1      38.741  23.314  25.981  1.00  0.00     0.014 A 
ATOM     25  C   UNL A   1      40.946  22.966  27.661  1.00  0.00     0.010 A 
ATOM     26  C   UNL A   1      39.458  24.422  26.431  1.00  0.00     0.010 A 
ATOM     27  C   UNL A   1      40.579  24.261  27.264  1.00  0.00    -0.014 A 
BRANCH  27  28
ATOM     28  C   UNL A   1      41.335  25.470  27.696  1.00  0.00     0.031 A 
ATOM     29  C   UNL A   1      40.630  26.558  28.462  1.00  0.00     0.074 A 
ATOM     30  C   UNL A   1      42.620  25.637  27.323  1.00  0.00     0.049 A 
ATOM     31  N   UNL A   1      41.036  27.767  28.750  1.00  0.00    -0.248 NA
ATOM     32  C   UNL A   1      39.274  26.246  28.938  1.00  0.00     0.031 C 
ATOM     33  C   UNL A   1      43.421  24.662  26.581  1.00  0.00     0.029 A 
ATOM     34  N   UNL A   1      43.473  26.700  27.497  1.00  0.00    -0.354 N 
ATOM     35  C   UNL A   1      39.979  28.371  29.424  1.00  0.00     0.074 A 
ATOM     36  C   UNL A   1      38.898  27.407  29.454  1.00  0.00     0.031 C 
ATOM     37  C   UNL A   1      44.647  25.167  26.372  1.00  0.00     0.029 A 
ATOM     38  C   UNL A   1      44.706  26.524  26.908  1.00  0.00     0.049 A 
ATOM     39  H   UNL A   1      43.227  27.511  27.996  1.00  0.00     0.167 HD
ATOM     40  C   UNL A   1      39.920  29.607  29.981  1.00  0.00     0.034 A 
ATOM     41  C   UNL A   1      45.751  27.367  26.786  1.00  0.00     0.034 A 
ATOM     42  C   UNL A   1      41.008  30.555  29.955  1.00  0.00     0.049 A 
ATOM     43  C   UNL A   1      45.643  28.759  27.365  1.00  0.00     0.074 A 
ATOM     44  C   UNL A   1      41.057  31.829  30.496  1.00  0.00     0.029 A 
ATOM     45  N   UNL A   1      42.241  30.332  29.358  1.00  0.00    -0.354 N 
ATOM     46  N   UNL A   1      44.634  29.316  27.992  1.00  0.00    -0.248 NA
ATOM     47  C   UNL A   1      46.817  29.632  27.222  1.00  0.00     0.031 C 
ATOM     48  C   UNL A   1      42.296  32.394  30.182  1.00  0.00     0.029 A 
ATOM     49  C   UNL A   1      43.050  31.448  29.507  1.00  0.00     0.049 A 
ATOM     50  H   UNL A   1      42.504  29.503  28.897  1.00  0.00     0.167 HD
ATOM     51  C   UNL A   1      45.072  30.585  28.362  1.00  0.00     0.074 A 
ATOM     52  C   UNL A   1      46.433  30.713  27.885  1.00  0.00     0.031 C 
ATOM     53  C   UNL A   1      44.413  31.554  29.045  1.00  0.00     0.034 A 
BRANCH  40  54
ATOM     54  C   UNL A   1      38.624  30.007  30.643  1.00  0.00     0.023 A 
ATOM     55  C   UNL A   1      37.615  30.683  29.935  1.00  0.00     0.031 A 
ATOM     56  C   UNL A   1      38.401  29.733  32.004  1.00  0.00     0.131 A 
ATOM     57  C   UNL A   1      36.468  31.131  30.606  1.00  0.00     0.055 A 
ATOM     58  C   UNL A   1      37.219  30.106  32.647  1.00  0.00     0.041 A 
ATOM     59  F   UNL A   1      39.336  29.107  32.738  1.00  0.00    -0.206 F 
ATOM     60  C   UNL A   1      36.251  30.824  31.951  1.00  0.00     0.022 A 
BRANCH  57  61
ATOM     61  S   UNL A   1      35.334  32.243  29.731  1.00  0.00     0.124 S 
ATOM     62  O   UNL A   1      36.231  33.328  29.342  1.00  0.00    -0.237 OA
ATOM     63  O   UNL A   1      34.841  31.402  28.646  1.00  0.00    -0.237 OA
ATOM     64  O   UNL A   1      34.346  32.595  30.748  1.00  0.00    -0.744 OA
ENDBRANCH  57  61
ENDBRANCH  40  54
BRANCH  41  65
ATOM     65  C   UNL A   1      46.992  26.946  26.071  1.00  0.00     0.023 A 
ATOM     66  C   UNL A   1      48.027  26.292  26.757  1.00  0.00     0.031 A 
ATOM     67  C   UNL A   1      47.192  27.251  24.713  1.00  0.00     0.131 A 
ATOM     68  C   UNL A   1      49.239  26.018  26.103  1.00  0.00     0.055 A 
ATOM     69  C   UNL A   1      48.375  26.923  24.050  1.00  0.00     0.041 A 
ATOM     70  F   UNL A   1      46.234  27.873  24.008  1.00  0.00    -0.206 F 
ATOM     71  C   UNL A   1      49.415  26.318  24.750  1.00  0.00     0.022 A 
BRANCH  68  72
ATOM     72  S   UNL A   1      50.621  25.364  27.077  1.00  0.00     0.124 S 
ATOM     73  O   UNL A   1      51.027  26.539  27.841  1.00  0.00    -0.237 OA
ATOM     74  O   UNL A   1      49.977  24.295  27.834  1.00  0.00    -0.237 OA
ATOM     75  O   UNL A   1      51.573  24.920  26.061  1.00  0.00    -0.744 OA
ENDBRANCH  68  72
ENDBRANCH  41  65
BRANCH  53  76
ATOM     76  C   UNL A   1      45.184  32.801  29.397  1.00  0.00     0.023 A 
ATOM     77  C   UNL A   1      45.204  33.932  28.563  1.00  0.00     0.031 A 
ATOM     78  C   UNL A   1      45.903  32.856  30.606  1.00  0.00     0.131 A 
ATOM     79  C   UNL A   1      45.960  35.056  28.930  1.00  0.00     0.055 A 
ATOM     80  C   UNL A   1      46.612  33.994  30.989  1.00  0.00     0.041 A 
ATOM     81  F   UNL A   1      45.919  31.802  31.438  1.00  0.00    -0.206 F 
ATOM     82  C   UNL A   1      46.651  35.100  30.146  1.00  0.00     0.022 A 
BRANCH  79  83
ATOM     83  S   UNL A   1      46.080  36.446  27.772  1.00  0.00     0.124 S 
ATOM     84  O   UNL A   1      46.261  37.579  28.674  1.00  0.00    -0.237 OA
ATOM     85  O   UNL A   1      47.242  36.083  26.967  1.00  0.00    -0.237 OA
ATOM     86  O   UNL A   1      44.803  36.415  27.062  1.00  0.00    -0.744 OA
ENDBRANCH  79  83
ENDBRANCH  53  76
ENDBRANCH  27  28
ENDBRANCH  19  22
ENDBRANCH  17  18
ENDBRANCH  16  17
ENDBRANCH  15  16
ENDBRANCH   1  15
TORSDOF 20
ENDMDL
