MODEL 1
REMARK VINA RESULT:     -11.3      0.000      0.000
REMARK SMILES CCN(CC)C(=O)C[C@](C)(C(=O)NCCCCNC(=O)c1ccc(-c2c3nc(c(-c4cc(S(=O)(=O)[O-])ccc4F)c4ccc([nH]4)c(-c4cc(S(=O)(=O)[O-])ccc4F)c4nc(c(-c5cc(S(=O)(=O)[O-])ccc5F)c5ccc2[nH]5)C=C4)C=C3)cc1)c1ccccc1
REMARK SMILES IDX 15 1 14 2 13 3 11 4 12 5 9 7 10 8 8 9 6 10 3 11 7 12 2 13
REMARK SMILES IDX 1 14 4 15 5 16 84 17 85 18 89 19 86 20 88 21 87 22 16 23
REMARK SMILES IDX 17 24 18 25 19 26 20 28 21 29 22 30 83 31 23 32 82 33 24 34
REMARK SMILES IDX 25 35 26 36 76 37 27 38 81 39 75 40 77 41 28 42 80 43 74 44
REMARK SMILES IDX 73 45 29 47 61 48 41 49 60 50 42 51 45 52 59 53 78 54 43 55
REMARK SMILES IDX 44 56 58 58 79 59 46 60 30 61 31 62 39 63 32 64 38 65 40 66
REMARK SMILES IDX 37 67 33 68 34 69 35 70 36 71 62 72 63 73 71 74 64 75 70 76
REMARK SMILES IDX 72 77 69 78 65 79 66 80 67 81 68 82 47 83 48 84 56 85 49 86
REMARK SMILES IDX 55 87 57 88 54 89 50 90 51 91 52 92 53 93
REMARK H PARENT 13 6 18 27 77 46 45 57
REMARK Flexibility Score: inf
ROOT
ATOM      1  C   UNL A   1      31.877  30.572  26.632  1.00  0.00     0.023 C 
ENDROOT
BRANCH   1   2
ATOM      2  C   UNL A   1      31.246  30.066  25.332  1.00  0.00     0.116 C 
BRANCH   2   3
ATOM      3  N   UNL A   1      32.269  29.564  24.427  1.00  0.00    -0.355 N 
ATOM      4  C   UNL A   1      32.335  28.477  23.604  1.00  0.00     0.230 C 
ATOM      5  O   UNL A   1      33.466  28.244  23.165  1.00  0.00    -0.274 OA
ATOM      6  H   UNL A   1      33.080  30.122  24.404  1.00  0.00     0.163 HD
BRANCH   4   7
ATOM      7  C   UNL A   1      31.079  27.632  23.209  1.00  0.00     0.080 C 
ATOM      8  C   UNL A   1      31.514  26.677  22.071  1.00  0.00     0.027 C 
BRANCH   7   9
ATOM      9  C   UNL A   1      30.587  26.934  24.513  1.00  0.00     0.121 C 
BRANCH   9  10
ATOM     10  C   UNL A   1      31.629  26.151  25.294  1.00  0.00     0.223 C 
ATOM     11  N   UNL A   1      31.781  24.781  25.102  1.00  0.00    -0.343 N 
ATOM     12  O   UNL A   1      32.328  26.769  26.106  1.00  0.00    -0.275 OA
BRANCH  11  13
ATOM     13  C   UNL A   1      32.918  24.132  25.764  1.00  0.00     0.116 C 
ATOM     14  C   UNL A   1      32.494  23.235  26.924  1.00  0.00     0.027 C 
ENDBRANCH  11  13
BRANCH  11  15
ATOM     15  C   UNL A   1      30.943  23.929  24.248  1.00  0.00     0.116 C 
ATOM     16  C   UNL A   1      31.687  22.863  23.457  1.00  0.00     0.027 C 
ENDBRANCH  11  15
ENDBRANCH   9  10
ENDBRANCH   7   9
BRANCH   7  17
ATOM     17  C   UNL A   1      29.893  28.524  22.714  1.00  0.00    -0.032 A 
ATOM     18  C   UNL A   1      30.122  29.640  21.879  1.00  0.00     0.005 A 
ATOM     19  C   UNL A   1      28.577  28.339  23.184  1.00  0.00     0.005 A 
ATOM     20  C   UNL A   1      29.092  30.524  21.542  1.00  0.00     0.000 A 
ATOM     21  C   UNL A   1      27.549  29.222  22.846  1.00  0.00     0.000 A 
ATOM     22  C   UNL A   1      27.807  30.319  22.031  1.00  0.00     0.000 A 
ENDBRANCH   7  17
ENDBRANCH   4   7
ENDBRANCH   2   3
ENDBRANCH   1   2
BRANCH   1  23
ATOM     23  C   UNL A   1      31.605  32.047  26.935  1.00  0.00     0.023 C 
BRANCH  23  24
ATOM     24  C   UNL A   1      32.847  32.925  27.033  1.00  0.00     0.116 C 
BRANCH  24  25
ATOM     25  N   UNL A   1      32.598  34.167  27.742  1.00  0.00    -0.352 N 
ATOM     26  C   UNL A   1      33.210  34.659  28.877  1.00  0.00     0.251 C 
ATOM     27  H   UNL A   1      31.895  34.740  27.359  1.00  0.00     0.163 HD
ATOM     28  O   UNL A   1      32.763  35.649  29.431  1.00  0.00    -0.269 OA
BRANCH  26  29
ATOM     29  C   UNL A   1      34.385  33.947  29.426  1.00  0.00     0.039 A 
ATOM     30  C   UNL A   1      35.663  34.392  29.082  1.00  0.00     0.014 A 
ATOM     31  C   UNL A   1      34.223  32.871  30.300  1.00  0.00     0.014 A 
ATOM     32  C   UNL A   1      36.781  33.802  29.677  1.00  0.00     0.010 A 
ATOM     33  C   UNL A   1      35.332  32.337  30.950  1.00  0.00     0.010 A 
ATOM     34  C   UNL A   1      36.622  32.799  30.648  1.00  0.00    -0.014 A 
BRANCH  34  35
ATOM     35  C   UNL A   1      37.790  32.218  31.359  1.00  0.00     0.031 A 
ATOM     36  C   UNL A   1      38.572  31.098  30.728  1.00  0.00     0.074 A 
ATOM     37  C   UNL A   1      38.102  32.649  32.598  1.00  0.00     0.049 A 
ATOM     38  N   UNL A   1      39.559  30.395  31.222  1.00  0.00    -0.248 NA
ATOM     39  C   UNL A   1      38.166  30.694  29.373  1.00  0.00     0.031 C 
ATOM     40  C   UNL A   1      37.392  33.700  33.330  1.00  0.00     0.029 A 
ATOM     41  N   UNL A   1      39.087  32.251  33.467  1.00  0.00    -0.354 N 
ATOM     42  C   UNL A   1      39.881  29.457  30.247  1.00  0.00     0.074 A 
ATOM     43  C   UNL A   1      38.941  29.642  29.162  1.00  0.00     0.031 C 
ATOM     44  C   UNL A   1      37.978  33.878  34.525  1.00  0.00     0.029 A 
ATOM     45  C   UNL A   1      39.072  32.923  34.667  1.00  0.00     0.049 A 
ATOM     46  H   UNL A   1      39.743  31.549  33.252  1.00  0.00     0.167 HD
ATOM     47  C   UNL A   1      40.882  28.542  30.248  1.00  0.00     0.034 A 
ATOM     48  C   UNL A   1      39.843  32.778  35.764  1.00  0.00     0.034 A 
ATOM     49  C   UNL A   1      41.818  28.382  31.333  1.00  0.00     0.049 A 
ATOM     50  C   UNL A   1      40.936  31.737  35.751  1.00  0.00     0.074 A 
ATOM     51  C   UNL A   1      42.906  27.529  31.415  1.00  0.00     0.029 A 
ATOM     52  N   UNL A   1      41.776  29.085  32.531  1.00  0.00    -0.354 N 
ATOM     53  N   UNL A   1      41.260  30.892  34.799  1.00  0.00    -0.248 NA
ATOM     54  C   UNL A   1      41.772  31.639  36.954  1.00  0.00     0.031 C 
ATOM     55  C   UNL A   1      43.477  27.666  32.685  1.00  0.00     0.029 A 
ATOM     56  C   UNL A   1      42.798  28.662  33.368  1.00  0.00     0.049 A 
ATOM     57  H   UNL A   1      41.118  29.783  32.753  1.00  0.00     0.167 HD
ATOM     58  C   UNL A   1      42.360  30.186  35.279  1.00  0.00     0.074 A 
ATOM     59  C   UNL A   1      42.650  30.714  36.596  1.00  0.00     0.031 C 
ATOM     60  C   UNL A   1      43.070  29.193  34.684  1.00  0.00     0.034 A 
BRANCH  47  61
ATOM     61  C   UNL A   1      40.993  27.632  29.047  1.00  0.00     0.023 A 
ATOM     62  C   UNL A   1      41.998  27.805  28.079  1.00  0.00     0.031 A 
ATOM     63  C   UNL A   1      40.066  26.592  28.853  1.00  0.00     0.131 A 
ATOM     64  C   UNL A   1      42.006  27.006  26.926  1.00  0.00     0.055 A 
ATOM     65  C   UNL A   1      40.131  25.745  27.745  1.00  0.00     0.041 A 
ATOM     66  F   UNL A   1      39.072  26.389  29.731  1.00  0.00    -0.206 F 
ATOM     67  C   UNL A   1      41.095  25.960  26.765  1.00  0.00     0.022 A 
BRANCH  64  68
ATOM     68  S   UNL A   1      43.129  27.451  25.573  1.00  0.00     0.124 S 
ATOM     69  O   UNL A   1      42.247  28.221  24.699  1.00  0.00    -0.237 OA
ATOM     70  O   UNL A   1      44.168  28.208  26.261  1.00  0.00    -0.237 OA
ATOM     71  O   UNL A   1      43.550  26.158  25.036  1.00  0.00    -0.744 OA
ENDBRANCH  64  68
ENDBRANCH  47  61
BRANCH  48  72
ATOM     72  C   UNL A   1      39.609  33.620  36.973  1.00  0.00     0.023 A 
ATOM     73  C   UNL A   1      38.949  33.101  38.098  1.00  0.00     0.031 A 
ATOM     74  C   UNL A   1      40.001  34.969  37.003  1.00  0.00     0.131 A 
ATOM     75  C   UNL A   1      38.656  33.939  39.186  1.00  0.00     0.055 A 
ATOM     76  C   UNL A   1      39.757  35.785  38.111  1.00  0.00     0.041 A 
ATOM     77  F   UNL A   1      40.640  35.515  35.956  1.00  0.00    -0.206 F 
ATOM     78  C   UNL A   1      39.067  35.274  39.205  1.00  0.00     0.022 A 
BRANCH  75  79
ATOM     79  S   UNL A   1      37.645  33.281  40.541  1.00  0.00     0.124 S 
ATOM     80  O   UNL A   1      37.563  34.430  41.435  1.00  0.00    -0.237 OA
ATOM     81  O   UNL A   1      36.413  32.916  39.849  1.00  0.00    -0.237 OA
ATOM     82  O   UNL A   1      38.434  32.156  41.039  1.00  0.00    -0.744 OA
ENDBRANCH  75  79
ENDBRANCH  48  72
BRANCH  60  83
ATOM     83  C   UNL A   1      44.260  28.652  35.437  1.00  0.00     0.023 A 
ATOM     84  C   UNL A   1      44.135  27.609  36.372  1.00  0.00     0.031 A 
ATOM     85  C   UNL A   1      45.539  29.196  35.219  1.00  0.00     0.131 A 
ATOM     86  C   UNL A   1      45.260  27.179  37.093  1.00  0.00     0.055 A 
ATOM     87  C   UNL A   1      46.664  28.722  35.894  1.00  0.00     0.041 A 
ATOM     88  F   UNL A   1      45.716  30.195  34.340  1.00  0.00    -0.206 F 
ATOM     89  C   UNL A   1      46.527  27.717  36.847  1.00  0.00     0.022 A 
BRANCH  86  90
ATOM     90  S   UNL A   1      45.033  25.967  38.422  1.00  0.00     0.124 S 
ATOM     91  O   UNL A   1      46.411  25.642  38.776  1.00  0.00    -0.237 OA
ATOM     92  O   UNL A   1      44.282  26.729  39.415  1.00  0.00    -0.237 OA
ATOM     93  O   UNL A   1      44.288  24.886  37.778  1.00  0.00    -0.744 OA
ENDBRANCH  86  90
ENDBRANCH  60  83
ENDBRANCH  34  35
ENDBRANCH  26  29
ENDBRANCH  24  25
ENDBRANCH  23  24
ENDBRANCH   1  23
TORSDOF 19
ENDMDL
MODEL 2
REMARK VINA RESULT:     -11.1      5.953     11.985
REMARK SMILES CCN(CC)C(=O)C[C@](C)(C(=O)NCCCCNC(=O)c1ccc(-c2c3nc(c(-c4cc(S(=O)(=O)[O-])ccc4F)c4ccc([nH]4)c(-c4cc(S(=O)(=O)[O-])ccc4F)c4nc(c(-c5cc(S(=O)(=O)[O-])ccc5F)c5ccc2[nH]5)C=C4)C=C3)cc1)c1ccccc1
REMARK SMILES IDX 15 1 14 2 13 3 11 4 12 5 9 7 10 8 8 9 6 10 3 11 7 12 2 13
REMARK SMILES IDX 1 14 4 15 5 16 84 17 85 18 89 19 86 20 88 21 87 22 16 23
REMARK SMILES IDX 17 24 18 25 19 26 20 28 21 29 22 30 83 31 23 32 82 33 24 34
REMARK SMILES IDX 25 35 26 36 76 37 27 38 81 39 75 40 77 41 28 42 80 43 74 44
REMARK SMILES IDX 73 45 29 47 61 48 41 49 60 50 42 51 45 52 59 53 78 54 43 55
REMARK SMILES IDX 44 56 58 58 79 59 46 60 30 61 31 62 39 63 32 64 38 65 40 66
REMARK SMILES IDX 37 67 33 68 34 69 35 70 36 71 62 72 63 73 71 74 64 75 70 76
REMARK SMILES IDX 72 77 69 78 65 79 66 80 67 81 68 82 47 83 48 84 56 85 49 86
REMARK SMILES IDX 55 87 57 88 54 89 50 90 51 91 52 92 53 93
REMARK H PARENT 13 6 18 27 77 46 45 57
REMARK Flexibility Score: inf
ROOT
ATOM      1  C   UNL A   1      37.189  21.480  24.366  1.00  0.00     0.023 C 
ENDROOT
BRANCH   1   2
ATOM      2  C   UNL A   1      36.411  22.522  25.174  1.00  0.00     0.116 C 
BRANCH   2   3
ATOM      3  N   UNL A   1      35.606  21.876  26.201  1.00  0.00    -0.355 N 
ATOM      4  C   UNL A   1      34.308  21.457  26.243  1.00  0.00     0.230 C 
ATOM      5  O   UNL A   1      33.907  21.168  27.376  1.00  0.00    -0.274 OA
ATOM      6  H   UNL A   1      36.099  21.707  27.036  1.00  0.00     0.163 HD
BRANCH   4   7
ATOM      7  C   UNL A   1      33.421  21.305  24.963  1.00  0.00     0.080 C 
ATOM      8  C   UNL A   1      31.984  21.726  25.354  1.00  0.00     0.027 C 
BRANCH   7   9
ATOM      9  C   UNL A   1      34.092  22.174  23.854  1.00  0.00     0.121 C 
BRANCH   9  10
ATOM     10  C   UNL A   1      33.207  23.208  23.180  1.00  0.00     0.223 C 
ATOM     11  N   UNL A   1      33.231  24.539  23.586  1.00  0.00    -0.343 N 
ATOM     12  O   UNL A   1      32.463  22.827  22.268  1.00  0.00    -0.275 OA
BRANCH  11  13
ATOM     13  C   UNL A   1      32.479  25.502  22.776  1.00  0.00     0.116 C 
ATOM     14  C   UNL A   1      33.355  26.628  22.230  1.00  0.00     0.027 C 
ENDBRANCH  11  13
BRANCH  11  15
ATOM     15  C   UNL A   1      33.990  25.083  24.720  1.00  0.00     0.116 C 
ATOM     16  C   UNL A   1      33.251  25.109  26.049  1.00  0.00     0.027 C 
ENDBRANCH  11  15
ENDBRANCH   9  10
ENDBRANCH   7   9
BRANCH   7  17
ATOM     17  C   UNL A   1      33.405  19.839  24.421  1.00  0.00    -0.032 A 
ATOM     18  C   UNL A   1      34.450  18.939  24.725  1.00  0.00     0.005 A 
ATOM     19  C   UNL A   1      32.429  19.395  23.505  1.00  0.00     0.005 A 
ATOM     20  C   UNL A   1      34.519  17.672  24.138  1.00  0.00     0.000 A 
ATOM     21  C   UNL A   1      32.499  18.129  22.919  1.00  0.00     0.000 A 
ATOM     22  C   UNL A   1      33.546  17.269  23.230  1.00  0.00     0.000 A 
ENDBRANCH   7  17
ENDBRANCH   4   7
ENDBRANCH   2   3
ENDBRANCH   1   2
BRANCH   1  23
ATOM     23  C   UNL A   1      37.849  20.389  25.211  1.00  0.00     0.023 C 
BRANCH  23  24
ATOM     24  C   UNL A   1      39.192  20.772  25.824  1.00  0.00     0.116 C 
BRANCH  24  25
ATOM     25  N   UNL A   1      40.103  19.646  25.921  1.00  0.00    -0.352 N 
ATOM     26  C   UNL A   1      41.471  19.647  26.099  1.00  0.00     0.251 C 
ATOM     27  H   UNL A   1      39.686  18.757  25.852  1.00  0.00     0.163 HD
ATOM     28  O   UNL A   1      42.101  18.608  25.997  1.00  0.00    -0.269 OA
BRANCH  26  29
ATOM     29  C   UNL A   1      42.159  20.928  26.376  1.00  0.00     0.039 A 
ATOM     30  C   UNL A   1      42.448  21.783  25.311  1.00  0.00     0.014 A 
ATOM     31  C   UNL A   1      42.485  21.294  27.684  1.00  0.00     0.014 A 
ATOM     32  C   UNL A   1      42.997  23.041  25.566  1.00  0.00     0.010 A 
ATOM     33  C   UNL A   1      42.959  22.576  27.943  1.00  0.00     0.010 A 
ATOM     34  C   UNL A   1      43.217  23.464  26.888  1.00  0.00    -0.014 A 
BRANCH  34  35
ATOM     35  C   UNL A   1      43.717  24.831  27.189  1.00  0.00     0.031 A 
ATOM     36  C   UNL A   1      42.777  25.870  27.736  1.00  0.00     0.074 A 
ATOM     37  C   UNL A   1      44.994  25.154  26.904  1.00  0.00     0.049 A 
ATOM     38  N   UNL A   1      42.991  27.139  27.974  1.00  0.00    -0.248 NA
ATOM     39  C   UNL A   1      41.403  25.429  28.021  1.00  0.00     0.031 C 
ATOM     40  C   UNL A   1      45.989  24.244  26.332  1.00  0.00     0.029 A 
ATOM     41  N   UNL A   1      45.675  26.339  27.043  1.00  0.00    -0.354 N 
ATOM     42  C   UNL A   1      41.778  27.651  28.421  1.00  0.00     0.074 A 
ATOM     43  C   UNL A   1      40.819  26.569  28.359  1.00  0.00     0.031 C 
ATOM     44  C   UNL A   1      47.154  24.896  26.192  1.00  0.00     0.029 A 
ATOM     45  C   UNL A   1      46.981  26.282  26.615  1.00  0.00     0.049 A 
ATOM     46  H   UNL A   1      45.266  27.154  27.415  1.00  0.00     0.167 HD
ATOM     47  C   UNL A   1      41.496  28.901  28.864  1.00  0.00     0.034 A 
ATOM     48  C   UNL A   1      47.927  27.240  26.556  1.00  0.00     0.034 A 
ATOM     49  C   UNL A   1      42.469  29.964  28.932  1.00  0.00     0.049 A 
ATOM     50  C   UNL A   1      47.585  28.630  27.032  1.00  0.00     0.074 A 
ATOM     51  C   UNL A   1      42.309  31.250  29.418  1.00  0.00     0.029 A 
ATOM     52  N   UNL A   1      43.785  29.867  28.495  1.00  0.00    -0.354 N 
ATOM     53  N   UNL A   1      46.445  29.085  27.501  1.00  0.00    -0.248 NA
ATOM     54  C   UNL A   1      48.657  29.632  26.981  1.00  0.00     0.031 C 
ATOM     55  C   UNL A   1      43.503  31.950  29.212  1.00  0.00     0.029 A 
ATOM     56  C   UNL A   1      44.436  31.080  28.671  1.00  0.00     0.049 A 
ATOM     57  H   UNL A   1      44.196  29.057  28.116  1.00  0.00     0.167 HD
ATOM     58  C   UNL A   1      46.677  30.417  27.831  1.00  0.00     0.074 A 
ATOM     59  C   UNL A   1      48.066  30.686  27.521  1.00  0.00     0.031 C 
ATOM     60  C   UNL A   1      45.820  31.336  28.349  1.00  0.00     0.034 A 
BRANCH  47  61
ATOM     61  C   UNL A   1      40.074  29.186  29.282  1.00  0.00     0.023 A 
ATOM     62  C   UNL A   1      39.699  29.249  30.637  1.00  0.00     0.031 A 
ATOM     63  C   UNL A   1      39.070  29.374  28.315  1.00  0.00     0.131 A 
ATOM     64  C   UNL A   1      38.350  29.412  30.986  1.00  0.00     0.055 A 
ATOM     65  C   UNL A   1      37.742  29.623  28.670  1.00  0.00     0.041 A 
ATOM     66  F   UNL A   1      39.360  29.307  27.007  1.00  0.00    -0.206 F 
ATOM     67  C   UNL A   1      37.372  29.626  30.011  1.00  0.00     0.022 A 
BRANCH  64  68
ATOM     68  S   UNL A   1      37.872  29.192  32.721  1.00  0.00     0.124 S 
ATOM     69  O   UNL A   1      37.749  27.739  32.811  1.00  0.00    -0.237 OA
ATOM     70  O   UNL A   1      38.997  29.783  33.436  1.00  0.00    -0.237 OA
ATOM     71  O   UNL A   1      36.611  29.924  32.826  1.00  0.00    -0.744 OA
ENDBRANCH  64  68
ENDBRANCH  47  61
BRANCH  48  72
ATOM     72  C   UNL A   1      49.284  26.934  26.015  1.00  0.00     0.023 A 
ATOM     73  C   UNL A   1      49.700  27.445  24.775  1.00  0.00     0.031 A 
ATOM     74  C   UNL A   1      50.167  26.089  26.708  1.00  0.00     0.131 A 
ATOM     75  C   UNL A   1      50.942  27.067  24.243  1.00  0.00     0.055 A 
ATOM     76  C   UNL A   1      51.426  25.759  26.200  1.00  0.00     0.041 A 
ATOM     77  F   UNL A   1      49.822  25.576  27.900  1.00  0.00    -0.206 F 
ATOM     78  C   UNL A   1      51.814  26.238  24.953  1.00  0.00     0.022 A 
BRANCH  75  79
ATOM     79  S   UNL A   1      51.366  27.602  22.562  1.00  0.00     0.124 S 
ATOM     80  O   UNL A   1      50.389  28.659  22.331  1.00  0.00    -0.237 OA
ATOM     81  O   UNL A   1      52.751  28.031  22.722  1.00  0.00    -0.237 OA
ATOM     82  O   UNL A   1      51.180  26.392  21.763  1.00  0.00    -0.744 OA
ENDBRANCH  75  79
ENDBRANCH  48  72
BRANCH  60  83
ATOM     83  C   UNL A   1      46.382  32.702  28.658  1.00  0.00     0.023 A 
ATOM     84  C   UNL A   1      46.342  33.750  27.721  1.00  0.00     0.031 A 
ATOM     85  C   UNL A   1      46.973  32.954  29.909  1.00  0.00     0.131 A 
ATOM     86  C   UNL A   1      46.931  34.986  28.030  1.00  0.00     0.055 A 
ATOM     87  C   UNL A   1      47.500  34.205  30.233  1.00  0.00     0.041 A 
ATOM     88  F   UNL A   1      47.040  31.990  30.840  1.00  0.00    -0.206 F 
ATOM     89  C   UNL A   1      47.493  35.225  29.287  1.00  0.00     0.022 A 
BRANCH  86  90
ATOM     90  S   UNL A   1      47.030  36.252  26.736  1.00  0.00     0.124 S 
ATOM     91  O   UNL A   1      47.904  37.246  27.351  1.00  0.00    -0.237 OA
ATOM     92  O   UNL A   1      47.597  35.510  25.615  1.00  0.00    -0.237 OA
ATOM     93  O   UNL A   1      45.641  36.674  26.561  1.00  0.00    -0.744 OA
ENDBRANCH  86  90
ENDBRANCH  60  83
ENDBRANCH  34  35
ENDBRANCH  26  29
ENDBRANCH  24  25
ENDBRANCH  23  24
ENDBRANCH   1  23
TORSDOF 19
ENDMDL
MODEL 3
REMARK VINA RESULT:     -11.0      1.989      7.642
REMARK SMILES CCN(CC)C(=O)C[C@](C)(C(=O)NCCCCNC(=O)c1ccc(-c2c3nc(c(-c4cc(S(=O)(=O)[O-])ccc4F)c4ccc([nH]4)c(-c4cc(S(=O)(=O)[O-])ccc4F)c4nc(c(-c5cc(S(=O)(=O)[O-])ccc5F)c5ccc2[nH]5)C=C4)C=C3)cc1)c1ccccc1
REMARK SMILES IDX 15 1 14 2 13 3 11 4 12 5 9 7 10 8 8 9 6 10 3 11 7 12 2 13
REMARK SMILES IDX 1 14 4 15 5 16 84 17 85 18 89 19 86 20 88 21 87 22 16 23
REMARK SMILES IDX 17 24 18 25 19 26 20 28 21 29 22 30 83 31 23 32 82 33 24 34
REMARK SMILES IDX 25 35 26 36 76 37 27 38 81 39 75 40 77 41 28 42 80 43 74 44
REMARK SMILES IDX 73 45 29 47 61 48 41 49 60 50 42 51 45 52 59 53 78 54 43 55
REMARK SMILES IDX 44 56 58 58 79 59 46 60 30 61 31 62 39 63 32 64 38 65 40 66
REMARK SMILES IDX 37 67 33 68 34 69 35 70 36 71 62 72 63 73 71 74 64 75 70 76
REMARK SMILES IDX 72 77 69 78 65 79 66 80 67 81 68 82 47 83 48 84 56 85 49 86
REMARK SMILES IDX 55 87 57 88 54 89 50 90 51 91 52 92 53 93
REMARK H PARENT 13 6 18 27 77 46 45 57
REMARK Flexibility Score: inf
ROOT
ATOM      1  C   UNL A   1      31.028  30.891  25.375  1.00  0.00     0.023 C 
ENDROOT
BRANCH   1   2
ATOM      2  C   UNL A   1      32.082  29.813  25.644  1.00  0.00     0.116 C 
BRANCH   2   3
ATOM      3  N   UNL A   1      32.987  29.688  24.511  1.00  0.00    -0.355 N 
ATOM      4  C   UNL A   1      33.158  28.731  23.554  1.00  0.00     0.230 C 
ATOM      5  O   UNL A   1      34.193  28.858  22.891  1.00  0.00    -0.274 OA
ATOM      6  H   UNL A   1      33.603  30.451  24.415  1.00  0.00     0.163 HD
BRANCH   4   7
ATOM      7  C   UNL A   1      32.109  27.602  23.284  1.00  0.00     0.080 C 
ATOM      8  C   UNL A   1      32.658  26.741  22.121  1.00  0.00     0.027 C 
BRANCH   7   9
ATOM      9  C   UNL A   1      31.911  26.849  24.635  1.00  0.00     0.121 C 
BRANCH   9  10
ATOM     10  C   UNL A   1      32.868  25.703  24.916  1.00  0.00     0.223 C 
ATOM     11  N   UNL A   1      32.438  24.382  24.842  1.00  0.00    -0.343 N 
ATOM     12  O   UNL A   1      34.034  25.984  25.217  1.00  0.00    -0.275 OA
BRANCH  11  13
ATOM     13  C   UNL A   1      33.459  23.335  24.957  1.00  0.00     0.116 C 
ATOM     14  C   UNL A   1      33.944  22.831  23.600  1.00  0.00     0.027 C 
ENDBRANCH  11  13
BRANCH  11  15
ATOM     15  C   UNL A   1      31.060  23.934  24.599  1.00  0.00     0.116 C 
ATOM     16  C   UNL A   1      30.628  23.913  23.140  1.00  0.00     0.027 C 
ENDBRANCH  11  15
ENDBRANCH   9  10
ENDBRANCH   7   9
BRANCH   7  17
ATOM     17  C   UNL A   1      30.707  28.173  22.891  1.00  0.00    -0.032 A 
ATOM     18  C   UNL A   1      30.592  29.367  22.145  1.00  0.00     0.005 A 
ATOM     19  C   UNL A   1      29.511  27.605  23.374  1.00  0.00     0.005 A 
ATOM     20  C   UNL A   1      29.349  29.962  21.904  1.00  0.00     0.000 A 
ATOM     21  C   UNL A   1      28.270  28.200  23.132  1.00  0.00     0.000 A 
ATOM     22  C   UNL A   1      28.188  29.382  22.404  1.00  0.00     0.000 A 
ENDBRANCH   7  17
ENDBRANCH   4   7
ENDBRANCH   2   3
ENDBRANCH   1   2
BRANCH   1  23
ATOM     23  C   UNL A   1      31.024  32.038  26.388  1.00  0.00     0.023 C 
BRANCH  23  24
ATOM     24  C   UNL A   1      32.396  32.417  26.937  1.00  0.00     0.116 C 
BRANCH  24  25
ATOM     25  N   UNL A   1      32.442  33.782  27.428  1.00  0.00    -0.352 N 
ATOM     26  C   UNL A   1      33.317  34.352  28.330  1.00  0.00     0.251 C 
ATOM     27  H   UNL A   1      31.754  34.386  27.067  1.00  0.00     0.163 HD
ATOM     28  O   UNL A   1      33.111  35.478  28.753  1.00  0.00    -0.269 OA
BRANCH  26  29
ATOM     29  C   UNL A   1      34.479  33.567  28.800  1.00  0.00     0.039 A 
ATOM     30  C   UNL A   1      35.737  34.173  28.827  1.00  0.00     0.014 A 
ATOM     31  C   UNL A   1      34.320  32.252  29.243  1.00  0.00     0.014 A 
ATOM     32  C   UNL A   1      36.823  33.483  29.369  1.00  0.00     0.010 A 
ATOM     33  C   UNL A   1      35.384  31.596  29.854  1.00  0.00     0.010 A 
ATOM     34  C   UNL A   1      36.646  32.206  29.925  1.00  0.00    -0.014 A 
BRANCH  34  35
ATOM     35  C   UNL A   1      37.767  31.488  30.587  1.00  0.00     0.031 A 
ATOM     36  C   UNL A   1      38.133  31.818  32.009  1.00  0.00     0.074 A 
ATOM     37  C   UNL A   1      38.497  30.597  29.887  1.00  0.00     0.049 A 
ATOM     38  N   UNL A   1      39.131  31.377  32.731  1.00  0.00    -0.248 NA
ATOM     39  C   UNL A   1      37.281  32.799  32.697  1.00  0.00     0.031 C 
ATOM     40  C   UNL A   1      38.265  30.225  28.490  1.00  0.00     0.029 A 
ATOM     41  N   UNL A   1      39.590  29.848  30.249  1.00  0.00    -0.354 N 
ATOM     42  C   UNL A   1      39.037  32.038  33.951  1.00  0.00     0.074 A 
ATOM     43  C   UNL A   1      37.922  32.954  33.845  1.00  0.00     0.031 C 
ATOM     44  C   UNL A   1      39.170  29.305  28.122  1.00  0.00     0.029 A 
ATOM     45  C   UNL A   1      40.079  29.056  29.236  1.00  0.00     0.049 A 
ATOM     46  H   UNL A   1      39.987  29.876  31.150  1.00  0.00     0.167 HD
ATOM     47  C   UNL A   1      39.795  31.877  35.063  1.00  0.00     0.034 A 
ATOM     48  C   UNL A   1      41.147  28.233  29.203  1.00  0.00     0.034 A 
ATOM     49  C   UNL A   1      40.894  30.947  35.155  1.00  0.00     0.049 A 
ATOM     50  C   UNL A   1      41.990  28.088  30.446  1.00  0.00     0.074 A 
ATOM     51  C   UNL A   1      41.692  30.660  36.250  1.00  0.00     0.029 A 
ATOM     52  N   UNL A   1      41.357  30.156  34.110  1.00  0.00    -0.354 N 
ATOM     53  N   UNL A   1      41.856  28.682  31.610  1.00  0.00    -0.248 NA
ATOM     54  C   UNL A   1      43.121  27.154  30.374  1.00  0.00     0.031 C 
ATOM     55  C   UNL A   1      42.678  29.751  35.849  1.00  0.00     0.029 A 
ATOM     56  C   UNL A   1      42.448  29.407  34.527  1.00  0.00     0.049 A 
ATOM     57  H   UNL A   1      40.967  30.131  33.207  1.00  0.00     0.167 HD
ATOM     58  C   UNL A   1      42.866  28.167  32.416  1.00  0.00     0.074 A 
ATOM     59  C   UNL A   1      43.591  27.206  31.611  1.00  0.00     0.031 C 
ATOM     60  C   UNL A   1      43.166  28.458  33.709  1.00  0.00     0.034 A 
BRANCH  47  61
ATOM     61  C   UNL A   1      39.472  32.745  36.256  1.00  0.00     0.023 A 
ATOM     62  C   UNL A   1      40.103  33.986  36.461  1.00  0.00     0.031 A 
ATOM     63  C   UNL A   1      38.540  32.317  37.218  1.00  0.00     0.131 A 
ATOM     64  C   UNL A   1      39.853  34.715  37.633  1.00  0.00     0.055 A 
ATOM     65  C   UNL A   1      38.231  33.089  38.340  1.00  0.00     0.041 A 
ATOM     66  F   UNL A   1      37.920  31.133  37.090  1.00  0.00    -0.206 F 
ATOM     67  C   UNL A   1      38.902  34.288  38.562  1.00  0.00     0.022 A 
BRANCH  64  68
ATOM     68  S   UNL A   1      40.898  36.153  37.997  1.00  0.00     0.124 S 
ATOM     69  O   UNL A   1      41.691  35.663  39.123  1.00  0.00    -0.237 OA
ATOM     70  O   UNL A   1      41.618  36.345  36.744  1.00  0.00    -0.237 OA
ATOM     71  O   UNL A   1      39.935  37.201  38.331  1.00  0.00    -0.744 OA
ENDBRANCH  64  68
ENDBRANCH  47  61
BRANCH  48  72
ATOM     72  C   UNL A   1      41.495  27.492  27.956  1.00  0.00     0.023 A 
ATOM     73  C   UNL A   1      41.282  26.108  27.855  1.00  0.00     0.031 A 
ATOM     74  C   UNL A   1      42.089  28.148  26.865  1.00  0.00     0.131 A 
ATOM     75  C   UNL A   1      41.705  25.416  26.709  1.00  0.00     0.055 A 
ATOM     76  C   UNL A   1      42.459  27.466  25.704  1.00  0.00     0.041 A 
ATOM     77  F   UNL A   1      42.312  29.472  26.907  1.00  0.00    -0.206 F 
ATOM     78  C   UNL A   1      42.280  26.088  25.627  1.00  0.00     0.022 A 
BRANCH  75  79
ATOM     79  S   UNL A   1      41.578  23.607  26.690  1.00  0.00     0.124 S 
ATOM     80  O   UNL A   1      42.437  23.261  25.563  1.00  0.00    -0.237 OA
ATOM     81  O   UNL A   1      42.082  23.255  28.013  1.00  0.00    -0.237 OA
ATOM     82  O   UNL A   1      40.151  23.368  26.485  1.00  0.00    -0.744 OA
ENDBRANCH  75  79
ENDBRANCH  48  72
BRANCH  60  83
ATOM     83  C   UNL A   1      44.299  27.687  34.342  1.00  0.00     0.023 A 
ATOM     84  C   UNL A   1      44.082  26.477  35.025  1.00  0.00     0.031 A 
ATOM     85  C   UNL A   1      45.614  28.177  34.264  1.00  0.00     0.131 A 
ATOM     86  C   UNL A   1      45.157  25.825  35.649  1.00  0.00     0.055 A 
ATOM     87  C   UNL A   1      46.689  27.492  34.833  1.00  0.00     0.041 A 
ATOM     88  F   UNL A   1      45.879  29.328  33.626  1.00  0.00    -0.206 F 
ATOM     89  C   UNL A   1      46.462  26.316  35.542  1.00  0.00     0.022 A 
BRANCH  86  90
ATOM     90  S   UNL A   1      44.817  24.372  36.679  1.00  0.00     0.124 S 
ATOM     91  O   UNL A   1      45.002  23.278  35.730  1.00  0.00    -0.237 OA
ATOM     92  O   UNL A   1      45.827  24.487  37.725  1.00  0.00    -0.237 OA
ATOM     93  O   UNL A   1      43.439  24.580  37.122  1.00  0.00    -0.744 OA
ENDBRANCH  86  90
ENDBRANCH  60  83
ENDBRANCH  34  35
ENDBRANCH  26  29
ENDBRANCH  24  25
ENDBRANCH  23  24
ENDBRANCH   1  23
TORSDOF 19
ENDMDL
