MODEL 1
REMARK VINA RESULT:     -10.9      0.000      0.000
REMARK SMILES CC(C)n1cncc1[C@@H](NC(=O)OC(C)(C)C)C(=O)NCCCCNC(=O)c1ccc(-c2c3nc(c(-c4cc(S(=O)(=O)[O-])ccc4F)c4ccc([nH]4)c(-c4cc(S(=O)(=O)[O-])ccc4F)c4nc(c(-c5cc(S(=O)(=O)[O-])ccc5F)c5ccc2[nH]5)C=C4)C=C3)cc1
REMARK SMILES IDX 22 1 21 2 20 3 18 4 19 5 9 7 8 8 4 9 5 10 6 11 7 12 2 13
REMARK SMILES IDX 1 14 3 15 10 16 11 17 12 19 13 20 14 21 15 22 16 23 17 24
REMARK SMILES IDX 23 25 24 26 25 27 26 28 27 30 28 31 29 32 90 33 30 34 89 35
REMARK SMILES IDX 31 36 32 37 33 38 83 39 34 40 88 41 82 42 84 43 35 44 87 45
REMARK SMILES IDX 81 46 80 47 36 49 68 50 48 51 67 52 49 53 52 54 66 55 85 56
REMARK SMILES IDX 50 57 51 58 65 60 86 61 53 62 37 63 38 64 46 65 39 66 45 67
REMARK SMILES IDX 47 68 44 69 40 70 41 71 42 72 43 73 69 74 70 75 78 76 71 77
REMARK SMILES IDX 77 78 79 79 76 80 72 81 73 82 74 83 75 84 54 85 55 86 63 87
REMARK SMILES IDX 56 88 62 89 64 90 61 91 57 92 58 93 59 94 60 95
REMARK H PARENT 20 6 10 18 25 29 84 48 52 59
REMARK Flexibility Score: inf
ROOT
ATOM      1  C   UNL A   1      38.130  23.037  25.876  1.00  0.00     0.023 C 
ENDROOT
BRANCH   1   2
ATOM      2  C   UNL A   1      36.842  23.803  25.583  1.00  0.00     0.116 C 
BRANCH   2   3
ATOM      3  N   UNL A   1      36.305  23.487  24.278  1.00  0.00    -0.354 N 
ATOM      4  C   UNL A   1      35.058  23.717  23.769  1.00  0.00     0.248 C 
ATOM      5  O   UNL A   1      34.832  23.279  22.633  1.00  0.00    -0.272 OA
ATOM      6  H   UNL A   1      36.931  23.041  23.663  1.00  0.00     0.163 HD
BRANCH   4   7
ATOM      7  C   UNL A   1      33.895  24.352  24.609  1.00  0.00     0.223 C 
BRANCH   7   8
ATOM      8  C   UNL A   1      33.703  25.766  24.111  1.00  0.00     0.070 A 
ATOM      9  N   UNL A   1      33.733  26.927  24.854  1.00  0.00    -0.330 N 
ATOM     10  C   UNL A   1      33.832  27.971  23.960  1.00  0.00     0.199 A 
ATOM     11  N   UNL A   1      33.663  27.576  22.723  1.00  0.00    -0.245 NA
ATOM     12  C   UNL A   1      33.532  26.223  22.811  1.00  0.00     0.137 A 
BRANCH   9  13
ATOM     13  C   UNL A   1      33.403  27.175  26.254  1.00  0.00     0.082 C 
ATOM     14  C   UNL A   1      34.056  28.488  26.699  1.00  0.00     0.031 C 
ATOM     15  C   UNL A   1      31.931  27.124  26.644  1.00  0.00     0.031 C 
ENDBRANCH   9  13
ENDBRANCH   7   8
BRANCH   7  16
ATOM     16  N   UNL A   1      32.587  23.731  24.619  1.00  0.00    -0.304 N 
ATOM     17  C   UNL A   1      32.215  22.623  25.318  1.00  0.00     0.408 C 
ATOM     18  H   UNL A   1      31.894  24.155  24.061  1.00  0.00     0.168 HD
ATOM     19  O   UNL A   1      31.038  22.387  25.502  1.00  0.00    -0.225 OA
BRANCH  17  20
ATOM     20  O   UNL A   1      33.262  21.818  25.614  1.00  0.00    -0.444 OA
BRANCH  20  21
ATOM     21  C   UNL A   1      33.361  20.524  24.971  1.00  0.00     0.106 C 
ATOM     22  C   UNL A   1      32.738  19.448  25.849  1.00  0.00     0.056 C 
ATOM     23  C   UNL A   1      32.715  20.565  23.586  1.00  0.00     0.056 C 
ATOM     24  C   UNL A   1      34.869  20.240  24.817  1.00  0.00     0.056 C 
ENDBRANCH  20  21
ENDBRANCH  17  20
ENDBRANCH   7  16
ENDBRANCH   4   7
ENDBRANCH   2   3
ENDBRANCH   1   2
BRANCH   1  25
ATOM     25  C   UNL A   1      37.944  21.527  26.073  1.00  0.00     0.023 C 
BRANCH  25  26
ATOM     26  C   UNL A   1      38.625  20.655  25.021  1.00  0.00     0.116 C 
BRANCH  26  27
ATOM     27  N   UNL A   1      39.414  19.552  25.584  1.00  0.00    -0.352 N 
ATOM     28  C   UNL A   1      40.746  19.572  25.991  1.00  0.00     0.251 C 
ATOM     29  H   UNL A   1      38.943  18.693  25.687  1.00  0.00     0.163 HD
ATOM     30  O   UNL A   1      41.408  18.543  26.020  1.00  0.00    -0.269 OA
BRANCH  28  31
ATOM     31  C   UNL A   1      41.318  20.858  26.439  1.00  0.00     0.039 A 
ATOM     32  C   UNL A   1      41.955  21.788  25.612  1.00  0.00     0.014 A 
ATOM     33  C   UNL A   1      41.157  21.130  27.786  1.00  0.00     0.014 A 
ATOM     34  C   UNL A   1      42.387  23.000  26.170  1.00  0.00     0.010 A 
ATOM     35  C   UNL A   1      41.321  22.401  28.242  1.00  0.00     0.010 A 
ATOM     36  C   UNL A   1      42.073  23.292  27.506  1.00  0.00    -0.014 A 
BRANCH  36  37
ATOM     37  C   UNL A   1      42.315  24.569  28.173  1.00  0.00     0.031 A 
ATOM     38  C   UNL A   1      41.167  25.495  28.053  1.00  0.00     0.074 A 
ATOM     39  C   UNL A   1      43.324  24.755  29.062  1.00  0.00     0.049 A 
ATOM     40  N   UNL A   1      41.118  26.556  27.321  1.00  0.00    -0.248 NA
ATOM     41  C   UNL A   1      39.861  25.100  28.609  1.00  0.00     0.031 C 
ATOM     42  C   UNL A   1      44.403  23.839  29.436  1.00  0.00     0.029 A 
ATOM     43  N   UNL A   1      43.548  25.798  29.912  1.00  0.00    -0.354 N 
ATOM     44  C   UNL A   1      39.878  27.123  27.577  1.00  0.00     0.074 A 
ATOM     45  C   UNL A   1      39.076  26.063  28.120  1.00  0.00     0.031 C 
ATOM     46  C   UNL A   1      45.003  24.254  30.579  1.00  0.00     0.029 A 
ATOM     47  C   UNL A   1      44.473  25.557  30.938  1.00  0.00     0.049 A 
ATOM     48  H   UNL A   1      43.089  26.663  29.812  1.00  0.00     0.167 HD
ATOM     49  C   UNL A   1      39.739  28.478  27.617  1.00  0.00     0.034 A 
ATOM     50  C   UNL A   1      44.835  26.394  31.960  1.00  0.00     0.034 A 
ATOM     51  C   UNL A   1      40.899  29.122  27.025  1.00  0.00     0.049 A 
ATOM     52  C   UNL A   1      44.510  27.760  31.483  1.00  0.00     0.074 A 
ATOM     53  C   UNL A   1      41.519  29.053  25.791  1.00  0.00     0.029 A 
ATOM     54  N   UNL A   1      41.850  29.645  27.878  1.00  0.00    -0.354 N 
ATOM     55  N   UNL A   1      45.120  28.301  30.462  1.00  0.00    -0.248 NA
ATOM     56  C   UNL A   1      43.176  28.271  31.758  1.00  0.00     0.031 C 
ATOM     57  C   UNL A   1      42.917  29.028  26.084  1.00  0.00     0.029 A 
ATOM     58  C   UNL A   1      43.082  29.202  27.459  1.00  0.00     0.049 A 
ATOM     59  H   UNL A   1      41.676  30.232  28.650  1.00  0.00     0.167 HD
ATOM     60  C   UNL A   1      44.106  28.868  29.706  1.00  0.00     0.074 A 
ATOM     61  C   UNL A   1      42.939  28.889  30.594  1.00  0.00     0.031 C 
ATOM     62  C   UNL A   1      44.209  28.974  28.347  1.00  0.00     0.034 A 
BRANCH  49  63
ATOM     63  C   UNL A   1      38.797  29.220  28.544  1.00  0.00     0.023 A 
ATOM     64  C   UNL A   1      39.088  29.152  29.919  1.00  0.00     0.031 A 
ATOM     65  C   UNL A   1      37.518  29.730  28.218  1.00  0.00     0.131 A 
ATOM     66  C   UNL A   1      38.107  29.438  30.883  1.00  0.00     0.055 A 
ATOM     67  C   UNL A   1      36.566  30.074  29.182  1.00  0.00     0.041 A 
ATOM     68  F   UNL A   1      37.071  29.852  26.965  1.00  0.00    -0.206 F 
ATOM     69  C   UNL A   1      36.843  29.894  30.524  1.00  0.00     0.022 A 
BRANCH  66  70
ATOM     70  S   UNL A   1      38.460  29.016  32.607  1.00  0.00     0.124 S 
ATOM     71  O   UNL A   1      38.923  30.296  33.131  1.00  0.00    -0.237 OA
ATOM     72  O   UNL A   1      37.154  28.561  33.074  1.00  0.00    -0.237 OA
ATOM     73  O   UNL A   1      39.481  27.977  32.496  1.00  0.00    -0.744 OA
ENDBRANCH  66  70
ENDBRANCH  49  63
BRANCH  50  74
ATOM     74  C   UNL A   1      44.977  26.058  33.418  1.00  0.00     0.023 A 
ATOM     75  C   UNL A   1      43.953  26.196  34.390  1.00  0.00     0.031 A 
ATOM     76  C   UNL A   1      46.112  25.325  33.825  1.00  0.00     0.131 A 
ATOM     77  C   UNL A   1      44.121  25.661  35.701  1.00  0.00     0.055 A 
ATOM     78  C   UNL A   1      46.290  24.832  35.124  1.00  0.00     0.041 A 
ATOM     79  F   UNL A   1      47.051  24.976  32.931  1.00  0.00    -0.206 F 
ATOM     80  C   UNL A   1      45.295  25.001  36.069  1.00  0.00     0.022 A 
BRANCH  77  81
ATOM     81  S   UNL A   1      42.770  25.717  36.938  1.00  0.00     0.124 S 
ATOM     82  O   UNL A   1      43.434  25.261  38.153  1.00  0.00    -0.237 OA
ATOM     83  O   UNL A   1      42.370  27.118  36.901  1.00  0.00    -0.237 OA
ATOM     84  O   UNL A   1      41.774  24.787  36.401  1.00  0.00    -0.744 OA
ENDBRANCH  77  81
ENDBRANCH  50  74
BRANCH  62  85
ATOM     85  C   UNL A   1      45.551  28.670  27.696  1.00  0.00     0.023 A 
ATOM     86  C   UNL A   1      45.943  27.422  27.151  1.00  0.00     0.031 A 
ATOM     87  C   UNL A   1      46.422  29.757  27.510  1.00  0.00     0.131 A 
ATOM     88  C   UNL A   1      47.171  27.303  26.460  1.00  0.00     0.055 A 
ATOM     89  C   UNL A   1      47.621  29.642  26.808  1.00  0.00     0.041 A 
ATOM     90  F   UNL A   1      46.099  30.973  27.981  1.00  0.00    -0.206 F 
ATOM     91  C   UNL A   1      48.002  28.414  26.283  1.00  0.00     0.022 A 
BRANCH  88  92
ATOM     92  S   UNL A   1      47.726  25.698  25.787  1.00  0.00     0.124 S 
ATOM     93  O   UNL A   1      47.052  25.620  24.496  1.00  0.00    -0.237 OA
ATOM     94  O   UNL A   1      49.178  25.857  25.740  1.00  0.00    -0.237 OA
ATOM     95  O   UNL A   1      47.255  24.731  26.780  1.00  0.00    -0.744 OA
ENDBRANCH  88  92
ENDBRANCH  62  85
ENDBRANCH  36  37
ENDBRANCH  28  31
ENDBRANCH  26  27
ENDBRANCH  25  26
ENDBRANCH   1  25
TORSDOF 19
ENDMDL
MODEL 2
REMARK VINA RESULT:     -10.7      3.377      8.519
REMARK SMILES CC(C)n1cncc1[C@@H](NC(=O)OC(C)(C)C)C(=O)NCCCCNC(=O)c1ccc(-c2c3nc(c(-c4cc(S(=O)(=O)[O-])ccc4F)c4ccc([nH]4)c(-c4cc(S(=O)(=O)[O-])ccc4F)c4nc(c(-c5cc(S(=O)(=O)[O-])ccc5F)c5ccc2[nH]5)C=C4)C=C3)cc1
REMARK SMILES IDX 22 1 21 2 20 3 18 4 19 5 9 7 8 8 4 9 5 10 6 11 7 12 2 13
REMARK SMILES IDX 1 14 3 15 10 16 11 17 12 19 13 20 14 21 15 22 16 23 17 24
REMARK SMILES IDX 23 25 24 26 25 27 26 28 27 30 28 31 29 32 90 33 30 34 89 35
REMARK SMILES IDX 31 36 32 37 33 38 83 39 34 40 88 41 82 42 84 43 35 44 87 45
REMARK SMILES IDX 81 46 80 47 36 49 68 50 48 51 67 52 49 53 52 54 66 55 85 56
REMARK SMILES IDX 50 57 51 58 65 60 86 61 53 62 37 63 38 64 46 65 39 66 45 67
REMARK SMILES IDX 47 68 44 69 40 70 41 71 42 72 43 73 69 74 70 75 78 76 71 77
REMARK SMILES IDX 77 78 79 79 76 80 72 81 73 82 74 83 75 84 54 85 55 86 63 87
REMARK SMILES IDX 56 88 62 89 64 90 61 91 57 92 58 93 59 94 60 95
REMARK H PARENT 20 6 10 18 25 29 84 48 52 59
REMARK Flexibility Score: inf
ROOT
ATOM      1  C   UNL A   1      33.291  29.583  26.119  1.00  0.00     0.023 C 
ENDROOT
BRANCH   1   2
ATOM      2  C   UNL A   1      32.638  28.760  25.012  1.00  0.00     0.116 C 
BRANCH   2   3
ATOM      3  N   UNL A   1      33.429  28.750  23.800  1.00  0.00    -0.354 N 
ATOM      4  C   UNL A   1      33.228  28.070  22.633  1.00  0.00     0.248 C 
ATOM      5  O   UNL A   1      34.105  28.184  21.766  1.00  0.00    -0.272 OA
ATOM      6  H   UNL A   1      34.233  29.320  23.820  1.00  0.00     0.163 HD
BRANCH   4   7
ATOM      7  C   UNL A   1      32.048  27.057  22.425  1.00  0.00     0.223 C 
BRANCH   7   8
ATOM      8  C   UNL A   1      32.653  25.673  22.362  1.00  0.00     0.070 A 
ATOM      9  N   UNL A   1      32.840  24.792  23.407  1.00  0.00    -0.330 N 
ATOM     10  C   UNL A   1      33.115  23.563  22.847  1.00  0.00     0.199 A 
ATOM     11  N   UNL A   1      33.315  23.644  21.556  1.00  0.00    -0.245 NA
ATOM     12  C   UNL A   1      33.082  24.952  21.255  1.00  0.00     0.137 A 
BRANCH   9  13
ATOM     13  C   UNL A   1      33.062  25.029  24.829  1.00  0.00     0.082 C 
ATOM     14  C   UNL A   1      32.548  23.826  25.625  1.00  0.00     0.031 C 
ATOM     15  C   UNL A   1      34.470  25.422  25.260  1.00  0.00     0.031 C 
ENDBRANCH   9  13
ENDBRANCH   7   8
BRANCH   7  16
ATOM     16  N   UNL A   1      30.967  26.998  23.385  1.00  0.00    -0.304 N 
ATOM     17  C   UNL A   1      29.685  27.420  23.199  1.00  0.00     0.408 C 
ATOM     18  H   UNL A   1      31.181  26.612  24.266  1.00  0.00     0.168 HD
ATOM     19  O   UNL A   1      28.805  27.034  23.940  1.00  0.00    -0.225 OA
BRANCH  17  20
ATOM     20  O   UNL A   1      29.585  28.372  22.241  1.00  0.00    -0.444 OA
BRANCH  20  21
ATOM     21  C   UNL A   1      29.007  29.656  22.581  1.00  0.00     0.106 C 
ATOM     22  C   UNL A   1      27.514  29.514  22.837  1.00  0.00     0.056 C 
ATOM     23  C   UNL A   1      29.730  30.265  23.783  1.00  0.00     0.056 C 
ATOM     24  C   UNL A   1      29.225  30.559  21.350  1.00  0.00     0.056 C 
ENDBRANCH  20  21
ENDBRANCH  17  20
ENDBRANCH   7  16
ENDBRANCH   4   7
ENDBRANCH   2   3
ENDBRANCH   1   2
BRANCH   1  25
ATOM     25  C   UNL A   1      34.097  28.762  27.134  1.00  0.00     0.023 C 
BRANCH  25  26
ATOM     26  C   UNL A   1      35.472  29.331  27.472  1.00  0.00     0.116 C 
BRANCH  26  27
ATOM     27  N   UNL A   1      35.602  29.783  28.864  1.00  0.00    -0.352 N 
ATOM     28  C   UNL A   1      36.569  29.419  29.797  1.00  0.00     0.251 C 
ATOM     29  H   UNL A   1      34.920  30.424  29.174  1.00  0.00     0.163 HD
ATOM     30  O   UNL A   1      36.341  29.493  30.997  1.00  0.00    -0.269 OA
BRANCH  28  31
ATOM     31  C   UNL A   1      37.893  28.995  29.299  1.00  0.00     0.039 A 
ATOM     32  C   UNL A   1      38.553  29.544  28.195  1.00  0.00     0.014 A 
ATOM     33  C   UNL A   1      38.499  27.994  30.037  1.00  0.00     0.014 A 
ATOM     34  C   UNL A   1      39.841  29.084  27.884  1.00  0.00     0.010 A 
ATOM     35  C   UNL A   1      39.834  27.766  29.897  1.00  0.00     0.010 A 
ATOM     36  C   UNL A   1      40.472  28.174  28.744  1.00  0.00    -0.014 A 
BRANCH  36  37
ATOM     37  C   UNL A   1      41.860  27.730  28.638  1.00  0.00     0.031 A 
ATOM     38  C   UNL A   1      41.995  26.483  27.853  1.00  0.00     0.074 A 
ATOM     39  C   UNL A   1      42.914  28.531  28.939  1.00  0.00     0.049 A 
ATOM     40  N   UNL A   1      42.272  25.313  28.322  1.00  0.00    -0.248 NA
ATOM     41  C   UNL A   1      41.559  26.466  26.446  1.00  0.00     0.031 C 
ATOM     42  C   UNL A   1      42.913  29.875  29.520  1.00  0.00     0.029 A 
ATOM     43  N   UNL A   1      44.242  28.342  28.695  1.00  0.00    -0.354 N 
ATOM     44  C   UNL A   1      42.350  24.481  27.215  1.00  0.00     0.074 A 
ATOM     45  C   UNL A   1      41.634  25.161  26.172  1.00  0.00     0.031 C 
ATOM     46  C   UNL A   1      44.125  30.461  29.359  1.00  0.00     0.029 A 
ATOM     47  C   UNL A   1      45.049  29.482  28.817  1.00  0.00     0.049 A 
ATOM     48  H   UNL A   1      44.609  27.463  28.448  1.00  0.00     0.167 HD
ATOM     49  C   UNL A   1      43.267  23.474  27.178  1.00  0.00     0.034 A 
ATOM     50  C   UNL A   1      46.391  29.596  28.567  1.00  0.00     0.034 A 
ATOM     51  C   UNL A   1      43.799  23.227  28.507  1.00  0.00     0.049 A 
ATOM     52  C   UNL A   1      46.930  28.220  28.686  1.00  0.00     0.074 A 
ATOM     53  C   UNL A   1      43.238  22.900  29.729  1.00  0.00     0.029 A 
ATOM     54  N   UNL A   1      45.044  23.741  28.808  1.00  0.00    -0.354 N 
ATOM     55  N   UNL A   1      46.921  27.567  29.818  1.00  0.00    -0.248 NA
ATOM     56  C   UNL A   1      46.945  27.395  27.488  1.00  0.00     0.031 C 
ATOM     57  C   UNL A   1      43.932  23.710  30.679  1.00  0.00     0.029 A 
ATOM     58  C   UNL A   1      44.950  24.395  30.014  1.00  0.00     0.049 A 
ATOM     59  H   UNL A   1      45.855  23.656  28.256  1.00  0.00     0.167 HD
ATOM     60  C   UNL A   1      46.472  26.299  29.490  1.00  0.00     0.074 A 
ATOM     61  C   UNL A   1      46.580  26.226  28.028  1.00  0.00     0.031 C 
ATOM     62  C   UNL A   1      45.760  25.545  30.381  1.00  0.00     0.034 A 
BRANCH  49  63
ATOM     63  C   UNL A   1      43.988  23.010  25.928  1.00  0.00     0.023 A 
ATOM     64  C   UNL A   1      44.004  21.622  25.693  1.00  0.00     0.031 A 
ATOM     65  C   UNL A   1      44.875  23.772  25.133  1.00  0.00     0.131 A 
ATOM     66  C   UNL A   1      44.948  21.045  24.828  1.00  0.00     0.055 A 
ATOM     67  C   UNL A   1      45.770  23.197  24.225  1.00  0.00     0.041 A 
ATOM     68  F   UNL A   1      44.999  25.098  25.232  1.00  0.00    -0.206 F 
ATOM     69  C   UNL A   1      45.838  21.823  24.096  1.00  0.00     0.022 A 
BRANCH  66  70
ATOM     70  S   UNL A   1      45.114  19.243  24.830  1.00  0.00     0.124 S 
ATOM     71  O   UNL A   1      45.001  18.939  23.409  1.00  0.00    -0.237 OA
ATOM     72  O   UNL A   1      46.435  19.068  25.425  1.00  0.00    -0.237 OA
ATOM     73  O   UNL A   1      43.992  18.804  25.656  1.00  0.00    -0.744 OA
ENDBRANCH  66  70
ENDBRANCH  49  63
BRANCH  50  74
ATOM     74  C   UNL A   1      47.096  30.678  27.797  1.00  0.00     0.023 A 
ATOM     75  C   UNL A   1      46.456  31.758  27.138  1.00  0.00     0.031 A 
ATOM     76  C   UNL A   1      48.496  30.787  27.933  1.00  0.00     0.131 A 
ATOM     77  C   UNL A   1      47.219  32.841  26.611  1.00  0.00     0.055 A 
ATOM     78  C   UNL A   1      49.248  31.832  27.383  1.00  0.00     0.041 A 
ATOM     79  F   UNL A   1      49.173  29.918  28.700  1.00  0.00    -0.206 F 
ATOM     80  C   UNL A   1      48.612  32.864  26.716  1.00  0.00     0.022 A 
BRANCH  77  81
ATOM     81  S   UNL A   1      46.413  34.307  25.864  1.00  0.00     0.124 S 
ATOM     82  O   UNL A   1      45.986  35.065  27.034  1.00  0.00    -0.237 OA
ATOM     83  O   UNL A   1      47.491  34.887  25.072  1.00  0.00    -0.237 OA
ATOM     84  O   UNL A   1      45.320  33.734  25.075  1.00  0.00    -0.744 OA
ENDBRANCH  77  81
ENDBRANCH  50  74
BRANCH  62  85
ATOM     85  C   UNL A   1      45.665  26.025  31.822  1.00  0.00     0.023 A 
ATOM     86  C   UNL A   1      44.562  26.706  32.397  1.00  0.00     0.031 A 
ATOM     87  C   UNL A   1      46.709  25.648  32.683  1.00  0.00     0.131 A 
ATOM     88  C   UNL A   1      44.545  26.986  33.782  1.00  0.00     0.055 A 
ATOM     89  C   UNL A   1      46.678  25.906  34.052  1.00  0.00     0.041 A 
ATOM     90  F   UNL A   1      47.771  24.979  32.206  1.00  0.00    -0.206 F 
ATOM     91  C   UNL A   1      45.598  26.579  34.608  1.00  0.00     0.022 A 
BRANCH  88  92
ATOM     92  S   UNL A   1      43.161  27.904  34.545  1.00  0.00     0.124 S 
ATOM     93  O   UNL A   1      43.279  27.580  35.962  1.00  0.00    -0.237 OA
ATOM     94  O   UNL A   1      43.455  29.287  34.179  1.00  0.00    -0.237 OA
ATOM     95  O   UNL A   1      41.978  27.343  33.889  1.00  0.00    -0.744 OA
ENDBRANCH  88  92
ENDBRANCH  62  85
ENDBRANCH  36  37
ENDBRANCH  28  31
ENDBRANCH  26  27
ENDBRANCH  25  26
ENDBRANCH   1  25
TORSDOF 19
ENDMDL
MODEL 3
REMARK VINA RESULT:     -10.7      1.190      2.691
REMARK SMILES CC(C)n1cncc1[C@@H](NC(=O)OC(C)(C)C)C(=O)NCCCCNC(=O)c1ccc(-c2c3nc(c(-c4cc(S(=O)(=O)[O-])ccc4F)c4ccc([nH]4)c(-c4cc(S(=O)(=O)[O-])ccc4F)c4nc(c(-c5cc(S(=O)(=O)[O-])ccc5F)c5ccc2[nH]5)C=C4)C=C3)cc1
REMARK SMILES IDX 22 1 21 2 20 3 18 4 19 5 9 7 8 8 4 9 5 10 6 11 7 12 2 13
REMARK SMILES IDX 1 14 3 15 10 16 11 17 12 19 13 20 14 21 15 22 16 23 17 24
REMARK SMILES IDX 23 25 24 26 25 27 26 28 27 30 28 31 29 32 90 33 30 34 89 35
REMARK SMILES IDX 31 36 32 37 33 38 83 39 34 40 88 41 82 42 84 43 35 44 87 45
REMARK SMILES IDX 81 46 80 47 36 49 68 50 48 51 67 52 49 53 52 54 66 55 85 56
REMARK SMILES IDX 50 57 51 58 65 60 86 61 53 62 37 63 38 64 46 65 39 66 45 67
REMARK SMILES IDX 47 68 44 69 40 70 41 71 42 72 43 73 69 74 70 75 78 76 71 77
REMARK SMILES IDX 77 78 79 79 76 80 72 81 73 82 74 83 75 84 54 85 55 86 63 87
REMARK SMILES IDX 56 88 62 89 64 90 61 91 57 92 58 93 59 94 60 95
REMARK H PARENT 20 6 10 18 25 29 84 48 52 59
REMARK Flexibility Score: inf
ROOT
ATOM      1  C   UNL A   1      38.363  22.908  26.152  1.00  0.00     0.023 C 
ENDROOT
BRANCH   1   2
ATOM      2  C   UNL A   1      37.398  23.937  25.569  1.00  0.00     0.116 C 
BRANCH   2   3
ATOM      3  N   UNL A   1      36.853  23.515  24.297  1.00  0.00    -0.354 N 
ATOM      4  C   UNL A   1      35.571  23.588  23.830  1.00  0.00     0.248 C 
ATOM      5  O   UNL A   1      35.355  23.084  22.720  1.00  0.00    -0.272 OA
ATOM      6  H   UNL A   1      37.503  23.115  23.674  1.00  0.00     0.163 HD
BRANCH   4   7
ATOM      7  C   UNL A   1      34.376  24.124  24.693  1.00  0.00     0.223 C 
BRANCH   7   8
ATOM      8  C   UNL A   1      34.034  23.050  25.700  1.00  0.00     0.070 A 
ATOM      9  N   UNL A   1      33.229  21.947  25.509  1.00  0.00    -0.330 N 
ATOM     10  C   UNL A   1      33.458  21.097  26.569  1.00  0.00     0.199 A 
ATOM     11  N   UNL A   1      34.181  21.661  27.503  1.00  0.00    -0.245 NA
ATOM     12  C   UNL A   1      34.498  22.886  26.999  1.00  0.00     0.137 A 
BRANCH   9  13
ATOM     13  C   UNL A   1      32.093  21.736  24.617  1.00  0.00     0.082 C 
ATOM     14  C   UNL A   1      31.135  22.926  24.733  1.00  0.00     0.031 C 
ATOM     15  C   UNL A   1      32.400  21.408  23.162  1.00  0.00     0.031 C 
ENDBRANCH   9  13
ENDBRANCH   7   8
BRANCH   7  16
ATOM     16  N   UNL A   1      34.513  25.361  25.430  1.00  0.00    -0.304 N 
ATOM     17  C   UNL A   1      33.580  26.346  25.555  1.00  0.00     0.408 C 
ATOM     18  H   UNL A   1      35.372  25.507  25.891  1.00  0.00     0.168 HD
ATOM     19  O   UNL A   1      33.679  27.169  26.442  1.00  0.00    -0.225 OA
BRANCH  17  20
ATOM     20  O   UNL A   1      32.692  26.353  24.534  1.00  0.00    -0.444 OA
BRANCH  20  21
ATOM     21  C   UNL A   1      31.363  26.884  24.758  1.00  0.00     0.106 C 
ATOM     22  C   UNL A   1      30.772  26.311  26.037  1.00  0.00     0.056 C 
ATOM     23  C   UNL A   1      31.398  28.413  24.790  1.00  0.00     0.056 C 
ATOM     24  C   UNL A   1      30.512  26.424  23.557  1.00  0.00     0.056 C 
ENDBRANCH  20  21
ENDBRANCH  17  20
ENDBRANCH   7  16
ENDBRANCH   4   7
ENDBRANCH   2   3
ENDBRANCH   1   2
BRANCH   1  25
ATOM     25  C   UNL A   1      37.919  21.449  25.982  1.00  0.00     0.023 C 
BRANCH  25  26
ATOM     26  C   UNL A   1      38.731  20.644  24.971  1.00  0.00     0.116 C 
BRANCH  26  27
ATOM     27  N   UNL A   1      39.500  19.544  25.568  1.00  0.00    -0.352 N 
ATOM     28  C   UNL A   1      40.815  19.566  26.023  1.00  0.00     0.251 C 
ATOM     29  H   UNL A   1      39.026  18.685  25.656  1.00  0.00     0.163 HD
ATOM     30  O   UNL A   1      41.477  18.538  26.081  1.00  0.00    -0.269 OA
BRANCH  28  31
ATOM     31  C   UNL A   1      41.371  20.855  26.487  1.00  0.00     0.039 A 
ATOM     32  C   UNL A   1      42.014  21.794  25.674  1.00  0.00     0.014 A 
ATOM     33  C   UNL A   1      41.185  21.119  27.832  1.00  0.00     0.014 A 
ATOM     34  C   UNL A   1      42.428  23.006  26.246  1.00  0.00     0.010 A 
ATOM     35  C   UNL A   1      41.331  22.389  28.297  1.00  0.00     0.010 A 
ATOM     36  C   UNL A   1      42.089  23.289  27.577  1.00  0.00    -0.014 A 
BRANCH  36  37
ATOM     37  C   UNL A   1      42.310  24.564  28.255  1.00  0.00     0.031 A 
ATOM     38  C   UNL A   1      41.198  25.516  28.043  1.00  0.00     0.074 A 
ATOM     39  C   UNL A   1      43.253  24.733  29.217  1.00  0.00     0.049 A 
ATOM     40  N   UNL A   1      41.229  26.574  27.303  1.00  0.00    -0.248 NA
ATOM     41  C   UNL A   1      39.844  25.156  28.499  1.00  0.00     0.031 C 
ATOM     42  C   UNL A   1      44.278  23.794  29.677  1.00  0.00     0.029 A 
ATOM     43  N   UNL A   1      43.436  25.776  30.076  1.00  0.00    -0.354 N 
ATOM     44  C   UNL A   1      39.988  27.171  27.461  1.00  0.00     0.074 A 
ATOM     45  C   UNL A   1      39.121  26.134  27.947  1.00  0.00     0.031 C 
ATOM     46  C   UNL A   1      44.799  24.203  30.860  1.00  0.00     0.029 A 
ATOM     47  C   UNL A   1      44.275  25.521  31.170  1.00  0.00     0.049 A 
ATOM     48  H   UNL A   1      43.007  26.651  29.937  1.00  0.00     0.167 HD
ATOM     49  C   UNL A   1      39.878  28.529  27.484  1.00  0.00     0.034 A 
ATOM     50  C   UNL A   1      44.578  26.355  32.213  1.00  0.00     0.034 A 
ATOM     51  C   UNL A   1      41.095  29.142  26.979  1.00  0.00     0.049 A 
ATOM     52  C   UNL A   1      44.323  27.725  31.706  1.00  0.00     0.074 A 
ATOM     53  C   UNL A   1      41.805  29.050  25.796  1.00  0.00     0.029 A 
ATOM     54  N   UNL A   1      41.991  29.648  27.898  1.00  0.00    -0.354 N 
ATOM     55  N   UNL A   1      45.022  28.245  30.732  1.00  0.00    -0.248 NA
ATOM     56  C   UNL A   1      42.985  28.270  31.876  1.00  0.00     0.031 C 
ATOM     57  C   UNL A   1      43.176  28.994  26.195  1.00  0.00     0.029 A 
ATOM     58  C   UNL A   1      43.240  29.173  27.577  1.00  0.00     0.049 A 
ATOM     59  H   UNL A   1      41.773  30.244  28.652  1.00  0.00     0.167 HD
ATOM     60  C   UNL A   1      44.083  28.831  29.898  1.00  0.00     0.074 A 
ATOM     61  C   UNL A   1      42.852  28.885  30.694  1.00  0.00     0.031 C 
ATOM     62  C   UNL A   1      44.291  28.924  28.549  1.00  0.00     0.034 A 
BRANCH  49  63
ATOM     63  C   UNL A   1      38.887  29.300  28.333  1.00  0.00     0.023 A 
ATOM     64  C   UNL A   1      39.111  29.291  29.722  1.00  0.00     0.031 A 
ATOM     65  C   UNL A   1      37.622  29.784  27.924  1.00  0.00     0.131 A 
ATOM     66  C   UNL A   1      38.082  29.607  30.625  1.00  0.00     0.055 A 
ATOM     67  C   UNL A   1      36.621  30.158  28.826  1.00  0.00     0.041 A 
ATOM     68  F   UNL A   1      37.236  29.850  26.647  1.00  0.00    -0.206 F 
ATOM     69  C   UNL A   1      36.834  30.035  30.186  1.00  0.00     0.022 A 
BRANCH  66  70
ATOM     70  S   UNL A   1      38.353  29.259  32.379  1.00  0.00     0.124 S 
ATOM     71  O   UNL A   1      37.116  28.574  32.734  1.00  0.00    -0.237 OA
ATOM     72  O   UNL A   1      39.558  28.437  32.336  1.00  0.00    -0.237 OA
ATOM     73  O   UNL A   1      38.523  30.587  32.963  1.00  0.00    -0.744 OA
ENDBRANCH  66  70
ENDBRANCH  49  63
BRANCH  50  74
ATOM     74  C   UNL A   1      44.601  26.027  33.680  1.00  0.00     0.023 A 
ATOM     75  C   UNL A   1      43.543  26.284  34.589  1.00  0.00     0.031 A 
ATOM     76  C   UNL A   1      45.627  25.184  34.157  1.00  0.00     0.131 A 
ATOM     77  C   UNL A   1      43.579  25.752  35.911  1.00  0.00     0.055 A 
ATOM     78  C   UNL A   1      45.678  24.694  35.468  1.00  0.00     0.041 A 
ATOM     79  F   UNL A   1      46.574  24.728  33.322  1.00  0.00    -0.206 F 
ATOM     80  C   UNL A   1      44.654  24.978  36.352  1.00  0.00     0.022 A 
BRANCH  77  81
ATOM     81  S   UNL A   1      42.173  25.965  37.067  1.00  0.00     0.124 S 
ATOM     82  O   UNL A   1      41.509  24.669  37.000  1.00  0.00    -0.237 OA
ATOM     83  O   UNL A   1      42.845  26.288  38.320  1.00  0.00    -0.237 OA
ATOM     84  O   UNL A   1      41.411  27.072  36.483  1.00  0.00    -0.744 OA
ENDBRANCH  77  81
ENDBRANCH  50  74
BRANCH  62  85
ATOM     85  C   UNL A   1      45.671  28.585  28.004  1.00  0.00     0.023 A 
ATOM     86  C   UNL A   1      46.124  27.290  27.646  1.00  0.00     0.031 A 
ATOM     87  C   UNL A   1      46.519  29.667  27.717  1.00  0.00     0.131 A 
ATOM     88  C   UNL A   1      47.386  27.125  27.031  1.00  0.00     0.055 A 
ATOM     89  C   UNL A   1      47.753  29.503  27.090  1.00  0.00     0.041 A 
ATOM     90  F   UNL A   1      46.140  30.922  28.009  1.00  0.00    -0.206 F 
ATOM     91  C   UNL A   1      48.194  28.231  26.748  1.00  0.00     0.022 A 
BRANCH  88  92
ATOM     92  S   UNL A   1      48.018  25.466  26.600  1.00  0.00     0.124 S 
ATOM     93  O   UNL A   1      46.973  24.569  27.079  1.00  0.00    -0.237 OA
ATOM     94  O   UNL A   1      48.172  25.550  25.150  1.00  0.00    -0.237 OA
ATOM     95  O   UNL A   1      49.280  25.379  27.339  1.00  0.00    -0.744 OA
ENDBRANCH  88  92
ENDBRANCH  62  85
ENDBRANCH  36  37
ENDBRANCH  28  31
ENDBRANCH  26  27
ENDBRANCH  25  26
ENDBRANCH   1  25
TORSDOF 19
ENDMDL
