MODEL 1
REMARK VINA RESULT:     -12.3      0.000      0.000
REMARK SMILES CS(=O)(=O)c1ccc(/C=C(/C(=O)NCCCCNC(=O)c2ccc(-c3c4nc(c(-c5cc(S(=O)(=O)[O-])ccc5F)c5ccc([nH]5)c(-c5cc(S(=O)(=O)[O-])ccc5F)c5nc(c(-c6cc(S(=O)(=O)[O-])ccc6F)c6ccc3[nH]6)C=C5)C=C4)cc2)c2cccc(Br)c2)cc1
REMARK SMILES IDX 16 1 15 2 14 3 13 4 11 5 12 6 10 8 9 9 8 10 5 11 6 12 92 13
REMARK SMILES IDX 7 14 91 15 2 16 1 17 3 18 4 19 84 20 85 21 90 22 86 23 88 24
REMARK SMILES IDX 87 25 89 26 17 27 18 28 19 29 20 31 21 32 22 33 83 34 23 35
REMARK SMILES IDX 82 36 24 37 25 38 26 39 76 40 27 41 81 42 75 43 77 44 28 45
REMARK SMILES IDX 80 46 74 47 73 48 29 50 61 51 41 52 60 53 42 54 45 55 59 56
REMARK SMILES IDX 78 57 43 58 44 59 58 61 79 62 46 63 30 64 31 65 39 66 32 67
REMARK SMILES IDX 38 68 40 69 37 70 33 71 34 72 35 73 36 74 62 75 63 76 71 77
REMARK SMILES IDX 64 78 70 79 72 80 69 81 65 82 66 83 67 84 68 85 47 86 48 87
REMARK SMILES IDX 56 88 49 89 55 90 57 91 54 92 50 93 51 94 52 95 53 96
REMARK H PARENT 13 7 18 30 77 49 45 60
REMARK Flexibility Score: inf
ROOT
ATOM      1  C   UNL A   1      35.536  21.798  24.556  1.00  0.00     0.023 C 
ENDROOT
BRANCH   1   2
ATOM      2  C   UNL A   1      35.080  22.800  23.488  1.00  0.00     0.023 C 
BRANCH   2   3
ATOM      3  C   UNL A   1      33.647  22.589  22.990  1.00  0.00     0.116 C 
BRANCH   3   4
ATOM      4  N   UNL A   1      32.779  22.215  24.090  1.00  0.00    -0.352 N 
ATOM      5  C   UNL A   1      31.890  22.901  24.857  1.00  0.00     0.251 C 
ATOM      6  O   UNL A   1      31.324  22.259  25.744  1.00  0.00    -0.269 OA
ATOM      7  H   UNL A   1      32.847  21.265  24.332  1.00  0.00     0.163 HD
BRANCH   5   8
ATOM      8  C   UNL A   1      31.521  24.349  24.619  1.00  0.00     0.047 C 
ATOM      9  C   UNL A   1      30.613  24.719  23.687  1.00  0.00     0.022 C 
BRANCH   9  10
ATOM     10  C   UNL A   1      30.080  26.067  23.397  1.00  0.00    -0.025 A 
ATOM     11  C   UNL A   1      28.997  28.628  23.043  1.00  0.00     0.067 A 
ATOM     12  C   UNL A   1      30.251  28.324  22.508  1.00  0.00     0.021 A 
ATOM     13  C   UNL A   1      28.252  27.650  23.701  1.00  0.00     0.021 A 
ATOM     14  C   UNL A   1      30.779  27.040  22.673  1.00  0.00     0.009 A 
ATOM     15  C   UNL A   1      28.796  26.376  23.877  1.00  0.00     0.009 A 
BRANCH  11  16
ATOM     16  S   UNL A   1      28.350  30.272  22.873  1.00  0.00     0.175 S 
ATOM     17  C   UNL A   1      28.673  30.693  21.179  1.00  0.00     0.163 C 
ATOM     18  O   UNL A   1      29.151  31.154  23.696  1.00  0.00    -0.224 OA
ATOM     19  O   UNL A   1      26.910  30.184  23.052  1.00  0.00    -0.224 OA
ENDBRANCH  11  16
ENDBRANCH   9  10
BRANCH   8  20
ATOM     20  C   UNL A   1      32.329  25.378  25.324  1.00  0.00    -0.012 A 
ATOM     21  C   UNL A   1      33.717  25.414  25.101  1.00  0.00     0.009 A 
ATOM     22  C   UNL A   1      31.744  26.369  26.121  1.00  0.00     0.024 A 
ATOM     23  C   UNL A   1      34.504  26.434  25.637  1.00  0.00     0.002 A 
ATOM     24  C   UNL A   1      32.535  27.399  26.636  1.00  0.00     0.018 A 
ATOM     25  C   UNL A   1      33.909  27.438  26.396  1.00  0.00     0.016 A 
ATOM     26  Br  UNL A   1      31.726  28.794  27.626  1.00  0.00    -0.051 Br
ENDBRANCH   8  20
ENDBRANCH   5   8
ENDBRANCH   3   4
ENDBRANCH   2   3
ENDBRANCH   1   2
BRANCH   1  27
ATOM     27  C   UNL A   1      36.676  22.274  25.453  1.00  0.00     0.116 C 
BRANCH  27  28
ATOM     28  N   UNL A   1      37.698  21.260  25.656  1.00  0.00    -0.352 N 
ATOM     29  C   UNL A   1      38.980  21.413  26.126  1.00  0.00     0.251 C 
ATOM     30  H   UNL A   1      37.436  20.340  25.427  1.00  0.00     0.163 HD
ATOM     31  O   UNL A   1      39.748  20.455  26.120  1.00  0.00    -0.269 OA
BRANCH  29  32
ATOM     32  C   UNL A   1      39.437  22.739  26.594  1.00  0.00     0.039 A 
ATOM     33  C   UNL A   1      40.445  22.799  27.562  1.00  0.00     0.014 A 
ATOM     34  C   UNL A   1      38.891  23.915  26.073  1.00  0.00     0.014 A 
ATOM     35  C   UNL A   1      40.951  24.039  27.955  1.00  0.00     0.010 A 
ATOM     36  C   UNL A   1      39.438  25.146  26.422  1.00  0.00     0.010 A 
ATOM     37  C   UNL A   1      40.477  25.221  27.363  1.00  0.00    -0.014 A 
BRANCH  37  38
ATOM     38  C   UNL A   1      41.059  26.543  27.710  1.00  0.00     0.031 A 
ATOM     39  C   UNL A   1      42.491  26.848  27.366  1.00  0.00     0.074 A 
ATOM     40  C   UNL A   1      40.321  27.435  28.398  1.00  0.00     0.049 A 
ATOM     41  N   UNL A   1      43.207  27.902  27.660  1.00  0.00    -0.248 NA
ATOM     42  C   UNL A   1      43.221  25.813  26.619  1.00  0.00     0.031 C 
ATOM     43  C   UNL A   1      38.934  27.234  28.825  1.00  0.00     0.029 A 
ATOM     44  N   UNL A   1      40.633  28.685  28.870  1.00  0.00    -0.354 N 
ATOM     45  C   UNL A   1      44.476  27.654  27.148  1.00  0.00     0.074 A 
ATOM     46  C   UNL A   1      44.442  26.324  26.577  1.00  0.00     0.031 C 
ATOM     47  C   UNL A   1      38.513  28.327  29.481  1.00  0.00     0.029 A 
ATOM     48  C   UNL A   1      39.608  29.289  29.558  1.00  0.00     0.049 A 
ATOM     49  H   UNL A   1      41.511  29.109  28.730  1.00  0.00     0.167 HD
ATOM     50  C   UNL A   1      45.561  28.468  27.138  1.00  0.00     0.034 A 
ATOM     51  C   UNL A   1      39.558  30.479  30.190  1.00  0.00     0.034 A 
ATOM     52  C   UNL A   1      45.572  29.797  27.701  1.00  0.00     0.049 A 
ATOM     53  C   UNL A   1      40.778  31.363  30.173  1.00  0.00     0.074 A 
ATOM     54  C   UNL A   1      46.597  30.728  27.697  1.00  0.00     0.029 A 
ATOM     55  N   UNL A   1      44.509  30.383  28.377  1.00  0.00    -0.354 N 
ATOM     56  N   UNL A   1      41.957  31.135  29.640  1.00  0.00    -0.248 NA
ATOM     57  C   UNL A   1      40.657  32.670  30.832  1.00  0.00     0.031 C 
ATOM     58  C   UNL A   1      46.174  31.851  28.419  1.00  0.00     0.029 A 
ATOM     59  C   UNL A   1      44.861  31.651  28.815  1.00  0.00     0.049 A 
ATOM     60  H   UNL A   1      43.632  29.959  28.524  1.00  0.00     0.167 HD
ATOM     61  C   UNL A   1      42.707  32.283  29.875  1.00  0.00     0.074 A 
ATOM     62  C   UNL A   1      41.845  33.205  30.586  1.00  0.00     0.031 C 
ATOM     63  C   UNL A   1      43.992  32.553  29.532  1.00  0.00     0.034 A 
BRANCH  50  64
ATOM     64  C   UNL A   1      46.827  27.926  26.520  1.00  0.00     0.023 A 
ATOM     65  C   UNL A   1      47.115  28.099  25.154  1.00  0.00     0.031 A 
ATOM     66  C   UNL A   1      47.746  27.196  27.297  1.00  0.00     0.131 A 
ATOM     67  C   UNL A   1      48.242  27.483  24.591  1.00  0.00     0.055 A 
ATOM     68  C   UNL A   1      48.910  26.656  26.747  1.00  0.00     0.041 A 
ATOM     69  F   UNL A   1      47.518  26.981  28.602  1.00  0.00    -0.206 F 
ATOM     70  C   UNL A   1      49.155  26.784  25.382  1.00  0.00     0.022 A 
BRANCH  67  71
ATOM     71  S   UNL A   1      48.417  27.485  22.786  1.00  0.00     0.124 S 
ATOM     72  O   UNL A   1      47.210  28.198  22.374  1.00  0.00    -0.237 OA
ATOM     73  O   UNL A   1      49.677  28.195  22.592  1.00  0.00    -0.237 OA
ATOM     74  O   UNL A   1      48.442  26.065  22.442  1.00  0.00    -0.744 OA
ENDBRANCH  67  71
ENDBRANCH  50  64
BRANCH  51  75
ATOM     75  C   UNL A   1      38.319  30.906  30.899  1.00  0.00     0.023 A 
ATOM     76  C   UNL A   1      37.293  31.579  30.218  1.00  0.00     0.031 A 
ATOM     77  C   UNL A   1      38.160  30.681  32.278  1.00  0.00     0.131 A 
ATOM     78  C   UNL A   1      36.173  32.044  30.924  1.00  0.00     0.055 A 
ATOM     79  C   UNL A   1      37.021  31.103  32.967  1.00  0.00     0.041 A 
ATOM     80  F   UNL A   1      39.108  30.034  32.974  1.00  0.00    -0.206 F 
ATOM     81  C   UNL A   1      36.025  31.800  32.292  1.00  0.00     0.022 A 
BRANCH  78  82
ATOM     82  S   UNL A   1      34.944  33.043  30.041  1.00  0.00     0.124 S 
ATOM     83  O   UNL A   1      35.777  34.081  29.445  1.00  0.00    -0.237 OA
ATOM     84  O   UNL A   1      34.371  32.070  29.117  1.00  0.00    -0.237 OA
ATOM     85  O   UNL A   1      34.046  33.495  31.102  1.00  0.00    -0.744 OA
ENDBRANCH  78  82
ENDBRANCH  51  75
BRANCH  63  86
ATOM     86  C   UNL A   1      44.519  33.922  29.884  1.00  0.00     0.023 A 
ATOM     87  C   UNL A   1      44.433  35.001  28.985  1.00  0.00     0.031 A 
ATOM     88  C   UNL A   1      45.130  34.145  31.131  1.00  0.00     0.131 A 
ATOM     89  C   UNL A   1      44.996  36.240  29.327  1.00  0.00     0.055 A 
ATOM     90  C   UNL A   1      45.639  35.393  31.486  1.00  0.00     0.041 A 
ATOM     91  F   UNL A   1      45.241  33.148  32.024  1.00  0.00    -0.206 F 
ATOM     92  C   UNL A   1      45.585  36.447  30.577  1.00  0.00     0.022 A 
BRANCH  89  93
ATOM     93  S   UNL A   1      45.025  37.557  28.080  1.00  0.00     0.124 S 
ATOM     94  O   UNL A   1      46.270  37.277  27.372  1.00  0.00    -0.237 OA
ATOM     95  O   UNL A   1      43.797  37.307  27.334  1.00  0.00    -0.237 OA
ATOM     96  O   UNL A   1      45.027  38.783  28.876  1.00  0.00    -0.744 OA
ENDBRANCH  89  93
ENDBRANCH  63  86
ENDBRANCH  37  38
ENDBRANCH  29  32
ENDBRANCH  27  28
ENDBRANCH   1  27
TORSDOF 17
ENDMDL
MODEL 2
REMARK VINA RESULT:     -12.3      5.151     10.107
REMARK SMILES CS(=O)(=O)c1ccc(/C=C(/C(=O)NCCCCNC(=O)c2ccc(-c3c4nc(c(-c5cc(S(=O)(=O)[O-])ccc5F)c5ccc([nH]5)c(-c5cc(S(=O)(=O)[O-])ccc5F)c5nc(c(-c6cc(S(=O)(=O)[O-])ccc6F)c6ccc3[nH]6)C=C5)C=C4)cc2)c2cccc(Br)c2)cc1
REMARK SMILES IDX 16 1 15 2 14 3 13 4 11 5 12 6 10 8 9 9 8 10 5 11 6 12 92 13
REMARK SMILES IDX 7 14 91 15 2 16 1 17 3 18 4 19 84 20 85 21 90 22 86 23 88 24
REMARK SMILES IDX 87 25 89 26 17 27 18 28 19 29 20 31 21 32 22 33 83 34 23 35
REMARK SMILES IDX 82 36 24 37 25 38 26 39 76 40 27 41 81 42 75 43 77 44 28 45
REMARK SMILES IDX 80 46 74 47 73 48 29 50 61 51 41 52 60 53 42 54 45 55 59 56
REMARK SMILES IDX 78 57 43 58 44 59 58 61 79 62 46 63 30 64 31 65 39 66 32 67
REMARK SMILES IDX 38 68 40 69 37 70 33 71 34 72 35 73 36 74 62 75 63 76 71 77
REMARK SMILES IDX 64 78 70 79 72 80 69 81 65 82 66 83 67 84 68 85 47 86 48 87
REMARK SMILES IDX 56 88 49 89 55 90 57 91 54 92 50 93 51 94 52 95 53 96
REMARK H PARENT 13 7 18 30 77 49 45 60
REMARK Flexibility Score: inf
ROOT
ATOM      1  C   UNL A   1      32.815  28.145  26.278  1.00  0.00     0.023 C 
ENDROOT
BRANCH   1   2
ATOM      2  C   UNL A   1      33.323  26.699  26.352  1.00  0.00     0.023 C 
BRANCH   2   3
ATOM      3  C   UNL A   1      32.266  25.638  26.031  1.00  0.00     0.116 C 
BRANCH   3   4
ATOM      4  N   UNL A   1      31.969  25.632  24.612  1.00  0.00    -0.352 N 
ATOM      5  C   UNL A   1      32.178  24.732  23.614  1.00  0.00     0.251 C 
ATOM      6  O   UNL A   1      31.808  25.069  22.487  1.00  0.00    -0.269 OA
ATOM      7  H   UNL A   1      31.521  26.452  24.306  1.00  0.00     0.163 HD
BRANCH   5   8
ATOM      8  C   UNL A   1      32.751  23.349  23.841  1.00  0.00     0.047 C 
ATOM      9  C   UNL A   1      31.969  22.282  24.124  1.00  0.00     0.022 C 
BRANCH   9  10
ATOM     10  C   UNL A   1      32.358  20.864  24.280  1.00  0.00    -0.025 A 
ATOM     11  C   UNL A   1      33.188  18.189  24.388  1.00  0.00     0.067 A 
ATOM     12  C   UNL A   1      33.266  18.988  25.531  1.00  0.00     0.021 A 
ATOM     13  C   UNL A   1      32.646  18.694  23.207  1.00  0.00     0.021 A 
ATOM     14  C   UNL A   1      32.836  20.316  25.476  1.00  0.00     0.009 A 
ATOM     15  C   UNL A   1      32.234  20.029  23.157  1.00  0.00     0.009 A 
BRANCH  11  16
ATOM     16  S   UNL A   1      33.781  16.517  24.449  1.00  0.00     0.175 S 
ATOM     17  C   UNL A   1      32.498  15.632  25.299  1.00  0.00     0.163 C 
ATOM     18  O   UNL A   1      34.956  16.491  25.294  1.00  0.00    -0.224 OA
ATOM     19  O   UNL A   1      33.834  16.035  23.078  1.00  0.00    -0.224 OA
ENDBRANCH  11  16
ENDBRANCH   9  10
BRANCH   8  20
ATOM     20  C   UNL A   1      34.230  23.235  23.922  1.00  0.00    -0.012 A 
ATOM     21  C   UNL A   1      34.950  22.950  22.748  1.00  0.00     0.009 A 
ATOM     22  C   UNL A   1      34.934  23.498  25.104  1.00  0.00     0.024 A 
ATOM     23  C   UNL A   1      36.345  22.956  22.742  1.00  0.00     0.002 A 
ATOM     24  C   UNL A   1      36.331  23.523  25.085  1.00  0.00     0.018 A 
ATOM     25  C   UNL A   1      37.038  23.256  23.912  1.00  0.00     0.016 A 
ATOM     26  Br  UNL A   1      37.279  23.981  26.657  1.00  0.00    -0.051 Br
ENDBRANCH   8  20
ENDBRANCH   5   8
ENDBRANCH   3   4
ENDBRANCH   2   3
ENDBRANCH   1   2
BRANCH   1  27
ATOM     27  C   UNL A   1      33.859  29.184  25.875  1.00  0.00     0.116 C 
BRANCH  27  28
ATOM     28  N   UNL A   1      33.673  30.462  26.543  1.00  0.00    -0.352 N 
ATOM     29  C   UNL A   1      34.421  31.023  27.550  1.00  0.00     0.251 C 
ATOM     30  H   UNL A   1      32.910  30.998  26.231  1.00  0.00     0.163 HD
ATOM     31  O   UNL A   1      34.044  32.065  28.078  1.00  0.00    -0.269 OA
BRANCH  29  32
ATOM     32  C   UNL A   1      35.648  30.344  28.018  1.00  0.00     0.039 A 
ATOM     33  C   UNL A   1      36.825  30.500  27.280  1.00  0.00     0.014 A 
ATOM     34  C   UNL A   1      35.646  29.574  29.184  1.00  0.00     0.014 A 
ATOM     35  C   UNL A   1      38.015  29.940  27.749  1.00  0.00     0.010 A 
ATOM     36  C   UNL A   1      36.843  29.068  29.681  1.00  0.00     0.010 A 
ATOM     37  C   UNL A   1      38.041  29.249  28.971  1.00  0.00    -0.014 A 
BRANCH  37  38
ATOM     38  C   UNL A   1      39.311  28.715  29.526  1.00  0.00     0.031 A 
ATOM     39  C   UNL A   1      39.943  29.369  30.725  1.00  0.00     0.074 A 
ATOM     40  C   UNL A   1      39.930  27.691  28.907  1.00  0.00     0.049 A 
ATOM     41  N   UNL A   1      41.087  29.110  31.302  1.00  0.00    -0.248 NA
ATOM     42  C   UNL A   1      39.198  30.481  31.332  1.00  0.00     0.031 C 
ATOM     43  C   UNL A   1      39.435  27.005  27.711  1.00  0.00     0.029 A 
ATOM     44  N   UNL A   1      41.113  27.055  29.187  1.00  0.00    -0.354 N 
ATOM     45  C   UNL A   1      41.210  30.037  32.332  1.00  0.00     0.074 A 
ATOM     46  C   UNL A   1      40.048  30.897  32.260  1.00  0.00     0.031 C 
ATOM     47  C   UNL A   1      40.300  26.035  27.372  1.00  0.00     0.029 A 
ATOM     48  C   UNL A   1      41.429  26.055  28.297  1.00  0.00     0.049 A 
ATOM     49  H   UNL A   1      41.683  27.294  29.954  1.00  0.00     0.167 HD
ATOM     50  C   UNL A   1      42.191  30.146  33.263  1.00  0.00     0.034 A 
ATOM     51  C   UNL A   1      42.510  25.254  28.227  1.00  0.00     0.034 A 
ATOM     52  C   UNL A   1      43.336  29.270  33.328  1.00  0.00     0.049 A 
ATOM     53  C   UNL A   1      43.591  25.398  29.266  1.00  0.00     0.074 A 
ATOM     54  C   UNL A   1      44.358  29.253  34.261  1.00  0.00     0.029 A 
ATOM     55  N   UNL A   1      43.614  28.257  32.418  1.00  0.00    -0.354 N 
ATOM     56  N   UNL A   1      43.668  26.247  30.266  1.00  0.00    -0.248 NA
ATOM     57  C   UNL A   1      44.724  24.468  29.177  1.00  0.00     0.031 C 
ATOM     58  C   UNL A   1      45.283  28.272  33.882  1.00  0.00     0.029 A 
ATOM     59  C   UNL A   1      44.805  27.628  32.753  1.00  0.00     0.049 A 
ATOM     60  H   UNL A   1      43.049  28.020  31.648  1.00  0.00     0.167 HD
ATOM     61  C   UNL A   1      44.844  25.932  30.940  1.00  0.00     0.074 A 
ATOM     62  C   UNL A   1      45.436  24.809  30.242  1.00  0.00     0.031 C 
ATOM     63  C   UNL A   1      45.386  26.516  32.039  1.00  0.00     0.034 A 
BRANCH  50  64
ATOM     64  C   UNL A   1      42.072  31.269  34.265  1.00  0.00     0.023 A 
ATOM     65  C   UNL A   1      41.094  31.256  35.275  1.00  0.00     0.031 A 
ATOM     66  C   UNL A   1      42.925  32.384  34.192  1.00  0.00     0.131 A 
ATOM     67  C   UNL A   1      40.938  32.369  36.115  1.00  0.00     0.055 A 
ATOM     68  C   UNL A   1      42.820  33.452  35.085  1.00  0.00     0.041 A 
ATOM     69  F   UNL A   1      43.866  32.463  33.237  1.00  0.00    -0.206 F 
ATOM     70  C   UNL A   1      41.811  33.456  36.044  1.00  0.00     0.022 A 
BRANCH  67  71
ATOM     71  S   UNL A   1      39.488  32.436  37.202  1.00  0.00     0.124 S 
ATOM     72  O   UNL A   1      38.807  31.189  36.862  1.00  0.00    -0.237 OA
ATOM     73  O   UNL A   1      40.091  32.494  38.529  1.00  0.00    -0.237 OA
ATOM     74  O   UNL A   1      38.797  33.651  36.777  1.00  0.00    -0.744 OA
ENDBRANCH  67  71
ENDBRANCH  50  64
BRANCH  51  75
ATOM     75  C   UNL A   1      42.635  24.249  27.133  1.00  0.00     0.023 A 
ATOM     76  C   UNL A   1      42.029  22.988  27.240  1.00  0.00     0.031 A 
ATOM     77  C   UNL A   1      43.396  24.522  25.983  1.00  0.00     0.131 A 
ATOM     78  C   UNL A   1      42.229  22.028  26.235  1.00  0.00     0.055 A 
ATOM     79  C   UNL A   1      43.552  23.581  24.963  1.00  0.00     0.041 A 
ATOM     80  F   UNL A   1      43.989  25.716  25.829  1.00  0.00    -0.206 F 
ATOM     81  C   UNL A   1      42.978  22.321  25.092  1.00  0.00     0.022 A 
BRANCH  78  82
ATOM     82  S   UNL A   1      41.559  20.362  26.481  1.00  0.00     0.124 S 
ATOM     83  O   UNL A   1      42.197  19.621  25.398  1.00  0.00    -0.237 OA
ATOM     84  O   UNL A   1      42.016  20.048  27.831  1.00  0.00    -0.237 OA
ATOM     85  O   UNL A   1      40.116  20.551  26.342  1.00  0.00    -0.744 OA
ENDBRANCH  78  82
ENDBRANCH  51  75
BRANCH  63  86
ATOM     86  C   UNL A   1      46.660  25.912  32.575  1.00  0.00     0.023 A 
ATOM     87  C   UNL A   1      46.645  24.894  33.544  1.00  0.00     0.031 A 
ATOM     88  C   UNL A   1      47.907  26.375  32.118  1.00  0.00     0.131 A 
ATOM     89  C   UNL A   1      47.854  24.407  34.064  1.00  0.00     0.055 A 
ATOM     90  C   UNL A   1      49.106  25.849  32.599  1.00  0.00     0.041 A 
ATOM     91  F   UNL A   1      47.978  27.347  31.195  1.00  0.00    -0.206 F 
ATOM     92  C   UNL A   1      49.084  24.868  33.587  1.00  0.00     0.022 A 
BRANCH  89  93
ATOM     93  S   UNL A   1      47.798  23.223  35.437  1.00  0.00     0.124 S 
ATOM     94  O   UNL A   1      46.983  23.932  36.417  1.00  0.00    -0.237 OA
ATOM     95  O   UNL A   1      47.181  22.056  34.818  1.00  0.00    -0.237 OA
ATOM     96  O   UNL A   1      49.204  23.057  35.804  1.00  0.00    -0.744 OA
ENDBRANCH  89  93
ENDBRANCH  63  86
ENDBRANCH  37  38
ENDBRANCH  29  32
ENDBRANCH  27  28
ENDBRANCH   1  27
TORSDOF 17
ENDMDL
MODEL 3
REMARK VINA RESULT:     -12.2      5.375      8.002
REMARK SMILES CS(=O)(=O)c1ccc(/C=C(/C(=O)NCCCCNC(=O)c2ccc(-c3c4nc(c(-c5cc(S(=O)(=O)[O-])ccc5F)c5ccc([nH]5)c(-c5cc(S(=O)(=O)[O-])ccc5F)c5nc(c(-c6cc(S(=O)(=O)[O-])ccc6F)c6ccc3[nH]6)C=C5)C=C4)cc2)c2cccc(Br)c2)cc1
REMARK SMILES IDX 16 1 15 2 14 3 13 4 11 5 12 6 10 8 9 9 8 10 5 11 6 12 92 13
REMARK SMILES IDX 7 14 91 15 2 16 1 17 3 18 4 19 84 20 85 21 90 22 86 23 88 24
REMARK SMILES IDX 87 25 89 26 17 27 18 28 19 29 20 31 21 32 22 33 83 34 23 35
REMARK SMILES IDX 82 36 24 37 25 38 26 39 76 40 27 41 81 42 75 43 77 44 28 45
REMARK SMILES IDX 80 46 74 47 73 48 29 50 61 51 41 52 60 53 42 54 45 55 59 56
REMARK SMILES IDX 78 57 43 58 44 59 58 61 79 62 46 63 30 64 31 65 39 66 32 67
REMARK SMILES IDX 38 68 40 69 37 70 33 71 34 72 35 73 36 74 62 75 63 76 71 77
REMARK SMILES IDX 64 78 70 79 72 80 69 81 65 82 66 83 67 84 68 85 47 86 48 87
REMARK SMILES IDX 56 88 49 89 55 90 57 91 54 92 50 93 51 94 52 95 53 96
REMARK H PARENT 13 7 18 30 77 49 45 60
REMARK Flexibility Score: inf
ROOT
ATOM      1  C   UNL A   1      32.199  28.199  25.981  1.00  0.00     0.023 C 
ENDROOT
BRANCH   1   2
ATOM      2  C   UNL A   1      32.920  26.918  26.420  1.00  0.00     0.023 C 
BRANCH   2   3
ATOM      3  C   UNL A   1      32.202  25.622  26.035  1.00  0.00     0.116 C 
BRANCH   3   4
ATOM      4  N   UNL A   1      31.898  25.612  24.617  1.00  0.00    -0.352 N 
ATOM      5  C   UNL A   1      32.113  24.714  23.619  1.00  0.00     0.251 C 
ATOM      6  O   UNL A   1      31.735  25.047  22.493  1.00  0.00    -0.269 OA
ATOM      7  H   UNL A   1      31.440  26.427  24.314  1.00  0.00     0.163 HD
BRANCH   5   8
ATOM      8  C   UNL A   1      32.702  23.338  23.842  1.00  0.00     0.047 C 
ATOM      9  C   UNL A   1      31.935  22.265  24.140  1.00  0.00     0.022 C 
BRANCH   9  10
ATOM     10  C   UNL A   1      32.340  20.852  24.296  1.00  0.00    -0.025 A 
ATOM     11  C   UNL A   1      33.202  18.187  24.405  1.00  0.00     0.067 A 
ATOM     12  C   UNL A   1      33.254  18.981  25.552  1.00  0.00     0.021 A 
ATOM     13  C   UNL A   1      32.670  18.690  23.219  1.00  0.00     0.021 A 
ATOM     14  C   UNL A   1      32.807  20.305  25.497  1.00  0.00     0.009 A 
ATOM     15  C   UNL A   1      32.242  20.019  23.168  1.00  0.00     0.009 A 
BRANCH  11  16
ATOM     16  S   UNL A   1      33.815  16.522  24.468  1.00  0.00     0.175 S 
ATOM     17  C   UNL A   1      32.535  15.619  25.302  1.00  0.00     0.163 C 
ATOM     18  O   UNL A   1      34.982  16.508  25.324  1.00  0.00    -0.224 OA
ATOM     19  O   UNL A   1      33.888  16.044  23.096  1.00  0.00    -0.224 OA
ENDBRANCH  11  16
ENDBRANCH   9  10
BRANCH   8  20
ATOM     20  C   UNL A   1      34.183  23.238  23.904  1.00  0.00    -0.012 A 
ATOM     21  C   UNL A   1      34.888  22.936  22.725  1.00  0.00     0.009 A 
ATOM     22  C   UNL A   1      34.902  23.532  25.069  1.00  0.00     0.024 A 
ATOM     23  C   UNL A   1      36.283  22.953  22.699  1.00  0.00     0.002 A 
ATOM     24  C   UNL A   1      36.298  23.569  25.029  1.00  0.00     0.018 A 
ATOM     25  C   UNL A   1      36.991  23.284  23.851  1.00  0.00     0.016 A 
ATOM     26  Br  UNL A   1      37.265  24.068  26.577  1.00  0.00    -0.051 Br
ENDBRANCH   8  20
ENDBRANCH   5   8
ENDBRANCH   3   4
ENDBRANCH   2   3
ENDBRANCH   1   2
BRANCH   1  27
ATOM     27  C   UNL A   1      33.110  29.353  25.569  1.00  0.00     0.116 C 
BRANCH  27  28
ATOM     28  N   UNL A   1      32.641  30.643  26.046  1.00  0.00    -0.352 N 
ATOM     29  C   UNL A   1      33.195  31.462  26.999  1.00  0.00     0.251 C 
ATOM     30  H   UNL A   1      31.815  30.977  25.627  1.00  0.00     0.163 HD
ATOM     31  O   UNL A   1      32.593  32.469  27.361  1.00  0.00    -0.269 OA
BRANCH  29  32
ATOM     32  C   UNL A   1      34.491  31.100  27.613  1.00  0.00     0.039 A 
ATOM     33  C   UNL A   1      35.464  32.094  27.763  1.00  0.00     0.014 A 
ATOM     34  C   UNL A   1      34.742  29.798  28.054  1.00  0.00     0.014 A 
ATOM     35  C   UNL A   1      36.661  31.796  28.417  1.00  0.00     0.010 A 
ATOM     36  C   UNL A   1      35.909  29.519  28.758  1.00  0.00     0.010 A 
ATOM     37  C   UNL A   1      36.879  30.516  28.950  1.00  0.00    -0.014 A 
BRANCH  37  38
ATOM     38  C   UNL A   1      38.111  30.202  29.719  1.00  0.00     0.031 A 
ATOM     39  C   UNL A   1      39.130  29.251  29.154  1.00  0.00     0.074 A 
ATOM     40  C   UNL A   1      38.274  30.716  30.954  1.00  0.00     0.049 A 
ATOM     41  N   UNL A   1      40.220  28.782  29.703  1.00  0.00    -0.248 NA
ATOM     42  C   UNL A   1      38.867  28.736  27.802  1.00  0.00     0.031 C 
ATOM     43  C   UNL A   1      37.332  31.616  31.625  1.00  0.00     0.029 A 
ATOM     44  N   UNL A   1      39.281  30.549  31.870  1.00  0.00    -0.354 N 
ATOM     45  C   UNL A   1      40.767  27.906  28.772  1.00  0.00     0.074 A 
ATOM     46  C   UNL A   1      39.855  27.868  27.649  1.00  0.00     0.031 C 
ATOM     47  C   UNL A   1      37.815  31.933  32.837  1.00  0.00     0.029 A 
ATOM     48  C   UNL A   1      39.076  31.229  33.048  1.00  0.00     0.049 A 
ATOM     49  H   UNL A   1      40.076  29.993  31.700  1.00  0.00     0.167 HD
ATOM     50  C   UNL A   1      41.932  27.214  28.841  1.00  0.00     0.034 A 
ATOM     51  C   UNL A   1      39.815  31.272  34.175  1.00  0.00     0.034 A 
ATOM     52  C   UNL A   1      42.836  27.275  29.964  1.00  0.00     0.049 A 
ATOM     53  C   UNL A   1      41.101  30.489  34.232  1.00  0.00     0.074 A 
ATOM     54  C   UNL A   1      44.068  26.662  30.115  1.00  0.00     0.029 A 
ATOM     55  N   UNL A   1      42.604  27.988  31.134  1.00  0.00    -0.354 N 
ATOM     56  N   UNL A   1      41.631  29.703  33.322  1.00  0.00    -0.248 NA
ATOM     57  C   UNL A   1      41.894  30.608  35.462  1.00  0.00     0.031 C 
ATOM     58  C   UNL A   1      44.551  26.955  31.397  1.00  0.00     0.029 A 
ATOM     59  C   UNL A   1      43.655  27.808  32.021  1.00  0.00     0.049 A 
ATOM     60  H   UNL A   1      41.807  28.540  31.309  1.00  0.00     0.167 HD
ATOM     61  C   UNL A   1      42.834  29.258  33.861  1.00  0.00     0.074 A 
ATOM     62  C   UNL A   1      42.957  29.873  35.167  1.00  0.00     0.031 C 
ATOM     63  C   UNL A   1      43.757  28.420  33.324  1.00  0.00     0.034 A 
BRANCH  50  64
ATOM     64  C   UNL A   1      42.273  26.315  27.677  1.00  0.00     0.023 A 
ATOM     65  C   UNL A   1      41.829  24.982  27.619  1.00  0.00     0.031 A 
ATOM     66  C   UNL A   1      43.081  26.784  26.625  1.00  0.00     0.131 A 
ATOM     67  C   UNL A   1      42.260  24.143  26.580  1.00  0.00     0.055 A 
ATOM     68  C   UNL A   1      43.437  25.968  25.550  1.00  0.00     0.041 A 
ATOM     69  F   UNL A   1      43.552  28.041  26.634  1.00  0.00    -0.206 F 
ATOM     70  C   UNL A   1      43.040  24.634  25.532  1.00  0.00     0.022 A 
BRANCH  67  71
ATOM     71  S   UNL A   1      41.906  22.368  26.698  1.00  0.00     0.124 S 
ATOM     72  O   UNL A   1      40.458  22.344  26.509  1.00  0.00    -0.237 OA
ATOM     73  O   UNL A   1      42.703  21.815  25.609  1.00  0.00    -0.237 OA
ATOM     74  O   UNL A   1      42.358  22.018  28.043  1.00  0.00    -0.744 OA
ENDBRANCH  67  71
ENDBRANCH  50  64
BRANCH  51  75
ATOM     75  C   UNL A   1      39.360  32.074  35.346  1.00  0.00     0.023 A 
ATOM     76  C   UNL A   1      39.774  33.404  35.513  1.00  0.00     0.031 A 
ATOM     77  C   UNL A   1      38.535  31.508  36.334  1.00  0.00     0.131 A 
ATOM     78  C   UNL A   1      39.401  34.113  36.666  1.00  0.00     0.055 A 
ATOM     79  C   UNL A   1      38.126  32.233  37.455  1.00  0.00     0.041 A 
ATOM     80  F   UNL A   1      38.104  30.242  36.216  1.00  0.00    -0.206 F 
ATOM     81  C   UNL A   1      38.570  33.540  37.632  1.00  0.00     0.022 A 
BRANCH  78  82
ATOM     82  S   UNL A   1      40.081  35.773  36.922  1.00  0.00     0.124 S 
ATOM     83  O   UNL A   1      39.391  36.194  38.136  1.00  0.00    -0.237 OA
ATOM     84  O   UNL A   1      41.508  35.498  37.056  1.00  0.00    -0.237 OA
ATOM     85  O   UNL A   1      39.699  36.489  35.706  1.00  0.00    -0.744 OA
ENDBRANCH  78  82
ENDBRANCH  51  75
BRANCH  63  86
ATOM     86  C   UNL A   1      45.001  28.163  34.138  1.00  0.00     0.023 A 
ATOM     87  C   UNL A   1      45.072  27.111  35.068  1.00  0.00     0.031 A 
ATOM     88  C   UNL A   1      46.125  28.995  33.990  1.00  0.00     0.131 A 
ATOM     89  C   UNL A   1      46.225  26.949  35.851  1.00  0.00     0.055 A 
ATOM     90  C   UNL A   1      47.289  28.796  34.733  1.00  0.00     0.041 A 
ATOM     91  F   UNL A   1      46.109  30.016  33.119  1.00  0.00    -0.206 F 
ATOM     92  C   UNL A   1      47.339  27.775  35.680  1.00  0.00     0.022 A 
BRANCH  89  93
ATOM     93  S   UNL A   1      46.218  25.695  37.162  1.00  0.00     0.124 S 
ATOM     94  O   UNL A   1      46.677  24.508  36.449  1.00  0.00    -0.237 OA
ATOM     95  O   UNL A   1      47.150  26.255  38.135  1.00  0.00    -0.237 OA
ATOM     96  O   UNL A   1      44.822  25.659  37.595  1.00  0.00    -0.744 OA
ENDBRANCH  89  93
ENDBRANCH  63  86
ENDBRANCH  37  38
ENDBRANCH  29  32
ENDBRANCH  27  28
ENDBRANCH   1  27
TORSDOF 17
ENDMDL
