MODEL 1
REMARK VINA RESULT:     -12.6      0.000      0.000
REMARK SMILES O=C(Cn1cnc(-c2ccccc2)c1-c1ccccc1)NCCCCNC(=O)c1ccc(-c2c3nc(c(-c4cc(S(=O)(=O)[O-])ccc4F)c4ccc([nH]4)c(-c4cc(S(=O)(=O)[O-])ccc4F)c4nc(c(-c5cc(S(=O)(=O)[O-])ccc5F)c5ccc2[nH]5)C=C4)C=C3)cc1
REMARK SMILES IDX 24 1 23 2 22 3 21 4 1 5 2 6 3 8 4 9 5 10 14 11 6 12 7 13
REMARK SMILES IDX 15 14 16 15 20 16 17 17 19 18 18 19 8 20 9 21 13 22 10 23
REMARK SMILES IDX 12 24 11 25 25 26 26 27 27 28 28 30 29 31 30 32 91 33 31 34
REMARK SMILES IDX 90 35 32 36 33 37 34 38 84 39 35 40 89 41 83 42 85 43 36 44
REMARK SMILES IDX 88 45 82 46 81 47 37 49 69 50 49 51 68 52 50 53 53 54 67 55
REMARK SMILES IDX 86 56 51 57 52 58 66 60 87 61 54 62 38 63 39 64 47 65 40 66
REMARK SMILES IDX 46 67 48 68 45 69 41 70 42 71 43 72 44 73 70 74 71 75 79 76
REMARK SMILES IDX 72 77 78 78 80 79 77 80 73 81 74 82 75 83 76 84 55 85 56 86
REMARK SMILES IDX 64 87 57 88 63 89 65 90 62 91 58 92 59 93 60 94 61 95
REMARK H PARENT 21 7 26 29 85 48 53 59
REMARK Flexibility Score: inf
ROOT
ATOM      1  C   UNL A   1      37.511  20.077  24.689  1.00  0.00     0.023 C 
ENDROOT
BRANCH   1   2
ATOM      2  C   UNL A   1      36.159  20.617  25.184  1.00  0.00     0.023 C 
BRANCH   2   3
ATOM      3  C   UNL A   1      35.571  21.805  24.412  1.00  0.00     0.116 C 
BRANCH   3   4
ATOM      4  N   UNL A   1      34.288  22.245  24.936  1.00  0.00    -0.355 N 
ATOM      5  O   UNL A   1      35.062  24.214  25.829  1.00  0.00    -0.273 OA
ATOM      6  C   UNL A   1      34.124  23.459  25.579  1.00  0.00     0.239 C 
ATOM      7  H   UNL A   1      33.505  21.657  24.829  1.00  0.00     0.163 HD
BRANCH   6   8
ATOM      8  C   UNL A   1      32.714  23.773  26.040  1.00  0.00     0.223 C 
BRANCH   8   9
ATOM      9  N   UNL A   1      31.834  24.394  25.057  1.00  0.00    -0.321 N 
ATOM     10  C   UNL A   1      31.058  23.755  24.131  1.00  0.00     0.201 A 
ATOM     11  C   UNL A   1      31.557  25.752  24.970  1.00  0.00     0.076 A 
ATOM     12  N   UNL A   1      30.250  24.585  23.519  1.00  0.00    -0.236 NA
ATOM     13  C   UNL A   1      30.576  25.828  23.987  1.00  0.00     0.096 A 
BRANCH  11  14
ATOM     14  C   UNL A   1      32.168  26.818  25.762  1.00  0.00     0.000 A 
ATOM     15  C   UNL A   1      31.436  27.440  26.782  1.00  0.00     0.010 A 
ATOM     16  C   UNL A   1      33.437  27.315  25.439  1.00  0.00     0.010 A 
ATOM     17  C   UNL A   1      31.959  28.540  27.465  1.00  0.00     0.001 A 
ATOM     18  C   UNL A   1      33.964  28.409  26.130  1.00  0.00     0.001 A 
ATOM     19  C   UNL A   1      33.224  29.024  27.138  1.00  0.00     0.000 A 
ENDBRANCH  11  14
BRANCH  13  20
ATOM     20  C   UNL A   1      29.968  27.043  23.479  1.00  0.00     0.002 A 
ATOM     21  C   UNL A   1      28.589  27.245  23.603  1.00  0.00     0.010 A 
ATOM     22  C   UNL A   1      30.752  28.016  22.846  1.00  0.00     0.010 A 
ATOM     23  C   UNL A   1      28.007  28.420  23.123  1.00  0.00     0.001 A 
ATOM     24  C   UNL A   1      30.167  29.186  22.357  1.00  0.00     0.001 A 
ATOM     25  C   UNL A   1      28.796  29.389  22.501  1.00  0.00     0.000 A 
ENDBRANCH  13  20
ENDBRANCH   8   9
ENDBRANCH   6   8
ENDBRANCH   3   4
ENDBRANCH   2   3
ENDBRANCH   1   2
BRANCH   1  26
ATOM     26  C   UNL A   1      38.702  20.457  25.555  1.00  0.00     0.116 C 
BRANCH  26  27
ATOM     27  N   UNL A   1      39.648  19.362  25.781  1.00  0.00    -0.352 N 
ATOM     28  C   UNL A   1      41.016  19.461  26.036  1.00  0.00     0.251 C 
ATOM     29  H   UNL A   1      39.276  18.451  25.751  1.00  0.00     0.163 HD
ATOM     30  O   UNL A   1      41.763  18.523  25.825  1.00  0.00    -0.269 OA
BRANCH  28  31
ATOM     31  C   UNL A   1      41.523  20.740  26.576  1.00  0.00     0.039 A 
ATOM     32  C   UNL A   1      42.215  21.681  25.807  1.00  0.00     0.014 A 
ATOM     33  C   UNL A   1      41.220  21.002  27.903  1.00  0.00     0.014 A 
ATOM     34  C   UNL A   1      42.513  22.922  26.379  1.00  0.00     0.010 A 
ATOM     35  C   UNL A   1      41.279  22.283  28.365  1.00  0.00     0.010 A 
ATOM     36  C   UNL A   1      42.022  23.218  27.660  1.00  0.00    -0.014 A 
BRANCH  36  37
ATOM     37  C   UNL A   1      42.206  24.509  28.311  1.00  0.00     0.031 A 
ATOM     38  C   UNL A   1      41.128  25.497  28.078  1.00  0.00     0.074 A 
ATOM     39  C   UNL A   1      43.154  24.700  29.259  1.00  0.00     0.049 A 
ATOM     40  N   UNL A   1      41.208  26.573  27.370  1.00  0.00    -0.248 NA
ATOM     41  C   UNL A   1      39.768  25.206  28.553  1.00  0.00     0.031 C 
ATOM     42  C   UNL A   1      44.119  23.732  29.798  1.00  0.00     0.029 A 
ATOM     43  N   UNL A   1      43.362  25.785  30.050  1.00  0.00    -0.354 N 
ATOM     44  C   UNL A   1      39.991  27.226  27.515  1.00  0.00     0.074 A 
ATOM     45  C   UNL A   1      39.086  26.247  28.061  1.00  0.00     0.031 C 
ATOM     46  C   UNL A   1      44.609  24.182  30.973  1.00  0.00     0.029 A 
ATOM     47  C   UNL A   1      44.139  25.539  31.180  1.00  0.00     0.049 A 
ATOM     48  H   UNL A   1      42.991  26.673  29.842  1.00  0.00     0.167 HD
ATOM     49  C   UNL A   1      39.904  28.580  27.389  1.00  0.00     0.034 A 
ATOM     50  C   UNL A   1      44.371  26.381  32.223  1.00  0.00     0.034 A 
ATOM     51  C   UNL A   1      41.140  29.128  26.869  1.00  0.00     0.049 A 
ATOM     52  C   UNL A   1      44.148  27.754  31.699  1.00  0.00     0.074 A 
ATOM     53  C   UNL A   1      41.875  28.929  25.716  1.00  0.00     0.029 A 
ATOM     54  N   UNL A   1      42.013  29.704  27.768  1.00  0.00    -0.354 N 
ATOM     55  N   UNL A   1      44.896  28.280  30.766  1.00  0.00    -0.248 NA
ATOM     56  C   UNL A   1      42.810  28.324  31.802  1.00  0.00     0.031 C 
ATOM     57  C   UNL A   1      43.232  28.895  26.155  1.00  0.00     0.029 A 
ATOM     58  C   UNL A   1      43.259  29.177  27.524  1.00  0.00     0.049 A 
ATOM     59  H   UNL A   1      41.786  30.370  28.457  1.00  0.00     0.167 HD
ATOM     60  C   UNL A   1      44.004  28.876  29.885  1.00  0.00     0.074 A 
ATOM     61  C   UNL A   1      42.749  28.976  30.634  1.00  0.00     0.031 C 
ATOM     62  C   UNL A   1      44.269  28.956  28.544  1.00  0.00     0.034 A 
BRANCH  49  63
ATOM     63  C   UNL A   1      38.873  29.470  28.039  1.00  0.00     0.023 A 
ATOM     64  C   UNL A   1      38.979  29.664  29.431  1.00  0.00     0.031 A 
ATOM     65  C   UNL A   1      37.666  29.893  27.445  1.00  0.00     0.131 A 
ATOM     66  C   UNL A   1      37.894  30.154  30.176  1.00  0.00     0.055 A 
ATOM     67  C   UNL A   1      36.614  30.446  28.182  1.00  0.00     0.041 A 
ATOM     68  F   UNL A   1      37.394  29.703  26.149  1.00  0.00    -0.206 F 
ATOM     69  C   UNL A   1      36.711  30.549  29.560  1.00  0.00     0.022 A 
BRANCH  66  70
ATOM     70  S   UNL A   1      37.995  30.088  31.984  1.00  0.00     0.124 S 
ATOM     71  O   UNL A   1      39.415  29.824  32.193  1.00  0.00    -0.237 OA
ATOM     72  O   UNL A   1      37.525  31.416  32.360  1.00  0.00    -0.237 OA
ATOM     73  O   UNL A   1      37.099  28.987  32.332  1.00  0.00    -0.744 OA
ENDBRANCH  66  70
ENDBRANCH  49  63
BRANCH  50  74
ATOM     74  C   UNL A   1      44.457  26.016  33.667  1.00  0.00     0.023 A 
ATOM     75  C   UNL A   1      43.430  26.269  34.604  1.00  0.00     0.031 A 
ATOM     76  C   UNL A   1      45.512  25.180  34.102  1.00  0.00     0.131 A 
ATOM     77  C   UNL A   1      43.491  25.698  35.902  1.00  0.00     0.055 A 
ATOM     78  C   UNL A   1      45.566  24.621  35.380  1.00  0.00     0.041 A 
ATOM     79  F   UNL A   1      46.494  24.817  33.263  1.00  0.00    -0.206 F 
ATOM     80  C   UNL A   1      44.549  24.870  36.285  1.00  0.00     0.022 A 
BRANCH  77  81
ATOM     81  S   UNL A   1      42.137  25.958  37.100  1.00  0.00     0.124 S 
ATOM     82  O   UNL A   1      41.475  24.659  37.114  1.00  0.00    -0.237 OA
ATOM     83  O   UNL A   1      42.855  26.331  38.314  1.00  0.00    -0.237 OA
ATOM     84  O   UNL A   1      41.348  27.039  36.505  1.00  0.00    -0.744 OA
ENDBRANCH  77  81
ENDBRANCH  50  74
BRANCH  62  85
ATOM     85  C   UNL A   1      45.657  28.571  28.058  1.00  0.00     0.023 A 
ATOM     86  C   UNL A   1      46.042  27.265  27.670  1.00  0.00     0.031 A 
ATOM     87  C   UNL A   1      46.586  29.605  27.847  1.00  0.00     0.131 A 
ATOM     88  C   UNL A   1      47.316  27.034  27.113  1.00  0.00     0.055 A 
ATOM     89  C   UNL A   1      47.836  29.378  27.272  1.00  0.00     0.041 A 
ATOM     90  F   UNL A   1      46.273  30.874  28.162  1.00  0.00    -0.206 F 
ATOM     91  C   UNL A   1      48.209  28.089  26.908  1.00  0.00     0.022 A 
BRANCH  88  92
ATOM     92  S   UNL A   1      47.838  25.348  26.652  1.00  0.00     0.124 S 
ATOM     93  O   UNL A   1      49.179  25.240  27.215  1.00  0.00    -0.237 OA
ATOM     94  O   UNL A   1      46.813  24.514  27.274  1.00  0.00    -0.237 OA
ATOM     95  O   UNL A   1      47.795  25.368  25.188  1.00  0.00    -0.744 OA
ENDBRANCH  88  92
ENDBRANCH  62  85
ENDBRANCH  36  37
ENDBRANCH  28  31
ENDBRANCH  26  27
ENDBRANCH   1  26
TORSDOF 17
ENDMDL
MODEL 2
REMARK VINA RESULT:     -12.1      3.146      8.101
REMARK SMILES O=C(Cn1cnc(-c2ccccc2)c1-c1ccccc1)NCCCCNC(=O)c1ccc(-c2c3nc(c(-c4cc(S(=O)(=O)[O-])ccc4F)c4ccc([nH]4)c(-c4cc(S(=O)(=O)[O-])ccc4F)c4nc(c(-c5cc(S(=O)(=O)[O-])ccc5F)c5ccc2[nH]5)C=C4)C=C3)cc1
REMARK SMILES IDX 24 1 23 2 22 3 21 4 1 5 2 6 3 8 4 9 5 10 14 11 6 12 7 13
REMARK SMILES IDX 15 14 16 15 20 16 17 17 19 18 18 19 8 20 9 21 13 22 10 23
REMARK SMILES IDX 12 24 11 25 25 26 26 27 27 28 28 30 29 31 30 32 91 33 31 34
REMARK SMILES IDX 90 35 32 36 33 37 34 38 84 39 35 40 89 41 83 42 85 43 36 44
REMARK SMILES IDX 88 45 82 46 81 47 37 49 69 50 49 51 68 52 50 53 53 54 67 55
REMARK SMILES IDX 86 56 51 57 52 58 66 60 87 61 54 62 38 63 39 64 47 65 40 66
REMARK SMILES IDX 46 67 48 68 45 69 41 70 42 71 43 72 44 73 70 74 71 75 79 76
REMARK SMILES IDX 72 77 78 78 80 79 77 80 73 81 74 82 75 83 76 84 55 85 56 86
REMARK SMILES IDX 64 87 57 88 63 89 65 90 62 91 58 92 59 93 60 94 61 95
REMARK H PARENT 21 7 26 29 85 48 53 59
REMARK Flexibility Score: inf
ROOT
ATOM      1  C   UNL A   1      33.054  29.725  26.192  1.00  0.00     0.023 C 
ENDROOT
BRANCH   1   2
ATOM      2  C   UNL A   1      31.735  28.965  26.405  1.00  0.00     0.023 C 
BRANCH   2   3
ATOM      3  C   UNL A   1      31.427  27.835  25.414  1.00  0.00     0.116 C 
BRANCH   3   4
ATOM      4  N   UNL A   1      32.302  26.684  25.574  1.00  0.00    -0.355 N 
ATOM      5  O   UNL A   1      30.775  25.385  26.695  1.00  0.00    -0.273 OA
ATOM      6  C   UNL A   1      31.883  25.511  26.177  1.00  0.00     0.239 C 
ATOM      7  H   UNL A   1      33.227  26.741  25.240  1.00  0.00     0.163 HD
BRANCH   6   8
ATOM      8  C   UNL A   1      32.914  24.401  26.238  1.00  0.00     0.223 C 
BRANCH   8   9
ATOM      9  N   UNL A   1      32.456  23.069  25.863  1.00  0.00    -0.321 N 
ATOM     10  C   UNL A   1      31.182  22.584  25.952  1.00  0.00     0.201 A 
ATOM     11  C   UNL A   1      33.232  22.096  25.246  1.00  0.00     0.076 A 
ATOM     12  N   UNL A   1      31.064  21.417  25.369  1.00  0.00    -0.236 NA
ATOM     13  C   UNL A   1      32.328  21.076  24.970  1.00  0.00     0.096 A 
BRANCH  11  14
ATOM     14  C   UNL A   1      34.663  22.176  24.958  1.00  0.00     0.000 A 
ATOM     15  C   UNL A   1      35.104  22.742  23.754  1.00  0.00     0.010 A 
ATOM     16  C   UNL A   1      35.601  21.586  25.813  1.00  0.00     0.010 A 
ATOM     17  C   UNL A   1      36.456  22.716  23.408  1.00  0.00     0.001 A 
ATOM     18  C   UNL A   1      36.956  21.569  25.471  1.00  0.00     0.001 A 
ATOM     19  C   UNL A   1      37.383  22.129  24.268  1.00  0.00     0.000 A 
ENDBRANCH  11  14
BRANCH  13  20
ATOM     20  C   UNL A   1      32.641  19.797  24.362  1.00  0.00     0.002 A 
ATOM     21  C   UNL A   1      32.175  19.495  23.078  1.00  0.00     0.010 A 
ATOM     22  C   UNL A   1      33.398  18.848  25.061  1.00  0.00     0.010 A 
ATOM     23  C   UNL A   1      32.488  18.267  22.490  1.00  0.00     0.001 A 
ATOM     24  C   UNL A   1      33.699  17.617  24.476  1.00  0.00     0.001 A 
ATOM     25  C   UNL A   1      33.249  17.330  23.189  1.00  0.00     0.000 A 
ENDBRANCH  13  20
ENDBRANCH   8   9
ENDBRANCH   6   8
ENDBRANCH   3   4
ENDBRANCH   2   3
ENDBRANCH   1   2
BRANCH   1  26
ATOM     26  C   UNL A   1      33.689  30.264  27.464  1.00  0.00     0.116 C 
BRANCH  26  27
ATOM     27  N   UNL A   1      34.157  31.649  27.357  1.00  0.00    -0.352 N 
ATOM     28  C   UNL A   1      35.259  32.224  27.989  1.00  0.00     0.251 C 
ATOM     29  H   UNL A   1      33.635  32.241  26.769  1.00  0.00     0.163 HD
ATOM     30  O   UNL A   1      35.335  33.428  28.146  1.00  0.00    -0.269 OA
BRANCH  28  31
ATOM     31  C   UNL A   1      36.332  31.320  28.457  1.00  0.00     0.039 A 
ATOM     32  C   UNL A   1      36.351  29.946  28.196  1.00  0.00     0.014 A 
ATOM     33  C   UNL A   1      37.381  31.923  29.134  1.00  0.00     0.014 A 
ATOM     34  C   UNL A   1      37.489  29.215  28.553  1.00  0.00     0.010 A 
ATOM     35  C   UNL A   1      38.573  31.270  29.242  1.00  0.00     0.010 A 
ATOM     36  C   UNL A   1      38.605  29.896  29.062  1.00  0.00    -0.014 A 
BRANCH  36  37
ATOM     37  C   UNL A   1      39.865  29.239  29.387  1.00  0.00     0.031 A 
ATOM     38  C   UNL A   1      40.111  29.013  30.830  1.00  0.00     0.074 A 
ATOM     39  C   UNL A   1      40.629  28.653  28.435  1.00  0.00     0.049 A 
ATOM     40  N   UNL A   1      40.982  29.615  31.567  1.00  0.00    -0.248 NA
ATOM     41  C   UNL A   1      39.207  28.135  31.586  1.00  0.00     0.031 C 
ATOM     42  C   UNL A   1      40.376  28.552  26.991  1.00  0.00     0.029 A 
ATOM     43  N   UNL A   1      41.743  27.890  28.586  1.00  0.00    -0.354 N 
ATOM     44  C   UNL A   1      40.913  29.016  32.818  1.00  0.00     0.074 A 
ATOM     45  C   UNL A   1      39.675  28.281  32.831  1.00  0.00     0.031 C 
ATOM     46  C   UNL A   1      41.144  27.577  26.460  1.00  0.00     0.029 A 
ATOM     47  C   UNL A   1      42.069  27.112  27.477  1.00  0.00     0.049 A 
ATOM     48  H   UNL A   1      42.277  27.887  29.413  1.00  0.00     0.167 HD
ATOM     49  C   UNL A   1      41.998  28.992  33.642  1.00  0.00     0.034 A 
ATOM     50  C   UNL A   1      43.019  26.142  27.399  1.00  0.00     0.034 A 
ATOM     51  C   UNL A   1      43.049  29.850  33.134  1.00  0.00     0.049 A 
ATOM     52  C   UNL A   1      44.003  26.444  28.470  1.00  0.00     0.074 A 
ATOM     53  C   UNL A   1      43.135  31.195  32.831  1.00  0.00     0.029 A 
ATOM     54  N   UNL A   1      44.093  29.251  32.460  1.00  0.00    -0.354 N 
ATOM     55  N   UNL A   1      44.734  27.527  28.468  1.00  0.00    -0.248 NA
ATOM     56  C   UNL A   1      43.797  25.850  29.785  1.00  0.00     0.031 C 
ATOM     57  C   UNL A   1      43.866  31.242  31.606  1.00  0.00     0.029 A 
ATOM     58  C   UNL A   1      44.272  29.943  31.286  1.00  0.00     0.049 A 
ATOM     59  H   UNL A   1      44.615  28.473  32.764  1.00  0.00     0.167 HD
ATOM     60  C   UNL A   1      44.673  28.004  29.770  1.00  0.00     0.074 A 
ATOM     61  C   UNL A   1      44.185  26.871  30.560  1.00  0.00     0.031 C 
ATOM     62  C   UNL A   1      44.728  29.344  30.043  1.00  0.00     0.034 A 
BRANCH  49  63
ATOM     63  C   UNL A   1      42.284  27.961  34.707  1.00  0.00     0.023 A 
ATOM     64  C   UNL A   1      43.040  26.836  34.324  1.00  0.00     0.031 A 
ATOM     65  C   UNL A   1      41.639  27.877  35.959  1.00  0.00     0.131 A 
ATOM     66  C   UNL A   1      43.050  25.672  35.110  1.00  0.00     0.055 A 
ATOM     67  C   UNL A   1      41.711  26.741  36.771  1.00  0.00     0.041 A 
ATOM     68  F   UNL A   1      40.828  28.836  36.419  1.00  0.00    -0.206 F 
ATOM     69  C   UNL A   1      42.391  25.617  36.334  1.00  0.00     0.022 A 
BRANCH  66  70
ATOM     70  S   UNL A   1      43.786  24.171  34.410  1.00  0.00     0.124 S 
ATOM     71  O   UNL A   1      45.054  24.098  35.129  1.00  0.00    -0.237 OA
ATOM     72  O   UNL A   1      42.792  23.161  34.754  1.00  0.00    -0.237 OA
ATOM     73  O   UNL A   1      43.895  24.480  32.987  1.00  0.00    -0.744 OA
ENDBRANCH  66  70
ENDBRANCH  49  63
BRANCH  50  74
ATOM     74  C   UNL A   1      42.917  24.846  26.666  1.00  0.00     0.023 A 
ATOM     75  C   UNL A   1      43.832  24.431  25.672  1.00  0.00     0.031 A 
ATOM     76  C   UNL A   1      41.998  23.872  27.119  1.00  0.00     0.131 A 
ATOM     77  C   UNL A   1      43.798  23.100  25.181  1.00  0.00     0.055 A 
ATOM     78  C   UNL A   1      41.969  22.563  26.632  1.00  0.00     0.041 A 
ATOM     79  F   UNL A   1      41.140  24.144  28.114  1.00  0.00    -0.206 F 
ATOM     80  C   UNL A   1      42.876  22.167  25.665  1.00  0.00     0.022 A 
BRANCH  77  81
ATOM     81  S   UNL A   1      45.020  22.528  23.949  1.00  0.00     0.124 S 
ATOM     82  O   UNL A   1      45.925  23.667  23.853  1.00  0.00    -0.237 OA
ATOM     83  O   UNL A   1      45.558  21.324  24.573  1.00  0.00    -0.237 OA
ATOM     84  O   UNL A   1      44.216  22.283  22.750  1.00  0.00    -0.744 OA
ENDBRANCH  77  81
ENDBRANCH  50  74
BRANCH  62  85
ATOM     85  C   UNL A   1      45.074  30.299  28.912  1.00  0.00     0.023 A 
ATOM     86  C   UNL A   1      46.389  30.679  28.553  1.00  0.00     0.031 A 
ATOM     87  C   UNL A   1      44.029  30.728  28.076  1.00  0.00     0.131 A 
ATOM     88  C   UNL A   1      46.614  31.470  27.408  1.00  0.00     0.055 A 
ATOM     89  C   UNL A   1      44.256  31.489  26.929  1.00  0.00     0.041 A 
ATOM     90  F   UNL A   1      42.759  30.375  28.339  1.00  0.00    -0.206 F 
ATOM     91  C   UNL A   1      45.551  31.870  26.594  1.00  0.00     0.022 A 
BRANCH  88  92
ATOM     92  S   UNL A   1      48.301  32.003  26.962  1.00  0.00     0.124 S 
ATOM     93  O   UNL A   1      48.079  33.026  25.947  1.00  0.00    -0.237 OA
ATOM     94  O   UNL A   1      48.836  32.473  28.238  1.00  0.00    -0.237 OA
ATOM     95  O   UNL A   1      48.923  30.776  26.460  1.00  0.00    -0.744 OA
ENDBRANCH  88  92
ENDBRANCH  62  85
ENDBRANCH  36  37
ENDBRANCH  28  31
ENDBRANCH  26  27
ENDBRANCH   1  26
TORSDOF 17
ENDMDL
MODEL 3
REMARK VINA RESULT:     -12.1      4.347      9.747
REMARK SMILES O=C(Cn1cnc(-c2ccccc2)c1-c1ccccc1)NCCCCNC(=O)c1ccc(-c2c3nc(c(-c4cc(S(=O)(=O)[O-])ccc4F)c4ccc([nH]4)c(-c4cc(S(=O)(=O)[O-])ccc4F)c4nc(c(-c5cc(S(=O)(=O)[O-])ccc5F)c5ccc2[nH]5)C=C4)C=C3)cc1
REMARK SMILES IDX 24 1 23 2 22 3 21 4 1 5 2 6 3 8 4 9 5 10 14 11 6 12 7 13
REMARK SMILES IDX 15 14 16 15 20 16 17 17 19 18 18 19 8 20 9 21 13 22 10 23
REMARK SMILES IDX 12 24 11 25 25 26 26 27 27 28 28 30 29 31 30 32 91 33 31 34
REMARK SMILES IDX 90 35 32 36 33 37 34 38 84 39 35 40 89 41 83 42 85 43 36 44
REMARK SMILES IDX 88 45 82 46 81 47 37 49 69 50 49 51 68 52 50 53 53 54 67 55
REMARK SMILES IDX 86 56 51 57 52 58 66 60 87 61 54 62 38 63 39 64 47 65 40 66
REMARK SMILES IDX 46 67 48 68 45 69 41 70 42 71 43 72 44 73 70 74 71 75 79 76
REMARK SMILES IDX 72 77 78 78 80 79 77 80 73 81 74 82 75 83 76 84 55 85 56 86
REMARK SMILES IDX 64 87 57 88 63 89 65 90 62 91 58 92 59 93 60 94 61 95
REMARK H PARENT 21 7 26 29 85 48 53 59
REMARK Flexibility Score: inf
ROOT
ATOM      1  C   UNL A   1      31.391  31.659  26.491  1.00  0.00     0.023 C 
ENDROOT
BRANCH   1   2
ATOM      2  C   UNL A   1      31.708  30.335  25.777  1.00  0.00     0.023 C 
BRANCH   2   3
ATOM      3  C   UNL A   1      31.905  29.104  26.671  1.00  0.00     0.116 C 
BRANCH   3   4
ATOM      4  N   UNL A   1      32.607  28.021  26.001  1.00  0.00    -0.355 N 
ATOM      5  O   UNL A   1      31.396  26.325  26.967  1.00  0.00    -0.273 OA
ATOM      6  C   UNL A   1      32.261  26.692  26.174  1.00  0.00     0.239 C 
ATOM      7  H   UNL A   1      33.356  28.240  25.401  1.00  0.00     0.163 HD
BRANCH   6   8
ATOM      8  C   UNL A   1      33.079  25.692  25.380  1.00  0.00     0.223 C 
BRANCH   8   9
ATOM      9  N   UNL A   1      32.495  24.368  25.207  1.00  0.00    -0.321 N 
ATOM     10  C   UNL A   1      31.166  24.051  25.210  1.00  0.00     0.201 A 
ATOM     11  C   UNL A   1      33.200  23.211  24.901  1.00  0.00     0.076 A 
ATOM     12  N   UNL A   1      30.962  22.807  24.851  1.00  0.00    -0.236 NA
ATOM     13  C   UNL A   1      32.206  22.259  24.704  1.00  0.00     0.096 A 
BRANCH  11  14
ATOM     14  C   UNL A   1      34.653  23.076  24.805  1.00  0.00     0.000 A 
ATOM     15  C   UNL A   1      35.265  22.991  23.548  1.00  0.00     0.010 A 
ATOM     16  C   UNL A   1      35.436  22.909  25.953  1.00  0.00     0.010 A 
ATOM     17  C   UNL A   1      36.634  22.740  23.438  1.00  0.00     0.001 A 
ATOM     18  C   UNL A   1      36.807  22.667  25.843  1.00  0.00     0.001 A 
ATOM     19  C   UNL A   1      37.405  22.578  24.587  1.00  0.00     0.000 A 
ENDBRANCH  11  14
BRANCH  13  20
ATOM     20  C   UNL A   1      32.415  20.856  24.403  1.00  0.00     0.002 A 
ATOM     21  C   UNL A   1      32.147  20.364  23.120  1.00  0.00     0.010 A 
ATOM     22  C   UNL A   1      32.869  19.978  25.395  1.00  0.00     0.010 A 
ATOM     23  C   UNL A   1      32.360  19.014  22.829  1.00  0.00     0.001 A 
ATOM     24  C   UNL A   1      33.070  18.627  25.105  1.00  0.00     0.001 A 
ATOM     25  C   UNL A   1      32.821  18.148  23.821  1.00  0.00     0.000 A 
ENDBRANCH  13  20
ENDBRANCH   8   9
ENDBRANCH   6   8
ENDBRANCH   3   4
ENDBRANCH   2   3
ENDBRANCH   1   2
BRANCH   1  26
ATOM     26  C   UNL A   1      32.570  32.289  27.215  1.00  0.00     0.116 C 
BRANCH  26  27
ATOM     27  N   UNL A   1      32.409  33.720  27.484  1.00  0.00    -0.352 N 
ATOM     28  C   UNL A   1      33.064  34.480  28.453  1.00  0.00     0.251 C 
ATOM     29  H   UNL A   1      31.766  34.201  26.915  1.00  0.00     0.163 HD
ATOM     30  O   UNL A   1      32.595  35.531  28.849  1.00  0.00    -0.269 OA
BRANCH  28  31
ATOM     31  C   UNL A   1      34.349  33.968  28.976  1.00  0.00     0.039 A 
ATOM     32  C   UNL A   1      34.461  33.232  30.159  1.00  0.00     0.014 A 
ATOM     33  C   UNL A   1      35.463  34.203  28.185  1.00  0.00     0.014 A 
ATOM     34  C   UNL A   1      35.699  32.666  30.479  1.00  0.00     0.010 A 
ATOM     35  C   UNL A   1      36.583  33.446  28.362  1.00  0.00     0.010 A 
ATOM     36  C   UNL A   1      36.754  32.767  29.558  1.00  0.00    -0.014 A 
BRANCH  36  37
ATOM     37  C   UNL A   1      38.055  32.143  29.758  1.00  0.00     0.031 A 
ATOM     38  C   UNL A   1      38.175  30.751  29.268  1.00  0.00     0.074 A 
ATOM     39  C   UNL A   1      39.141  32.863  30.126  1.00  0.00     0.049 A 
ATOM     40  N   UNL A   1      38.278  29.686  29.989  1.00  0.00    -0.248 NA
ATOM     41  C   UNL A   1      38.019  30.475  27.833  1.00  0.00     0.031 C 
ATOM     42  C   UNL A   1      39.241  34.308  30.378  1.00  0.00     0.029 A 
ATOM     43  N   UNL A   1      40.437  32.465  30.218  1.00  0.00    -0.354 N 
ATOM     44  C   UNL A   1      38.456  28.631  29.104  1.00  0.00     0.074 A 
ATOM     45  C   UNL A   1      38.073  29.138  27.812  1.00  0.00     0.031 C 
ATOM     46  C   UNL A   1      40.534  34.691  30.331  1.00  0.00     0.029 A 
ATOM     47  C   UNL A   1      41.364  33.505  30.232  1.00  0.00     0.049 A 
ATOM     48  H   UNL A   1      40.700  31.518  30.269  1.00  0.00     0.167 HD
ATOM     49  C   UNL A   1      39.127  27.507  29.482  1.00  0.00     0.034 A 
ATOM     50  C   UNL A   1      42.719  33.406  30.150  1.00  0.00     0.034 A 
ATOM     51  C   UNL A   1      39.365  27.505  30.911  1.00  0.00     0.049 A 
ATOM     52  C   UNL A   1      43.059  32.037  30.616  1.00  0.00     0.074 A 
ATOM     53  C   UNL A   1      38.550  27.561  32.025  1.00  0.00     0.029 A 
ATOM     54  N   UNL A   1      40.619  27.875  31.350  1.00  0.00    -0.354 N 
ATOM     55  N   UNL A   1      42.840  31.637  31.841  1.00  0.00    -0.248 NA
ATOM     56  C   UNL A   1      43.126  30.967  29.628  1.00  0.00     0.031 C 
ATOM     57  C   UNL A   1      39.219  28.453  32.916  1.00  0.00     0.029 A 
ATOM     58  C   UNL A   1      40.445  28.808  32.345  1.00  0.00     0.049 A 
ATOM     59  H   UNL A   1      41.479  27.533  31.015  1.00  0.00     0.167 HD
ATOM     60  C   UNL A   1      42.279  30.373  31.710  1.00  0.00     0.074 A 
ATOM     61  C   UNL A   1      42.591  29.966  30.338  1.00  0.00     0.031 C 
ATOM     62  C   UNL A   1      41.361  29.903  32.611  1.00  0.00     0.034 A 
BRANCH  49  63
ATOM     63  C   UNL A   1      39.881  26.571  28.568  1.00  0.00     0.023 A 
ATOM     64  C   UNL A   1      41.041  27.076  27.949  1.00  0.00     0.031 A 
ATOM     65  C   UNL A   1      39.389  25.351  28.060  1.00  0.00     0.131 A 
ATOM     66  C   UNL A   1      41.597  26.439  26.827  1.00  0.00     0.055 A 
ATOM     67  C   UNL A   1      39.988  24.683  26.987  1.00  0.00     0.041 A 
ATOM     68  F   UNL A   1      38.256  24.791  28.497  1.00  0.00    -0.206 F 
ATOM     69  C   UNL A   1      41.078  25.243  26.342  1.00  0.00     0.022 A 
BRANCH  66  70
ATOM     70  S   UNL A   1      42.893  27.305  25.903  1.00  0.00     0.124 S 
ATOM     71  O   UNL A   1      42.216  27.597  24.644  1.00  0.00    -0.237 OA
ATOM     72  O   UNL A   1      43.166  28.447  26.768  1.00  0.00    -0.237 OA
ATOM     73  O   UNL A   1      43.965  26.316  25.819  1.00  0.00    -0.744 OA
ENDBRANCH  66  70
ENDBRANCH  49  63
BRANCH  50  74
ATOM     74  C   UNL A   1      43.639  34.313  29.405  1.00  0.00     0.023 A 
ATOM     75  C   UNL A   1      44.227  33.991  28.162  1.00  0.00     0.031 A 
ATOM     76  C   UNL A   1      43.777  35.654  29.835  1.00  0.00     0.131 A 
ATOM     77  C   UNL A   1      44.910  34.985  27.413  1.00  0.00     0.055 A 
ATOM     78  C   UNL A   1      44.450  36.629  29.095  1.00  0.00     0.041 A 
ATOM     79  F   UNL A   1      43.190  36.080  30.964  1.00  0.00    -0.206 F 
ATOM     80  C   UNL A   1      45.013  36.301  27.874  1.00  0.00     0.022 A 
BRANCH  77  81
ATOM     81  S   UNL A   1      45.611  34.600  25.772  1.00  0.00     0.124 S 
ATOM     82  O   UNL A   1      46.283  33.328  26.007  1.00  0.00    -0.237 OA
ATOM     83  O   UNL A   1      44.425  34.558  24.923  1.00  0.00    -0.237 OA
ATOM     84  O   UNL A   1      46.509  35.726  25.505  1.00  0.00    -0.744 OA
ENDBRANCH  77  81
ENDBRANCH  50  74
BRANCH  62  85
ATOM     85  C   UNL A   1      41.121  30.702  33.882  1.00  0.00     0.023 A 
ATOM     86  C   UNL A   1      40.172  31.744  34.010  1.00  0.00     0.031 A 
ATOM     87  C   UNL A   1      41.786  30.289  35.049  1.00  0.00     0.131 A 
ATOM     88  C   UNL A   1      39.934  32.339  35.267  1.00  0.00     0.055 A 
ATOM     89  C   UNL A   1      41.530  30.862  36.295  1.00  0.00     0.041 A 
ATOM     90  F   UNL A   1      42.675  29.282  35.005  1.00  0.00    -0.206 F 
ATOM     91  C   UNL A   1      40.607  31.896  36.407  1.00  0.00     0.022 A 
BRANCH  88  92
ATOM     92  S   UNL A   1      38.747  33.714  35.434  1.00  0.00     0.124 S 
ATOM     93  O   UNL A   1      38.185  33.519  36.765  1.00  0.00    -0.237 OA
ATOM     94  O   UNL A   1      39.593  34.892  35.262  1.00  0.00    -0.237 OA
ATOM     95  O   UNL A   1      37.803  33.483  34.338  1.00  0.00    -0.744 OA
ENDBRANCH  88  92
ENDBRANCH  62  85
ENDBRANCH  36  37
ENDBRANCH  28  31
ENDBRANCH  26  27
ENDBRANCH   1  26
TORSDOF 17
ENDMDL
