MODEL 1
REMARK VINA RESULT:     -10.0      0.000      0.000
REMARK SMILES CC(C)[C@H](NC(=O)CCNC(=O)c1ccoc1)C(=O)NCCCCNC(=O)c1ccc(-c2c3nc(c(-c4cc(S(=O)(=O)[O-])ccc4F)c4ccc([nH]4)c(-c4cc(S(=O)(=O)[O-])ccc4F)c4nc(c(-c5cc(S(=O)(=O)[O-])ccc5F)c5ccc2[nH]5)C=C4)C=C3)cc1
REMARK SMILES IDX 21 1 20 2 18 3 19 4 4 6 2 7 1 8 3 9 5 10 6 11 7 13 8 14 9 15
REMARK SMILES IDX 10 16 11 17 12 19 13 20 14 21 17 22 15 23 16 24 22 25 23 26
REMARK SMILES IDX 24 27 25 28 26 29 27 31 28 32 29 33 90 34 30 35 89 36 31 37
REMARK SMILES IDX 32 38 33 39 83 40 34 41 88 42 82 43 84 44 35 45 87 46 81 47
REMARK SMILES IDX 80 48 36 50 68 51 48 52 67 53 49 54 52 55 66 56 85 57 50 58
REMARK SMILES IDX 51 59 65 61 86 62 53 63 37 64 38 65 46 66 39 67 45 68 47 69
REMARK SMILES IDX 44 70 40 71 41 72 42 73 43 74 69 75 70 76 78 77 71 78 77 79
REMARK SMILES IDX 79 80 76 81 72 82 73 83 74 84 75 85 54 86 55 87 63 88 56 89
REMARK SMILES IDX 62 90 64 91 61 92 57 93 58 94 59 95 60 96
REMARK H PARENT 20 5 5 12 10 18 25 30 84 49 52 60
REMARK Flexibility Score: inf
ROOT
ATOM      1  C   UNL A   1      36.093  20.757  24.999  1.00  0.00     0.116 C 
ENDROOT
BRANCH   1   2
ATOM      2  N   UNL A   1      35.394  21.975  24.655  1.00  0.00    -0.354 N 
ATOM      3  C   UNL A   1      34.150  22.415  24.974  1.00  0.00     0.242 C 
ATOM      4  O   UNL A   1      33.895  23.597  24.717  1.00  0.00    -0.273 OA
ATOM      5  H   UNL A   1      35.910  22.595  24.091  1.00  0.00     0.163 HD
BRANCH   3   6
ATOM      6  C   UNL A   1      33.099  21.546  25.704  1.00  0.00     0.173 C 
BRANCH   6   7
ATOM      7  C   UNL A   1      32.258  20.618  24.786  1.00  0.00     0.015 C 
ATOM      8  C   UNL A   1      32.342  20.897  23.285  1.00  0.00     0.010 C 
ATOM      9  C   UNL A   1      32.568  19.139  25.039  1.00  0.00     0.010 C 
ENDBRANCH   6   7
BRANCH   6  10
ATOM     10  N   UNL A   1      32.280  22.298  26.658  1.00  0.00    -0.344 N 
ATOM     11  C   UNL A   1      31.197  23.086  26.410  1.00  0.00     0.222 C 
ATOM     12  H   UNL A   1      32.548  22.224  27.602  1.00  0.00     0.164 HD
ATOM     13  O   UNL A   1      30.680  23.685  27.355  1.00  0.00    -0.275 OA
BRANCH  11  14
ATOM     14  C   UNL A   1      30.664  23.246  25.004  1.00  0.00     0.121 C 
BRANCH  14  15
ATOM     15  C   UNL A   1      30.676  24.715  24.597  1.00  0.00     0.126 C 
BRANCH  15  16
ATOM     16  N   UNL A   1      31.391  24.935  23.348  1.00  0.00    -0.351 N 
ATOM     17  C   UNL A   1      31.419  26.057  22.559  1.00  0.00     0.254 C 
ATOM     18  H   UNL A   1      31.928  24.174  23.026  1.00  0.00     0.163 HD
ATOM     19  O   UNL A   1      31.779  25.948  21.389  1.00  0.00    -0.269 OA
BRANCH  17  20
ATOM     20  C   UNL A   1      31.009  27.322  23.128  1.00  0.00     0.077 A 
ATOM     21  C   UNL A   1      31.715  28.205  23.995  1.00  0.00     0.056 A 
ATOM     22  C   UNL A   1      29.821  27.962  22.844  1.00  0.00     0.208 A 
ATOM     23  C   UNL A   1      30.900  29.295  24.192  1.00  0.00     0.195 A 
ATOM     24  O   UNL A   1      29.744  29.151  23.498  1.00  0.00    -0.472 OA
ENDBRANCH  17  20
ENDBRANCH  15  16
ENDBRANCH  14  15
ENDBRANCH  11  14
ENDBRANCH   6  10
ENDBRANCH   3   6
ENDBRANCH   1   2
BRANCH   1  25
ATOM     25  C   UNL A   1      37.605  20.939  25.098  1.00  0.00     0.023 C 
BRANCH  25  26
ATOM     26  C   UNL A   1      38.094  22.339  25.478  1.00  0.00     0.023 C 
BRANCH  26  27
ATOM     27  C   UNL A   1      39.264  22.416  26.455  1.00  0.00     0.116 C 
BRANCH  27  28
ATOM     28  N   UNL A   1      40.505  21.886  25.922  1.00  0.00    -0.352 N 
ATOM     29  C   UNL A   1      41.757  22.450  25.897  1.00  0.00     0.251 C 
ATOM     30  H   UNL A   1      40.439  20.992  25.517  1.00  0.00     0.163 HD
ATOM     31  O   UNL A   1      42.671  21.844  25.343  1.00  0.00    -0.269 OA
BRANCH  29  32
ATOM     32  C   UNL A   1      41.999  23.789  26.485  1.00  0.00     0.039 A 
ATOM     33  C   UNL A   1      41.973  24.896  25.631  1.00  0.00     0.014 A 
ATOM     34  C   UNL A   1      42.268  23.966  27.846  1.00  0.00     0.014 A 
ATOM     35  C   UNL A   1      42.160  26.182  26.146  1.00  0.00     0.010 A 
ATOM     36  C   UNL A   1      42.401  25.253  28.368  1.00  0.00     0.010 A 
ATOM     37  C   UNL A   1      42.353  26.372  27.522  1.00  0.00    -0.014 A 
BRANCH  37  38
ATOM     38  C   UNL A   1      42.537  27.735  28.080  1.00  0.00     0.031 A 
ATOM     39  C   UNL A   1      43.915  28.329  28.170  1.00  0.00     0.074 A 
ATOM     40  C   UNL A   1      41.474  28.416  28.547  1.00  0.00     0.049 A 
ATOM     41  N   UNL A   1      44.293  29.479  28.670  1.00  0.00    -0.248 NA
ATOM     42  C   UNL A   1      45.018  27.503  27.660  1.00  0.00     0.031 C 
ATOM     43  C   UNL A   1      40.095  27.924  28.567  1.00  0.00     0.029 A 
ATOM     44  N   UNL A   1      41.389  29.667  29.105  1.00  0.00    -0.354 N 
ATOM     45  C   UNL A   1      45.679  29.503  28.560  1.00  0.00     0.074 A 
ATOM     46  C   UNL A   1      46.074  28.235  27.982  1.00  0.00     0.031 C 
ATOM     47  C   UNL A   1      39.300  28.867  29.099  1.00  0.00     0.029 A 
ATOM     48  C   UNL A   1      40.112  30.022  29.471  1.00  0.00     0.049 A 
ATOM     49  H   UNL A   1      42.169  30.254  29.231  1.00  0.00     0.167 HD
ATOM     50  C   UNL A   1      46.543  30.495  28.897  1.00  0.00     0.034 A 
ATOM     51  C   UNL A   1      39.651  31.153  30.038  1.00  0.00     0.034 A 
ATOM     52  C   UNL A   1      46.136  31.762  29.453  1.00  0.00     0.049 A 
ATOM     53  C   UNL A   1      40.612  32.275  30.322  1.00  0.00     0.074 A 
ATOM     54  C   UNL A   1      46.919  32.845  29.813  1.00  0.00     0.029 A 
ATOM     55  N   UNL A   1      44.820  32.120  29.722  1.00  0.00    -0.354 N 
ATOM     56  N   UNL A   1      41.917  32.295  30.185  1.00  0.00    -0.248 NA
ATOM     57  C   UNL A   1      40.034  33.533  30.811  1.00  0.00     0.031 C 
ATOM     58  C   UNL A   1      46.082  33.846  30.325  1.00  0.00     0.029 A 
ATOM     59  C   UNL A   1      44.771  33.404  30.241  1.00  0.00     0.049 A 
ATOM     60  H   UNL A   1      44.037  31.544  29.568  1.00  0.00     0.167 HD
ATOM     61  C   UNL A   1      42.314  33.578  30.549  1.00  0.00     0.074 A 
ATOM     62  C   UNL A   1      41.110  34.302  30.903  1.00  0.00     0.031 C 
ATOM     63  C   UNL A   1      43.561  34.109  30.585  1.00  0.00     0.034 A 
BRANCH  50  64
ATOM     64  C   UNL A   1      48.011  30.214  28.700  1.00  0.00     0.023 A 
ATOM     65  C   UNL A   1      48.757  29.504  29.658  1.00  0.00     0.031 A 
ATOM     66  C   UNL A   1      48.689  30.720  27.579  1.00  0.00     0.131 A 
ATOM     67  C   UNL A   1      50.149  29.399  29.521  1.00  0.00     0.055 A 
ATOM     68  C   UNL A   1      50.063  30.543  27.409  1.00  0.00     0.041 A 
ATOM     69  F   UNL A   1      48.031  31.422  26.642  1.00  0.00    -0.206 F 
ATOM     70  C   UNL A   1      50.805  29.894  28.393  1.00  0.00     0.022 A 
BRANCH  67  71
ATOM     71  S   UNL A   1      51.107  28.743  30.915  1.00  0.00     0.124 S 
ATOM     72  O   UNL A   1      50.887  27.306  30.769  1.00  0.00    -0.237 OA
ATOM     73  O   UNL A   1      52.455  29.215  30.622  1.00  0.00    -0.237 OA
ATOM     74  O   UNL A   1      50.473  29.348  32.083  1.00  0.00    -0.744 OA
ENDBRANCH  67  71
ENDBRANCH  50  64
BRANCH  51  75
ATOM     75  C   UNL A   1      38.207  31.292  30.360  1.00  0.00     0.023 A 
ATOM     76  C   UNL A   1      37.298  31.774  29.406  1.00  0.00     0.031 A 
ATOM     77  C   UNL A   1      37.723  30.965  31.638  1.00  0.00     0.131 A 
ATOM     78  C   UNL A   1      35.952  31.952  29.756  1.00  0.00     0.055 A 
ATOM     79  C   UNL A   1      36.376  31.115  31.971  1.00  0.00     0.041 A 
ATOM     80  F   UNL A   1      38.554  30.485  32.576  1.00  0.00    -0.206 F 
ATOM     81  C   UNL A   1      35.483  31.620  31.030  1.00  0.00     0.022 A 
BRANCH  78  82
ATOM     82  S   UNL A   1      34.826  32.674  28.531  1.00  0.00     0.124 S 
ATOM     83  O   UNL A   1      34.123  31.495  28.038  1.00  0.00    -0.237 OA
ATOM     84  O   UNL A   1      34.042  33.594  29.349  1.00  0.00    -0.237 OA
ATOM     85  O   UNL A   1      35.728  33.311  27.573  1.00  0.00    -0.744 OA
ENDBRANCH  78  82
ENDBRANCH  51  75
BRANCH  63  86
ATOM     86  C   UNL A   1      43.665  35.559  30.973  1.00  0.00     0.023 A 
ATOM     87  C   UNL A   1      43.661  36.582  30.009  1.00  0.00     0.031 A 
ATOM     88  C   UNL A   1      43.796  35.915  32.326  1.00  0.00     0.131 A 
ATOM     89  C   UNL A   1      43.834  37.915  30.410  1.00  0.00     0.055 A 
ATOM     90  C   UNL A   1      43.931  37.246  32.722  1.00  0.00     0.041 A 
ATOM     91  F   UNL A   1      43.807  34.973  33.282  1.00  0.00    -0.206 F 
ATOM     92  C   UNL A   1      43.962  38.253  31.761  1.00  0.00     0.022 A 
BRANCH  89  93
ATOM     93  S   UNL A   1      43.972  39.199  29.135  1.00  0.00     0.124 S 
ATOM     94  O   UNL A   1      44.724  38.512  28.089  1.00  0.00    -0.237 OA
ATOM     95  O   UNL A   1      42.574  39.486  28.833  1.00  0.00    -0.237 OA
ATOM     96  O   UNL A   1      44.694  40.276  29.810  1.00  0.00    -0.744 OA
ENDBRANCH  89  93
ENDBRANCH  63  86
ENDBRANCH  37  38
ENDBRANCH  29  32
ENDBRANCH  27  28
ENDBRANCH  26  27
ENDBRANCH  25  26
ENDBRANCH   1  25
TORSDOF 20
ENDMDL
MODEL 2
REMARK VINA RESULT:      -9.6      5.522     10.543
REMARK SMILES CC(C)[C@H](NC(=O)CCNC(=O)c1ccoc1)C(=O)NCCCCNC(=O)c1ccc(-c2c3nc(c(-c4cc(S(=O)(=O)[O-])ccc4F)c4ccc([nH]4)c(-c4cc(S(=O)(=O)[O-])ccc4F)c4nc(c(-c5cc(S(=O)(=O)[O-])ccc5F)c5ccc2[nH]5)C=C4)C=C3)cc1
REMARK SMILES IDX 21 1 20 2 18 3 19 4 4 6 2 7 1 8 3 9 5 10 6 11 7 13 8 14 9 15
REMARK SMILES IDX 10 16 11 17 12 19 13 20 14 21 17 22 15 23 16 24 22 25 23 26
REMARK SMILES IDX 24 27 25 28 26 29 27 31 28 32 29 33 90 34 30 35 89 36 31 37
REMARK SMILES IDX 32 38 33 39 83 40 34 41 88 42 82 43 84 44 35 45 87 46 81 47
REMARK SMILES IDX 80 48 36 50 68 51 48 52 67 53 49 54 52 55 66 56 85 57 50 58
REMARK SMILES IDX 51 59 65 61 86 62 53 63 37 64 38 65 46 66 39 67 45 68 47 69
REMARK SMILES IDX 44 70 40 71 41 72 42 73 43 74 69 75 70 76 78 77 71 78 77 79
REMARK SMILES IDX 79 80 76 81 72 82 73 83 74 84 75 85 54 86 55 87 63 88 56 89
REMARK SMILES IDX 62 90 64 91 61 92 57 93 58 94 59 95 60 96
REMARK H PARENT 20 5 5 12 10 18 25 30 84 49 52 60
REMARK Flexibility Score: inf
ROOT
ATOM      1  C   UNL A   1      37.004  34.268  32.533  1.00  0.00     0.116 C 
ENDROOT
BRANCH   1   2
ATOM      2  N   UNL A   1      35.905  33.334  32.421  1.00  0.00    -0.354 N 
ATOM      3  C   UNL A   1      34.650  33.483  31.927  1.00  0.00     0.242 C 
ATOM      4  O   UNL A   1      33.991  32.450  31.762  1.00  0.00    -0.273 OA
ATOM      5  H   UNL A   1      36.102  32.432  32.762  1.00  0.00     0.163 HD
BRANCH   3   6
ATOM      6  C   UNL A   1      34.058  34.846  31.496  1.00  0.00     0.173 C 
BRANCH   6   7
ATOM      7  C   UNL A   1      33.496  35.717  32.651  1.00  0.00     0.015 C 
ATOM      8  C   UNL A   1      34.175  37.069  32.869  1.00  0.00     0.010 C 
ATOM      9  C   UNL A   1      31.984  35.931  32.514  1.00  0.00     0.010 C 
ENDBRANCH   6   7
BRANCH   6  10
ATOM     10  N   UNL A   1      33.143  34.751  30.357  1.00  0.00    -0.344 N 
ATOM     11  C   UNL A   1      33.438  34.767  29.027  1.00  0.00     0.222 C 
ATOM     12  H   UNL A   1      32.188  34.665  30.581  1.00  0.00     0.164 HD
ATOM     13  O   UNL A   1      32.508  34.736  28.220  1.00  0.00    -0.275 OA
BRANCH  11  14
ATOM     14  C   UNL A   1      34.873  34.855  28.556  1.00  0.00     0.121 C 
BRANCH  14  15
ATOM     15  C   UNL A   1      35.431  33.460  28.298  1.00  0.00     0.126 C 
BRANCH  15  16
ATOM     16  N   UNL A   1      34.385  32.496  27.993  1.00  0.00    -0.351 N 
ATOM     17  C   UNL A   1      34.486  31.135  27.843  1.00  0.00     0.254 C 
ATOM     18  H   UNL A   1      33.481  32.871  27.879  1.00  0.00     0.163 HD
ATOM     19  O   UNL A   1      33.591  30.538  27.251  1.00  0.00    -0.269 OA
BRANCH  17  20
ATOM     20  C   UNL A   1      35.649  30.459  28.373  1.00  0.00     0.077 A 
ATOM     21  C   UNL A   1      36.172  30.443  29.699  1.00  0.00     0.056 A 
ATOM     22  C   UNL A   1      36.451  29.597  27.654  1.00  0.00     0.208 A 
ATOM     23  C   UNL A   1      37.258  29.600  29.681  1.00  0.00     0.195 A 
ATOM     24  O   UNL A   1      37.436  29.086  28.438  1.00  0.00    -0.472 OA
ENDBRANCH  17  20
ENDBRANCH  15  16
ENDBRANCH  14  15
ENDBRANCH  11  14
ENDBRANCH   6  10
ENDBRANCH   3   6
ENDBRANCH   1   2
BRANCH   1  25
ATOM     25  C   UNL A   1      37.354  34.613  33.977  1.00  0.00     0.023 C 
BRANCH  25  26
ATOM     26  C   UNL A   1      36.658  33.783  35.059  1.00  0.00     0.023 C 
BRANCH  26  27
ATOM     27  C   UNL A   1      37.435  33.548  36.352  1.00  0.00     0.116 C 
BRANCH  27  28
ATOM     28  N   UNL A   1      37.589  32.147  36.694  1.00  0.00    -0.352 N 
ATOM     29  C   UNL A   1      38.519  31.237  36.254  1.00  0.00     0.251 C 
ATOM     30  H   UNL A   1      36.929  31.797  37.335  1.00  0.00     0.163 HD
ATOM     31  O   UNL A   1      38.436  30.071  36.635  1.00  0.00    -0.269 OA
BRANCH  29  32
ATOM     32  C   UNL A   1      39.578  31.634  35.297  1.00  0.00     0.039 A 
ATOM     33  C   UNL A   1      39.246  31.702  33.940  1.00  0.00     0.014 A 
ATOM     34  C   UNL A   1      40.883  31.918  35.708  1.00  0.00     0.014 A 
ATOM     35  C   UNL A   1      40.202  32.108  33.005  1.00  0.00     0.010 A 
ATOM     36  C   UNL A   1      41.823  32.373  34.782  1.00  0.00     0.010 A 
ATOM     37  C   UNL A   1      41.491  32.468  33.422  1.00  0.00    -0.014 A 
BRANCH  37  38
ATOM     38  C   UNL A   1      42.509  32.914  32.438  1.00  0.00     0.031 A 
ATOM     39  C   UNL A   1      43.011  34.331  32.465  1.00  0.00     0.074 A 
ATOM     40  C   UNL A   1      42.945  32.060  31.493  1.00  0.00     0.049 A 
ATOM     41  N   UNL A   1      43.856  34.928  31.664  1.00  0.00    -0.248 NA
ATOM     42  C   UNL A   1      42.459  35.199  33.515  1.00  0.00     0.031 C 
ATOM     43  C   UNL A   1      42.492  30.677  31.327  1.00  0.00     0.029 A 
ATOM     44  N   UNL A   1      43.861  32.233  30.486  1.00  0.00    -0.354 N 
ATOM     45  C   UNL A   1      43.919  36.249  32.095  1.00  0.00     0.074 A 
ATOM     46  C   UNL A   1      42.993  36.370  33.203  1.00  0.00     0.031 C 
ATOM     47  C   UNL A   1      43.140  30.124  30.288  1.00  0.00     0.029 A 
ATOM     48  C   UNL A   1      44.041  31.115  29.706  1.00  0.00     0.049 A 
ATOM     49  H   UNL A   1      44.344  33.078  30.337  1.00  0.00     0.167 HD
ATOM     50  C   UNL A   1      44.685  37.265  31.621  1.00  0.00     0.034 A 
ATOM     51  C   UNL A   1      44.845  30.912  28.645  1.00  0.00     0.034 A 
ATOM     52  C   UNL A   1      45.618  37.126  30.530  1.00  0.00     0.049 A 
ATOM     53  C   UNL A   1      45.752  32.024  28.191  1.00  0.00     0.074 A 
ATOM     54  C   UNL A   1      46.459  38.078  29.979  1.00  0.00     0.029 A 
ATOM     55  N   UNL A   1      45.840  35.949  29.825  1.00  0.00    -0.354 N 
ATOM     56  N   UNL A   1      45.822  33.260  28.627  1.00  0.00    -0.248 NA
ATOM     57  C   UNL A   1      46.704  31.704  27.120  1.00  0.00     0.031 C 
ATOM     58  C   UNL A   1      47.167  37.486  28.925  1.00  0.00     0.029 A 
ATOM     59  C   UNL A   1      46.802  36.152  28.849  1.00  0.00     0.049 A 
ATOM     60  H   UNL A   1      45.379  35.096  29.994  1.00  0.00     0.167 HD
ATOM     61  C   UNL A   1      46.844  33.859  27.899  1.00  0.00     0.074 A 
ATOM     62  C   UNL A   1      47.365  32.847  27.003  1.00  0.00     0.031 C 
ATOM     63  C   UNL A   1      47.311  35.130  27.967  1.00  0.00     0.034 A 
BRANCH  50  64
ATOM     64  C   UNL A   1      44.503  38.614  32.269  1.00  0.00     0.023 A 
ATOM     65  C   UNL A   1      43.532  39.523  31.813  1.00  0.00     0.031 A 
ATOM     66  C   UNL A   1      45.355  39.025  33.308  1.00  0.00     0.131 A 
ATOM     67  C   UNL A   1      43.497  40.826  32.330  1.00  0.00     0.055 A 
ATOM     68  C   UNL A   1      45.261  40.297  33.875  1.00  0.00     0.041 A 
ATOM     69  F   UNL A   1      46.313  38.206  33.772  1.00  0.00    -0.206 F 
ATOM     70  C   UNL A   1      44.339  41.213  33.374  1.00  0.00     0.022 A 
BRANCH  67  71
ATOM     71  S   UNL A   1      42.438  42.052  31.514  1.00  0.00     0.124 S 
ATOM     72  O   UNL A   1      43.338  42.580  30.491  1.00  0.00    -0.237 OA
ATOM     73  O   UNL A   1      41.328  41.240  31.031  1.00  0.00    -0.237 OA
ATOM     74  O   UNL A   1      42.107  42.988  32.586  1.00  0.00    -0.744 OA
ENDBRANCH  67  71
ENDBRANCH  50  64
BRANCH  51  75
ATOM     75  C   UNL A   1      44.846  29.601  27.948  1.00  0.00     0.023 A 
ATOM     76  C   UNL A   1      43.797  29.239  27.090  1.00  0.00     0.031 A 
ATOM     77  C   UNL A   1      45.888  28.681  28.152  1.00  0.00     0.131 A 
ATOM     78  C   UNL A   1      43.792  27.971  26.492  1.00  0.00     0.055 A 
ATOM     79  C   UNL A   1      45.895  27.431  27.530  1.00  0.00     0.041 A 
ATOM     80  F   UNL A   1      46.920  28.991  28.951  1.00  0.00    -0.206 F 
ATOM     81  C   UNL A   1      44.837  27.066  26.701  1.00  0.00     0.022 A 
BRANCH  78  82
ATOM     82  S   UNL A   1      42.370  27.498  25.471  1.00  0.00     0.124 S 
ATOM     83  O   UNL A   1      42.832  26.251  24.873  1.00  0.00    -0.237 OA
ATOM     84  O   UNL A   1      41.311  27.379  26.468  1.00  0.00    -0.237 OA
ATOM     85  O   UNL A   1      42.227  28.620  24.545  1.00  0.00    -0.744 OA
ENDBRANCH  78  82
ENDBRANCH  51  75
BRANCH  63  86
ATOM     86  C   UNL A   1      48.478  35.468  27.079  1.00  0.00     0.023 A 
ATOM     87  C   UNL A   1      49.804  35.254  27.491  1.00  0.00     0.031 A 
ATOM     88  C   UNL A   1      48.254  36.039  25.814  1.00  0.00     0.131 A 
ATOM     89  C   UNL A   1      50.862  35.652  26.661  1.00  0.00     0.055 A 
ATOM     90  C   UNL A   1      49.310  36.398  24.978  1.00  0.00     0.041 A 
ATOM     91  F   UNL A   1      47.004  36.264  25.379  1.00  0.00    -0.206 F 
ATOM     92  C   UNL A   1      50.623  36.216  25.404  1.00  0.00     0.022 A 
BRANCH  89  93
ATOM     93  S   UNL A   1      52.561  35.497  27.279  1.00  0.00     0.124 S 
ATOM     94  O   UNL A   1      53.303  36.348  26.354  1.00  0.00    -0.237 OA
ATOM     95  O   UNL A   1      52.439  35.995  28.646  1.00  0.00    -0.237 OA
ATOM     96  O   UNL A   1      52.839  34.067  27.163  1.00  0.00    -0.744 OA
ENDBRANCH  89  93
ENDBRANCH  63  86
ENDBRANCH  37  38
ENDBRANCH  29  32
ENDBRANCH  27  28
ENDBRANCH  26  27
ENDBRANCH  25  26
ENDBRANCH   1  25
TORSDOF 20
ENDMDL
MODEL 3
REMARK VINA RESULT:      -9.5      8.115     16.070
REMARK SMILES CC(C)[C@H](NC(=O)CCNC(=O)c1ccoc1)C(=O)NCCCCNC(=O)c1ccc(-c2c3nc(c(-c4cc(S(=O)(=O)[O-])ccc4F)c4ccc([nH]4)c(-c4cc(S(=O)(=O)[O-])ccc4F)c4nc(c(-c5cc(S(=O)(=O)[O-])ccc5F)c5ccc2[nH]5)C=C4)C=C3)cc1
REMARK SMILES IDX 21 1 20 2 18 3 19 4 4 6 2 7 1 8 3 9 5 10 6 11 7 13 8 14 9 15
REMARK SMILES IDX 10 16 11 17 12 19 13 20 14 21 17 22 15 23 16 24 22 25 23 26
REMARK SMILES IDX 24 27 25 28 26 29 27 31 28 32 29 33 90 34 30 35 89 36 31 37
REMARK SMILES IDX 32 38 33 39 83 40 34 41 88 42 82 43 84 44 35 45 87 46 81 47
REMARK SMILES IDX 80 48 36 50 68 51 48 52 67 53 49 54 52 55 66 56 85 57 50 58
REMARK SMILES IDX 51 59 65 61 86 62 53 63 37 64 38 65 46 66 39 67 45 68 47 69
REMARK SMILES IDX 44 70 40 71 41 72 42 73 43 74 69 75 70 76 78 77 71 78 77 79
REMARK SMILES IDX 79 80 76 81 72 82 73 83 74 84 75 85 54 86 55 87 63 88 56 89
REMARK SMILES IDX 62 90 64 91 61 92 57 93 58 94 59 95 60 96
REMARK H PARENT 20 5 5 12 10 18 25 30 84 49 52 60
REMARK Flexibility Score: inf
ROOT
ATOM      1  C   UNL A   1      46.592  41.618  24.218  1.00  0.00     0.116 C 
ENDROOT
BRANCH   1   2
ATOM      2  N   UNL A   1      47.153  41.211  22.948  1.00  0.00    -0.354 N 
ATOM      3  C   UNL A   1      47.140  41.810  21.730  1.00  0.00     0.242 C 
ATOM      4  O   UNL A   1      47.888  41.333  20.868  1.00  0.00    -0.273 OA
ATOM      5  H   UNL A   1      47.627  40.348  22.971  1.00  0.00     0.163 HD
BRANCH   3   6
ATOM      6  C   UNL A   1      46.317  43.080  21.412  1.00  0.00     0.173 C 
BRANCH   6   7
ATOM      7  C   UNL A   1      46.877  44.397  22.011  1.00  0.00     0.015 C 
ATOM      8  C   UNL A   1      46.114  44.973  23.205  1.00  0.00     0.010 C 
ATOM      9  C   UNL A   1      48.359  44.268  22.379  1.00  0.00     0.010 C 
ENDBRANCH   6   7
BRANCH   6  10
ATOM     10  N   UNL A   1      44.879  42.916  21.641  1.00  0.00    -0.344 N 
ATOM     11  C   UNL A   1      43.847  43.211  20.802  1.00  0.00     0.222 C 
ATOM     12  H   UNL A   1      44.625  42.544  22.516  1.00  0.00     0.164 HD
ATOM     13  O   UNL A   1      42.696  43.053  21.212  1.00  0.00    -0.275 OA
BRANCH  11  14
ATOM     14  C   UNL A   1      44.111  43.750  19.414  1.00  0.00     0.121 C 
BRANCH  14  15
ATOM     15  C   UNL A   1      43.119  44.858  19.079  1.00  0.00     0.126 C 
BRANCH  15  16
ATOM     16  N   UNL A   1      42.580  44.727  17.733  1.00  0.00    -0.351 N 
ATOM     17  C   UNL A   1      42.289  45.712  16.823  1.00  0.00     0.254 C 
ATOM     18  H   UNL A   1      42.401  43.805  17.435  1.00  0.00     0.163 HD
ATOM     19  O   UNL A   1      41.528  45.452  15.895  1.00  0.00    -0.269 OA
BRANCH  17  20
ATOM     20  C   UNL A   1      42.876  47.022  17.000  1.00  0.00     0.077 A 
ATOM     21  C   UNL A   1      42.301  48.219  17.516  1.00  0.00     0.056 A 
ATOM     22  C   UNL A   1      44.198  47.328  16.754  1.00  0.00     0.208 A 
ATOM     23  C   UNL A   1      43.301  49.163  17.523  1.00  0.00     0.195 A 
ATOM     24  O   UNL A   1      44.458  48.628  17.056  1.00  0.00    -0.472 OA
ENDBRANCH  17  20
ENDBRANCH  15  16
ENDBRANCH  14  15
ENDBRANCH  11  14
ENDBRANCH   6  10
ENDBRANCH   3   6
ENDBRANCH   1   2
BRANCH   1  25
ATOM     25  C   UNL A   1      46.258  40.442  25.131  1.00  0.00     0.023 C 
BRANCH  25  26
ATOM     26  C   UNL A   1      47.159  39.210  25.006  1.00  0.00     0.023 C 
BRANCH  26  27
ATOM     27  C   UNL A   1      46.887  38.060  25.971  1.00  0.00     0.116 C 
BRANCH  27  28
ATOM     28  N   UNL A   1      46.750  36.771  25.319  1.00  0.00    -0.352 N 
ATOM     29  C   UNL A   1      46.121  35.632  25.757  1.00  0.00     0.251 C 
ATOM     30  H   UNL A   1      47.171  36.704  24.432  1.00  0.00     0.163 HD
ATOM     31  O   UNL A   1      46.169  34.621  25.061  1.00  0.00    -0.269 OA
BRANCH  29  32
ATOM     32  C   UNL A   1      45.435  35.600  27.070  1.00  0.00     0.039 A 
ATOM     33  C   UNL A   1      45.938  34.744  28.055  1.00  0.00     0.014 A 
ATOM     34  C   UNL A   1      44.304  36.378  27.337  1.00  0.00     0.014 A 
ATOM     35  C   UNL A   1      45.346  34.708  29.320  1.00  0.00     0.010 A 
ATOM     36  C   UNL A   1      43.745  36.381  28.615  1.00  0.00     0.010 A 
ATOM     37  C   UNL A   1      44.259  35.543  29.617  1.00  0.00    -0.014 A 
BRANCH  37  38
ATOM     38  C   UNL A   1      43.633  35.521  30.963  1.00  0.00     0.031 A 
ATOM     39  C   UNL A   1      42.408  34.685  31.208  1.00  0.00     0.074 A 
ATOM     40  C   UNL A   1      44.137  36.289  31.947  1.00  0.00     0.049 A 
ATOM     41  N   UNL A   1      41.685  34.570  32.293  1.00  0.00    -0.248 NA
ATOM     42  C   UNL A   1      41.913  33.901  30.068  1.00  0.00     0.031 C 
ATOM     43  C   UNL A   1      45.286  37.187  31.817  1.00  0.00     0.029 A 
ATOM     44  N   UNL A   1      43.740  36.444  33.251  1.00  0.00    -0.354 N 
ATOM     45  C   UNL A   1      40.633  33.722  31.960  1.00  0.00     0.074 A 
ATOM     46  C   UNL A   1      40.796  33.387  30.560  1.00  0.00     0.031 C 
ATOM     47  C   UNL A   1      45.509  37.790  32.997  1.00  0.00     0.029 A 
ATOM     48  C   UNL A   1      44.511  37.335  33.961  1.00  0.00     0.049 A 
ATOM     49  H   UNL A   1      42.974  35.963  33.642  1.00  0.00     0.167 HD
ATOM     50  C   UNL A   1      39.633  33.255  32.749  1.00  0.00     0.034 A 
ATOM     51  C   UNL A   1      44.423  37.734  35.244  1.00  0.00     0.034 A 
ATOM     52  C   UNL A   1      39.493  33.580  34.148  1.00  0.00     0.049 A 
ATOM     53  C   UNL A   1      43.361  37.137  36.126  1.00  0.00     0.074 A 
ATOM     54  C   UNL A   1      38.534  33.150  35.048  1.00  0.00     0.029 A 
ATOM     55  N   UNL A   1      40.352  34.414  34.855  1.00  0.00    -0.354 N 
ATOM     56  N   UNL A   1      42.391  36.313  35.805  1.00  0.00    -0.248 NA
ATOM     57  C   UNL A   1      43.399  37.504  37.547  1.00  0.00     0.031 C 
ATOM     58  C   UNL A   1      38.795  33.745  36.290  1.00  0.00     0.029 A 
ATOM     59  C   UNL A   1      39.945  34.509  36.176  1.00  0.00     0.049 A 
ATOM     60  H   UNL A   1      41.135  34.871  34.471  1.00  0.00     0.167 HD
ATOM     61  C   UNL A   1      41.717  36.044  36.991  1.00  0.00     0.074 A 
ATOM     62  C   UNL A   1      42.396  36.786  38.034  1.00  0.00     0.031 C 
ATOM     63  C   UNL A   1      40.636  35.252  37.200  1.00  0.00     0.034 A 
BRANCH  50  64
ATOM     64  C   UNL A   1      38.601  32.375  32.090  1.00  0.00     0.023 A 
ATOM     65  C   UNL A   1      37.442  32.916  31.505  1.00  0.00     0.031 A 
ATOM     66  C   UNL A   1      38.740  30.978  32.109  1.00  0.00     0.131 A 
ATOM     67  C   UNL A   1      36.429  32.062  31.044  1.00  0.00     0.055 A 
ATOM     68  C   UNL A   1      37.764  30.134  31.576  1.00  0.00     0.041 A 
ATOM     69  F   UNL A   1      39.816  30.405  32.672  1.00  0.00    -0.206 F 
ATOM     70  C   UNL A   1      36.591  30.675  31.055  1.00  0.00     0.022 A 
BRANCH  67  71
ATOM     71  S   UNL A   1      34.834  32.788  30.574  1.00  0.00     0.124 S 
ATOM     72  O   UNL A   1      34.481  31.984  29.406  1.00  0.00    -0.237 OA
ATOM     73  O   UNL A   1      34.024  32.572  31.766  1.00  0.00    -0.237 OA
ATOM     74  O   UNL A   1      35.163  34.182  30.285  1.00  0.00    -0.744 OA
ENDBRANCH  67  71
ENDBRANCH  50  64
BRANCH  51  75
ATOM     75  C   UNL A   1      45.378  38.738  35.780  1.00  0.00     0.023 A 
ATOM     76  C   UNL A   1      45.080  40.108  35.744  1.00  0.00     0.031 A 
ATOM     77  C   UNL A   1      46.614  38.338  36.315  1.00  0.00     0.131 A 
ATOM     78  C   UNL A   1      46.024  41.039  36.202  1.00  0.00     0.055 A 
ATOM     79  C   UNL A   1      47.538  39.266  36.798  1.00  0.00     0.041 A 
ATOM     80  F   UNL A   1      46.934  37.037  36.384  1.00  0.00    -0.206 F 
ATOM     81  C   UNL A   1      47.250  40.626  36.734  1.00  0.00     0.022 A 
BRANCH  78  82
ATOM     82  S   UNL A   1      45.648  42.806  36.045  1.00  0.00     0.124 S 
ATOM     83  O   UNL A   1      46.534  43.390  37.045  1.00  0.00    -0.237 OA
ATOM     84  O   UNL A   1      45.993  43.064  34.651  1.00  0.00    -0.237 OA
ATOM     85  O   UNL A   1      44.221  42.879  36.355  1.00  0.00    -0.744 OA
ENDBRANCH  78  82
ENDBRANCH  51  75
BRANCH  63  86
ATOM     86  C   UNL A   1      40.165  35.116  38.623  1.00  0.00     0.023 A 
ATOM     87  C   UNL A   1      40.494  33.995  39.404  1.00  0.00     0.031 A 
ATOM     88  C   UNL A   1      39.353  36.113  39.190  1.00  0.00     0.131 A 
ATOM     89  C   UNL A   1      39.972  33.875  40.701  1.00  0.00     0.055 A 
ATOM     90  C   UNL A   1      38.868  36.005  40.493  1.00  0.00     0.041 A 
ATOM     91  F   UNL A   1      39.011  37.200  38.481  1.00  0.00    -0.206 F 
ATOM     92  C   UNL A   1      39.167  34.877  41.252  1.00  0.00     0.022 A 
BRANCH  89  93
ATOM     93  S   UNL A   1      40.293  32.351  41.632  1.00  0.00     0.124 S 
ATOM     94  O   UNL A   1      41.381  31.748  40.868  1.00  0.00    -0.237 OA
ATOM     95  O   UNL A   1      40.647  32.865  42.951  1.00  0.00    -0.237 OA
ATOM     96  O   UNL A   1      39.020  31.635  41.567  1.00  0.00    -0.744 OA
ENDBRANCH  89  93
ENDBRANCH  63  86
ENDBRANCH  37  38
ENDBRANCH  29  32
ENDBRANCH  27  28
ENDBRANCH  26  27
ENDBRANCH  25  26
ENDBRANCH   1  25
TORSDOF 20
ENDMDL
