MODEL 1
REMARK VINA RESULT:     -11.4      0.000      0.000
REMARK SMILES CC(=O)N[C@H](C(=O)NC1(CC(=O)NCCCCNC(=O)c2ccc(-c3c4nc(c(-c5cc(S(=O)(=O)[O-])ccc5F)c5ccc([nH]5)c(-c5cc(S(=O)(=O)[O-])ccc5F)c5nc(c(-c6cc(S(=O)(=O)[O-])ccc6F)c6ccc3[nH]6)C=C5)C=C4)cc2)CCC1)C(C)C
REMARK SMILES IDX 15 1 14 2 13 3 11 4 12 5 10 7 9 8 84 9 86 10 85 11 8 12 6 13
REMARK SMILES IDX 7 14 5 16 4 17 1 18 2 19 3 20 87 22 88 23 89 24 16 25 17 26
REMARK SMILES IDX 18 27 19 28 20 30 21 31 22 32 83 33 23 34 82 35 24 36 25 37
REMARK SMILES IDX 26 38 76 39 27 40 81 41 75 42 77 43 28 44 80 45 74 46 73 47
REMARK SMILES IDX 29 49 61 50 41 51 60 52 42 53 45 54 59 55 78 56 43 57 44 58
REMARK SMILES IDX 58 60 79 61 46 62 30 63 31 64 39 65 32 66 38 67 40 68 37 69
REMARK SMILES IDX 33 70 34 71 35 72 36 73 62 74 63 75 71 76 64 77 70 78 72 79
REMARK SMILES IDX 69 80 65 81 66 82 67 83 68 84 47 85 48 86 56 87 49 88 55 89
REMARK SMILES IDX 57 90 54 91 50 92 51 93 52 94 53 95
REMARK H PARENT 13 6 8 15 4 21 18 29 77 48 45 59
REMARK Flexibility Score: inf
ROOT
ATOM      1  C   UNL A   1      35.978  20.350  24.999  1.00  0.00     0.023 C 
ENDROOT
BRANCH   1   2
ATOM      2  C   UNL A   1      34.487  20.002  25.001  1.00  0.00     0.116 C 
BRANCH   2   3
ATOM      3  N   UNL A   1      33.839  20.619  26.136  1.00  0.00    -0.356 N 
ATOM      4  C   UNL A   1      33.052  21.726  26.190  1.00  0.00     0.222 C 
ATOM      5  O   UNL A   1      32.806  22.195  27.302  1.00  0.00    -0.275 OA
ATOM      6  H   UNL A   1      33.992  20.173  26.999  1.00  0.00     0.163 HD
BRANCH   4   7
ATOM      7  C   UNL A   1      32.482  22.364  24.930  1.00  0.00     0.128 C 
BRANCH   7   8
ATOM      8  C   UNL A   1      32.551  23.908  24.833  1.00  0.00     0.049 C 
ATOM      9  C   UNL A   1      32.576  24.606  23.417  1.00  0.00     0.029 C 
ATOM     10  C   UNL A   1      34.013  24.462  24.917  1.00  0.00     0.029 C 
ATOM     11  C   UNL A   1      34.086  24.407  23.388  1.00  0.00     0.005 C 
BRANCH   8  12
ATOM     12  N   UNL A   1      31.631  24.498  25.851  1.00  0.00    -0.348 N 
ATOM     13  C   UNL A   1      31.092  25.757  25.966  1.00  0.00     0.243 C 
ATOM     14  O   UNL A   1      29.983  25.866  26.500  1.00  0.00    -0.273 OA
ATOM     15  H   UNL A   1      31.364  23.875  26.566  1.00  0.00     0.164 HD
BRANCH  13  16
ATOM     16  C   UNL A   1      31.890  27.009  25.567  1.00  0.00     0.173 C 
BRANCH  16  17
ATOM     17  N   UNL A   1      30.996  28.053  25.044  1.00  0.00    -0.344 N 
ATOM     18  C   UNL A   1      32.199  28.521  22.941  1.00  0.00     0.114 C 
ATOM     19  C   UNL A   1      31.090  28.800  23.909  1.00  0.00     0.217 C 
ATOM     20  O   UNL A   1      30.283  29.706  23.705  1.00  0.00    -0.275 OA
ATOM     21  H   UNL A   1      30.207  28.242  25.602  1.00  0.00     0.164 HD
ENDBRANCH  16  17
BRANCH  16  22
ATOM     22  C   UNL A   1      32.659  27.567  26.808  1.00  0.00     0.015 C 
ATOM     23  C   UNL A   1      33.999  28.251  26.498  1.00  0.00     0.010 C 
ATOM     24  C   UNL A   1      31.774  28.556  27.574  1.00  0.00     0.010 C 
ENDBRANCH  16  22
ENDBRANCH  13  16
ENDBRANCH   8  12
ENDBRANCH   7   8
ENDBRANCH   4   7
ENDBRANCH   2   3
ENDBRANCH   1   2
BRANCH   1  25
ATOM     25  C   UNL A   1      36.351  21.610  25.748  1.00  0.00     0.023 C 
BRANCH  25  26
ATOM     26  C   UNL A   1      37.752  22.107  25.430  1.00  0.00     0.116 C 
BRANCH  26  27
ATOM     27  N   UNL A   1      38.828  21.150  25.696  1.00  0.00    -0.352 N 
ATOM     28  C   UNL A   1      39.985  21.358  26.418  1.00  0.00     0.251 C 
ATOM     29  H   UNL A   1      38.712  20.250  25.313  1.00  0.00     0.163 HD
ATOM     30  O   UNL A   1      40.834  20.488  26.518  1.00  0.00    -0.269 OA
BRANCH  28  31
ATOM     31  C   UNL A   1      40.164  22.693  27.017  1.00  0.00     0.039 A 
ATOM     32  C   UNL A   1      41.096  22.862  28.040  1.00  0.00     0.014 A 
ATOM     33  C   UNL A   1      39.554  23.786  26.403  1.00  0.00     0.014 A 
ATOM     34  C   UNL A   1      41.492  24.155  28.382  1.00  0.00     0.010 A 
ATOM     35  C   UNL A   1      40.053  25.053  26.646  1.00  0.00     0.010 A 
ATOM     36  C   UNL A   1      41.014  25.254  27.649  1.00  0.00    -0.014 A 
BRANCH  36  37
ATOM     37  C   UNL A   1      41.450  26.643  27.935  1.00  0.00     0.031 A 
ATOM     38  C   UNL A   1      42.852  27.048  27.567  1.00  0.00     0.074 A 
ATOM     39  C   UNL A   1      40.641  27.489  28.603  1.00  0.00     0.049 A 
ATOM     40  N   UNL A   1      43.509  28.136  27.869  1.00  0.00    -0.248 NA
ATOM     41  C   UNL A   1      43.643  26.059  26.817  1.00  0.00     0.031 C 
ATOM     42  C   UNL A   1      39.286  27.182  29.073  1.00  0.00     0.029 A 
ATOM     43  N   UNL A   1      40.845  28.781  29.013  1.00  0.00    -0.354 N 
ATOM     44  C   UNL A   1      44.799  27.938  27.387  1.00  0.00     0.074 A 
ATOM     45  C   UNL A   1      44.852  26.593  26.862  1.00  0.00     0.031 C 
ATOM     46  C   UNL A   1      38.770  28.270  29.670  1.00  0.00     0.029 A 
ATOM     47  C   UNL A   1      39.768  29.334  29.666  1.00  0.00     0.049 A 
ATOM     48  H   UNL A   1      41.685  29.270  28.854  1.00  0.00     0.167 HD
ATOM     49  C   UNL A   1      45.833  28.813  27.346  1.00  0.00     0.034 A 
ATOM     50  C   UNL A   1      39.610  30.561  30.200  1.00  0.00     0.034 A 
ATOM     51  C   UNL A   1      45.733  30.169  27.817  1.00  0.00     0.049 A 
ATOM     52  C   UNL A   1      40.754  31.540  30.097  1.00  0.00     0.074 A 
ATOM     53  C   UNL A   1      46.681  31.174  27.769  1.00  0.00     0.029 A 
ATOM     54  N   UNL A   1      44.603  30.715  28.414  1.00  0.00    -0.354 N 
ATOM     55  N   UNL A   1      41.955  31.357  29.596  1.00  0.00    -0.248 NA
ATOM     56  C   UNL A   1      40.517  32.893  30.615  1.00  0.00     0.031 C 
ATOM     57  C   UNL A   1      46.140  32.313  28.375  1.00  0.00     0.029 A 
ATOM     58  C   UNL A   1      44.833  32.039  28.746  1.00  0.00     0.049 A 
ATOM     59  H   UNL A   1      43.762  30.230  28.579  1.00  0.00     0.167 HD
ATOM     60  C   UNL A   1      42.603  32.583  29.707  1.00  0.00     0.074 A 
ATOM     61  C   UNL A   1      41.656  33.499  30.311  1.00  0.00     0.031 C 
ATOM     62  C   UNL A   1      43.865  32.928  29.342  1.00  0.00     0.034 A 
BRANCH  49  63
ATOM     63  C   UNL A   1      47.139  28.312  26.777  1.00  0.00     0.023 A 
ATOM     64  C   UNL A   1      47.335  28.176  25.391  1.00  0.00     0.031 A 
ATOM     65  C   UNL A   1      48.177  27.896  27.630  1.00  0.00     0.131 A 
ATOM     66  C   UNL A   1      48.488  27.544  24.904  1.00  0.00     0.055 A 
ATOM     67  C   UNL A   1      49.367  27.358  27.132  1.00  0.00     0.041 A 
ATOM     68  F   UNL A   1      48.043  27.980  28.963  1.00  0.00    -0.206 F 
ATOM     69  C   UNL A   1      49.519  27.159  25.763  1.00  0.00     0.022 A 
BRANCH  66  70
ATOM     70  S   UNL A   1      48.538  27.076  23.152  1.00  0.00     0.124 S 
ATOM     71  O   UNL A   1      49.941  27.317  22.824  1.00  0.00    -0.237 OA
ATOM     72  O   UNL A   1      48.122  25.678  23.186  1.00  0.00    -0.237 OA
ATOM     73  O   UNL A   1      47.591  27.994  22.523  1.00  0.00    -0.744 OA
ENDBRANCH  66  70
ENDBRANCH  49  63
BRANCH  50  74
ATOM     74  C   UNL A   1      38.330  30.949  30.858  1.00  0.00     0.023 A 
ATOM     75  C   UNL A   1      37.310  31.582  30.129  1.00  0.00     0.031 A 
ATOM     76  C   UNL A   1      38.119  30.729  32.230  1.00  0.00     0.131 A 
ATOM     77  C   UNL A   1      36.147  32.019  30.783  1.00  0.00     0.055 A 
ATOM     78  C   UNL A   1      36.940  31.121  32.867  1.00  0.00     0.041 A 
ATOM     79  F   UNL A   1      39.057  30.116  32.971  1.00  0.00    -0.206 F 
ATOM     80  C   UNL A   1      35.951  31.783  32.145  1.00  0.00     0.022 A 
BRANCH  77  81
ATOM     81  S   UNL A   1      34.925  32.972  29.840  1.00  0.00     0.124 S 
ATOM     82  O   UNL A   1      34.386  31.957  28.942  1.00  0.00    -0.237 OA
ATOM     83  O   UNL A   1      34.029  33.439  30.894  1.00  0.00    -0.237 OA
ATOM     84  O   UNL A   1      35.726  34.013  29.200  1.00  0.00    -0.744 OA
ENDBRANCH  77  81
ENDBRANCH  50  74
BRANCH  62  85
ATOM     85  C   UNL A   1      44.261  34.369  29.535  1.00  0.00     0.023 A 
ATOM     86  C   UNL A   1      43.916  35.361  28.603  1.00  0.00     0.031 A 
ATOM     87  C   UNL A   1      44.996  34.747  30.673  1.00  0.00     0.131 A 
ATOM     88  C   UNL A   1      44.352  36.680  28.798  1.00  0.00     0.055 A 
ATOM     89  C   UNL A   1      45.378  36.072  30.890  1.00  0.00     0.041 A 
ATOM     90  F   UNL A   1      45.349  33.836  31.593  1.00  0.00    -0.206 F 
ATOM     91  C   UNL A   1      45.066  37.044  29.943  1.00  0.00     0.022 A 
BRANCH  88  92
ATOM     92  S   UNL A   1      44.043  37.898  27.491  1.00  0.00     0.124 S 
ATOM     93  O   UNL A   1      43.059  37.211  26.662  1.00  0.00    -0.237 OA
ATOM     94  O   UNL A   1      43.552  39.046  28.246  1.00  0.00    -0.237 OA
ATOM     95  O   UNL A   1      45.357  38.079  26.876  1.00  0.00    -0.744 OA
ENDBRANCH  88  92
ENDBRANCH  62  85
ENDBRANCH  36  37
ENDBRANCH  28  31
ENDBRANCH  26  27
ENDBRANCH  25  26
ENDBRANCH   1  25
TORSDOF 19
ENDMDL
MODEL 2
REMARK VINA RESULT:     -11.4      5.520     10.645
REMARK SMILES CC(=O)N[C@H](C(=O)NC1(CC(=O)NCCCCNC(=O)c2ccc(-c3c4nc(c(-c5cc(S(=O)(=O)[O-])ccc5F)c5ccc([nH]5)c(-c5cc(S(=O)(=O)[O-])ccc5F)c5nc(c(-c6cc(S(=O)(=O)[O-])ccc6F)c6ccc3[nH]6)C=C5)C=C4)cc2)CCC1)C(C)C
REMARK SMILES IDX 15 1 14 2 13 3 11 4 12 5 10 7 9 8 84 9 86 10 85 11 8 12 6 13
REMARK SMILES IDX 7 14 5 16 4 17 1 18 2 19 3 20 87 22 88 23 89 24 16 25 17 26
REMARK SMILES IDX 18 27 19 28 20 30 21 31 22 32 83 33 23 34 82 35 24 36 25 37
REMARK SMILES IDX 26 38 76 39 27 40 81 41 75 42 77 43 28 44 80 45 74 46 73 47
REMARK SMILES IDX 29 49 61 50 41 51 60 52 42 53 45 54 59 55 78 56 43 57 44 58
REMARK SMILES IDX 58 60 79 61 46 62 30 63 31 64 39 65 32 66 38 67 40 68 37 69
REMARK SMILES IDX 33 70 34 71 35 72 36 73 62 74 63 75 71 76 64 77 70 78 72 79
REMARK SMILES IDX 69 80 65 81 66 82 67 83 68 84 47 85 48 86 56 87 49 88 55 89
REMARK SMILES IDX 57 90 54 91 50 92 51 93 52 94 53 95
REMARK H PARENT 13 6 8 15 4 21 18 29 77 48 45 59
REMARK Flexibility Score: inf
ROOT
ATOM      1  C   UNL A   1      35.362  31.202  28.078  1.00  0.00     0.023 C 
ENDROOT
BRANCH   1   2
ATOM      2  C   UNL A   1      35.114  29.768  27.600  1.00  0.00     0.116 C 
BRANCH   2   3
ATOM      3  N   UNL A   1      33.759  29.374  27.916  1.00  0.00    -0.356 N 
ATOM      4  C   UNL A   1      32.953  28.470  27.299  1.00  0.00     0.222 C 
ATOM      5  O   UNL A   1      31.759  28.472  27.604  1.00  0.00    -0.275 OA
ATOM      6  H   UNL A   1      33.361  29.828  28.693  1.00  0.00     0.163 HD
BRANCH   4   7
ATOM      7  C   UNL A   1      33.495  27.480  26.277  1.00  0.00     0.128 C 
BRANCH   7   8
ATOM      8  C   UNL A   1      32.740  27.382  24.927  1.00  0.00     0.049 C 
ATOM      9  C   UNL A   1      33.491  26.850  23.644  1.00  0.00     0.029 C 
ATOM     10  C   UNL A   1      32.735  28.729  24.130  1.00  0.00     0.029 C 
ATOM     11  C   UNL A   1      34.002  28.265  23.404  1.00  0.00     0.005 C 
BRANCH   8  12
ATOM     12  N   UNL A   1      31.374  26.831  25.177  1.00  0.00    -0.348 N 
ATOM     13  C   UNL A   1      30.962  25.648  25.742  1.00  0.00     0.243 C 
ATOM     14  O   UNL A   1      29.884  25.639  26.345  1.00  0.00    -0.273 OA
ATOM     15  H   UNL A   1      30.640  27.420  24.886  1.00  0.00     0.164 HD
BRANCH  13  16
ATOM     16  C   UNL A   1      31.743  24.342  25.523  1.00  0.00     0.173 C 
BRANCH  16  17
ATOM     17  N   UNL A   1      31.851  23.582  26.777  1.00  0.00    -0.344 N 
ATOM     18  C   UNL A   1      34.293  23.223  26.758  1.00  0.00     0.114 C 
ATOM     19  C   UNL A   1      32.940  23.016  27.369  1.00  0.00     0.217 C 
ATOM     20  O   UNL A   1      32.798  22.324  28.375  1.00  0.00    -0.275 OA
ATOM     21  H   UNL A   1      31.005  23.464  27.266  1.00  0.00     0.164 HD
ENDBRANCH  16  17
BRANCH  16  22
ATOM     22  C   UNL A   1      31.020  23.464  24.452  1.00  0.00     0.015 C 
ATOM     23  C   UNL A   1      30.487  24.225  23.229  1.00  0.00     0.010 C 
ATOM     24  C   UNL A   1      31.957  22.354  23.963  1.00  0.00     0.010 C 
ENDBRANCH  16  22
ENDBRANCH  13  16
ENDBRANCH   8  12
ENDBRANCH   7   8
ENDBRANCH   4   7
ENDBRANCH   2   3
ENDBRANCH   1   2
BRANCH   1  25
ATOM     25  C   UNL A   1      34.207  32.159  27.890  1.00  0.00     0.023 C 
BRANCH  25  26
ATOM     26  C   UNL A   1      34.595  33.616  28.081  1.00  0.00     0.116 C 
BRANCH  26  27
ATOM     27  N   UNL A   1      33.658  34.410  28.879  1.00  0.00    -0.352 N 
ATOM     28  C   UNL A   1      33.669  34.611  30.244  1.00  0.00     0.251 C 
ATOM     29  H   UNL A   1      32.934  34.854  28.381  1.00  0.00     0.163 HD
ATOM     30  O   UNL A   1      32.791  35.253  30.796  1.00  0.00    -0.269 OA
BRANCH  28  31
ATOM     31  C   UNL A   1      34.759  33.972  31.002  1.00  0.00     0.039 A 
ATOM     32  C   UNL A   1      34.527  32.750  31.633  1.00  0.00     0.014 A 
ATOM     33  C   UNL A   1      36.045  34.499  30.891  1.00  0.00     0.014 A 
ATOM     34  C   UNL A   1      35.619  32.002  32.072  1.00  0.00     0.010 A 
ATOM     35  C   UNL A   1      37.126  33.691  31.197  1.00  0.00     0.010 A 
ATOM     36  C   UNL A   1      36.926  32.442  31.806  1.00  0.00    -0.014 A 
BRANCH  36  37
ATOM     37  C   UNL A   1      38.120  31.654  32.199  1.00  0.00     0.031 A 
ATOM     38  C   UNL A   1      38.806  31.986  33.497  1.00  0.00     0.074 A 
ATOM     39  C   UNL A   1      38.635  30.731  31.363  1.00  0.00     0.049 A 
ATOM     40  N   UNL A   1      39.950  31.561  33.965  1.00  0.00    -0.248 NA
ATOM     41  C   UNL A   1      38.146  32.990  34.348  1.00  0.00     0.031 C 
ATOM     42  C   UNL A   1      38.095  30.374  30.047  1.00  0.00     0.029 A 
ATOM     43  N   UNL A   1      39.739  29.929  31.492  1.00  0.00    -0.354 N 
ATOM     44  C   UNL A   1      40.163  32.281  35.137  1.00  0.00     0.074 A 
ATOM     45  C   UNL A   1      39.080  33.231  35.251  1.00  0.00     0.031 C 
ATOM     46  C   UNL A   1      38.847  29.398  29.512  1.00  0.00     0.029 A 
ATOM     47  C   UNL A   1      39.946  29.090  30.421  1.00  0.00     0.049 A 
ATOM     48  H   UNL A   1      40.331  29.950  32.279  1.00  0.00     0.167 HD
ATOM     49  C   UNL A   1      41.147  32.132  36.055  1.00  0.00     0.034 A 
ATOM     50  C   UNL A   1      40.915  28.179  30.204  1.00  0.00     0.034 A 
ATOM     51  C   UNL A   1      42.177  31.133  35.948  1.00  0.00     0.049 A 
ATOM     52  C   UNL A   1      41.973  27.991  31.264  1.00  0.00     0.074 A 
ATOM     53  C   UNL A   1      43.188  30.833  36.843  1.00  0.00     0.029 A 
ATOM     54  N   UNL A   1      42.316  30.255  34.879  1.00  0.00    -0.354 N 
ATOM     55  N   UNL A   1      42.138  28.645  32.391  1.00  0.00    -0.248 NA
ATOM     56  C   UNL A   1      42.962  26.932  31.030  1.00  0.00     0.031 C 
ATOM     57  C   UNL A   1      43.963  29.805  36.295  1.00  0.00     0.029 A 
ATOM     58  C   UNL A   1      43.400  29.420  35.088  1.00  0.00     0.049 A 
ATOM     59  H   UNL A   1      41.730  30.232  34.089  1.00  0.00     0.167 HD
ATOM     60  C   UNL A   1      43.230  28.052  33.016  1.00  0.00     0.074 A 
ATOM     61  C   UNL A   1      43.675  26.981  32.146  1.00  0.00     0.031 C 
ATOM     62  C   UNL A   1      43.814  28.358  34.204  1.00  0.00     0.034 A 
BRANCH  49  63
ATOM     63  C   UNL A   1      41.140  33.077  37.234  1.00  0.00     0.023 A 
ATOM     64  C   UNL A   1      40.479  32.754  38.432  1.00  0.00     0.031 A 
ATOM     65  C   UNL A   1      41.738  34.346  37.136  1.00  0.00     0.131 A 
ATOM     66  C   UNL A   1      40.339  33.720  39.439  1.00  0.00     0.055 A 
ATOM     67  C   UNL A   1      41.680  35.269  38.183  1.00  0.00     0.041 A 
ATOM     68  F   UNL A   1      42.364  34.722  36.010  1.00  0.00    -0.206 F 
ATOM     69  C   UNL A   1      40.960  34.967  39.335  1.00  0.00     0.022 A 
BRANCH  66  70
ATOM     70  S   UNL A   1      39.190  33.384  40.801  1.00  0.00     0.124 S 
ATOM     71  O   UNL A   1      37.900  33.452  40.120  1.00  0.00    -0.237 OA
ATOM     72  O   UNL A   1      39.607  32.060  41.248  1.00  0.00    -0.237 OA
ATOM     73  O   UNL A   1      39.447  34.471  41.744  1.00  0.00    -0.744 OA
ENDBRANCH  66  70
ENDBRANCH  49  63
BRANCH  50  74
ATOM     74  C   UNL A   1      40.929  27.364  28.956  1.00  0.00     0.023 A 
ATOM     75  C   UNL A   1      41.862  27.620  27.939  1.00  0.00     0.031 A 
ATOM     76  C   UNL A   1      39.987  26.342  28.743  1.00  0.00     0.131 A 
ATOM     77  C   UNL A   1      41.805  26.901  26.735  1.00  0.00     0.055 A 
ATOM     78  C   UNL A   1      39.964  25.595  27.563  1.00  0.00     0.041 A 
ATOM     79  F   UNL A   1      39.080  26.047  29.687  1.00  0.00    -0.206 F 
ATOM     80  C   UNL A   1      40.868  25.883  26.544  1.00  0.00     0.022 A 
BRANCH  77  81
ATOM     81  S   UNL A   1      42.925  27.370  25.388  1.00  0.00     0.124 S 
ATOM     82  O   UNL A   1      42.175  28.435  24.734  1.00  0.00    -0.237 OA
ATOM     83  O   UNL A   1      44.120  27.781  26.120  1.00  0.00    -0.237 OA
ATOM     84  O   UNL A   1      43.065  26.137  24.616  1.00  0.00    -0.744 OA
ENDBRANCH  77  81
ENDBRANCH  50  74
BRANCH  62  85
ATOM     85  C   UNL A   1      44.956  27.481  34.647  1.00  0.00     0.023 A 
ATOM     86  C   UNL A   1      44.749  26.346  35.448  1.00  0.00     0.031 A 
ATOM     87  C   UNL A   1      46.271  27.793  34.258  1.00  0.00     0.131 A 
ATOM     88  C   UNL A   1      45.848  25.589  35.880  1.00  0.00     0.055 A 
ATOM     89  C   UNL A   1      47.355  27.004  34.644  1.00  0.00     0.041 A 
ATOM     90  F   UNL A   1      46.522  28.867  33.492  1.00  0.00    -0.206 F 
ATOM     91  C   UNL A   1      47.148  25.902  35.470  1.00  0.00     0.022 A 
BRANCH  88  92
ATOM     92  S   UNL A   1      45.564  24.239  37.056  1.00  0.00     0.124 S 
ATOM     93  O   UNL A   1      44.388  24.710  37.780  1.00  0.00    -0.237 OA
ATOM     94  O   UNL A   1      45.353  23.097  36.172  1.00  0.00    -0.237 OA
ATOM     95  O   UNL A   1      46.800  24.199  37.835  1.00  0.00    -0.744 OA
ENDBRANCH  88  92
ENDBRANCH  62  85
ENDBRANCH  36  37
ENDBRANCH  28  31
ENDBRANCH  26  27
ENDBRANCH  25  26
ENDBRANCH   1  25
TORSDOF 19
ENDMDL
MODEL 3
REMARK VINA RESULT:     -11.3      4.991      8.442
REMARK SMILES CC(=O)N[C@H](C(=O)NC1(CC(=O)NCCCCNC(=O)c2ccc(-c3c4nc(c(-c5cc(S(=O)(=O)[O-])ccc5F)c5ccc([nH]5)c(-c5cc(S(=O)(=O)[O-])ccc5F)c5nc(c(-c6cc(S(=O)(=O)[O-])ccc6F)c6ccc3[nH]6)C=C5)C=C4)cc2)CCC1)C(C)C
REMARK SMILES IDX 15 1 14 2 13 3 11 4 12 5 10 7 9 8 84 9 86 10 85 11 8 12 6 13
REMARK SMILES IDX 7 14 5 16 4 17 1 18 2 19 3 20 87 22 88 23 89 24 16 25 17 26
REMARK SMILES IDX 18 27 19 28 20 30 21 31 22 32 83 33 23 34 82 35 24 36 25 37
REMARK SMILES IDX 26 38 76 39 27 40 81 41 75 42 77 43 28 44 80 45 74 46 73 47
REMARK SMILES IDX 29 49 61 50 41 51 60 52 42 53 45 54 59 55 78 56 43 57 44 58
REMARK SMILES IDX 58 60 79 61 46 62 30 63 31 64 39 65 32 66 38 67 40 68 37 69
REMARK SMILES IDX 33 70 34 71 35 72 36 73 62 74 63 75 71 76 64 77 70 78 72 79
REMARK SMILES IDX 69 80 65 81 66 82 67 83 68 84 47 85 48 86 56 87 49 88 55 89
REMARK SMILES IDX 57 90 54 91 50 92 51 93 52 94 53 95
REMARK H PARENT 13 6 8 15 4 21 18 29 77 48 45 59
REMARK Flexibility Score: inf
ROOT
ATOM      1  C   UNL A   1      31.419  28.997  25.666  1.00  0.00     0.023 C 
ENDROOT
BRANCH   1   2
ATOM      2  C   UNL A   1      31.827  28.307  26.972  1.00  0.00     0.116 C 
BRANCH   2   3
ATOM      3  N   UNL A   1      31.252  26.983  27.028  1.00  0.00    -0.356 N 
ATOM      4  C   UNL A   1      31.721  25.811  26.523  1.00  0.00     0.222 C 
ATOM      5  O   UNL A   1      30.946  24.854  26.491  1.00  0.00    -0.275 OA
ATOM      6  H   UNL A   1      30.391  26.919  27.500  1.00  0.00     0.163 HD
BRANCH   4   7
ATOM      7  C   UNL A   1      33.153  25.672  26.023  1.00  0.00     0.128 C 
BRANCH   7   8
ATOM      8  C   UNL A   1      33.530  24.334  25.340  1.00  0.00     0.049 C 
ATOM      9  C   UNL A   1      34.748  24.280  24.337  1.00  0.00     0.029 C 
ATOM     10  C   UNL A   1      32.698  24.052  24.045  1.00  0.00     0.029 C 
ATOM     11  C   UNL A   1      33.804  24.729  23.228  1.00  0.00     0.005 C 
BRANCH   8  12
ATOM     12  N   UNL A   1      33.450  23.236  26.351  1.00  0.00    -0.348 N 
ATOM     13  C   UNL A   1      34.010  21.981  26.374  1.00  0.00     0.243 C 
ATOM     14  O   UNL A   1      34.284  21.490  27.474  1.00  0.00    -0.273 OA
ATOM     15  H   UNL A   1      32.898  23.450  27.138  1.00  0.00     0.164 HD
BRANCH  13  16
ATOM     16  C   UNL A   1      34.171  21.152  25.089  1.00  0.00     0.173 C 
BRANCH  16  17
ATOM     17  N   UNL A   1      35.290  20.206  25.215  1.00  0.00    -0.344 N 
ATOM     18  C   UNL A   1      37.100  21.705  24.463  1.00  0.00     0.114 C 
ATOM     19  C   UNL A   1      36.609  20.364  24.917  1.00  0.00     0.217 C 
ATOM     20  O   UNL A   1      37.372  19.403  24.996  1.00  0.00    -0.275 OA
ATOM     21  H   UNL A   1      35.047  19.321  25.572  1.00  0.00     0.164 HD
ENDBRANCH  16  17
BRANCH  16  22
ATOM     22  C   UNL A   1      32.857  20.358  24.801  1.00  0.00     0.015 C 
ATOM     23  C   UNL A   1      32.330  20.458  23.362  1.00  0.00     0.010 C 
ATOM     24  C   UNL A   1      33.052  18.877  25.145  1.00  0.00     0.010 C 
ENDBRANCH  16  22
ENDBRANCH  13  16
ENDBRANCH   8  12
ENDBRANCH   7   8
ENDBRANCH   4   7
ENDBRANCH   2   3
ENDBRANCH   1   2
BRANCH   1  25
ATOM     25  C   UNL A   1      31.359  30.507  25.721  1.00  0.00     0.023 C 
BRANCH  25  26
ATOM     26  C   UNL A   1      32.411  31.119  26.630  1.00  0.00     0.116 C 
BRANCH  26  27
ATOM     27  N   UNL A   1      32.168  32.510  27.017  1.00  0.00    -0.352 N 
ATOM     28  C   UNL A   1      33.009  33.353  27.713  1.00  0.00     0.251 C 
ATOM     29  H   UNL A   1      31.300  32.889  26.748  1.00  0.00     0.163 HD
ATOM     30  O   UNL A   1      32.660  34.481  28.023  1.00  0.00    -0.269 OA
BRANCH  28  31
ATOM     31  C   UNL A   1      34.322  32.810  28.105  1.00  0.00     0.039 A 
ATOM     32  C   UNL A   1      35.403  33.677  28.253  1.00  0.00     0.014 A 
ATOM     33  C   UNL A   1      34.395  31.480  28.519  1.00  0.00     0.014 A 
ATOM     34  C   UNL A   1      36.541  33.225  28.920  1.00  0.00     0.010 A 
ATOM     35  C   UNL A   1      35.465  31.083  29.301  1.00  0.00     0.010 A 
ATOM     36  C   UNL A   1      36.557  31.944  29.496  1.00  0.00    -0.014 A 
BRANCH  36  37
ATOM     37  C   UNL A   1      37.721  31.439  30.265  1.00  0.00     0.031 A 
ATOM     38  C   UNL A   1      38.625  30.424  29.618  1.00  0.00     0.074 A 
ATOM     39  C   UNL A   1      37.902  31.805  31.549  1.00  0.00     0.049 A 
ATOM     40  N   UNL A   1      39.590  29.717  30.142  1.00  0.00    -0.248 NA
ATOM     41  C   UNL A   1      38.355  30.115  28.204  1.00  0.00     0.031 C 
ATOM     42  C   UNL A   1      37.048  32.728  32.303  1.00  0.00     0.029 A 
ATOM     43  N   UNL A   1      38.863  31.434  32.454  1.00  0.00    -0.354 N 
ATOM     44  C   UNL A   1      40.006  28.850  29.136  1.00  0.00     0.074 A 
ATOM     45  C   UNL A   1      39.125  29.057  28.009  1.00  0.00     0.031 C 
ATOM     46  C   UNL A   1      37.548  32.880  33.541  1.00  0.00     0.029 A 
ATOM     47  C   UNL A   1      38.729  32.035  33.685  1.00  0.00     0.049 A 
ATOM     48  H   UNL A   1      39.585  30.798  32.243  1.00  0.00     0.167 HD
ATOM     49  C   UNL A   1      41.053  27.991  29.137  1.00  0.00     0.034 A 
ATOM     50  C   UNL A   1      39.477  31.912  34.799  1.00  0.00     0.034 A 
ATOM     51  C   UNL A   1      41.954  27.852  30.250  1.00  0.00     0.049 A 
ATOM     52  C   UNL A   1      40.672  30.990  34.762  1.00  0.00     0.074 A 
ATOM     53  C   UNL A   1      43.092  27.071  30.350  1.00  0.00     0.029 A 
ATOM     54  N   UNL A   1      41.825  28.526  31.458  1.00  0.00    -0.354 N 
ATOM     55  N   UNL A   1      41.083  30.210  33.789  1.00  0.00    -0.248 NA
ATOM     56  C   UNL A   1      41.510  30.946  35.966  1.00  0.00     0.031 C 
ATOM     57  C   UNL A   1      43.624  27.241  31.633  1.00  0.00     0.029 A 
ATOM     58  C   UNL A   1      42.856  28.174  32.311  1.00  0.00     0.049 A 
ATOM     59  H   UNL A   1      41.105  29.161  31.675  1.00  0.00     0.167 HD
ATOM     60  C   UNL A   1      42.249  29.609  34.252  1.00  0.00     0.074 A 
ATOM     61  C   UNL A   1      42.480  30.127  35.586  1.00  0.00     0.031 C 
ATOM     62  C   UNL A   1      43.062  28.713  33.635  1.00  0.00     0.034 A 
BRANCH  49  63
ATOM     63  C   UNL A   1      41.257  27.151  27.897  1.00  0.00     0.023 A 
ATOM     64  C   UNL A   1      40.850  25.806  27.844  1.00  0.00     0.031 A 
ATOM     65  C   UNL A   1      41.931  27.677  26.781  1.00  0.00     0.131 A 
ATOM     66  C   UNL A   1      41.211  25.006  26.751  1.00  0.00     0.055 A 
ATOM     67  C   UNL A   1      42.201  26.900  25.652  1.00  0.00     0.041 A 
ATOM     68  F   UNL A   1      42.364  28.948  26.780  1.00  0.00    -0.206 F 
ATOM     69  C   UNL A   1      41.860  25.551  25.640  1.00  0.00     0.022 A 
BRANCH  66  70
ATOM     70  S   UNL A   1      40.978  23.212  26.881  1.00  0.00     0.124 S 
ATOM     71  O   UNL A   1      39.536  23.089  26.680  1.00  0.00    -0.237 OA
ATOM     72  O   UNL A   1      41.818  22.705  25.803  1.00  0.00    -0.237 OA
ATOM     73  O   UNL A   1      41.441  22.903  28.232  1.00  0.00    -0.744 OA
ENDBRANCH  66  70
ENDBRANCH  49  63
BRANCH  50  74
ATOM     74  C   UNL A   1      39.143  32.683  36.030  1.00  0.00     0.023 A 
ATOM     75  C   UNL A   1      39.618  33.992  36.210  1.00  0.00     0.031 A 
ATOM     76  C   UNL A   1      38.379  32.113  37.063  1.00  0.00     0.131 A 
ATOM     77  C   UNL A   1      39.368  34.671  37.413  1.00  0.00     0.055 A 
ATOM     78  C   UNL A   1      38.092  32.809  38.239  1.00  0.00     0.041 A 
ATOM     79  F   UNL A   1      37.891  30.868  36.939  1.00  0.00    -0.206 F 
ATOM     80  C   UNL A   1      38.600  34.092  38.424  1.00  0.00     0.022 A 
BRANCH  77  81
ATOM     81  S   UNL A   1      40.132  36.297  37.667  1.00  0.00     0.124 S 
ATOM     82  O   UNL A   1      41.395  35.937  38.299  1.00  0.00    -0.237 OA
ATOM     83  O   UNL A   1      40.219  36.806  36.302  1.00  0.00    -0.237 OA
ATOM     84  O   UNL A   1      39.176  36.990  38.528  1.00  0.00    -0.744 OA
ENDBRANCH  77  81
ENDBRANCH  50  74
BRANCH  62  85
ATOM     85  C   UNL A   1      44.301  28.290  34.380  1.00  0.00     0.023 A 
ATOM     86  C   UNL A   1      44.300  27.185  35.248  1.00  0.00     0.031 A 
ATOM     87  C   UNL A   1      45.498  29.008  34.214  1.00  0.00     0.131 A 
ATOM     88  C   UNL A   1      45.463  26.860  35.960  1.00  0.00     0.055 A 
ATOM     89  C   UNL A   1      46.668  28.645  34.882  1.00  0.00     0.041 A 
ATOM     90  F   UNL A   1      45.551  30.070  33.395  1.00  0.00    -0.206 F 
ATOM     91  C   UNL A   1      46.651  27.573  35.771  1.00  0.00     0.022 A 
BRANCH  88  92
ATOM     92  S   UNL A   1      45.380  25.543  37.203  1.00  0.00     0.124 S 
ATOM     93  O   UNL A   1      44.488  26.124  38.202  1.00  0.00    -0.237 OA
ATOM     94  O   UNL A   1      44.837  24.426  36.437  1.00  0.00    -0.237 OA
ATOM     95  O   UNL A   1      46.769  25.385  37.628  1.00  0.00    -0.744 OA
ENDBRANCH  88  92
ENDBRANCH  62  85
ENDBRANCH  36  37
ENDBRANCH  28  31
ENDBRANCH  26  27
ENDBRANCH  25  26
ENDBRANCH   1  25
TORSDOF 19
ENDMDL
