MODEL 1
REMARK VINA RESULT:     -13.1      0.000      0.000
REMARK SMILES Cc1ccc(C(C)(C)C)c(OCC(=O)c2nc(C)c(C(=O)NCCCCNC(=O)c3ccc(-c4c5nc(c(-c6cc(S(=O)(=O)[O-])ccc6F)c6ccc([nH]6)c(-c6cc(S(=O)(=O)[O-])ccc6F)c6nc(c(-c7cc(S(=O)(=O)[O-])ccc7F)c7ccc4[nH]7)C=C6)C=C5)cc3)s2)c1
REMARK SMILES IDX 23 1 22 2 20 3 21 4 19 6 15 7 16 8 93 9 17 10 18 11 13 12
REMARK SMILES IDX 14 13 12 14 11 15 10 16 1 17 2 18 3 19 94 20 4 21 5 22 6 23
REMARK SMILES IDX 7 24 8 25 9 26 24 27 25 28 26 29 27 30 28 31 29 33 30 34
REMARK SMILES IDX 31 35 92 36 32 37 91 38 33 39 34 40 35 41 85 42 36 43 90 44
REMARK SMILES IDX 84 45 86 46 37 47 89 48 83 49 82 50 38 52 70 53 50 54 69 55
REMARK SMILES IDX 51 56 54 57 68 58 87 59 52 60 53 61 67 63 88 64 55 65 39 66
REMARK SMILES IDX 40 67 48 68 41 69 47 70 49 71 46 72 42 73 43 74 44 75 45 76
REMARK SMILES IDX 71 77 72 78 80 79 73 80 79 81 81 82 78 83 74 84 75 85 76 86
REMARK SMILES IDX 77 87 56 88 57 89 65 90 58 91 64 92 66 93 63 94 59 95 60 96
REMARK SMILES IDX 61 97 62 98
REMARK H PARENT 22 5 27 32 86 51 54 62
REMARK Flexibility Score: inf
ROOT
ATOM      1  C   UNL A   1      31.639  30.096  25.379  1.00  0.00     0.116 C 
ENDROOT
BRANCH   1   2
ATOM      2  N   UNL A   1      32.623  29.348  24.622  1.00  0.00    -0.351 N 
ATOM      3  C   UNL A   1      32.784  28.027  24.298  1.00  0.00     0.263 C 
ATOM      4  O   UNL A   1      33.795  27.842  23.600  1.00  0.00    -0.268 OA
ATOM      5  H   UNL A   1      33.339  29.919  24.261  1.00  0.00     0.163 HD
BRANCH   3   6
ATOM      6  C   UNL A   1      31.910  26.919  24.694  1.00  0.00     0.115 A 
ATOM      7  C   UNL A   1      31.265  24.825  25.842  1.00  0.00     0.164 A 
ATOM      8  N   UNL A   1      30.267  25.293  25.142  1.00  0.00    -0.237 NA
ATOM      9  S   UNL A   1      32.674  25.759  25.775  1.00  0.00    -0.105 S 
ATOM     10  C   UNL A   1      30.601  26.479  24.492  1.00  0.00     0.062 A 
ATOM     11  C   UNL A   1      29.465  27.024  23.710  1.00  0.00     0.068 C 
BRANCH   7  12
ATOM     12  C   UNL A   1      31.122  23.591  26.597  1.00  0.00     0.228 C 
ATOM     13  O   UNL A   1      30.181  23.374  27.371  1.00  0.00    -0.288 OA
BRANCH  12  14
ATOM     14  C   UNL A   1      32.252  22.556  26.542  1.00  0.00     0.313 C 
BRANCH  14  15
ATOM     15  O   UNL A   1      32.814  22.122  25.324  1.00  0.00    -0.485 OA
BRANCH  15  16
ATOM     16  C   UNL A   1      34.152  21.867  25.236  1.00  0.00     0.123 A 
ATOM     17  C   UNL A   1      37.512  23.634  25.683  1.00  0.00     0.044 C 
ATOM     18  C   UNL A   1      36.492  22.567  25.423  1.00  0.00    -0.047 A 
ATOM     19  C   UNL A   1      36.888  21.257  25.182  1.00  0.00     0.004 A 
ATOM     20  C   UNL A   1      35.126  22.866  25.410  1.00  0.00     0.050 A 
ATOM     21  C   UNL A   1      35.931  20.268  24.947  1.00  0.00     0.008 A 
ATOM     22  C   UNL A   1      34.540  20.534  24.973  1.00  0.00    -0.000 A 
BRANCH  22  23
ATOM     23  C   UNL A   1      33.576  19.349  24.700  1.00  0.00    -0.010 C 
ATOM     24  C   UNL A   1      34.413  18.138  24.224  1.00  0.00     0.016 C 
ATOM     25  C   UNL A   1      32.829  18.970  26.002  1.00  0.00     0.016 C 
ATOM     26  C   UNL A   1      32.481  19.556  23.629  1.00  0.00     0.016 C 
ENDBRANCH  22  23
ENDBRANCH  15  16
ENDBRANCH  14  15
ENDBRANCH  12  14
ENDBRANCH   7  12
ENDBRANCH   3   6
ENDBRANCH   1   2
BRANCH   1  27
ATOM     27  C   UNL A   1      31.999  30.158  26.870  1.00  0.00     0.023 C 
BRANCH  27  28
ATOM     28  C   UNL A   1      33.028  31.226  27.238  1.00  0.00     0.023 C 
BRANCH  28  29
ATOM     29  C   UNL A   1      34.315  30.642  27.806  1.00  0.00     0.116 C 
BRANCH  29  30
ATOM     30  N   UNL A   1      35.021  31.470  28.773  1.00  0.00    -0.352 N 
ATOM     31  C   UNL A   1      36.144  31.147  29.527  1.00  0.00     0.251 C 
ATOM     32  H   UNL A   1      34.658  32.374  28.910  1.00  0.00     0.163 HD
ATOM     33  O   UNL A   1      36.551  31.878  30.413  1.00  0.00    -0.269 OA
BRANCH  31  34
ATOM     34  C   UNL A   1      36.924  29.938  29.150  1.00  0.00     0.039 A 
ATOM     35  C   UNL A   1      37.203  29.010  30.160  1.00  0.00     0.014 A 
ATOM     36  C   UNL A   1      37.583  29.861  27.926  1.00  0.00     0.014 A 
ATOM     37  C   UNL A   1      38.313  28.177  30.034  1.00  0.00     0.010 A 
ATOM     38  C   UNL A   1      38.749  29.124  27.849  1.00  0.00     0.010 A 
ATOM     39  C   UNL A   1      39.149  28.328  28.926  1.00  0.00    -0.014 A 
BRANCH  39  40
ATOM     40  C   UNL A   1      40.515  27.814  28.887  1.00  0.00     0.031 A 
ATOM     41  C   UNL A   1      40.798  26.437  28.433  1.00  0.00     0.074 A 
ATOM     42  C   UNL A   1      41.553  28.587  29.274  1.00  0.00     0.049 A 
ATOM     43  N   UNL A   1      41.751  25.706  28.908  1.00  0.00    -0.248 NA
ATOM     44  C   UNL A   1      40.002  25.762  27.416  1.00  0.00     0.031 C 
ATOM     45  C   UNL A   1      42.978  28.305  29.110  1.00  0.00     0.029 A 
ATOM     46  N   UNL A   1      41.536  29.703  30.090  1.00  0.00    -0.354 N 
ATOM     47  C   UNL A   1      41.884  24.619  28.078  1.00  0.00     0.074 A 
ATOM     48  C   UNL A   1      40.726  24.656  27.214  1.00  0.00     0.031 C 
ATOM     49  C   UNL A   1      43.674  29.050  29.983  1.00  0.00     0.029 A 
ATOM     50  C   UNL A   1      42.717  29.740  30.830  1.00  0.00     0.049 A 
ATOM     51  H   UNL A   1      40.807  30.364  30.140  1.00  0.00     0.167 HD
ATOM     52  C   UNL A   1      43.030  23.883  28.083  1.00  0.00     0.034 A 
ATOM     53  C   UNL A   1      42.712  29.718  32.196  1.00  0.00     0.034 A 
ATOM     54  C   UNL A   1      44.026  24.414  29.009  1.00  0.00     0.049 A 
ATOM     55  C   UNL A   1      43.440  28.526  32.783  1.00  0.00     0.074 A 
ATOM     56  C   UNL A   1      45.149  25.201  28.816  1.00  0.00     0.029 A 
ATOM     57  N   UNL A   1      43.795  24.389  30.378  1.00  0.00    -0.354 N 
ATOM     58  N   UNL A   1      43.764  27.460  32.106  1.00  0.00    -0.248 NA
ATOM     59  C   UNL A   1      43.828  28.432  34.186  1.00  0.00     0.031 C 
ATOM     60  C   UNL A   1      45.577  25.678  30.078  1.00  0.00     0.029 A 
ATOM     61  C   UNL A   1      44.727  25.165  31.042  1.00  0.00     0.049 A 
ATOM     62  H   UNL A   1      43.069  23.888  30.816  1.00  0.00     0.167 HD
ATOM     63  C   UNL A   1      44.341  26.536  32.943  1.00  0.00     0.074 A 
ATOM     64  C   UNL A   1      44.388  27.209  34.229  1.00  0.00     0.031 C 
ATOM     65  C   UNL A   1      44.703  25.294  32.496  1.00  0.00     0.034 A 
BRANCH  52  66
ATOM     66  C   UNL A   1      43.353  22.895  26.988  1.00  0.00     0.023 A 
ATOM     67  C   UNL A   1      42.793  21.603  27.023  1.00  0.00     0.031 A 
ATOM     68  C   UNL A   1      44.228  23.152  25.916  1.00  0.00     0.131 A 
ATOM     69  C   UNL A   1      43.189  20.607  26.115  1.00  0.00     0.055 A 
ATOM     70  C   UNL A   1      44.669  22.147  25.045  1.00  0.00     0.041 A 
ATOM     71  F   UNL A   1      44.670  24.393  25.661  1.00  0.00    -0.206 F 
ATOM     72  C   UNL A   1      44.162  20.860  25.152  1.00  0.00     0.022 A 
BRANCH  69  73
ATOM     73  S   UNL A   1      42.407  18.973  26.209  1.00  0.00     0.124 S 
ATOM     74  O   UNL A   1      41.056  19.247  25.729  1.00  0.00    -0.237 OA
ATOM     75  O   UNL A   1      43.255  18.176  25.329  1.00  0.00    -0.237 OA
ATOM     76  O   UNL A   1      42.501  18.634  27.628  1.00  0.00    -0.744 OA
ENDBRANCH  69  73
ENDBRANCH  52  66
BRANCH  53  77
ATOM     77  C   UNL A   1      41.507  30.361  32.796  1.00  0.00     0.023 A 
ATOM     78  C   UNL A   1      41.496  31.771  32.854  1.00  0.00     0.031 A 
ATOM     79  C   UNL A   1      40.284  29.689  32.914  1.00  0.00     0.131 A 
ATOM     80  C   UNL A   1      40.279  32.467  32.836  1.00  0.00     0.055 A 
ATOM     81  C   UNL A   1      39.073  30.392  32.979  1.00  0.00     0.041 A 
ATOM     82  F   UNL A   1      40.227  28.352  32.833  1.00  0.00    -0.206 F 
ATOM     83  C   UNL A   1      39.065  31.785  32.892  1.00  0.00     0.022 A 
BRANCH  80  84
ATOM     84  S   UNL A   1      40.309  34.234  32.411  1.00  0.00     0.124 S 
ATOM     85  O   UNL A   1      38.919  34.492  32.059  1.00  0.00    -0.237 OA
ATOM     86  O   UNL A   1      40.780  34.848  33.651  1.00  0.00    -0.237 OA
ATOM     87  O   UNL A   1      41.269  34.313  31.314  1.00  0.00    -0.744 OA
ENDBRANCH  80  84
ENDBRANCH  53  77
BRANCH  65  88
ATOM     88  C   UNL A   1      45.155  24.119  33.346  1.00  0.00     0.023 A 
ATOM     89  C   UNL A   1      46.418  24.029  33.946  1.00  0.00     0.031 A 
ATOM     90  C   UNL A   1      44.270  23.049  33.640  1.00  0.00     0.131 A 
ATOM     91  C   UNL A   1      46.790  22.907  34.714  1.00  0.00     0.055 A 
ATOM     92  C   UNL A   1      44.614  21.971  34.463  1.00  0.00     0.041 A 
ATOM     93  F   UNL A   1      43.022  23.003  33.150  1.00  0.00    -0.206 F 
ATOM     94  C   UNL A   1      45.890  21.886  34.995  1.00  0.00     0.022 A 
BRANCH  91  95
ATOM     95  S   UNL A   1      48.506  22.789  35.286  1.00  0.00     0.124 S 
ATOM     96  O   UNL A   1      48.828  24.187  35.562  1.00  0.00    -0.237 OA
ATOM     97  O   UNL A   1      48.387  21.924  36.454  1.00  0.00    -0.237 OA
ATOM     98  O   UNL A   1      49.212  22.204  34.148  1.00  0.00    -0.744 OA
ENDBRANCH  91  95
ENDBRANCH  65  88
ENDBRANCH  39  40
ENDBRANCH  31  34
ENDBRANCH  29  30
ENDBRANCH  28  29
ENDBRANCH  27  28
ENDBRANCH   1  27
TORSDOF 19
ENDMDL
MODEL 2
REMARK VINA RESULT:     -12.3      3.989     10.598
REMARK SMILES Cc1ccc(C(C)(C)C)c(OCC(=O)c2nc(C)c(C(=O)NCCCCNC(=O)c3ccc(-c4c5nc(c(-c6cc(S(=O)(=O)[O-])ccc6F)c6ccc([nH]6)c(-c6cc(S(=O)(=O)[O-])ccc6F)c6nc(c(-c7cc(S(=O)(=O)[O-])ccc7F)c7ccc4[nH]7)C=C6)C=C5)cc3)s2)c1
REMARK SMILES IDX 23 1 22 2 20 3 21 4 19 6 15 7 16 8 93 9 17 10 18 11 13 12
REMARK SMILES IDX 14 13 12 14 11 15 10 16 1 17 2 18 3 19 94 20 4 21 5 22 6 23
REMARK SMILES IDX 7 24 8 25 9 26 24 27 25 28 26 29 27 30 28 31 29 33 30 34
REMARK SMILES IDX 31 35 92 36 32 37 91 38 33 39 34 40 35 41 85 42 36 43 90 44
REMARK SMILES IDX 84 45 86 46 37 47 89 48 83 49 82 50 38 52 70 53 50 54 69 55
REMARK SMILES IDX 51 56 54 57 68 58 87 59 52 60 53 61 67 63 88 64 55 65 39 66
REMARK SMILES IDX 40 67 48 68 41 69 47 70 49 71 46 72 42 73 43 74 44 75 45 76
REMARK SMILES IDX 71 77 72 78 80 79 73 80 79 81 81 82 78 83 74 84 75 85 76 86
REMARK SMILES IDX 77 87 56 88 57 89 65 90 58 91 64 92 66 93 63 94 59 95 60 96
REMARK SMILES IDX 61 97 62 98
REMARK H PARENT 22 5 27 32 86 51 54 62
REMARK Flexibility Score: inf
ROOT
ATOM      1  C   UNL A   1      38.074  22.092  25.806  1.00  0.00     0.116 C 
ENDROOT
BRANCH   1   2
ATOM      2  N   UNL A   1      37.639  22.441  24.468  1.00  0.00    -0.351 N 
ATOM      3  C   UNL A   1      36.420  22.640  23.877  1.00  0.00     0.263 C 
ATOM      4  O   UNL A   1      36.532  22.947  22.679  1.00  0.00    -0.268 OA
ATOM      5  H   UNL A   1      38.390  22.562  23.844  1.00  0.00     0.163 HD
BRANCH   3   6
ATOM      6  C   UNL A   1      35.108  22.518  24.518  1.00  0.00     0.115 A 
ATOM      7  C   UNL A   1      32.989  23.290  25.535  1.00  0.00     0.164 A 
ATOM      8  N   UNL A   1      33.045  21.985  25.522  1.00  0.00    -0.237 NA
ATOM      9  S   UNL A   1      34.337  24.061  24.865  1.00  0.00    -0.105 S 
ATOM     10  C   UNL A   1      34.226  21.524  24.944  1.00  0.00     0.062 A 
ATOM     11  C   UNL A   1      34.287  20.042  24.911  1.00  0.00     0.068 C 
BRANCH   7  12
ATOM     12  C   UNL A   1      31.835  23.972  26.098  1.00  0.00     0.228 C 
ATOM     13  O   UNL A   1      31.381  23.722  27.223  1.00  0.00    -0.288 OA
BRANCH  12  14
ATOM     14  C   UNL A   1      31.056  24.956  25.218  1.00  0.00     0.313 C 
BRANCH  14  15
ATOM     15  O   UNL A   1      30.548  26.172  25.719  1.00  0.00    -0.485 OA
BRANCH  15  16
ATOM     16  C   UNL A   1      31.305  27.307  25.669  1.00  0.00     0.123 A 
ATOM     17  C   UNL A   1      34.090  29.063  27.613  1.00  0.00     0.044 C 
ATOM     18  C   UNL A   1      33.067  28.756  26.561  1.00  0.00    -0.047 A 
ATOM     19  C   UNL A   1      32.935  29.577  25.448  1.00  0.00     0.004 A 
ATOM     20  C   UNL A   1      32.223  27.648  26.679  1.00  0.00     0.050 A 
ATOM     21  C   UNL A   1      31.984  29.281  24.469  1.00  0.00     0.008 A 
ATOM     22  C   UNL A   1      31.148  28.141  24.541  1.00  0.00    -0.000 A 
BRANCH  22  23
ATOM     23  C   UNL A   1      30.133  27.919  23.387  1.00  0.00    -0.010 C 
ATOM     24  C   UNL A   1      29.731  29.301  22.819  1.00  0.00     0.016 C 
ATOM     25  C   UNL A   1      30.790  27.080  22.265  1.00  0.00     0.016 C 
ATOM     26  C   UNL A   1      28.809  27.200  23.734  1.00  0.00     0.016 C 
ENDBRANCH  22  23
ENDBRANCH  15  16
ENDBRANCH  14  15
ENDBRANCH  12  14
ENDBRANCH   7  12
ENDBRANCH   3   6
ENDBRANCH   1   2
BRANCH   1  27
ATOM     27  C   UNL A   1      39.126  20.974  25.785  1.00  0.00     0.023 C 
BRANCH  27  28
ATOM     28  C   UNL A   1      40.279  21.158  26.771  1.00  0.00     0.023 C 
BRANCH  28  29
ATOM     29  C   UNL A   1      40.552  22.619  27.102  1.00  0.00     0.116 C 
BRANCH  29  30
ATOM     30  N   UNL A   1      41.743  23.200  26.499  1.00  0.00    -0.352 N 
ATOM     31  C   UNL A   1      41.980  24.530  26.170  1.00  0.00     0.251 C 
ATOM     32  H   UNL A   1      42.473  22.572  26.301  1.00  0.00     0.163 HD
ATOM     33  O   UNL A   1      42.963  24.865  25.532  1.00  0.00    -0.269 OA
BRANCH  31  34
ATOM     34  C   UNL A   1      41.068  25.568  26.721  1.00  0.00     0.039 A 
ATOM     35  C   UNL A   1      41.007  26.794  26.049  1.00  0.00     0.014 A 
ATOM     36  C   UNL A   1      40.514  25.437  27.991  1.00  0.00     0.014 A 
ATOM     37  C   UNL A   1      40.624  27.937  26.748  1.00  0.00     0.010 A 
ATOM     38  C   UNL A   1      40.249  26.581  28.718  1.00  0.00     0.010 A 
ATOM     39  C   UNL A   1      40.363  27.837  28.116  1.00  0.00    -0.014 A 
BRANCH  39  40
ATOM     40  C   UNL A   1      40.351  28.993  29.008  1.00  0.00     0.031 A 
ATOM     41  C   UNL A   1      39.228  29.952  28.997  1.00  0.00     0.074 A 
ATOM     42  C   UNL A   1      41.375  29.215  29.861  1.00  0.00     0.049 A 
ATOM     43  N   UNL A   1      39.362  31.218  29.220  1.00  0.00    -0.248 NA
ATOM     44  C   UNL A   1      37.855  29.558  28.704  1.00  0.00     0.031 C 
ATOM     45  C   UNL A   1      41.428  30.193  30.946  1.00  0.00     0.029 A 
ATOM     46  N   UNL A   1      42.670  28.739  29.791  1.00  0.00    -0.354 N 
ATOM     47  C   UNL A   1      38.102  31.736  29.396  1.00  0.00     0.074 A 
ATOM     48  C   UNL A   1      37.197  30.686  28.988  1.00  0.00     0.031 C 
ATOM     49  C   UNL A   1      42.711  30.423  31.265  1.00  0.00     0.029 A 
ATOM     50  C   UNL A   1      43.535  29.702  30.309  1.00  0.00     0.049 A 
ATOM     51  H   UNL A   1      42.939  27.862  29.432  1.00  0.00     0.167 HD
ATOM     52  C   UNL A   1      37.930  32.935  30.020  1.00  0.00     0.034 A 
ATOM     53  C   UNL A   1      44.536  30.250  29.559  1.00  0.00     0.034 A 
ATOM     54  C   UNL A   1      39.194  33.514  30.466  1.00  0.00     0.049 A 
ATOM     55  C   UNL A   1      44.412  31.750  29.390  1.00  0.00     0.074 A 
ATOM     56  C   UNL A   1      39.816  33.549  31.703  1.00  0.00     0.029 A 
ATOM     57  N   UNL A   1      40.141  33.931  29.539  1.00  0.00    -0.354 N 
ATOM     58  N   UNL A   1      43.326  32.428  29.638  1.00  0.00    -0.248 NA
ATOM     59  C   UNL A   1      45.493  32.596  28.895  1.00  0.00     0.031 C 
ATOM     60  C   UNL A   1      41.157  33.961  31.512  1.00  0.00     0.029 A 
ATOM     61  C   UNL A   1      41.346  34.197  30.162  1.00  0.00     0.049 A 
ATOM     62  H   UNL A   1      39.977  34.025  28.572  1.00  0.00     0.167 HD
ATOM     63  C   UNL A   1      43.517  33.747  29.309  1.00  0.00     0.074 A 
ATOM     64  C   UNL A   1      44.904  33.806  28.881  1.00  0.00     0.031 C 
ATOM     65  C   UNL A   1      42.502  34.661  29.402  1.00  0.00     0.034 A 
BRANCH  52  66
ATOM     66  C   UNL A   1      36.582  33.393  30.520  1.00  0.00     0.023 A 
ATOM     67  C   UNL A   1      35.691  34.040  29.640  1.00  0.00     0.031 A 
ATOM     68  C   UNL A   1      36.136  33.258  31.848  1.00  0.00     0.131 A 
ATOM     69  C   UNL A   1      34.496  34.618  30.101  1.00  0.00     0.055 A 
ATOM     70  C   UNL A   1      34.976  33.883  32.323  1.00  0.00     0.041 A 
ATOM     71  F   UNL A   1      36.800  32.494  32.730  1.00  0.00    -0.206 F 
ATOM     72  C   UNL A   1      34.156  34.585  31.450  1.00  0.00     0.022 A 
BRANCH  69  73
ATOM     73  S   UNL A   1      33.391  35.416  28.905  1.00  0.00     0.124 S 
ATOM     74  O   UNL A   1      34.325  36.159  28.064  1.00  0.00    -0.237 OA
ATOM     75  O   UNL A   1      32.734  34.271  28.283  1.00  0.00    -0.237 OA
ATOM     76  O   UNL A   1      32.524  36.243  29.743  1.00  0.00    -0.744 OA
ENDBRANCH  69  73
ENDBRANCH  52  66
BRANCH  53  77
ATOM     77  C   UNL A   1      45.086  29.318  28.531  1.00  0.00     0.023 A 
ATOM     78  C   UNL A   1      46.016  28.354  28.973  1.00  0.00     0.031 A 
ATOM     79  C   UNL A   1      44.446  29.100  27.305  1.00  0.00     0.131 A 
ATOM     80  C   UNL A   1      46.141  27.134  28.294  1.00  0.00     0.055 A 
ATOM     81  C   UNL A   1      44.638  27.912  26.586  1.00  0.00     0.041 A 
ATOM     82  F   UNL A   1      43.528  29.964  26.848  1.00  0.00    -0.206 F 
ATOM     83  C   UNL A   1      45.452  26.903  27.105  1.00  0.00     0.022 A 
BRANCH  80  84
ATOM     84  S   UNL A   1      46.952  25.754  29.155  1.00  0.00     0.124 S 
ATOM     85  O   UNL A   1      48.350  26.165  29.154  1.00  0.00    -0.237 OA
ATOM     86  O   UNL A   1      46.285  25.757  30.455  1.00  0.00    -0.237 OA
ATOM     87  O   UNL A   1      46.630  24.591  28.332  1.00  0.00    -0.744 OA
ENDBRANCH  80  84
ENDBRANCH  53  77
BRANCH  65  88
ATOM     88  C   UNL A   1      42.516  36.089  28.884  1.00  0.00     0.023 A 
ATOM     89  C   UNL A   1      43.172  37.148  29.528  1.00  0.00     0.031 A 
ATOM     90  C   UNL A   1      41.902  36.423  27.649  1.00  0.00     0.131 A 
ATOM     91  C   UNL A   1      43.140  38.458  29.010  1.00  0.00     0.055 A 
ATOM     92  C   UNL A   1      41.934  37.709  27.096  1.00  0.00     0.041 A 
ATOM     93  F   UNL A   1      41.249  35.513  26.910  1.00  0.00    -0.206 F 
ATOM     94  C   UNL A   1      42.543  38.743  27.786  1.00  0.00     0.022 A 
BRANCH  91  95
ATOM     95  S   UNL A   1      43.848  39.793  30.009  1.00  0.00     0.124 S 
ATOM     96  O   UNL A   1      42.651  40.504  30.453  1.00  0.00    -0.237 OA
ATOM     97  O   UNL A   1      44.570  39.061  31.043  1.00  0.00    -0.237 OA
ATOM     98  O   UNL A   1      44.688  40.526  29.063  1.00  0.00    -0.744 OA
ENDBRANCH  91  95
ENDBRANCH  65  88
ENDBRANCH  39  40
ENDBRANCH  31  34
ENDBRANCH  29  30
ENDBRANCH  28  29
ENDBRANCH  27  28
ENDBRANCH   1  27
TORSDOF 19
ENDMDL
MODEL 3
REMARK VINA RESULT:     -12.3      1.197      2.143
REMARK SMILES Cc1ccc(C(C)(C)C)c(OCC(=O)c2nc(C)c(C(=O)NCCCCNC(=O)c3ccc(-c4c5nc(c(-c6cc(S(=O)(=O)[O-])ccc6F)c6ccc([nH]6)c(-c6cc(S(=O)(=O)[O-])ccc6F)c6nc(c(-c7cc(S(=O)(=O)[O-])ccc7F)c7ccc4[nH]7)C=C6)C=C5)cc3)s2)c1
REMARK SMILES IDX 23 1 22 2 20 3 21 4 19 6 15 7 16 8 93 9 17 10 18 11 13 12
REMARK SMILES IDX 14 13 12 14 11 15 10 16 1 17 2 18 3 19 94 20 4 21 5 22 6 23
REMARK SMILES IDX 7 24 8 25 9 26 24 27 25 28 26 29 27 30 28 31 29 33 30 34
REMARK SMILES IDX 31 35 92 36 32 37 91 38 33 39 34 40 35 41 85 42 36 43 90 44
REMARK SMILES IDX 84 45 86 46 37 47 89 48 83 49 82 50 38 52 70 53 50 54 69 55
REMARK SMILES IDX 51 56 54 57 68 58 87 59 52 60 53 61 67 63 88 64 55 65 39 66
REMARK SMILES IDX 40 67 48 68 41 69 47 70 49 71 46 72 42 73 43 74 44 75 45 76
REMARK SMILES IDX 71 77 72 78 80 79 73 80 79 81 81 82 78 83 74 84 75 85 76 86
REMARK SMILES IDX 77 87 56 88 57 89 65 90 58 91 64 92 66 93 63 94 59 95 60 96
REMARK SMILES IDX 61 97 62 98
REMARK H PARENT 22 5 27 32 86 51 54 62
REMARK Flexibility Score: inf
ROOT
ATOM      1  C   UNL A   1      31.755  30.679  26.274  1.00  0.00     0.116 C 
ENDROOT
BRANCH   1   2
ATOM      2  N   UNL A   1      31.584  29.430  26.992  1.00  0.00    -0.351 N 
ATOM      3  C   UNL A   1      31.508  28.114  26.623  1.00  0.00     0.263 C 
ATOM      4  O   UNL A   1      31.371  27.366  27.605  1.00  0.00    -0.268 OA
ATOM      5  H   UNL A   1      31.503  29.560  27.964  1.00  0.00     0.163 HD
BRANCH   3   6
ATOM      6  C   UNL A   1      31.573  27.585  25.257  1.00  0.00     0.115 A 
ATOM      7  C   UNL A   1      32.475  26.279  23.360  1.00  0.00     0.164 A 
ATOM      8  N   UNL A   1      31.384  26.906  23.010  1.00  0.00    -0.237 NA
ATOM      9  S   UNL A   1      32.945  26.523  24.967  1.00  0.00    -0.105 S 
ATOM     10  C   UNL A   1      30.849  27.643  24.065  1.00  0.00     0.062 A 
ATOM     11  C   UNL A   1      29.600  28.342  23.678  1.00  0.00     0.068 C 
BRANCH   7  12
ATOM     12  C   UNL A   1      33.192  25.454  22.401  1.00  0.00     0.228 C 
ATOM     13  O   UNL A   1      33.959  25.918  21.547  1.00  0.00    -0.288 OA
BRANCH  12  14
ATOM     14  C   UNL A   1      32.890  23.952  22.347  1.00  0.00     0.313 C 
BRANCH  14  15
ATOM     15  O   UNL A   1      33.575  23.019  23.153  1.00  0.00    -0.485 OA
BRANCH  15  16
ATOM     16  C   UNL A   1      33.290  22.919  24.483  1.00  0.00     0.123 A 
ATOM     17  C   UNL A   1      30.282  22.800  26.840  1.00  0.00     0.044 C 
ATOM     18  C   UNL A   1      31.694  22.785  26.337  1.00  0.00    -0.047 A 
ATOM     19  C   UNL A   1      32.751  22.566  27.212  1.00  0.00     0.004 A 
ATOM     20  C   UNL A   1      31.979  22.997  24.984  1.00  0.00     0.050 A 
ATOM     21  C   UNL A   1      34.063  22.547  26.735  1.00  0.00     0.008 A 
ATOM     22  C   UNL A   1      34.376  22.714  25.364  1.00  0.00    -0.000 A 
BRANCH  22  23
ATOM     23  C   UNL A   1      35.873  22.669  24.957  1.00  0.00    -0.010 C 
ATOM     24  C   UNL A   1      36.671  23.568  25.932  1.00  0.00     0.016 C 
ATOM     25  C   UNL A   1      36.401  21.217  25.058  1.00  0.00     0.016 C 
ATOM     26  C   UNL A   1      36.239  23.154  23.536  1.00  0.00     0.016 C 
ENDBRANCH  22  23
ENDBRANCH  15  16
ENDBRANCH  14  15
ENDBRANCH  12  14
ENDBRANCH   7  12
ENDBRANCH   3   6
ENDBRANCH   1   2
BRANCH   1  27
ATOM     27  C   UNL A   1      32.812  31.573  26.938  1.00  0.00     0.023 C 
BRANCH  27  28
ATOM     28  C   UNL A   1      33.977  30.821  27.581  1.00  0.00     0.023 C 
BRANCH  28  29
ATOM     29  C   UNL A   1      35.218  31.684  27.759  1.00  0.00     0.116 C 
BRANCH  29  30
ATOM     30  N   UNL A   1      35.576  32.014  29.131  1.00  0.00    -0.352 N 
ATOM     31  C   UNL A   1      36.299  31.250  30.041  1.00  0.00     0.251 C 
ATOM     32  H   UNL A   1      35.268  32.891  29.456  1.00  0.00     0.163 HD
ATOM     33  O   UNL A   1      36.404  31.578  31.210  1.00  0.00    -0.269 OA
BRANCH  31  34
ATOM     34  C   UNL A   1      37.055  30.075  29.532  1.00  0.00     0.039 A 
ATOM     35  C   UNL A   1      37.277  29.017  30.422  1.00  0.00     0.014 A 
ATOM     36  C   UNL A   1      37.748  30.133  28.327  1.00  0.00     0.014 A 
ATOM     37  C   UNL A   1      38.366  28.171  30.219  1.00  0.00     0.010 A 
ATOM     38  C   UNL A   1      38.895  29.375  28.186  1.00  0.00     0.010 A 
ATOM     39  C   UNL A   1      39.240  28.436  29.162  1.00  0.00    -0.014 A 
BRANCH  39  40
ATOM     40  C   UNL A   1      40.591  27.887  29.093  1.00  0.00     0.031 A 
ATOM     41  C   UNL A   1      40.831  26.513  28.608  1.00  0.00     0.074 A 
ATOM     42  C   UNL A   1      41.654  28.626  29.481  1.00  0.00     0.049 A 
ATOM     43  N   UNL A   1      41.772  25.748  29.055  1.00  0.00    -0.248 NA
ATOM     44  C   UNL A   1      40.004  25.879  27.589  1.00  0.00     0.031 C 
ATOM     45  C   UNL A   1      43.068  28.310  29.290  1.00  0.00     0.029 A 
ATOM     46  N   UNL A   1      41.677  29.725  30.318  1.00  0.00    -0.354 N 
ATOM     47  C   UNL A   1      41.864  24.675  28.201  1.00  0.00     0.074 A 
ATOM     48  C   UNL A   1      40.696  24.760  27.355  1.00  0.00     0.031 C 
ATOM     49  C   UNL A   1      43.796  29.019  30.167  1.00  0.00     0.029 A 
ATOM     50  C   UNL A   1      42.869  29.716  31.042  1.00  0.00     0.049 A 
ATOM     51  H   UNL A   1      40.967  30.403  30.392  1.00  0.00     0.167 HD
ATOM     52  C   UNL A   1      42.991  23.909  28.175  1.00  0.00     0.034 A 
ATOM     53  C   UNL A   1      42.883  29.666  32.407  1.00  0.00     0.034 A 
ATOM     54  C   UNL A   1      44.013  24.396  29.096  1.00  0.00     0.049 A 
ATOM     55  C   UNL A   1      43.588  28.445  32.959  1.00  0.00     0.074 A 
ATOM     56  C   UNL A   1      45.154  25.157  28.903  1.00  0.00     0.029 A 
ATOM     57  N   UNL A   1      43.801  24.349  30.469  1.00  0.00    -0.354 N 
ATOM     58  N   UNL A   1      43.875  27.384  32.257  1.00  0.00    -0.248 NA
ATOM     59  C   UNL A   1      43.992  28.312  34.355  1.00  0.00     0.031 C 
ATOM     60  C   UNL A   1      45.612  25.598  30.168  1.00  0.00     0.029 A 
ATOM     61  C   UNL A   1      44.762  25.088  31.134  1.00  0.00     0.049 A 
ATOM     62  H   UNL A   1      43.068  23.859  30.907  1.00  0.00     0.167 HD
ATOM     63  C   UNL A   1      44.438  26.430  33.067  1.00  0.00     0.074 A 
ATOM     64  C   UNL A   1      44.521  27.075  34.366  1.00  0.00     0.031 C 
ATOM     65  C   UNL A   1      44.762  25.188  32.590  1.00  0.00     0.034 A 
BRANCH  52  66
ATOM     66  C   UNL A   1      43.273  22.936  27.056  1.00  0.00     0.023 A 
ATOM     67  C   UNL A   1      42.725  21.639  27.103  1.00  0.00     0.031 A 
ATOM     68  C   UNL A   1      44.097  23.211  25.949  1.00  0.00     0.131 A 
ATOM     69  C   UNL A   1      43.088  20.656  26.166  1.00  0.00     0.055 A 
ATOM     70  C   UNL A   1      44.507  22.220  25.048  1.00  0.00     0.041 A 
ATOM     71  F   UNL A   1      44.517  24.459  25.688  1.00  0.00    -0.206 F 
ATOM     72  C   UNL A   1      44.015  20.927  25.164  1.00  0.00     0.022 A 
BRANCH  69  73
ATOM     73  S   UNL A   1      42.325  19.015  26.278  1.00  0.00     0.124 S 
ATOM     74  O   UNL A   1      43.163  18.220  25.384  1.00  0.00    -0.237 OA
ATOM     75  O   UNL A   1      42.440  18.719  27.702  1.00  0.00    -0.237 OA
ATOM     76  O   UNL A   1      40.961  19.242  25.803  1.00  0.00    -0.744 OA
ENDBRANCH  69  73
ENDBRANCH  52  66
BRANCH  53  77
ATOM     77  C   UNL A   1      41.703  30.329  33.037  1.00  0.00     0.023 A 
ATOM     78  C   UNL A   1      41.723  31.737  33.109  1.00  0.00     0.031 A 
ATOM     79  C   UNL A   1      40.470  29.681  33.173  1.00  0.00     0.131 A 
ATOM     80  C   UNL A   1      40.521  32.458  33.121  1.00  0.00     0.055 A 
ATOM     81  C   UNL A   1      39.275  30.407  33.270  1.00  0.00     0.041 A 
ATOM     82  F   UNL A   1      40.383  28.346  33.081  1.00  0.00    -0.206 F 
ATOM     83  C   UNL A   1      39.294  31.801  33.195  1.00  0.00     0.022 A 
BRANCH  80  84
ATOM     84  S   UNL A   1      40.578  34.228  32.712  1.00  0.00     0.124 S 
ATOM     85  O   UNL A   1      39.227  34.666  33.036  1.00  0.00    -0.237 OA
ATOM     86  O   UNL A   1      41.638  34.720  33.590  1.00  0.00    -0.237 OA
ATOM     87  O   UNL A   1      40.932  34.248  31.296  1.00  0.00    -0.744 OA
ENDBRANCH  80  84
ENDBRANCH  53  77
BRANCH  65  88
ATOM     88  C   UNL A   1      45.194  23.984  33.410  1.00  0.00     0.023 A 
ATOM     89  C   UNL A   1      46.467  23.844  33.980  1.00  0.00     0.031 A 
ATOM     90  C   UNL A   1      44.283  22.937  33.706  1.00  0.00     0.131 A 
ATOM     91  C   UNL A   1      46.820  22.698  34.721  1.00  0.00     0.055 A 
ATOM     92  C   UNL A   1      44.610  21.835  34.503  1.00  0.00     0.041 A 
ATOM     93  F   UNL A   1      43.024  22.939  33.243  1.00  0.00    -0.206 F 
ATOM     94  C   UNL A   1      45.894  21.701  35.005  1.00  0.00     0.022 A 
BRANCH  91  95
ATOM     95  S   UNL A   1      48.543  22.517  35.252  1.00  0.00     0.124 S 
ATOM     96  O   UNL A   1      48.585  23.374  36.434  1.00  0.00    -0.237 OA
ATOM     97  O   UNL A   1      48.643  21.083  35.506  1.00  0.00    -0.237 OA
ATOM     98  O   UNL A   1      49.312  23.000  34.108  1.00  0.00    -0.744 OA
ENDBRANCH  91  95
ENDBRANCH  65  88
ENDBRANCH  39  40
ENDBRANCH  31  34
ENDBRANCH  29  30
ENDBRANCH  28  29
ENDBRANCH  27  28
ENDBRANCH   1  27
TORSDOF 19
ENDMDL
