MODEL 1
REMARK VINA RESULT:     -12.0      0.000      0.000
REMARK SMILES O=C(NCCCCNC(=O)c1cccc(-c2ccc(/C=N\O)o2)c1)c1ccc(-c2c3nc(c(-c4cc(S(=O)(=O)[O-])ccc4F)c4ccc([nH]4)c(-c4cc(S(=O)(=O)[O-])ccc4F)c4nc(c(-c5cc(S(=O)(=O)[O-])ccc5F)c5ccc2[nH]5)C=C4)C=C3)cc1
REMARK SMILES IDX 5 1 4 2 3 3 1 4 2 5 25 7 26 8 87 9 27 10 86 11 28 12 29 13
REMARK SMILES IDX 30 14 80 15 31 16 85 17 79 18 81 19 32 20 84 21 78 22 77 23
REMARK SMILES IDX 33 25 65 26 45 27 64 28 46 29 49 30 63 31 82 32 47 33 48 34
REMARK SMILES IDX 62 36 83 37 50 38 34 39 35 40 43 41 36 42 42 43 44 44 41 45
REMARK SMILES IDX 37 46 38 47 39 48 40 49 66 50 67 51 75 52 68 53 74 54 76 55
REMARK SMILES IDX 73 56 69 57 70 58 71 59 72 60 51 61 52 62 60 63 53 64 59 65
REMARK SMILES IDX 61 66 58 67 54 68 55 69 56 70 57 71 6 72 7 73 8 74 9 75
REMARK SMILES IDX 10 77 11 78 12 79 24 80 13 81 15 82 14 83 16 84 17 85 23 86
REMARK SMILES IDX 18 87 19 88 20 89 21 90 22 91
REMARK H PARENT 3 6 81 24 49 35 8 76 22 92
REMARK Flexibility Score: inf
ROOT
ATOM      1  C   UNL A   1      32.794  27.723  25.138  1.00  0.00     0.023 C 
ENDROOT
BRANCH   1   2
ATOM      2  C   UNL A   1      33.627  28.992  25.045  1.00  0.00     0.116 C 
BRANCH   2   3
ATOM      3  N   UNL A   1      32.949  30.163  25.587  1.00  0.00    -0.352 N 
ATOM      4  O   UNL A   1      32.491  31.777  27.097  1.00  0.00    -0.269 OA
ATOM      5  C   UNL A   1      33.255  30.899  26.709  1.00  0.00     0.251 C 
ATOM      6  H   UNL A   1      32.163  30.469  25.080  1.00  0.00     0.163 HD
BRANCH   5   7
ATOM      7  C   UNL A   1      34.498  30.605  27.454  1.00  0.00     0.039 A 
ATOM      8  C   UNL A   1      34.713  29.333  27.987  1.00  0.00     0.014 A 
ATOM      9  C   UNL A   1      35.444  31.616  27.645  1.00  0.00     0.014 A 
ATOM     10  C   UNL A   1      35.780  29.119  28.848  1.00  0.00     0.010 A 
ATOM     11  C   UNL A   1      36.577  31.364  28.427  1.00  0.00     0.010 A 
ATOM     12  C   UNL A   1      36.739  30.122  29.061  1.00  0.00    -0.014 A 
BRANCH  12  13
ATOM     13  C   UNL A   1      37.932  29.816  29.893  1.00  0.00     0.031 A 
ATOM     14  C   UNL A   1      39.054  28.961  29.371  1.00  0.00     0.074 A 
ATOM     15  C   UNL A   1      38.006  30.352  31.128  1.00  0.00     0.049 A 
ATOM     16  N   UNL A   1      40.160  28.598  29.970  1.00  0.00    -0.248 NA
ATOM     17  C   UNL A   1      38.915  28.438  28.005  1.00  0.00     0.031 C 
ATOM     18  C   UNL A   1      36.977  31.201  31.735  1.00  0.00     0.029 A 
ATOM     19  N   UNL A   1      38.985  30.286  32.085  1.00  0.00    -0.354 N 
ATOM     20  C   UNL A   1      40.846  27.798  29.064  1.00  0.00     0.074 A 
ATOM     21  C   UNL A   1      40.007  27.696  27.886  1.00  0.00     0.031 C 
ATOM     22  C   UNL A   1      37.400  31.618  32.936  1.00  0.00     0.029 A 
ATOM     23  C   UNL A   1      38.686  30.996  33.225  1.00  0.00     0.049 A 
ATOM     24  H   UNL A   1      39.821  29.780  31.968  1.00  0.00     0.167 HD
ATOM     25  C   UNL A   1      42.063  27.212  29.201  1.00  0.00     0.034 A 
ATOM     26  C   UNL A   1      39.353  31.110  34.389  1.00  0.00     0.034 A 
ATOM     27  C   UNL A   1      42.878  27.322  30.389  1.00  0.00     0.049 A 
ATOM     28  C   UNL A   1      40.665  30.390  34.540  1.00  0.00     0.074 A 
ATOM     29  C   UNL A   1      44.134  26.786  30.626  1.00  0.00     0.029 A 
ATOM     30  N   UNL A   1      42.517  28.001  31.547  1.00  0.00    -0.354 N 
ATOM     31  N   UNL A   1      41.305  29.647  33.666  1.00  0.00    -0.248 NA
ATOM     32  C   UNL A   1      41.347  30.527  35.832  1.00  0.00     0.031 C 
ATOM     33  C   UNL A   1      44.494  27.071  31.947  1.00  0.00     0.029 A 
ATOM     34  C   UNL A   1      43.508  27.865  32.510  1.00  0.00     0.049 A 
ATOM     35  H   UNL A   1      41.680  28.506  31.667  1.00  0.00     0.167 HD
ATOM     36  C   UNL A   1      42.479  29.250  34.296  1.00  0.00     0.074 A 
ATOM     37  C   UNL A   1      42.468  29.855  35.613  1.00  0.00     0.031 C 
ATOM     38  C   UNL A   1      43.479  28.460  33.828  1.00  0.00     0.034 A 
BRANCH  25  39
ATOM     39  C   UNL A   1      42.566  26.362  28.055  1.00  0.00     0.023 A 
ATOM     40  C   UNL A   1      42.255  24.994  27.953  1.00  0.00     0.031 A 
ATOM     41  C   UNL A   1      43.377  26.925  27.053  1.00  0.00     0.131 A 
ATOM     42  C   UNL A   1      42.806  24.225  26.916  1.00  0.00     0.055 A 
ATOM     43  C   UNL A   1      43.854  26.172  25.978  1.00  0.00     0.041 A 
ATOM     44  F   UNL A   1      43.728  28.220  27.105  1.00  0.00    -0.206 F 
ATOM     45  C   UNL A   1      43.581  24.810  25.913  1.00  0.00     0.022 A 
BRANCH  42  46
ATOM     46  S   UNL A   1      42.617  22.421  26.982  1.00  0.00     0.124 S 
ATOM     47  O   UNL A   1      43.818  21.972  26.283  1.00  0.00    -0.237 OA
ATOM     48  O   UNL A   1      42.577  22.161  28.416  1.00  0.00    -0.237 OA
ATOM     49  O   UNL A   1      41.365  22.181  26.268  1.00  0.00    -0.744 OA
ENDBRANCH  42  46
ENDBRANCH  25  39
BRANCH  26  50
ATOM     50  C   UNL A   1      38.772  31.898  35.513  1.00  0.00     0.023 A 
ATOM     51  C   UNL A   1      38.231  31.263  36.639  1.00  0.00     0.031 A 
ATOM     52  C   UNL A   1      38.717  33.304  35.459  1.00  0.00     0.131 A 
ATOM     53  C   UNL A   1      37.610  32.026  37.641  1.00  0.00     0.055 A 
ATOM     54  C   UNL A   1      38.160  34.062  36.489  1.00  0.00     0.041 A 
ATOM     55  F   UNL A   1      39.221  33.964  34.403  1.00  0.00    -0.206 F 
ATOM     56  C   UNL A   1      37.588  33.422  37.581  1.00  0.00     0.022 A 
BRANCH  53  57
ATOM     57  S   UNL A   1      36.739  31.160  38.975  1.00  0.00     0.124 S 
ATOM     58  O   UNL A   1      35.501  31.925  39.064  1.00  0.00    -0.237 OA
ATOM     59  O   UNL A   1      36.622  29.811  38.433  1.00  0.00    -0.237 OA
ATOM     60  O   UNL A   1      37.642  31.297  40.114  1.00  0.00    -0.744 OA
ENDBRANCH  53  57
ENDBRANCH  26  50
BRANCH  38  61
ATOM     61  C   UNL A   1      44.666  28.249  34.738  1.00  0.00     0.023 A 
ATOM     62  C   UNL A   1      44.630  27.333  35.804  1.00  0.00     0.031 A 
ATOM     63  C   UNL A   1      45.841  28.997  34.550  1.00  0.00     0.131 A 
ATOM     64  C   UNL A   1      45.723  27.234  36.678  1.00  0.00     0.055 A 
ATOM     65  C   UNL A   1      46.952  28.844  35.381  1.00  0.00     0.041 A 
ATOM     66  F   UNL A   1      45.930  29.893  33.554  1.00  0.00    -0.206 F 
ATOM     67  C   UNL A   1      46.891  27.969  36.462  1.00  0.00     0.022 A 
BRANCH  64  68
ATOM     68  S   UNL A   1      45.557  26.214  38.168  1.00  0.00     0.124 S 
ATOM     69  O   UNL A   1      46.951  25.954  38.515  1.00  0.00    -0.237 OA
ATOM     70  O   UNL A   1      44.830  27.097  39.073  1.00  0.00    -0.237 OA
ATOM     71  O   UNL A   1      44.806  25.047  37.704  1.00  0.00    -0.744 OA
ENDBRANCH  64  68
ENDBRANCH  38  61
ENDBRANCH  12  13
ENDBRANCH   5   7
ENDBRANCH   2   3
ENDBRANCH   1   2
BRANCH   1  72
ATOM     72  C   UNL A   1      33.315  26.680  26.122  1.00  0.00     0.023 C 
BRANCH  72  73
ATOM     73  C   UNL A   1      33.467  25.273  25.553  1.00  0.00     0.116 C 
BRANCH  73  74
ATOM     74  N   UNL A   1      33.387  25.242  24.099  1.00  0.00    -0.352 N 
ATOM     75  C   UNL A   1      34.002  24.382  23.222  1.00  0.00     0.251 C 
ATOM     76  H   UNL A   1      32.816  25.931  23.690  1.00  0.00     0.163 HD
ATOM     77  O   UNL A   1      33.954  24.570  22.011  1.00  0.00    -0.269 OA
BRANCH  75  78
ATOM     78  C   UNL A   1      34.739  23.219  23.750  1.00  0.00     0.040 A 
ATOM     79  C   UNL A   1      36.083  23.356  24.095  1.00  0.00     0.014 A 
ATOM     80  C   UNL A   1      34.084  21.995  23.916  1.00  0.00     0.025 A 
ATOM     81  C   UNL A   1      36.749  22.283  24.686  1.00  0.00     0.002 A 
ATOM     82  C   UNL A   1      34.736  20.927  24.537  1.00  0.00     0.018 A 
ATOM     83  C   UNL A   1      36.071  21.082  24.930  1.00  0.00     0.012 A 
BRANCH  82  84
ATOM     84  C   UNL A   1      34.001  19.697  24.768  1.00  0.00     0.134 A 
ATOM     85  C   UNL A   1      32.780  19.424  25.347  1.00  0.00     0.051 A 
ATOM     86  O   UNL A   1      34.637  18.534  24.449  1.00  0.00    -0.455 OA
ATOM     87  C   UNL A   1      32.669  18.016  25.396  1.00  0.00     0.053 A 
ATOM     88  C   UNL A   1      33.836  17.500  24.859  1.00  0.00     0.149 A 
BRANCH  88  89
ATOM     89  C   UNL A   1      34.240  16.122  24.720  1.00  0.00     0.200 C 
ATOM     90  N   UNL A   1      35.269  15.487  25.205  1.00  0.00    -0.094 NA
BRANCH  90  91
ATOM     91  O   UNL A   1      36.092  16.300  25.987  1.00  0.00    -0.411 OA
ATOM     92  H   UNL A   1      36.203  17.204  25.768  1.00  0.00     0.330 HD
ENDBRANCH  90  91
ENDBRANCH  88  89
ENDBRANCH  82  84
ENDBRANCH  75  78
ENDBRANCH  73  74
ENDBRANCH  72  73
ENDBRANCH   1  72
TORSDOF 17
ENDMDL
MODEL 2
REMARK VINA RESULT:     -11.9      1.713      7.778
REMARK SMILES O=C(NCCCCNC(=O)c1cccc(-c2ccc(/C=N\O)o2)c1)c1ccc(-c2c3nc(c(-c4cc(S(=O)(=O)[O-])ccc4F)c4ccc([nH]4)c(-c4cc(S(=O)(=O)[O-])ccc4F)c4nc(c(-c5cc(S(=O)(=O)[O-])ccc5F)c5ccc2[nH]5)C=C4)C=C3)cc1
REMARK SMILES IDX 5 1 4 2 3 3 1 4 2 5 25 7 26 8 87 9 27 10 86 11 28 12 29 13
REMARK SMILES IDX 30 14 80 15 31 16 85 17 79 18 81 19 32 20 84 21 78 22 77 23
REMARK SMILES IDX 33 25 65 26 45 27 64 28 46 29 49 30 63 31 82 32 47 33 48 34
REMARK SMILES IDX 62 36 83 37 50 38 34 39 35 40 43 41 36 42 42 43 44 44 41 45
REMARK SMILES IDX 37 46 38 47 39 48 40 49 66 50 67 51 75 52 68 53 74 54 76 55
REMARK SMILES IDX 73 56 69 57 70 58 71 59 72 60 51 61 52 62 60 63 53 64 59 65
REMARK SMILES IDX 61 66 58 67 54 68 55 69 56 70 57 71 6 72 7 73 8 74 9 75
REMARK SMILES IDX 10 77 11 78 12 79 24 80 13 81 15 82 14 83 16 84 17 85 23 86
REMARK SMILES IDX 18 87 19 88 20 89 21 90 22 91
REMARK H PARENT 3 6 81 24 49 35 8 76 22 92
REMARK Flexibility Score: inf
ROOT
ATOM      1  C   UNL A   1      32.407  27.993  26.558  1.00  0.00     0.023 C 
ENDROOT
BRANCH   1   2
ATOM      2  C   UNL A   1      33.248  29.077  25.900  1.00  0.00     0.116 C 
BRANCH   2   3
ATOM      3  N   UNL A   1      32.874  30.423  26.314  1.00  0.00    -0.352 N 
ATOM      4  O   UNL A   1      32.964  32.312  27.548  1.00  0.00    -0.269 OA
ATOM      5  C   UNL A   1      33.497  31.258  27.214  1.00  0.00     0.251 C 
ATOM      6  H   UNL A   1      32.061  30.785  25.892  1.00  0.00     0.163 HD
BRANCH   5   7
ATOM      7  C   UNL A   1      34.800  30.861  27.790  1.00  0.00     0.039 A 
ATOM      8  C   UNL A   1      34.948  29.612  28.395  1.00  0.00     0.014 A 
ATOM      9  C   UNL A   1      35.873  31.755  27.751  1.00  0.00     0.014 A 
ATOM     10  C   UNL A   1      36.106  29.325  29.106  1.00  0.00     0.010 A 
ATOM     11  C   UNL A   1      37.078  31.416  28.376  1.00  0.00     0.010 A 
ATOM     12  C   UNL A   1      37.195  30.211  29.086  1.00  0.00    -0.014 A 
BRANCH  12  13
ATOM     13  C   UNL A   1      38.460  29.815  29.757  1.00  0.00     0.031 A 
ATOM     14  C   UNL A   1      38.829  30.350  31.114  1.00  0.00     0.074 A 
ATOM     15  C   UNL A   1      39.266  28.932  29.135  1.00  0.00     0.049 A 
ATOM     16  N   UNL A   1      39.895  30.106  31.833  1.00  0.00    -0.248 NA
ATOM     17  C   UNL A   1      37.885  31.285  31.742  1.00  0.00     0.031 C 
ATOM     18  C   UNL A   1      39.005  28.343  27.817  1.00  0.00     0.029 A 
ATOM     19  N   UNL A   1      40.448  28.357  29.523  1.00  0.00    -0.354 N 
ATOM     20  C   UNL A   1      39.761  30.861  32.992  1.00  0.00     0.074 A 
ATOM     21  C   UNL A   1      38.523  31.605  32.859  1.00  0.00     0.031 C 
ATOM     22  C   UNL A   1      39.968  27.456  27.531  1.00  0.00     0.029 A 
ATOM     23  C   UNL A   1      40.960  27.476  28.598  1.00  0.00     0.049 A 
ATOM     24  H   UNL A   1      40.889  28.555  30.381  1.00  0.00     0.167 HD
ATOM     25  C   UNL A   1      40.587  30.920  34.068  1.00  0.00     0.034 A 
ATOM     26  C   UNL A   1      42.115  26.785  28.588  1.00  0.00     0.034 A 
ATOM     27  C   UNL A   1      41.821  30.174  34.174  1.00  0.00     0.049 A 
ATOM     28  C   UNL A   1      43.048  26.926  29.760  1.00  0.00     0.074 A 
ATOM     29  C   UNL A   1      42.722  30.145  35.226  1.00  0.00     0.029 A 
ATOM     30  N   UNL A   1      42.337  29.337  33.192  1.00  0.00    -0.354 N 
ATOM     31  N   UNL A   1      42.898  27.637  30.854  1.00  0.00    -0.248 NA
ATOM     32  C   UNL A   1      44.304  26.171  29.698  1.00  0.00     0.031 C 
ATOM     33  C   UNL A   1      43.816  29.359  34.848  1.00  0.00     0.029 A 
ATOM     34  C   UNL A   1      43.559  28.819  33.598  1.00  0.00     0.049 A 
ATOM     35  H   UNL A   1      41.899  29.139  32.332  1.00  0.00     0.167 HD
ATOM     36  C   UNL A   1      44.030  27.390  31.623  1.00  0.00     0.074 A 
ATOM     37  C   UNL A   1      44.841  26.449  30.877  1.00  0.00     0.031 C 
ATOM     38  C   UNL A   1      44.368  27.893  32.838  1.00  0.00     0.034 A 
BRANCH  25  39
ATOM     39  C   UNL A   1      40.209  31.857  35.193  1.00  0.00     0.023 A 
ATOM     40  C   UNL A   1      39.319  31.473  36.212  1.00  0.00     0.031 A 
ATOM     41  C   UNL A   1      40.739  33.160  35.244  1.00  0.00     0.131 A 
ATOM     42  C   UNL A   1      38.934  32.399  37.194  1.00  0.00     0.055 A 
ATOM     43  C   UNL A   1      40.416  34.049  36.271  1.00  0.00     0.041 A 
ATOM     44  F   UNL A   1      41.576  33.595  34.289  1.00  0.00    -0.206 F 
ATOM     45  C   UNL A   1      39.497  33.676  37.246  1.00  0.00     0.022 A 
BRANCH  42  46
ATOM     46  S   UNL A   1      37.575  31.961  38.314  1.00  0.00     0.124 S 
ATOM     47  O   UNL A   1      36.593  32.997  38.008  1.00  0.00    -0.237 OA
ATOM     48  O   UNL A   1      37.234  30.610  37.882  1.00  0.00    -0.237 OA
ATOM     49  O   UNL A   1      38.179  32.058  39.641  1.00  0.00    -0.744 OA
ENDBRANCH  42  46
ENDBRANCH  25  39
BRANCH  26  50
ATOM     50  C   UNL A   1      42.474  25.937  27.416  1.00  0.00     0.023 A 
ATOM     51  C   UNL A   1      42.066  24.598  27.338  1.00  0.00     0.031 A 
ATOM     52  C   UNL A   1      43.266  26.447  26.369  1.00  0.00     0.131 A 
ATOM     53  C   UNL A   1      42.493  23.799  26.266  1.00  0.00     0.055 A 
ATOM     54  C   UNL A   1      43.631  25.667  25.272  1.00  0.00     0.041 A 
ATOM     55  F   UNL A   1      43.684  27.722  26.393  1.00  0.00    -0.206 F 
ATOM     56  C   UNL A   1      43.258  24.329  25.224  1.00  0.00     0.022 A 
BRANCH  53  57
ATOM     57  S   UNL A   1      42.122  22.025  26.307  1.00  0.00     0.124 S 
ATOM     58  O   UNL A   1      42.554  21.664  27.652  1.00  0.00    -0.237 OA
ATOM     59  O   UNL A   1      40.682  22.012  26.072  1.00  0.00    -0.237 OA
ATOM     60  O   UNL A   1      42.935  21.483  25.222  1.00  0.00    -0.744 OA
ENDBRANCH  53  57
ENDBRANCH  26  50
BRANCH  38  61
ATOM     61  C   UNL A   1      45.654  27.390  33.451  1.00  0.00     0.023 A 
ATOM     62  C   UNL A   1      45.691  26.242  34.262  1.00  0.00     0.031 A 
ATOM     63  C   UNL A   1      46.856  28.088  33.241  1.00  0.00     0.131 A 
ATOM     64  C   UNL A   1      46.890  25.863  34.883  1.00  0.00     0.055 A 
ATOM     65  C   UNL A   1      48.061  27.666  33.805  1.00  0.00     0.041 A 
ATOM     66  F   UNL A   1      46.880  29.197  32.484  1.00  0.00    -0.206 F 
ATOM     67  C   UNL A   1      48.079  26.556  34.644  1.00  0.00     0.022 A 
BRANCH  64  68
ATOM     68  S   UNL A   1      46.854  24.516  36.097  1.00  0.00     0.124 S 
ATOM     69  O   UNL A   1      46.167  23.460  35.359  1.00  0.00    -0.237 OA
ATOM     70  O   UNL A   1      48.271  24.292  36.358  1.00  0.00    -0.237 OA
ATOM     71  O   UNL A   1      46.099  25.081  37.215  1.00  0.00    -0.744 OA
ENDBRANCH  64  68
ENDBRANCH  38  61
ENDBRANCH  12  13
ENDBRANCH   5   7
ENDBRANCH   2   3
ENDBRANCH   1   2
BRANCH   1  72
ATOM     72  C   UNL A   1      31.445  27.268  25.623  1.00  0.00     0.023 C 
BRANCH  72  73
ATOM     73  C   UNL A   1      31.674  25.765  25.499  1.00  0.00     0.116 C 
BRANCH  73  74
ATOM     74  N   UNL A   1      30.852  24.992  26.420  1.00  0.00    -0.352 N 
ATOM     75  C   UNL A   1      30.989  23.680  26.803  1.00  0.00     0.251 C 
ATOM     76  H   UNL A   1      30.095  25.476  26.822  1.00  0.00     0.163 HD
ATOM     77  O   UNL A   1      30.131  23.123  27.479  1.00  0.00    -0.269 OA
BRANCH  75  78
ATOM     78  C   UNL A   1      32.187  22.929  26.384  1.00  0.00     0.040 A 
ATOM     79  C   UNL A   1      33.428  23.255  26.930  1.00  0.00     0.014 A 
ATOM     80  C   UNL A   1      32.069  21.887  25.460  1.00  0.00     0.025 A 
ATOM     81  C   UNL A   1      34.541  22.478  26.608  1.00  0.00     0.002 A 
ATOM     82  C   UNL A   1      33.173  21.085  25.158  1.00  0.00     0.018 A 
ATOM     83  C   UNL A   1      34.408  21.382  25.747  1.00  0.00     0.012 A 
BRANCH  82  84
ATOM     84  C   UNL A   1      32.996  19.961  24.258  1.00  0.00     0.134 A 
ATOM     85  C   UNL A   1      32.233  19.772  23.125  1.00  0.00     0.051 A 
ATOM     86  O   UNL A   1      33.616  18.797  24.603  1.00  0.00    -0.455 OA
ATOM     87  C   UNL A   1      32.387  18.415  22.763  1.00  0.00     0.053 A 
ATOM     88  C   UNL A   1      33.223  17.839  23.705  1.00  0.00     0.149 A 
BRANCH  88  89
ATOM     89  C   UNL A   1      33.656  16.467  23.816  1.00  0.00     0.200 C 
ATOM     90  N   UNL A   1      33.882  15.731  24.866  1.00  0.00    -0.094 NA
BRANCH  90  91
ATOM     91  O   UNL A   1      33.651  16.408  26.066  1.00  0.00    -0.411 OA
ATOM     92  H   UNL A   1      32.864  16.249  26.549  1.00  0.00     0.330 HD
ENDBRANCH  90  91
ENDBRANCH  88  89
ENDBRANCH  82  84
ENDBRANCH  75  78
ENDBRANCH  73  74
ENDBRANCH  72  73
ENDBRANCH   1  72
TORSDOF 17
ENDMDL
MODEL 3
REMARK VINA RESULT:     -11.7      5.269     10.013
REMARK SMILES O=C(NCCCCNC(=O)c1cccc(-c2ccc(/C=N\O)o2)c1)c1ccc(-c2c3nc(c(-c4cc(S(=O)(=O)[O-])ccc4F)c4ccc([nH]4)c(-c4cc(S(=O)(=O)[O-])ccc4F)c4nc(c(-c5cc(S(=O)(=O)[O-])ccc5F)c5ccc2[nH]5)C=C4)C=C3)cc1
REMARK SMILES IDX 5 1 4 2 3 3 1 4 2 5 25 7 26 8 87 9 27 10 86 11 28 12 29 13
REMARK SMILES IDX 30 14 80 15 31 16 85 17 79 18 81 19 32 20 84 21 78 22 77 23
REMARK SMILES IDX 33 25 65 26 45 27 64 28 46 29 49 30 63 31 82 32 47 33 48 34
REMARK SMILES IDX 62 36 83 37 50 38 34 39 35 40 43 41 36 42 42 43 44 44 41 45
REMARK SMILES IDX 37 46 38 47 39 48 40 49 66 50 67 51 75 52 68 53 74 54 76 55
REMARK SMILES IDX 73 56 69 57 70 58 71 59 72 60 51 61 52 62 60 63 53 64 59 65
REMARK SMILES IDX 61 66 58 67 54 68 55 69 56 70 57 71 6 72 7 73 8 74 9 75
REMARK SMILES IDX 10 77 11 78 12 79 24 80 13 81 15 82 14 83 16 84 17 85 23 86
REMARK SMILES IDX 18 87 19 88 20 89 21 90 22 91
REMARK H PARENT 3 6 81 24 49 35 8 76 22 92
REMARK Flexibility Score: inf
ROOT
ATOM      1  C   UNL A   1      35.299  21.423  25.799  1.00  0.00     0.023 C 
ENDROOT
BRANCH   1   2
ATOM      2  C   UNL A   1      36.732  21.881  25.573  1.00  0.00     0.116 C 
BRANCH   2   3
ATOM      3  N   UNL A   1      37.705  20.805  25.708  1.00  0.00    -0.352 N 
ATOM      4  O   UNL A   1      39.747  19.879  25.980  1.00  0.00    -0.269 OA
ATOM      5  C   UNL A   1      39.037  20.878  26.049  1.00  0.00     0.251 C 
ATOM      6  H   UNL A   1      37.363  19.899  25.528  1.00  0.00     0.163 HD
BRANCH   5   7
ATOM      7  C   UNL A   1      39.607  22.174  26.475  1.00  0.00     0.039 A 
ATOM      8  C   UNL A   1      39.131  23.365  25.924  1.00  0.00     0.014 A 
ATOM      9  C   UNL A   1      40.644  22.197  27.411  1.00  0.00     0.014 A 
ATOM     10  C   UNL A   1      39.800  24.555  26.176  1.00  0.00     0.010 A 
ATOM     11  C   UNL A   1      41.245  23.416  27.746  1.00  0.00     0.010 A 
ATOM     12  C   UNL A   1      40.849  24.602  27.109  1.00  0.00    -0.014 A 
BRANCH  12  13
ATOM     13  C   UNL A   1      41.460  25.915  27.443  1.00  0.00     0.031 A 
ATOM     14  C   UNL A   1      40.724  26.935  28.267  1.00  0.00     0.074 A 
ATOM     15  C   UNL A   1      42.714  26.165  27.016  1.00  0.00     0.049 A 
ATOM     16  N   UNL A   1      41.115  28.127  28.643  1.00  0.00    -0.248 NA
ATOM     17  C   UNL A   1      39.373  26.578  28.722  1.00  0.00     0.031 C 
ATOM     18  C   UNL A   1      43.525  25.244  26.212  1.00  0.00     0.029 A 
ATOM     19  N   UNL A   1      43.536  27.245  27.207  1.00  0.00    -0.354 N 
ATOM     20  C   UNL A   1      40.059  28.668  29.369  1.00  0.00     0.074 A 
ATOM     21  C   UNL A   1      38.994  27.685  29.343  1.00  0.00     0.031 C 
ATOM     22  C   UNL A   1      44.740  25.776  26.025  1.00  0.00     0.029 A 
ATOM     23  C   UNL A   1      44.769  27.108  26.613  1.00  0.00     0.049 A 
ATOM     24  H   UNL A   1      43.269  28.042  27.720  1.00  0.00     0.167 HD
ATOM     25  C   UNL A   1      39.992  29.867  30.001  1.00  0.00     0.034 A 
ATOM     26  C   UNL A   1      45.800  27.969  26.521  1.00  0.00     0.034 A 
ATOM     27  C   UNL A   1      41.065  30.835  30.006  1.00  0.00     0.049 A 
ATOM     28  C   UNL A   1      45.670  29.320  27.169  1.00  0.00     0.074 A 
ATOM     29  C   UNL A   1      41.110  32.070  30.631  1.00  0.00     0.029 A 
ATOM     30  N   UNL A   1      42.279  30.687  29.344  1.00  0.00    -0.354 N 
ATOM     31  N   UNL A   1      44.668  29.810  27.862  1.00  0.00    -0.248 NA
ATOM     32  C   UNL A   1      46.809  30.233  27.026  1.00  0.00     0.031 C 
ATOM     33  C   UNL A   1      42.310  32.699  30.281  1.00  0.00     0.029 A 
ATOM     34  C   UNL A   1      43.059  31.822  29.515  1.00  0.00     0.049 A 
ATOM     35  H   UNL A   1      42.547  29.891  28.829  1.00  0.00     0.167 HD
ATOM     36  C   UNL A   1      45.070  31.081  28.261  1.00  0.00     0.074 A 
ATOM     37  C   UNL A   1      46.413  31.269  27.750  1.00  0.00     0.031 C 
ATOM     38  C   UNL A   1      44.392  32.006  28.987  1.00  0.00     0.034 A 
BRANCH  25  39
ATOM     39  C   UNL A   1      38.698  30.220  30.701  1.00  0.00     0.023 A 
ATOM     40  C   UNL A   1      37.658  30.899  30.042  1.00  0.00     0.031 A 
ATOM     41  C   UNL A   1      38.504  29.880  32.053  1.00  0.00     0.131 A 
ATOM     42  C   UNL A   1      36.506  31.275  30.751  1.00  0.00     0.055 A 
ATOM     43  C   UNL A   1      37.321  30.184  32.729  1.00  0.00     0.041 A 
ATOM     44  F   UNL A   1      39.467  29.250  32.745  1.00  0.00    -0.206 F 
ATOM     45  C   UNL A   1      36.319  30.899  32.082  1.00  0.00     0.022 A 
BRANCH  42  46
ATOM     46  S   UNL A   1      35.322  32.393  29.949  1.00  0.00     0.124 S 
ATOM     47  O   UNL A   1      34.811  31.556  28.867  1.00  0.00    -0.237 OA
ATOM     48  O   UNL A   1      34.385  32.685  31.027  1.00  0.00    -0.237 OA
ATOM     49  O   UNL A   1      36.150  33.517  29.518  1.00  0.00    -0.744 OA
ENDBRANCH  42  46
ENDBRANCH  25  39
BRANCH  26  50
ATOM     50  C   UNL A   1      47.022  27.598  25.751  1.00  0.00     0.023 A 
ATOM     51  C   UNL A   1      47.149  27.924  24.393  1.00  0.00     0.031 A 
ATOM     52  C   UNL A   1      48.067  26.876  26.357  1.00  0.00     0.131 A 
ATOM     53  C   UNL A   1      48.270  27.483  23.672  1.00  0.00     0.055 A 
ATOM     54  C   UNL A   1      49.211  26.500  25.652  1.00  0.00     0.041 A 
ATOM     55  F   UNL A   1      47.997  26.538  27.654  1.00  0.00    -0.206 F 
ATOM     56  C   UNL A   1      49.310  26.790  24.297  1.00  0.00     0.022 A 
BRANCH  53  57
ATOM     57  S   UNL A   1      48.300  27.741  21.877  1.00  0.00     0.124 S 
ATOM     58  O   UNL A   1      48.513  26.384  21.388  1.00  0.00    -0.237 OA
ATOM     59  O   UNL A   1      46.981  28.312  21.631  1.00  0.00    -0.237 OA
ATOM     60  O   UNL A   1      49.421  28.658  21.685  1.00  0.00    -0.744 OA
ENDBRANCH  53  57
ENDBRANCH  26  50
BRANCH  38  61
ATOM     61  C   UNL A   1      45.122  33.289  29.308  1.00  0.00     0.023 A 
ATOM     62  C   UNL A   1      45.076  34.404  28.452  1.00  0.00     0.031 A 
ATOM     63  C   UNL A   1      45.897  33.387  30.477  1.00  0.00     0.131 A 
ATOM     64  C   UNL A   1      45.841  35.543  28.746  1.00  0.00     0.055 A 
ATOM     65  C   UNL A   1      46.600  34.549  30.800  1.00  0.00     0.041 A 
ATOM     66  F   UNL A   1      45.986  32.351  31.328  1.00  0.00    -0.206 F 
ATOM     67  C   UNL A   1      46.587  35.630  29.924  1.00  0.00     0.022 A 
BRANCH  64  68
ATOM     68  S   UNL A   1      45.937  36.869  27.512  1.00  0.00     0.124 S 
ATOM     69  O   UNL A   1      46.177  36.122  26.282  1.00  0.00    -0.237 OA
ATOM     70  O   UNL A   1      44.627  37.500  27.628  1.00  0.00    -0.237 OA
ATOM     71  O   UNL A   1      47.061  37.685  27.971  1.00  0.00    -0.744 OA
ENDBRANCH  64  68
ENDBRANCH  38  61
ENDBRANCH  12  13
ENDBRANCH   5   7
ENDBRANCH   2   3
ENDBRANCH   1   2
BRANCH   1  72
ATOM     72  C   UNL A   1      34.705  21.808  27.150  1.00  0.00     0.023 C 
BRANCH  72  73
ATOM     73  C   UNL A   1      34.010  23.165  27.188  1.00  0.00     0.116 C 
BRANCH  73  74
ATOM     74  N   UNL A   1      32.613  23.071  27.588  1.00  0.00    -0.352 N 
ATOM     75  C   UNL A   1      31.508  22.825  26.810  1.00  0.00     0.251 C 
ATOM     76  H   UNL A   1      32.436  23.201  28.548  1.00  0.00     0.163 HD
ATOM     77  O   UNL A   1      30.374  22.919  27.268  1.00  0.00    -0.269 OA
BRANCH  75  78
ATOM     78  C   UNL A   1      31.692  22.452  25.395  1.00  0.00     0.040 A 
ATOM     79  C   UNL A   1      31.645  23.440  24.412  1.00  0.00     0.014 A 
ATOM     80  C   UNL A   1      31.929  21.118  25.051  1.00  0.00     0.025 A 
ATOM     81  C   UNL A   1      31.919  23.099  23.087  1.00  0.00     0.002 A 
ATOM     82  C   UNL A   1      32.235  20.776  23.731  1.00  0.00     0.018 A 
ATOM     83  C   UNL A   1      32.238  21.777  22.753  1.00  0.00     0.012 A 
BRANCH  82  84
ATOM     84  C   UNL A   1      32.557  19.394  23.424  1.00  0.00     0.134 A 
ATOM     85  C   UNL A   1      32.343  18.601  22.317  1.00  0.00     0.051 A 
ATOM     86  O   UNL A   1      33.101  18.653  24.431  1.00  0.00    -0.455 OA
ATOM     87  C   UNL A   1      32.771  17.301  22.670  1.00  0.00     0.053 A 
ATOM     88  C   UNL A   1      33.207  17.363  23.982  1.00  0.00     0.149 A 
BRANCH  88  89
ATOM     89  C   UNL A   1      33.699  16.301  24.826  1.00  0.00     0.200 C 
ATOM     90  N   UNL A   1      34.846  16.156  25.426  1.00  0.00    -0.094 NA
BRANCH  90  91
ATOM     91  O   UNL A   1      35.716  17.224  25.202  1.00  0.00    -0.411 OA
ATOM     92  H   UNL A   1      35.399  18.012  24.806  1.00  0.00     0.330 HD
ENDBRANCH  90  91
ENDBRANCH  88  89
ENDBRANCH  82  84
ENDBRANCH  75  78
ENDBRANCH  73  74
ENDBRANCH  72  73
ENDBRANCH   1  72
TORSDOF 17
ENDMDL
