MODEL 1
REMARK VINA RESULT:     -10.5      0.000      0.000
REMARK SMILES CCN(CC)C(=O)[C@H](C)S[C@H](C)C(=O)NCCCCNC(=O)c1ccc(-c2c3nc(c(-c4cc(S(=O)(=O)[O-])ccc4F)c4ccc([nH]4)c(-c4cc(S(=O)(=O)[O-])ccc4F)c4nc(c(-c5cc(S(=O)(=O)[O-])ccc5F)c5ccc2[nH]5)C=C4)C=C3)cc1
REMARK SMILES IDX 17 1 16 2 15 3 13 4 14 5 11 7 12 8 10 9 8 10 9 11 6 12 3 13
REMARK SMILES IDX 7 14 2 15 1 16 4 17 5 18 18 19 19 20 20 21 21 22 22 24 23 25
REMARK SMILES IDX 24 26 85 27 25 28 84 29 26 30 27 31 28 32 78 33 29 34 83 35
REMARK SMILES IDX 77 36 79 37 30 38 82 39 76 40 75 41 31 43 63 44 43 45 62 46
REMARK SMILES IDX 44 47 47 48 61 49 80 50 45 51 46 52 60 54 81 55 48 56 32 57
REMARK SMILES IDX 33 58 41 59 34 60 40 61 42 62 39 63 35 64 36 65 37 66 38 67
REMARK SMILES IDX 64 68 65 69 73 70 66 71 72 72 74 73 71 74 67 75 68 76 69 77
REMARK SMILES IDX 70 78 49 79 50 80 58 81 51 82 57 83 59 84 56 85 52 86 53 87
REMARK SMILES IDX 54 88 55 89
REMARK H PARENT 15 6 20 23 79 42 47 53
REMARK Flexibility Score: inf
ROOT
ATOM      1  C   UNL A   1      33.306  29.209  24.681  1.00  0.00     0.023 C 
ENDROOT
BRANCH   1   2
ATOM      2  C   UNL A   1      33.423  29.085  23.166  1.00  0.00     0.116 C 
BRANCH   2   3
ATOM      3  N   UNL A   1      32.177  28.757  22.506  1.00  0.00    -0.355 N 
ATOM      4  C   UNL A   1      31.389  27.647  22.556  1.00  0.00     0.232 C 
ATOM      5  O   UNL A   1      30.256  27.770  22.076  1.00  0.00    -0.274 OA
ATOM      6  H   UNL A   1      31.837  29.465  21.914  1.00  0.00     0.163 HD
BRANCH   4   7
ATOM      7  C   UNL A   1      31.823  26.304  23.150  1.00  0.00     0.133 C 
ATOM      8  C   UNL A   1      30.732  25.293  23.468  1.00  0.00     0.030 C 
BRANCH   7   9
ATOM      9  S   UNL A   1      33.318  25.557  22.384  1.00  0.00    -0.136 SA
BRANCH   9  10
ATOM     10  C   UNL A   1      33.388  23.878  23.114  1.00  0.00     0.133 C 
ATOM     11  C   UNL A   1      33.041  22.808  22.080  1.00  0.00     0.030 C 
BRANCH  10  12
ATOM     12  C   UNL A   1      34.808  23.543  23.611  1.00  0.00     0.235 C 
ATOM     13  N   UNL A   1      35.035  23.553  24.994  1.00  0.00    -0.342 N 
ATOM     14  O   UNL A   1      35.686  23.158  22.833  1.00  0.00    -0.274 OA
BRANCH  13  15
ATOM     15  C   UNL A   1      36.232  22.870  25.487  1.00  0.00     0.116 C 
ATOM     16  C   UNL A   1      37.314  23.880  25.851  1.00  0.00     0.027 C 
ENDBRANCH  13  15
BRANCH  13  17
ATOM     17  C   UNL A   1      34.166  24.168  26.000  1.00  0.00     0.116 C 
ATOM     18  C   UNL A   1      33.445  23.112  26.826  1.00  0.00     0.027 C 
ENDBRANCH  13  17
ENDBRANCH  10  12
ENDBRANCH   9  10
ENDBRANCH   7   9
ENDBRANCH   4   7
ENDBRANCH   2   3
ENDBRANCH   1   2
BRANCH   1  19
ATOM     19  C   UNL A   1      32.051  29.921  25.189  1.00  0.00     0.023 C 
BRANCH  19  20
ATOM     20  C   UNL A   1      32.060  30.332  26.660  1.00  0.00     0.116 C 
BRANCH  20  21
ATOM     21  N   UNL A   1      31.969  31.771  26.856  1.00  0.00    -0.352 N 
ATOM     22  C   UNL A   1      32.869  32.641  27.434  1.00  0.00     0.251 C 
ATOM     23  H   UNL A   1      31.140  32.187  26.524  1.00  0.00     0.163 HD
ATOM     24  O   UNL A   1      32.557  33.811  27.600  1.00  0.00    -0.269 OA
BRANCH  22  25
ATOM     25  C   UNL A   1      34.183  32.134  27.891  1.00  0.00     0.039 A 
ATOM     26  C   UNL A   1      35.260  33.021  27.963  1.00  0.00     0.014 A 
ATOM     27  C   UNL A   1      34.334  30.807  28.298  1.00  0.00     0.014 A 
ATOM     28  C   UNL A   1      36.460  32.602  28.543  1.00  0.00     0.010 A 
ATOM     29  C   UNL A   1      35.504  30.414  28.941  1.00  0.00     0.010 A 
ATOM     30  C   UNL A   1      36.573  31.314  29.089  1.00  0.00    -0.014 A 
BRANCH  30  31
ATOM     31  C   UNL A   1      37.782  30.893  29.845  1.00  0.00     0.031 A 
ATOM     32  C   UNL A   1      38.729  29.883  29.258  1.00  0.00     0.074 A 
ATOM     33  C   UNL A   1      37.982  31.355  31.096  1.00  0.00     0.049 A 
ATOM     34  N   UNL A   1      39.770  29.307  29.802  1.00  0.00    -0.248 NA
ATOM     35  C   UNL A   1      38.446  29.443  27.883  1.00  0.00     0.031 C 
ATOM     36  C   UNL A   1      37.117  32.308  31.795  1.00  0.00     0.029 A 
ATOM     37  N   UNL A   1      38.967  31.074  32.012  1.00  0.00    -0.354 N 
ATOM     38  C   UNL A   1      40.260  28.426  28.843  1.00  0.00     0.074 A 
ATOM     39  C   UNL A   1      39.361  28.502  27.710  1.00  0.00     0.031 C 
ATOM     40  C   UNL A   1      37.621  32.550  33.016  1.00  0.00     0.029 A 
ATOM     41  C   UNL A   1      38.815  31.734  33.210  1.00  0.00     0.049 A 
ATOM     42  H   UNL A   1      39.713  30.459  31.827  1.00  0.00     0.167 HD
ATOM     43  C   UNL A   1      41.369  27.645  28.893  1.00  0.00     0.034 A 
ATOM     44  C   UNL A   1      39.543  31.675  34.342  1.00  0.00     0.034 A 
ATOM     45  C   UNL A   1      42.258  27.584  30.028  1.00  0.00     0.049 A 
ATOM     46  C   UNL A   1      40.746  30.768  34.392  1.00  0.00     0.074 A 
ATOM     47  C   UNL A   1      43.433  26.864  30.166  1.00  0.00     0.029 A 
ATOM     48  N   UNL A   1      42.066  28.261  31.227  1.00  0.00    -0.354 N 
ATOM     49  N   UNL A   1      41.219  29.973  33.461  1.00  0.00    -0.248 NA
ATOM     50  C   UNL A   1      41.515  30.757  35.644  1.00  0.00     0.031 C 
ATOM     51  C   UNL A   1      43.916  27.057  31.465  1.00  0.00     0.029 A 
ATOM     52  C   UNL A   1      43.085  27.952  32.117  1.00  0.00     0.049 A 
ATOM     53  H   UNL A   1      41.317  28.871  31.416  1.00  0.00     0.167 HD
ATOM     54  C   UNL A   1      42.360  29.389  34.006  1.00  0.00     0.074 A 
ATOM     55  C   UNL A   1      42.508  29.933  35.341  1.00  0.00     0.031 C 
ATOM     56  C   UNL A   1      43.213  28.491  33.450  1.00  0.00     0.034 A 
BRANCH  43  57
ATOM     57  C   UNL A   1      41.657  26.782  27.688  1.00  0.00     0.023 A 
ATOM     58  C   UNL A   1      41.410  25.398  27.698  1.00  0.00     0.031 A 
ATOM     59  C   UNL A   1      42.225  27.339  26.529  1.00  0.00     0.131 A 
ATOM     60  C   UNL A   1      41.810  24.606  26.613  1.00  0.00     0.055 A 
ATOM     61  C   UNL A   1      42.542  26.557  25.416  1.00  0.00     0.041 A 
ATOM     62  F   UNL A   1      42.502  28.651  26.464  1.00  0.00    -0.206 F 
ATOM     63  C   UNL A   1      42.352  25.179  25.461  1.00  0.00     0.022 A 
BRANCH  60  64
ATOM     64  S   UNL A   1      41.762  22.803  26.799  1.00  0.00     0.124 S 
ATOM     65  O   UNL A   1      40.471  22.609  27.459  1.00  0.00    -0.237 OA
ATOM     66  O   UNL A   1      41.850  22.340  25.419  1.00  0.00    -0.237 OA
ATOM     67  O   UNL A   1      42.927  22.512  27.632  1.00  0.00    -0.744 OA
ENDBRANCH  60  64
ENDBRANCH  43  57
BRANCH  44  68
ATOM     68  C   UNL A   1      39.158  32.489  35.531  1.00  0.00     0.023 A 
ATOM     69  C   UNL A   1      39.640  33.796  35.694  1.00  0.00     0.031 A 
ATOM     70  C   UNL A   1      38.335  31.957  36.540  1.00  0.00     0.131 A 
ATOM     71  C   UNL A   1      39.333  34.515  36.860  1.00  0.00     0.055 A 
ATOM     72  C   UNL A   1      37.993  32.693  37.676  1.00  0.00     0.041 A 
ATOM     73  F   UNL A   1      37.841  30.714  36.428  1.00  0.00    -0.206 F 
ATOM     74  C   UNL A   1      38.503  33.977  37.846  1.00  0.00     0.022 A 
BRANCH  71  75
ATOM     75  S   UNL A   1      40.098  36.141  37.104  1.00  0.00     0.124 S 
ATOM     76  O   UNL A   1      39.315  36.675  38.212  1.00  0.00    -0.237 OA
ATOM     77  O   UNL A   1      41.480  35.781  37.409  1.00  0.00    -0.237 OA
ATOM     78  O   UNL A   1      39.900  36.806  35.818  1.00  0.00    -0.744 OA
ENDBRANCH  71  75
ENDBRANCH  44  68
BRANCH  56  79
ATOM     79  C   UNL A   1      44.408  28.081  34.275  1.00  0.00     0.023 A 
ATOM     80  C   UNL A   1      44.371  26.963  35.127  1.00  0.00     0.031 A 
ATOM     81  C   UNL A   1      45.597  28.828  34.213  1.00  0.00     0.131 A 
ATOM     82  C   UNL A   1      45.487  26.653  35.920  1.00  0.00     0.055 A 
ATOM     83  C   UNL A   1      46.722  28.483  34.962  1.00  0.00     0.041 A 
ATOM     84  F   UNL A   1      45.685  29.907  33.419  1.00  0.00    -0.206 F 
ATOM     85  C   UNL A   1      46.667  27.396  35.831  1.00  0.00     0.022 A 
BRANCH  82  86
ATOM     86  S   UNL A   1      45.350  25.311  37.133  1.00  0.00     0.124 S 
ATOM     87  O   UNL A   1      46.748  25.058  37.464  1.00  0.00    -0.237 OA
ATOM     88  O   UNL A   1      44.546  25.922  38.186  1.00  0.00    -0.237 OA
ATOM     89  O   UNL A   1      44.685  24.242  36.389  1.00  0.00    -0.744 OA
ENDBRANCH  82  86
ENDBRANCH  56  79
ENDBRANCH  30  31
ENDBRANCH  22  25
ENDBRANCH  20  21
ENDBRANCH  19  20
ENDBRANCH   1  19
TORSDOF 19
ENDMDL
MODEL 2
REMARK VINA RESULT:     -10.2      1.994      2.502
REMARK SMILES CCN(CC)C(=O)[C@H](C)S[C@H](C)C(=O)NCCCCNC(=O)c1ccc(-c2c3nc(c(-c4cc(S(=O)(=O)[O-])ccc4F)c4ccc([nH]4)c(-c4cc(S(=O)(=O)[O-])ccc4F)c4nc(c(-c5cc(S(=O)(=O)[O-])ccc5F)c5ccc2[nH]5)C=C4)C=C3)cc1
REMARK SMILES IDX 17 1 16 2 15 3 13 4 14 5 11 7 12 8 10 9 8 10 9 11 6 12 3 13
REMARK SMILES IDX 7 14 2 15 1 16 4 17 5 18 18 19 19 20 20 21 21 22 22 24 23 25
REMARK SMILES IDX 24 26 85 27 25 28 84 29 26 30 27 31 28 32 78 33 29 34 83 35
REMARK SMILES IDX 77 36 79 37 30 38 82 39 76 40 75 41 31 43 63 44 43 45 62 46
REMARK SMILES IDX 44 47 47 48 61 49 80 50 45 51 46 52 60 54 81 55 48 56 32 57
REMARK SMILES IDX 33 58 41 59 34 60 40 61 42 62 39 63 35 64 36 65 37 66 38 67
REMARK SMILES IDX 64 68 65 69 73 70 66 71 72 72 74 73 71 74 67 75 68 76 69 77
REMARK SMILES IDX 70 78 49 79 50 80 58 81 51 82 57 83 59 84 56 85 52 86 53 87
REMARK SMILES IDX 54 88 55 89
REMARK H PARENT 15 6 20 23 79 42 47 53
REMARK Flexibility Score: inf
ROOT
ATOM      1  C   UNL A   1      31.429  30.717  26.042  1.00  0.00     0.023 C 
ENDROOT
BRANCH   1   2
ATOM      2  C   UNL A   1      32.750  29.957  26.011  1.00  0.00     0.116 C 
BRANCH   2   3
ATOM      3  N   UNL A   1      33.262  29.727  24.676  1.00  0.00    -0.355 N 
ATOM      4  C   UNL A   1      33.326  28.604  23.909  1.00  0.00     0.232 C 
ATOM      5  O   UNL A   1      33.588  28.783  22.713  1.00  0.00    -0.274 OA
ATOM      6  H   UNL A   1      33.632  30.530  24.244  1.00  0.00     0.163 HD
BRANCH   4   7
ATOM      7  C   UNL A   1      33.103  27.183  24.436  1.00  0.00     0.133 C 
ATOM      8  C   UNL A   1      33.981  26.715  25.585  1.00  0.00     0.030 C 
BRANCH   7   9
ATOM      9  S   UNL A   1      31.342  26.680  24.602  1.00  0.00    -0.136 SA
BRANCH   9  10
ATOM     10  C   UNL A   1      31.440  24.955  25.213  1.00  0.00     0.133 C 
ATOM     11  C   UNL A   1      30.246  24.614  26.104  1.00  0.00     0.030 C 
BRANCH  10  12
ATOM     12  C   UNL A   1      31.401  23.946  24.047  1.00  0.00     0.235 C 
ATOM     13  N   UNL A   1      32.425  22.992  23.976  1.00  0.00    -0.342 N 
ATOM     14  O   UNL A   1      30.440  23.896  23.274  1.00  0.00    -0.274 OA
BRANCH  13  15
ATOM     15  C   UNL A   1      32.195  21.815  23.137  1.00  0.00     0.116 C 
ATOM     16  C   UNL A   1      32.585  20.543  23.879  1.00  0.00     0.027 C 
ENDBRANCH  13  15
BRANCH  13  17
ATOM     17  C   UNL A   1      33.703  23.054  24.688  1.00  0.00     0.116 C 
ATOM     18  C   UNL A   1      34.815  23.564  23.782  1.00  0.00     0.027 C 
ENDBRANCH  13  17
ENDBRANCH  10  12
ENDBRANCH   9  10
ENDBRANCH   7   9
ENDBRANCH   4   7
ENDBRANCH   2   3
ENDBRANCH   1   2
BRANCH   1  19
ATOM     19  C   UNL A   1      31.409  31.969  26.922  1.00  0.00     0.023 C 
BRANCH  19  20
ATOM     20  C   UNL A   1      32.621  32.891  26.808  1.00  0.00     0.116 C 
BRANCH  20  21
ATOM     21  N   UNL A   1      32.519  34.082  27.637  1.00  0.00    -0.352 N 
ATOM     22  C   UNL A   1      33.300  34.487  28.698  1.00  0.00     0.251 C 
ATOM     23  H   UNL A   1      31.781  34.692  27.404  1.00  0.00     0.163 HD
ATOM     24  O   UNL A   1      32.982  35.479  29.338  1.00  0.00    -0.269 OA
BRANCH  22  25
ATOM     25  C   UNL A   1      34.486  33.687  29.078  1.00  0.00     0.039 A 
ATOM     26  C   UNL A   1      35.756  34.165  28.749  1.00  0.00     0.014 A 
ATOM     27  C   UNL A   1      34.345  32.503  29.804  1.00  0.00     0.014 A 
ATOM     28  C   UNL A   1      36.888  33.510  29.239  1.00  0.00     0.010 A 
ATOM     29  C   UNL A   1      35.471  31.894  30.352  1.00  0.00     0.010 A 
ATOM     30  C   UNL A   1      36.754  32.403  30.092  1.00  0.00    -0.014 A 
BRANCH  30  31
ATOM     31  C   UNL A   1      37.934  31.780  30.749  1.00  0.00     0.031 A 
ATOM     32  C   UNL A   1      38.722  30.715  30.038  1.00  0.00     0.074 A 
ATOM     33  C   UNL A   1      38.243  32.111  32.019  1.00  0.00     0.049 A 
ATOM     34  N   UNL A   1      39.706  29.976  30.481  1.00  0.00    -0.248 NA
ATOM     35  C   UNL A   1      38.327  30.426  28.651  1.00  0.00     0.031 C 
ATOM     36  C   UNL A   1      37.533  33.101  32.833  1.00  0.00     0.029 A 
ATOM     37  N   UNL A   1      39.225  31.640  32.857  1.00  0.00    -0.354 N 
ATOM     38  C   UNL A   1      40.041  29.124  29.434  1.00  0.00     0.074 A 
ATOM     39  C   UNL A   1      39.110  29.399  28.359  1.00  0.00     0.031 C 
ATOM     40  C   UNL A   1      38.116  33.180  34.040  1.00  0.00     0.029 A 
ATOM     41  C   UNL A   1      39.207  32.214  34.108  1.00  0.00     0.049 A 
ATOM     42  H   UNL A   1      39.880  30.958  32.587  1.00  0.00     0.167 HD
ATOM     43  C   UNL A   1      41.046  28.214  29.366  1.00  0.00     0.034 A 
ATOM     44  C   UNL A   1      39.971  31.977  35.193  1.00  0.00     0.034 A 
ATOM     45  C   UNL A   1      41.969  27.954  30.444  1.00  0.00     0.049 A 
ATOM     46  C   UNL A   1      41.053  30.931  35.110  1.00  0.00     0.074 A 
ATOM     47  C   UNL A   1      43.051  27.090  30.465  1.00  0.00     0.029 A 
ATOM     48  N   UNL A   1      41.915  28.549  31.699  1.00  0.00    -0.354 N 
ATOM     49  N   UNL A   1      41.384  30.163  34.098  1.00  0.00    -0.248 NA
ATOM     50  C   UNL A   1      41.868  30.725  36.315  1.00  0.00     0.031 C 
ATOM     51  C   UNL A   1      43.610  27.117  31.748  1.00  0.00     0.029 A 
ATOM     52  C   UNL A   1      42.925  28.050  32.508  1.00  0.00     0.049 A 
ATOM     53  H   UNL A   1      41.256  29.227  31.973  1.00  0.00     0.167 HD
ATOM     54  C   UNL A   1      42.467  29.404  34.536  1.00  0.00     0.074 A 
ATOM     55  C   UNL A   1      42.738  29.816  35.899  1.00  0.00     0.031 C 
ATOM     56  C   UNL A   1      43.177  28.459  33.870  1.00  0.00     0.034 A 
BRANCH  43  57
ATOM     57  C   UNL A   1      41.173  27.424  28.085  1.00  0.00     0.023 A 
ATOM     58  C   UNL A   1      40.806  26.068  28.018  1.00  0.00     0.031 A 
ATOM     59  C   UNL A   1      41.706  28.018  26.928  1.00  0.00     0.131 A 
ATOM     60  C   UNL A   1      41.059  25.330  26.853  1.00  0.00     0.055 A 
ATOM     61  C   UNL A   1      41.875  27.298  25.742  1.00  0.00     0.041 A 
ATOM     62  F   UNL A   1      42.093  29.303  26.934  1.00  0.00    -0.206 F 
ATOM     63  C   UNL A   1      41.568  25.941  25.706  1.00  0.00     0.022 A 
BRANCH  60  64
ATOM     64  S   UNL A   1      40.864  23.528  26.917  1.00  0.00     0.124 S 
ATOM     65  O   UNL A   1      39.431  23.378  26.674  1.00  0.00    -0.237 OA
ATOM     66  O   UNL A   1      41.744  23.077  25.846  1.00  0.00    -0.237 OA
ATOM     67  O   UNL A   1      41.298  23.184  28.269  1.00  0.00    -0.744 OA
ENDBRANCH  60  64
ENDBRANCH  43  57
BRANCH  44  68
ATOM     68  C   UNL A   1      39.741  32.731  36.459  1.00  0.00     0.023 A 
ATOM     69  C   UNL A   1      38.829  32.264  37.417  1.00  0.00     0.031 A 
ATOM     70  C   UNL A   1      40.399  33.947  36.711  1.00  0.00     0.131 A 
ATOM     71  C   UNL A   1      38.565  33.029  38.564  1.00  0.00     0.055 A 
ATOM     72  C   UNL A   1      40.170  34.681  37.876  1.00  0.00     0.041 A 
ATOM     73  F   UNL A   1      41.288  34.433  35.829  1.00  0.00    -0.206 F 
ATOM     74  C   UNL A   1      39.239  34.229  38.805  1.00  0.00     0.022 A 
BRANCH  71  75
ATOM     75  S   UNL A   1      37.270  32.469  39.703  1.00  0.00     0.124 S 
ATOM     76  O   UNL A   1      37.238  33.555  40.675  1.00  0.00    -0.237 OA
ATOM     77  O   UNL A   1      36.114  32.365  38.817  1.00  0.00    -0.237 OA
ATOM     78  O   UNL A   1      37.784  31.195  40.202  1.00  0.00    -0.744 OA
ENDBRANCH  71  75
ENDBRANCH  44  68
BRANCH  56  79
ATOM     79  C   UNL A   1      44.346  27.843  34.597  1.00  0.00     0.023 A 
ATOM     80  C   UNL A   1      44.197  26.703  35.407  1.00  0.00     0.031 A 
ATOM     81  C   UNL A   1      45.627  28.412  34.483  1.00  0.00     0.131 A 
ATOM     82  C   UNL A   1      45.302  26.199  36.111  1.00  0.00     0.055 A 
ATOM     83  C   UNL A   1      46.732  27.873  35.141  1.00  0.00     0.041 A 
ATOM     84  F   UNL A   1      45.824  29.502  33.724  1.00  0.00    -0.206 F 
ATOM     85  C   UNL A   1      46.571  26.767  35.971  1.00  0.00     0.022 A 
BRANCH  82  86
ATOM     86  S   UNL A   1      45.043  24.836  37.280  1.00  0.00     0.124 S 
ATOM     87  O   UNL A   1      45.890  23.789  36.718  1.00  0.00    -0.237 OA
ATOM     88  O   UNL A   1      45.498  25.415  38.540  1.00  0.00    -0.237 OA
ATOM     89  O   UNL A   1      43.606  24.581  37.199  1.00  0.00    -0.744 OA
ENDBRANCH  82  86
ENDBRANCH  56  79
ENDBRANCH  30  31
ENDBRANCH  22  25
ENDBRANCH  20  21
ENDBRANCH  19  20
ENDBRANCH   1  19
TORSDOF 19
ENDMDL
MODEL 3
REMARK VINA RESULT:     -10.1      2.370      3.184
REMARK SMILES CCN(CC)C(=O)[C@H](C)S[C@H](C)C(=O)NCCCCNC(=O)c1ccc(-c2c3nc(c(-c4cc(S(=O)(=O)[O-])ccc4F)c4ccc([nH]4)c(-c4cc(S(=O)(=O)[O-])ccc4F)c4nc(c(-c5cc(S(=O)(=O)[O-])ccc5F)c5ccc2[nH]5)C=C4)C=C3)cc1
REMARK SMILES IDX 17 1 16 2 15 3 13 4 14 5 11 7 12 8 10 9 8 10 9 11 6 12 3 13
REMARK SMILES IDX 7 14 2 15 1 16 4 17 5 18 18 19 19 20 20 21 21 22 22 24 23 25
REMARK SMILES IDX 24 26 85 27 25 28 84 29 26 30 27 31 28 32 78 33 29 34 83 35
REMARK SMILES IDX 77 36 79 37 30 38 82 39 76 40 75 41 31 43 63 44 43 45 62 46
REMARK SMILES IDX 44 47 47 48 61 49 80 50 45 51 46 52 60 54 81 55 48 56 32 57
REMARK SMILES IDX 33 58 41 59 34 60 40 61 42 62 39 63 35 64 36 65 37 66 38 67
REMARK SMILES IDX 64 68 65 69 73 70 66 71 72 72 74 73 71 74 67 75 68 76 69 77
REMARK SMILES IDX 70 78 49 79 50 80 58 81 51 82 57 83 59 84 56 85 52 86 53 87
REMARK SMILES IDX 54 88 55 89
REMARK H PARENT 15 6 20 23 79 42 47 53
REMARK Flexibility Score: inf
ROOT
ATOM      1  C   UNL A   1      34.871  29.998  27.560  1.00  0.00     0.023 C 
ENDROOT
BRANCH   1   2
ATOM      2  C   UNL A   1      34.052  28.900  26.890  1.00  0.00     0.116 C 
BRANCH   2   3
ATOM      3  N   UNL A   1      34.114  28.924  25.443  1.00  0.00    -0.355 N 
ATOM      4  C   UNL A   1      33.139  28.995  24.495  1.00  0.00     0.232 C 
ATOM      5  O   UNL A   1      33.523  29.255  23.348  1.00  0.00    -0.274 OA
ATOM      6  H   UNL A   1      35.027  28.882  25.079  1.00  0.00     0.163 HD
BRANCH   4   7
ATOM      7  C   UNL A   1      31.648  28.772  24.767  1.00  0.00     0.133 C 
ATOM      8  C   UNL A   1      30.705  29.936  24.503  1.00  0.00     0.030 C 
BRANCH   7   9
ATOM      9  S   UNL A   1      30.987  27.148  24.213  1.00  0.00    -0.136 SA
BRANCH   9  10
ATOM     10  C   UNL A   1      32.156  25.935  24.931  1.00  0.00     0.133 C 
ATOM     11  C   UNL A   1      32.068  25.914  26.456  1.00  0.00     0.030 C 
BRANCH  10  12
ATOM     12  C   UNL A   1      31.829  24.500  24.468  1.00  0.00     0.235 C 
ATOM     13  N   UNL A   1      32.890  23.701  24.024  1.00  0.00    -0.342 N 
ATOM     14  O   UNL A   1      30.696  24.028  24.598  1.00  0.00    -0.274 OA
BRANCH  13  15
ATOM     15  C   UNL A   1      32.666  22.256  23.961  1.00  0.00     0.116 C 
ATOM     16  C   UNL A   1      32.406  21.814  22.526  1.00  0.00     0.027 C 
ENDBRANCH  13  15
BRANCH  13  17
ATOM     17  C   UNL A   1      34.219  24.178  23.636  1.00  0.00     0.116 C 
ATOM     18  C   UNL A   1      35.291  23.649  24.578  1.00  0.00     0.027 C 
ENDBRANCH  13  17
ENDBRANCH  10  12
ENDBRANCH   9  10
ENDBRANCH   7   9
ENDBRANCH   4   7
ENDBRANCH   2   3
ENDBRANCH   1   2
BRANCH   1  19
ATOM     19  C   UNL A   1      34.415  31.429  27.273  1.00  0.00     0.023 C 
BRANCH  19  20
ATOM     20  C   UNL A   1      32.966  31.758  27.625  1.00  0.00     0.116 C 
BRANCH  20  21
ATOM     21  N   UNL A   1      32.696  33.186  27.679  1.00  0.00    -0.352 N 
ATOM     22  C   UNL A   1      33.289  34.167  28.445  1.00  0.00     0.251 C 
ATOM     23  H   UNL A   1      31.982  33.500  27.078  1.00  0.00     0.163 HD
ATOM     24  O   UNL A   1      32.843  35.305  28.422  1.00  0.00    -0.269 OA
BRANCH  22  25
ATOM     25  C   UNL A   1      34.430  33.818  29.322  1.00  0.00     0.039 A 
ATOM     26  C   UNL A   1      34.214  32.948  30.394  1.00  0.00     0.014 A 
ATOM     27  C   UNL A   1      35.712  34.300  29.052  1.00  0.00     0.014 A 
ATOM     28  C   UNL A   1      35.305  32.480  31.132  1.00  0.00     0.010 A 
ATOM     29  C   UNL A   1      36.802  33.776  29.740  1.00  0.00     0.010 A 
ATOM     30  C   UNL A   1      36.613  32.845  30.775  1.00  0.00    -0.014 A 
BRANCH  30  31
ATOM     31  C   UNL A   1      37.798  32.244  31.443  1.00  0.00     0.031 A 
ATOM     32  C   UNL A   1      38.529  31.098  30.801  1.00  0.00     0.074 A 
ATOM     33  C   UNL A   1      38.162  32.674  32.668  1.00  0.00     0.049 A 
ATOM     34  N   UNL A   1      39.507  30.370  31.273  1.00  0.00    -0.248 NA
ATOM     35  C   UNL A   1      38.075  30.703  29.459  1.00  0.00     0.031 C 
ATOM     36  C   UNL A   1      37.511  33.753  33.416  1.00  0.00     0.029 A 
ATOM     37  N   UNL A   1      39.160  32.247  33.510  1.00  0.00    -0.354 N 
ATOM     38  C   UNL A   1      39.779  29.421  30.294  1.00  0.00     0.074 A 
ATOM     39  C   UNL A   1      38.818  29.631  29.232  1.00  0.00     0.031 C 
ATOM     40  C   UNL A   1      38.139  33.917  34.591  1.00  0.00     0.029 A 
ATOM     41  C   UNL A   1      39.205  32.927  34.706  1.00  0.00     0.049 A 
ATOM     42  H   UNL A   1      39.786  31.524  33.279  1.00  0.00     0.167 HD
ATOM     43  C   UNL A   1      40.755  28.477  30.271  1.00  0.00     0.034 A 
ATOM     44  C   UNL A   1      40.001  32.760  35.781  1.00  0.00     0.034 A 
ATOM     45  C   UNL A   1      41.709  28.283  31.336  1.00  0.00     0.049 A 
ATOM     46  C   UNL A   1      41.050  31.678  35.752  1.00  0.00     0.074 A 
ATOM     47  C   UNL A   1      42.767  27.390  31.395  1.00  0.00     0.029 A 
ATOM     48  N   UNL A   1      41.718  28.985  32.535  1.00  0.00    -0.354 N 
ATOM     49  N   UNL A   1      41.321  30.816  34.801  1.00  0.00    -0.248 NA
ATOM     50  C   UNL A   1      41.902  31.551  36.942  1.00  0.00     0.031 C 
ATOM     51  C   UNL A   1      43.373  27.510  32.651  1.00  0.00     0.029 A 
ATOM     52  C   UNL A   1      42.743  28.526  33.350  1.00  0.00     0.049 A 
ATOM     53  H   UNL A   1      41.089  29.704  32.772  1.00  0.00     0.167 HD
ATOM     54  C   UNL A   1      42.397  30.064  35.267  1.00  0.00     0.074 A 
ATOM     55  C   UNL A   1      42.730  30.583  36.578  1.00  0.00     0.031 C 
ATOM     56  C   UNL A   1      43.056  29.043  34.661  1.00  0.00     0.034 A 
BRANCH  43  57
ATOM     57  C   UNL A   1      40.813  27.576  29.061  1.00  0.00     0.023 A 
ATOM     58  C   UNL A   1      41.754  27.780  28.036  1.00  0.00     0.031 A 
ATOM     59  C   UNL A   1      39.891  26.526  28.906  1.00  0.00     0.131 A 
ATOM     60  C   UNL A   1      41.696  27.009  26.866  1.00  0.00     0.055 A 
ATOM     61  C   UNL A   1      39.894  25.705  27.776  1.00  0.00     0.041 A 
ATOM     62  F   UNL A   1      38.956  26.293  29.840  1.00  0.00    -0.206 F 
ATOM     63  C   UNL A   1      40.788  25.956  26.739  1.00  0.00     0.022 A 
BRANCH  60  64
ATOM     64  S   UNL A   1      42.715  27.510  25.453  1.00  0.00     0.124 S 
ATOM     65  O   UNL A   1      43.987  27.823  26.102  1.00  0.00    -0.237 OA
ATOM     66  O   UNL A   1      42.702  26.318  24.614  1.00  0.00    -0.237 OA
ATOM     67  O   UNL A   1      42.003  28.665  24.909  1.00  0.00    -0.744 OA
ENDBRANCH  60  64
ENDBRANCH  43  57
BRANCH  44  68
ATOM     68  C   UNL A   1      39.839  33.627  36.983  1.00  0.00     0.023 A 
ATOM     69  C   UNL A   1      39.116  33.180  38.099  1.00  0.00     0.031 A 
ATOM     70  C   UNL A   1      40.370  34.929  37.018  1.00  0.00     0.131 A 
ATOM     71  C   UNL A   1      38.904  34.041  39.187  1.00  0.00     0.055 A 
ATOM     72  C   UNL A   1      40.199  35.765  38.123  1.00  0.00     0.041 A 
ATOM     73  F   UNL A   1      41.077  35.402  35.980  1.00  0.00    -0.206 F 
ATOM     74  C   UNL A   1      39.451  35.326  39.211  1.00  0.00     0.022 A 
BRANCH  71  75
ATOM     75  S   UNL A   1      37.838  33.481  40.543  1.00  0.00     0.124 S 
ATOM     76  O   UNL A   1      37.725  34.689  41.351  1.00  0.00    -0.237 OA
ATOM     77  O   UNL A   1      36.633  33.070  39.828  1.00  0.00    -0.237 OA
ATOM     78  O   UNL A   1      38.601  32.391  41.148  1.00  0.00    -0.744 OA
ENDBRANCH  71  75
ENDBRANCH  44  68
BRANCH  56  79
ATOM     79  C   UNL A   1      44.233  28.455  35.399  1.00  0.00     0.023 A 
ATOM     80  C   UNL A   1      44.069  27.479  36.397  1.00  0.00     0.031 A 
ATOM     81  C   UNL A   1      45.538  28.888  35.103  1.00  0.00     0.131 A 
ATOM     82  C   UNL A   1      45.188  27.003  37.098  1.00  0.00     0.055 A 
ATOM     83  C   UNL A   1      46.652  28.371  35.765  1.00  0.00     0.041 A 
ATOM     84  F   UNL A   1      45.750  29.821  34.161  1.00  0.00    -0.206 F 
ATOM     85  C   UNL A   1      46.479  27.431  36.777  1.00  0.00     0.022 A 
BRANCH  82  86
ATOM     86  S   UNL A   1      44.929  25.873  38.494  1.00  0.00     0.124 S 
ATOM     87  O   UNL A   1      43.809  26.500  39.187  1.00  0.00    -0.237 OA
ATOM     88  O   UNL A   1      44.636  24.611  37.823  1.00  0.00    -0.237 OA
ATOM     89  O   UNL A   1      46.203  25.913  39.209  1.00  0.00    -0.744 OA
ENDBRANCH  82  86
ENDBRANCH  56  79
ENDBRANCH  30  31
ENDBRANCH  22  25
ENDBRANCH  20  21
ENDBRANCH  19  20
ENDBRANCH   1  19
TORSDOF 19
ENDMDL
