MODEL 1
REMARK VINA RESULT:      -6.8      0.000      0.000
REMARK SMILES CC(C)C[C@H](NC(=O)[C@H](Cc1ccccc1)NC(=O)CNC(=O)CNC(=O)OCc1ccccc1)C(=O)NCCCCNC(=O)c1ccc(-c2c3nc(c(-c4cc(S(=O)(=O)[O-])ccc4F)c4ccc([nH]4)c(-c4cc(S(=O)(=O)[O-])ccc4F)c4nc(c(-c5cc(S(=O)(=O)[O-])ccc5F)c5ccc2[nH]5)C=C4)C=C3)cc1
REMARK SMILES IDX 5 1 4 2 2 3 1 4 3 5 36 6 37 7 38 8 39 10 40 11 41 12 42 13
REMARK SMILES IDX 43 14 44 15 45 17 46 18 47 19 108 20 48 21 107 22 49 23
REMARK SMILES IDX 50 24 51 25 101 26 52 27 106 28 100 29 102 30 53 31 105 32
REMARK SMILES IDX 99 33 98 34 54 36 86 37 66 38 85 39 67 40 70 41 84 42 103 43
REMARK SMILES IDX 68 44 69 45 83 47 104 48 71 49 55 50 56 51 64 52 57 53 63 54
REMARK SMILES IDX 65 55 62 56 58 57 59 58 60 59 61 60 87 61 88 62 96 63 89 64
REMARK SMILES IDX 95 65 97 66 94 67 90 68 91 69 92 70 93 71 72 72 73 73 81 74
REMARK SMILES IDX 74 75 80 76 82 77 79 78 75 79 76 80 77 81 78 82 6 83 7 84
REMARK SMILES IDX 8 86 9 87 17 88 18 89 19 91 20 92 21 93 22 94 23 96 24 97
REMARK SMILES IDX 25 98 26 99 27 101 28 102 29 103 30 104 31 105 35 106 32 107
REMARK SMILES IDX 34 108 33 109 10 110 11 111 12 112 16 113 13 114 15 115
REMARK SMILES IDX 14 116
REMARK H PARENT 38 9 43 16 102 35 70 46 6 85 17 90 21 95 25 100
REMARK Flexibility Score: inf
ROOT
ATOM      1  C   UNL A   1      48.742  27.212  27.092  1.00  0.00     0.171 C 
ENDROOT
BRANCH   1   2
ATOM      2  C   UNL A   1      50.053  26.559  26.424  1.00  0.00     0.038 C 
BRANCH   2   3
ATOM      3  C   UNL A   1      50.946  27.025  25.170  1.00  0.00    -0.015 C 
ATOM      4  C   UNL A   1      50.208  26.961  23.819  1.00  0.00     0.007 C 
ATOM      5  C   UNL A   1      51.431  28.505  25.222  1.00  0.00     0.007 C 
ENDBRANCH   2   3
ENDBRANCH   1   2
BRANCH   1   6
ATOM      6  C   UNL A   1      48.266  27.798  28.528  1.00  0.00     0.242 C 
ATOM      7  O   UNL A   1      49.111  28.557  29.061  1.00  0.00    -0.273 OA
ATOM      8  N   UNL A   1      47.274  27.465  29.428  1.00  0.00    -0.354 N 
ATOM      9  H   UNL A   1      47.445  27.905  30.292  1.00  0.00     0.163 HD
BRANCH   8  10
ATOM     10  C   UNL A   1      46.032  26.657  29.512  1.00  0.00     0.116 C 
BRANCH  10  11
ATOM     11  C   UNL A   1      45.866  25.357  28.685  1.00  0.00     0.023 C 
BRANCH  11  12
ATOM     12  C   UNL A   1      44.761  24.341  29.080  1.00  0.00     0.023 C 
BRANCH  12  13
ATOM     13  C   UNL A   1      43.974  24.496  30.394  1.00  0.00     0.116 C 
BRANCH  13  14
ATOM     14  N   UNL A   1      44.349  23.570  31.440  1.00  0.00    -0.352 N 
ATOM     15  C   UNL A   1      44.655  23.824  32.758  1.00  0.00     0.251 C 
ATOM     16  H   UNL A   1      44.392  22.624  31.171  1.00  0.00     0.163 HD
ATOM     17  O   UNL A   1      45.116  22.916  33.448  1.00  0.00    -0.269 OA
BRANCH  15  18
ATOM     18  C   UNL A   1      44.468  25.173  33.358  1.00  0.00     0.039 A 
ATOM     19  C   UNL A   1      43.336  25.400  34.145  1.00  0.00     0.014 A 
ATOM     20  C   UNL A   1      45.343  26.235  33.095  1.00  0.00     0.014 A 
ATOM     21  C   UNL A   1      43.106  26.664  34.706  1.00  0.00     0.010 A 
ATOM     22  C   UNL A   1      45.141  27.482  33.703  1.00  0.00     0.010 A 
ATOM     23  C   UNL A   1      44.017  27.716  34.515  1.00  0.00    -0.014 A 
BRANCH  23  24
ATOM     24  C   UNL A   1      43.785  29.052  35.145  1.00  0.00     0.031 A 
ATOM     25  C   UNL A   1      43.065  30.143  34.390  1.00  0.00     0.074 A 
ATOM     26  C   UNL A   1      44.238  29.299  36.392  1.00  0.00     0.049 A 
ATOM     27  N   UNL A   1      42.803  31.374  34.756  1.00  0.00    -0.248 NA
ATOM     28  C   UNL A   1      42.601  29.812  33.036  1.00  0.00     0.031 C 
ATOM     29  C   UNL A   1      44.972  28.344  37.225  1.00  0.00     0.029 A 
ATOM     30  N   UNL A   1      44.154  30.423  37.180  1.00  0.00    -0.354 N 
ATOM     31  C   UNL A   1      42.149  31.965  33.679  1.00  0.00     0.074 A 
ATOM     32  C   UNL A   1      42.118  30.974  32.622  1.00  0.00     0.031 C 
ATOM     33  C   UNL A   1      45.246  28.911  38.410  1.00  0.00     0.029 A 
ATOM     34  C   UNL A   1      44.754  30.285  38.413  1.00  0.00     0.049 A 
ATOM     35  H   UNL A   1      43.705  31.251  36.890  1.00  0.00     0.167 HD
ATOM     36  C   UNL A   1      41.602  33.204  33.583  1.00  0.00     0.034 A 
ATOM     37  C   UNL A   1      44.905  31.164  39.426  1.00  0.00     0.034 A 
ATOM     38  C   UNL A   1      41.635  34.183  34.645  1.00  0.00     0.049 A 
ATOM     39  C   UNL A   1      44.326  32.552  39.283  1.00  0.00     0.074 A 
ATOM     40  C   UNL A   1      41.079  35.451  34.666  1.00  0.00     0.029 A 
ATOM     41  N   UNL A   1      42.266  34.010  35.871  1.00  0.00    -0.354 N 
ATOM     42  N   UNL A   1      43.674  33.075  38.271  1.00  0.00    -0.248 NA
ATOM     43  C   UNL A   1      44.495  33.463  40.423  1.00  0.00     0.031 C 
ATOM     44  C   UNL A   1      41.437  36.069  35.869  1.00  0.00     0.029 A 
ATOM     45  C   UNL A   1      42.141  35.158  36.639  1.00  0.00     0.049 A 
ATOM     46  H   UNL A   1      42.734  33.191  36.153  1.00  0.00     0.167 HD
ATOM     47  C   UNL A   1      43.327  34.365  38.668  1.00  0.00     0.074 A 
ATOM     48  C   UNL A   1      43.826  34.531  40.017  1.00  0.00     0.031 C 
ATOM     49  C   UNL A   1      42.651  35.321  37.981  1.00  0.00     0.034 A 
BRANCH  36  50
ATOM     50  C   UNL A   1      40.944  33.578  32.273  1.00  0.00     0.023 A 
ATOM     51  C   UNL A   1      39.614  33.225  31.989  1.00  0.00     0.031 A 
ATOM     52  C   UNL A   1      41.660  34.280  31.285  1.00  0.00     0.131 A 
ATOM     53  C   UNL A   1      39.069  33.497  30.724  1.00  0.00     0.055 A 
ATOM     54  C   UNL A   1      41.082  34.626  30.062  1.00  0.00     0.041 A 
ATOM     55  F   UNL A   1      42.940  34.630  31.487  1.00  0.00    -0.206 F 
ATOM     56  C   UNL A   1      39.784  34.221  29.768  1.00  0.00     0.022 A 
BRANCH  53  57
ATOM     57  S   UNL A   1      37.472  32.753  30.293  1.00  0.00     0.124 S 
ATOM     58  O   UNL A   1      36.911  32.473  31.613  1.00  0.00    -0.237 OA
ATOM     59  O   UNL A   1      36.823  33.816  29.535  1.00  0.00    -0.237 OA
ATOM     60  O   UNL A   1      37.843  31.570  29.518  1.00  0.00    -0.744 OA
ENDBRANCH  53  57
ENDBRANCH  36  50
BRANCH  37  61
ATOM     61  C   UNL A   1      45.651  30.777  40.661  1.00  0.00     0.023 A 
ATOM     62  C   UNL A   1      45.011  30.119  41.725  1.00  0.00     0.031 A 
ATOM     63  C   UNL A   1      47.010  31.108  40.816  1.00  0.00     0.131 A 
ATOM     64  C   UNL A   1      45.714  29.858  42.912  1.00  0.00     0.055 A 
ATOM     65  C   UNL A   1      47.720  30.791  41.976  1.00  0.00     0.041 A 
ATOM     66  F   UNL A   1      47.672  31.736  39.832  1.00  0.00    -0.206 F 
ATOM     67  C   UNL A   1      47.068  30.175  43.038  1.00  0.00     0.022 A 
BRANCH  64  68
ATOM     68  S   UNL A   1      44.806  29.184  44.331  1.00  0.00     0.124 S 
ATOM     69  O   UNL A   1      45.411  27.865  44.473  1.00  0.00    -0.237 OA
ATOM     70  O   UNL A   1      45.120  30.151  45.378  1.00  0.00    -0.237 OA
ATOM     71  O   UNL A   1      43.416  29.190  43.878  1.00  0.00    -0.744 OA
ENDBRANCH  64  68
ENDBRANCH  37  61
BRANCH  49  72
ATOM     72  C   UNL A   1      42.372  36.621  38.700  1.00  0.00     0.023 A 
ATOM     73  C   UNL A   1      41.181  36.834  39.417  1.00  0.00     0.031 A 
ATOM     74  C   UNL A   1      43.314  37.666  38.661  1.00  0.00     0.131 A 
ATOM     75  C   UNL A   1      40.938  38.081  40.015  1.00  0.00     0.055 A 
ATOM     76  C   UNL A   1      43.096  38.879  39.315  1.00  0.00     0.041 A 
ATOM     77  F   UNL A   1      44.467  37.522  37.990  1.00  0.00    -0.206 F 
ATOM     78  C   UNL A   1      41.896  39.098  39.985  1.00  0.00     0.022 A 
BRANCH  75  79
ATOM     79  S   UNL A   1      39.308  38.393  40.747  1.00  0.00     0.124 S 
ATOM     80  O   UNL A   1      39.073  37.164  41.498  1.00  0.00    -0.237 OA
ATOM     81  O   UNL A   1      39.548  39.592  41.544  1.00  0.00    -0.237 OA
ATOM     82  O   UNL A   1      38.442  38.585  39.584  1.00  0.00    -0.744 OA
ENDBRANCH  75  79
ENDBRANCH  49  72
ENDBRANCH  23  24
ENDBRANCH  15  18
ENDBRANCH  13  14
ENDBRANCH  12  13
ENDBRANCH  11  12
ENDBRANCH  10  11
ENDBRANCH   8  10
ENDBRANCH   1   6
BRANCH   1  83
ATOM     83  N   UNL A   1      47.916  28.169  26.292  1.00  0.00    -0.343 N 
ATOM     84  C   UNL A   1      46.682  28.432  25.849  1.00  0.00     0.243 C 
ATOM     85  H   UNL A   1      48.512  28.881  25.965  1.00  0.00     0.164 HD
ATOM     86  O   UNL A   1      46.535  29.572  25.394  1.00  0.00    -0.273 OA
BRANCH  84  87
ATOM     87  C   UNL A   1      45.544  27.420  25.837  1.00  0.00     0.175 C 
BRANCH  87  88
ATOM     88  N   UNL A   1      44.309  28.104  25.462  1.00  0.00    -0.342 N 
ATOM     89  C   UNL A   1      43.134  28.269  26.120  1.00  0.00     0.240 C 
ATOM     90  H   UNL A   1      44.334  28.521  24.570  1.00  0.00     0.164 HD
ATOM     91  O   UNL A   1      42.304  29.012  25.583  1.00  0.00    -0.273 OA
BRANCH  89  92
ATOM     92  C   UNL A   1      42.800  27.598  27.478  1.00  0.00     0.216 C 
BRANCH  92  93
ATOM     93  N   UNL A   1      41.508  27.791  28.153  1.00  0.00    -0.346 N 
ATOM     94  C   UNL A   1      41.406  28.621  29.254  1.00  0.00     0.239 C 
ATOM     95  H   UNL A   1      40.709  27.323  27.818  1.00  0.00     0.164 HD
ATOM     96  O   UNL A   1      41.841  29.771  29.150  1.00  0.00    -0.273 OA
BRANCH  94  97
ATOM     97  C   UNL A   1      40.535  28.210  30.524  1.00  0.00     0.219 C 
BRANCH  97  98
ATOM     98  N   UNL A   1      39.209  28.783  30.795  1.00  0.00    -0.312 N 
ATOM     99  C   UNL A   1      38.415  29.181  31.839  1.00  0.00     0.407 C 
ATOM    100  H   UNL A   1      38.733  28.928  29.945  1.00  0.00     0.167 HD
ATOM    101  O   UNL A   1      37.237  28.974  31.481  1.00  0.00    -0.225 OA
BRANCH  99 102
ATOM    102  O   UNL A   1      38.791  29.653  33.085  1.00  0.00    -0.445 OA
BRANCH 102 103
ATOM    103  C   UNL A   1      37.987  30.600  34.049  1.00  0.00     0.270 C 
BRANCH 103 104
ATOM    104  C   UNL A   1      38.318  31.623  35.207  1.00  0.00    -0.011 A 
ATOM    105  C   UNL A   1      39.290  31.472  36.195  1.00  0.00     0.007 A 
ATOM    106  C   UNL A   1      37.438  32.701  35.484  1.00  0.00     0.007 A 
ATOM    107  C   UNL A   1      39.553  32.500  37.150  1.00  0.00     0.000 A 
ATOM    108  C   UNL A   1      37.743  33.787  36.330  1.00  0.00     0.000 A 
ATOM    109  C   UNL A   1      38.846  33.703  37.148  1.00  0.00     0.000 A 
ENDBRANCH 103 104
ENDBRANCH 102 103
ENDBRANCH  99 102
ENDBRANCH  97  98
ENDBRANCH  94  97
ENDBRANCH  92  93
ENDBRANCH  89  92
ENDBRANCH  87  88
BRANCH  87 110
ATOM    110  C   UNL A   1      45.907  26.298  24.816  1.00  0.00     0.070 C 
BRANCH 110 111
ATOM    111  C   UNL A   1      45.403  24.906  25.116  1.00  0.00    -0.045 A 
ATOM    112  C   UNL A   1      46.312  23.893  25.448  1.00  0.00     0.004 A 
ATOM    113  C   UNL A   1      44.036  24.619  25.191  1.00  0.00     0.004 A 
ATOM    114  C   UNL A   1      45.864  22.600  25.723  1.00  0.00     0.000 A 
ATOM    115  C   UNL A   1      43.588  23.315  25.395  1.00  0.00     0.000 A 
ATOM    116  C   UNL A   1      44.504  22.302  25.654  1.00  0.00     0.000 A 
ENDBRANCH 110 111
ENDBRANCH  87 110
ENDBRANCH  84  87
ENDBRANCH   1  83
TORSDOF 28
ENDMDL
MODEL 2
REMARK VINA RESULT:      -6.7      4.484      7.915
REMARK SMILES CC(C)C[C@H](NC(=O)[C@H](Cc1ccccc1)NC(=O)CNC(=O)CNC(=O)OCc1ccccc1)C(=O)NCCCCNC(=O)c1ccc(-c2c3nc(c(-c4cc(S(=O)(=O)[O-])ccc4F)c4ccc([nH]4)c(-c4cc(S(=O)(=O)[O-])ccc4F)c4nc(c(-c5cc(S(=O)(=O)[O-])ccc5F)c5ccc2[nH]5)C=C4)C=C3)cc1
REMARK SMILES IDX 5 1 4 2 2 3 1 4 3 5 36 6 37 7 38 8 39 10 40 11 41 12 42 13
REMARK SMILES IDX 43 14 44 15 45 17 46 18 47 19 108 20 48 21 107 22 49 23
REMARK SMILES IDX 50 24 51 25 101 26 52 27 106 28 100 29 102 30 53 31 105 32
REMARK SMILES IDX 99 33 98 34 54 36 86 37 66 38 85 39 67 40 70 41 84 42 103 43
REMARK SMILES IDX 68 44 69 45 83 47 104 48 71 49 55 50 56 51 64 52 57 53 63 54
REMARK SMILES IDX 65 55 62 56 58 57 59 58 60 59 61 60 87 61 88 62 96 63 89 64
REMARK SMILES IDX 95 65 97 66 94 67 90 68 91 69 92 70 93 71 72 72 73 73 81 74
REMARK SMILES IDX 74 75 80 76 82 77 79 78 75 79 76 80 77 81 78 82 6 83 7 84
REMARK SMILES IDX 8 86 9 87 17 88 18 89 19 91 20 92 21 93 22 94 23 96 24 97
REMARK SMILES IDX 25 98 26 99 27 101 28 102 29 103 30 104 31 105 35 106 32 107
REMARK SMILES IDX 34 108 33 109 10 110 11 111 12 112 16 113 13 114 15 115
REMARK SMILES IDX 14 116
REMARK H PARENT 38 9 43 16 102 35 70 46 6 85 17 90 21 95 25 100
REMARK Flexibility Score: inf
ROOT
ATOM      1  C   UNL A   1      45.604  34.246  27.139  1.00  0.00     0.171 C 
ENDROOT
BRANCH   1   2
ATOM      2  C   UNL A   1      45.354  35.052  28.510  1.00  0.00     0.038 C 
BRANCH   2   3
ATOM      3  C   UNL A   1      44.520  36.394  28.811  1.00  0.00    -0.015 C 
ATOM      4  C   UNL A   1      43.598  36.294  30.042  1.00  0.00     0.007 C 
ATOM      5  C   UNL A   1      45.386  37.648  29.137  1.00  0.00     0.007 C 
ENDBRANCH   2   3
ENDBRANCH   1   2
BRANCH   1   6
ATOM      6  C   UNL A   1      46.079  34.544  25.617  1.00  0.00     0.242 C 
ATOM      7  O   UNL A   1      45.176  34.355  24.767  1.00  0.00    -0.273 OA
ATOM      8  N   UNL A   1      47.303  34.704  25.000  1.00  0.00    -0.354 N 
ATOM      9  H   UNL A   1      47.196  34.642  24.023  1.00  0.00     0.163 HD
BRANCH   8  10
ATOM     10  C   UNL A   1      48.730  34.940  25.335  1.00  0.00     0.116 C 
BRANCH  10  11
ATOM     11  C   UNL A   1      49.150  35.432  26.743  1.00  0.00     0.023 C 
BRANCH  11  12
ATOM     12  C   UNL A   1      50.616  35.876  26.987  1.00  0.00     0.023 C 
BRANCH  12  13
ATOM     13  C   UNL A   1      51.282  35.693  28.363  1.00  0.00     0.116 C 
BRANCH  13  14
ATOM     14  N   UNL A   1      51.953  34.424  28.548  1.00  0.00    -0.352 N 
ATOM     15  C   UNL A   1      51.617  33.374  29.374  1.00  0.00     0.251 C 
ATOM     16  H   UNL A   1      52.765  34.292  28.007  1.00  0.00     0.163 HD
ATOM     17  O   UNL A   1      52.414  32.447  29.512  1.00  0.00    -0.269 OA
BRANCH  15  18
ATOM     18  C   UNL A   1      50.331  33.349  30.122  1.00  0.00     0.039 A 
ATOM     19  C   UNL A   1      50.363  33.528  31.507  1.00  0.00     0.014 A 
ATOM     20  C   UNL A   1      49.108  33.077  29.495  1.00  0.00     0.014 A 
ATOM     21  C   UNL A   1      49.178  33.483  32.255  1.00  0.00     0.010 A 
ATOM     22  C   UNL A   1      47.918  33.089  30.237  1.00  0.00     0.010 A 
ATOM     23  C   UNL A   1      47.936  33.288  31.628  1.00  0.00    -0.014 A 
BRANCH  23  24
ATOM     24  C   UNL A   1      46.671  33.277  32.425  1.00  0.00     0.031 A 
ATOM     25  C   UNL A   1      45.982  34.568  32.793  1.00  0.00     0.074 A 
ATOM     26  C   UNL A   1      46.145  32.105  32.841  1.00  0.00     0.049 A 
ATOM     27  N   UNL A   1      44.900  34.759  33.508  1.00  0.00    -0.248 NA
ATOM     28  C   UNL A   1      46.607  35.808  32.314  1.00  0.00     0.031 C 
ATOM     29  C   UNL A   1      46.721  30.785  32.578  1.00  0.00     0.029 A 
ATOM     30  N   UNL A   1      45.013  31.829  33.571  1.00  0.00    -0.354 N 
ATOM     31  C   UNL A   1      44.717  36.138  33.567  1.00  0.00     0.074 A 
ATOM     32  C   UNL A   1      45.841  36.732  32.874  1.00  0.00     0.031 C 
ATOM     33  C   UNL A   1      45.929  29.842  33.114  1.00  0.00     0.029 A 
ATOM     34  C   UNL A   1      44.812  30.485  33.802  1.00  0.00     0.049 A 
ATOM     35  H   UNL A   1      44.401  32.527  33.900  1.00  0.00     0.167 HD
ATOM     36  C   UNL A   1      43.699  36.844  34.124  1.00  0.00     0.034 A 
ATOM     37  C   UNL A   1      43.851  29.841  34.496  1.00  0.00     0.034 A 
ATOM     38  C   UNL A   1      42.581  36.240  34.810  1.00  0.00     0.049 A 
ATOM     39  C   UNL A   1      42.750  30.648  35.143  1.00  0.00     0.074 A 
ATOM     40  C   UNL A   1      41.479  36.860  35.375  1.00  0.00     0.029 A 
ATOM     41  N   UNL A   1      42.424  34.877  35.035  1.00  0.00    -0.354 N 
ATOM     42  N   UNL A   1      42.574  31.949  35.151  1.00  0.00    -0.248 NA
ATOM     43  C   UNL A   1      41.714  29.898  35.865  1.00  0.00     0.031 C 
ATOM     44  C   UNL A   1      40.698  35.884  36.004  1.00  0.00     0.029 A 
ATOM     45  C   UNL A   1      41.263  34.644  35.758  1.00  0.00     0.049 A 
ATOM     46  H   UNL A   1      43.046  34.180  34.726  1.00  0.00     0.167 HD
ATOM     47  C   UNL A   1      41.390  32.168  35.850  1.00  0.00     0.074 A 
ATOM     48  C   UNL A   1      40.886  30.865  36.231  1.00  0.00     0.031 C 
ATOM     49  C   UNL A   1      40.772  33.341  36.144  1.00  0.00     0.034 A 
BRANCH  36  50
ATOM     50  C   UNL A   1      43.765  38.353  34.034  1.00  0.00     0.023 A 
ATOM     51  C   UNL A   1      43.395  39.039  32.865  1.00  0.00     0.031 A 
ATOM     52  C   UNL A   1      44.222  39.117  35.124  1.00  0.00     0.131 A 
ATOM     53  C   UNL A   1      43.567  40.429  32.781  1.00  0.00     0.055 A 
ATOM     54  C   UNL A   1      44.305  40.510  35.065  1.00  0.00     0.041 A 
ATOM     55  F   UNL A   1      44.608  38.521  36.263  1.00  0.00    -0.206 F 
ATOM     56  C   UNL A   1      43.993  41.173  33.883  1.00  0.00     0.022 A 
BRANCH  53  57
ATOM     57  S   UNL A   1      43.378  41.228  31.163  1.00  0.00     0.124 S 
ATOM     58  O   UNL A   1      43.040  40.090  30.311  1.00  0.00    -0.237 OA
ATOM     59  O   UNL A   1      42.305  42.184  31.407  1.00  0.00    -0.237 OA
ATOM     60  O   UNL A   1      44.694  41.814  30.914  1.00  0.00    -0.744 OA
ENDBRANCH  53  57
ENDBRANCH  36  50
BRANCH  37  61
ATOM     61  C   UNL A   1      43.886  28.354  34.639  1.00  0.00     0.023 A 
ATOM     62  C   UNL A   1      44.491  27.742  35.750  1.00  0.00     0.031 A 
ATOM     63  C   UNL A   1      43.356  27.520  33.638  1.00  0.00     0.131 A 
ATOM     64  C   UNL A   1      44.596  26.342  35.808  1.00  0.00     0.055 A 
ATOM     65  C   UNL A   1      43.410  26.128  33.730  1.00  0.00     0.041 A 
ATOM     66  F   UNL A   1      42.766  28.049  32.555  1.00  0.00    -0.206 F 
ATOM     67  C   UNL A   1      44.045  25.532  34.814  1.00  0.00     0.022 A 
BRANCH  64  68
ATOM     68  S   UNL A   1      45.553  25.597  37.158  1.00  0.00     0.124 S 
ATOM     69  O   UNL A   1      46.355  26.727  37.612  1.00  0.00    -0.237 OA
ATOM     70  O   UNL A   1      44.500  25.151  38.065  1.00  0.00    -0.237 OA
ATOM     71  O   UNL A   1      46.297  24.527  36.497  1.00  0.00    -0.744 OA
ENDBRANCH  64  68
ENDBRANCH  37  61
BRANCH  49  72
ATOM     72  C   UNL A   1      39.453  33.261  36.878  1.00  0.00     0.023 A 
ATOM     73  C   UNL A   1      39.386  33.102  38.274  1.00  0.00     0.031 A 
ATOM     74  C   UNL A   1      38.242  33.339  36.165  1.00  0.00     0.131 A 
ATOM     75  C   UNL A   1      38.139  32.968  38.904  1.00  0.00     0.055 A 
ATOM     76  C   UNL A   1      37.004  33.273  36.805  1.00  0.00     0.041 A 
ATOM     77  F   UNL A   1      38.243  33.487  34.831  1.00  0.00    -0.206 F 
ATOM     78  C   UNL A   1      36.948  33.072  38.182  1.00  0.00     0.022 A 
BRANCH  75  79
ATOM     79  S   UNL A   1      38.096  32.552  40.669  1.00  0.00     0.124 S 
ATOM     80  O   UNL A   1      37.015  33.404  41.155  1.00  0.00    -0.237 OA
ATOM     81  O   UNL A   1      37.818  31.119  40.646  1.00  0.00    -0.237 OA
ATOM     82  O   UNL A   1      39.432  32.916  41.139  1.00  0.00    -0.744 OA
ENDBRANCH  75  79
ENDBRANCH  49  72
ENDBRANCH  23  24
ENDBRANCH  15  18
ENDBRANCH  13  14
ENDBRANCH  12  13
ENDBRANCH  11  12
ENDBRANCH  10  11
ENDBRANCH   8  10
ENDBRANCH   1   6
BRANCH   1  83
ATOM     83  N   UNL A   1      46.228  32.887  27.197  1.00  0.00    -0.343 N 
ATOM     84  C   UNL A   1      45.994  31.595  27.446  1.00  0.00     0.243 C 
ATOM     85  H   UNL A   1      47.178  32.981  26.958  1.00  0.00     0.164 HD
ATOM     86  O   UNL A   1      46.896  30.832  27.080  1.00  0.00    -0.273 OA
BRANCH  84  87
ATOM     87  C   UNL A   1      44.760  31.073  28.171  1.00  0.00     0.175 C 
BRANCH  87  88
ATOM     88  N   UNL A   1      44.918  29.638  28.398  1.00  0.00    -0.342 N 
ATOM     89  C   UNL A   1      44.695  28.568  27.594  1.00  0.00     0.240 C 
ATOM     90  H   UNL A   1      45.247  29.407  29.297  1.00  0.00     0.164 HD
ATOM     91  O   UNL A   1      45.042  27.467  28.038  1.00  0.00    -0.273 OA
BRANCH  89  92
ATOM     92  C   UNL A   1      44.055  28.662  26.185  1.00  0.00     0.216 C 
BRANCH  92  93
ATOM     93  N   UNL A   1      44.090  27.544  25.230  1.00  0.00    -0.346 N 
ATOM     94  C   UNL A   1      43.037  26.652  25.151  1.00  0.00     0.239 C 
ATOM     95  H   UNL A   1      44.872  27.429  24.643  1.00  0.00     0.164 HD
ATOM     96  O   UNL A   1      41.902  27.114  25.000  1.00  0.00    -0.273 OA
BRANCH  94  97
ATOM     97  C   UNL A   1      43.287  25.085  25.002  1.00  0.00     0.219 C 
BRANCH  97  98
ATOM     98  N   UNL A   1      42.575  24.088  25.813  1.00  0.00    -0.312 N 
ATOM     99  C   UNL A   1      41.472  23.962  26.617  1.00  0.00     0.407 C 
ATOM    100  H   UNL A   1      43.046  23.225  25.762  1.00  0.00     0.167 HD
ATOM    101  O   UNL A   1      41.762  23.103  27.476  1.00  0.00    -0.225 OA
BRANCH  99 102
ATOM    102  O   UNL A   1      40.282  24.668  26.577  1.00  0.00    -0.445 OA
BRANCH 102 103
ATOM    103  C   UNL A   1      39.541  25.393  27.759  1.00  0.00     0.270 C 
BRANCH 103 104
ATOM    104  C   UNL A   1      39.411  26.868  28.313  1.00  0.00    -0.011 A 
ATOM    105  C   UNL A   1      39.655  28.044  27.606  1.00  0.00     0.007 A 
ATOM    106  C   UNL A   1      39.275  27.100  29.706  1.00  0.00     0.007 A 
ATOM    107  C   UNL A   1      39.432  29.328  28.189  1.00  0.00     0.000 A 
ATOM    108  C   UNL A   1      38.929  28.340  30.281  1.00  0.00     0.000 A 
ATOM    109  C   UNL A   1      38.967  29.469  29.496  1.00  0.00     0.000 A 
ENDBRANCH 103 104
ENDBRANCH 102 103
ENDBRANCH  99 102
ENDBRANCH  97  98
ENDBRANCH  94  97
ENDBRANCH  92  93
ENDBRANCH  89  92
ENDBRANCH  87  88
BRANCH  87 110
ATOM    110  C   UNL A   1      44.625  31.851  29.516  1.00  0.00     0.070 C 
BRANCH 110 111
ATOM    111  C   UNL A   1      43.252  31.905  30.144  1.00  0.00    -0.045 A 
ATOM    112  C   UNL A   1      42.373  32.942  29.807  1.00  0.00     0.004 A 
ATOM    113  C   UNL A   1      42.780  30.879  30.969  1.00  0.00     0.004 A 
ATOM    114  C   UNL A   1      41.103  33.011  30.381  1.00  0.00     0.000 A 
ATOM    115  C   UNL A   1      41.540  30.980  31.599  1.00  0.00     0.000 A 
ATOM    116  C   UNL A   1      40.703  32.052  31.310  1.00  0.00     0.000 A 
ENDBRANCH 110 111
ENDBRANCH  87 110
ENDBRANCH  84  87
ENDBRANCH   1  83
TORSDOF 28
ENDMDL
MODEL 3
REMARK VINA RESULT:      -6.5      3.398      5.027
REMARK SMILES CC(C)C[C@H](NC(=O)[C@H](Cc1ccccc1)NC(=O)CNC(=O)CNC(=O)OCc1ccccc1)C(=O)NCCCCNC(=O)c1ccc(-c2c3nc(c(-c4cc(S(=O)(=O)[O-])ccc4F)c4ccc([nH]4)c(-c4cc(S(=O)(=O)[O-])ccc4F)c4nc(c(-c5cc(S(=O)(=O)[O-])ccc5F)c5ccc2[nH]5)C=C4)C=C3)cc1
REMARK SMILES IDX 5 1 4 2 2 3 1 4 3 5 36 6 37 7 38 8 39 10 40 11 41 12 42 13
REMARK SMILES IDX 43 14 44 15 45 17 46 18 47 19 108 20 48 21 107 22 49 23
REMARK SMILES IDX 50 24 51 25 101 26 52 27 106 28 100 29 102 30 53 31 105 32
REMARK SMILES IDX 99 33 98 34 54 36 86 37 66 38 85 39 67 40 70 41 84 42 103 43
REMARK SMILES IDX 68 44 69 45 83 47 104 48 71 49 55 50 56 51 64 52 57 53 63 54
REMARK SMILES IDX 65 55 62 56 58 57 59 58 60 59 61 60 87 61 88 62 96 63 89 64
REMARK SMILES IDX 95 65 97 66 94 67 90 68 91 69 92 70 93 71 72 72 73 73 81 74
REMARK SMILES IDX 74 75 80 76 82 77 79 78 75 79 76 80 77 81 78 82 6 83 7 84
REMARK SMILES IDX 8 86 9 87 17 88 18 89 19 91 20 92 21 93 22 94 23 96 24 97
REMARK SMILES IDX 25 98 26 99 27 101 28 102 29 103 30 104 31 105 35 106 32 107
REMARK SMILES IDX 34 108 33 109 10 110 11 111 12 112 16 113 13 114 15 115
REMARK SMILES IDX 14 116
REMARK H PARENT 38 9 43 16 102 35 70 46 6 85 17 90 21 95 25 100
REMARK Flexibility Score: inf
ROOT
ATOM      1  C   UNL A   1      48.459  26.505  27.136  1.00  0.00     0.171 C 
ENDROOT
BRANCH   1   2
ATOM      2  C   UNL A   1      49.776  25.721  26.643  1.00  0.00     0.038 C 
BRANCH   2   3
ATOM      3  C   UNL A   1      51.201  26.264  26.130  1.00  0.00    -0.015 C 
ATOM      4  C   UNL A   1      52.197  25.149  25.757  1.00  0.00     0.007 C 
ATOM      5  C   UNL A   1      51.149  27.121  24.830  1.00  0.00     0.007 C 
ENDBRANCH   2   3
ENDBRANCH   1   2
BRANCH   1   6
ATOM      6  C   UNL A   1      47.909  27.251  28.467  1.00  0.00     0.242 C 
ATOM      7  O   UNL A   1      48.716  28.086  28.939  1.00  0.00    -0.273 OA
ATOM      8  N   UNL A   1      46.882  27.008  29.357  1.00  0.00    -0.354 N 
ATOM      9  H   UNL A   1      47.005  27.553  30.167  1.00  0.00     0.163 HD
BRANCH   8  10
ATOM     10  C   UNL A   1      45.649  26.190  29.485  1.00  0.00     0.116 C 
BRANCH  10  11
ATOM     11  C   UNL A   1      45.502  24.844  28.731  1.00  0.00     0.023 C 
BRANCH  11  12
ATOM     12  C   UNL A   1      44.475  23.798  29.239  1.00  0.00     0.023 C 
BRANCH  12  13
ATOM     13  C   UNL A   1      43.779  23.966  30.602  1.00  0.00     0.116 C 
BRANCH  13  14
ATOM     14  N   UNL A   1      44.238  23.060  31.633  1.00  0.00    -0.352 N 
ATOM     15  C   UNL A   1      44.549  23.326  32.949  1.00  0.00     0.251 C 
ATOM     16  H   UNL A   1      44.343  22.122  31.356  1.00  0.00     0.163 HD
ATOM     17  O   UNL A   1      45.085  22.447  33.622  1.00  0.00    -0.269 OA
BRANCH  15  18
ATOM     18  C   UNL A   1      44.278  24.654  33.563  1.00  0.00     0.039 A 
ATOM     19  C   UNL A   1      45.156  25.706  33.285  1.00  0.00     0.014 A 
ATOM     20  C   UNL A   1      43.227  24.860  34.463  1.00  0.00     0.014 A 
ATOM     21  C   UNL A   1      44.955  26.967  33.864  1.00  0.00     0.010 A 
ATOM     22  C   UNL A   1      42.995  26.136  34.998  1.00  0.00     0.010 A 
ATOM     23  C   UNL A   1      43.858  27.207  34.709  1.00  0.00    -0.014 A 
BRANCH  23  24
ATOM     24  C   UNL A   1      43.629  28.563  35.296  1.00  0.00     0.031 A 
ATOM     25  C   UNL A   1      42.690  29.540  34.632  1.00  0.00     0.074 A 
ATOM     26  C   UNL A   1      44.279  28.931  36.420  1.00  0.00     0.049 A 
ATOM     27  N   UNL A   1      42.392  30.771  34.972  1.00  0.00    -0.248 NA
ATOM     28  C   UNL A   1      42.016  29.080  33.410  1.00  0.00     0.031 C 
ATOM     29  C   UNL A   1      45.234  28.096  37.151  1.00  0.00     0.029 A 
ATOM     30  N   UNL A   1      44.243  30.098  37.147  1.00  0.00    -0.354 N 
ATOM     31  C   UNL A   1      41.502  31.232  34.007  1.00  0.00     0.074 A 
ATOM     32  C   UNL A   1      41.365  30.170  33.032  1.00  0.00     0.031 C 
ATOM     33  C   UNL A   1      45.671  28.764  38.230  1.00  0.00     0.029 A 
ATOM     34  C   UNL A   1      45.068  30.094  38.250  1.00  0.00     0.049 A 
ATOM     35  H   UNL A   1      43.678  30.867  36.902  1.00  0.00     0.167 HD
ATOM     36  C   UNL A   1      40.840  32.416  33.948  1.00  0.00     0.034 A 
ATOM     37  C   UNL A   1      45.325  31.051  39.166  1.00  0.00     0.034 A 
ATOM     38  C   UNL A   1      40.981  33.467  34.929  1.00  0.00     0.049 A 
ATOM     39  C   UNL A   1      44.610  32.378  39.058  1.00  0.00     0.074 A 
ATOM     40  C   UNL A   1      40.329  34.688  34.985  1.00  0.00     0.029 A 
ATOM     41  N   UNL A   1      41.839  33.429  36.022  1.00  0.00    -0.354 N 
ATOM     42  N   UNL A   1      43.739  32.777  38.160  1.00  0.00    -0.248 NA
ATOM     43  C   UNL A   1      44.904  33.376  40.095  1.00  0.00     0.031 C 
ATOM     44  C   UNL A   1      40.846  35.415  36.062  1.00  0.00     0.029 A 
ATOM     45  C   UNL A   1      41.756  34.617  36.735  1.00  0.00     0.049 A 
ATOM     46  H   UNL A   1      42.421  32.671  36.255  1.00  0.00     0.167 HD
ATOM     47  C   UNL A   1      43.359  34.061  38.544  1.00  0.00     0.074 A 
ATOM     48  C   UNL A   1      44.081  34.360  39.763  1.00  0.00     0.031 C 
ATOM     49  C   UNL A   1      42.487  34.912  37.945  1.00  0.00     0.034 A 
BRANCH  36  50
ATOM     50  C   UNL A   1      39.923  32.646  32.767  1.00  0.00     0.023 A 
ATOM     51  C   UNL A   1      38.569  32.269  32.800  1.00  0.00     0.031 A 
ATOM     52  C   UNL A   1      40.410  33.231  31.583  1.00  0.00     0.131 A 
ATOM     53  C   UNL A   1      37.774  32.401  31.651  1.00  0.00     0.055 A 
ATOM     54  C   UNL A   1      39.589  33.442  30.473  1.00  0.00     0.041 A 
ATOM     55  F   UNL A   1      41.697  33.596  31.480  1.00  0.00    -0.206 F 
ATOM     56  C   UNL A   1      38.266  33.012  30.497  1.00  0.00     0.022 A 
BRANCH  53  57
ATOM     57  S   UNL A   1      36.137  31.620  31.638  1.00  0.00     0.124 S 
ATOM     58  O   UNL A   1      35.543  32.201  30.436  1.00  0.00    -0.237 OA
ATOM     59  O   UNL A   1      36.464  30.201  31.568  1.00  0.00    -0.237 OA
ATOM     60  O   UNL A   1      35.536  32.061  32.896  1.00  0.00    -0.744 OA
ENDBRANCH  53  57
ENDBRANCH  36  50
BRANCH  37  61
ATOM     61  C   UNL A   1      46.316  30.811  40.258  1.00  0.00     0.023 A 
ATOM     62  C   UNL A   1      47.678  31.111  40.087  1.00  0.00     0.031 A 
ATOM     63  C   UNL A   1      45.921  30.227  41.475  1.00  0.00     0.131 A 
ATOM     64  C   UNL A   1      48.600  30.782  41.093  1.00  0.00     0.055 A 
ATOM     65  C   UNL A   1      46.834  29.957  42.497  1.00  0.00     0.041 A 
ATOM     66  F   UNL A   1      44.633  29.919  41.694  1.00  0.00    -0.206 F 
ATOM     67  C   UNL A   1      48.184  30.222  42.303  1.00  0.00     0.022 A 
BRANCH  64  68
ATOM     68  S   UNL A   1      50.370  31.006  40.759  1.00  0.00     0.124 S 
ATOM     69  O   UNL A   1      50.853  31.508  42.040  1.00  0.00    -0.237 OA
ATOM     70  O   UNL A   1      50.784  29.652  40.403  1.00  0.00    -0.237 OA
ATOM     71  O   UNL A   1      50.389  31.970  39.661  1.00  0.00    -0.744 OA
ENDBRANCH  64  68
ENDBRANCH  37  61
BRANCH  49  72
ATOM     72  C   UNL A   1      42.232  36.235  38.631  1.00  0.00     0.023 A 
ATOM     73  C   UNL A   1      41.065  36.472  39.380  1.00  0.00     0.031 A 
ATOM     74  C   UNL A   1      43.172  37.277  38.529  1.00  0.00     0.131 A 
ATOM     75  C   UNL A   1      40.842  37.738  39.945  1.00  0.00     0.055 A 
ATOM     76  C   UNL A   1      42.976  38.510  39.149  1.00  0.00     0.041 A 
ATOM     77  F   UNL A   1      44.303  37.110  37.824  1.00  0.00    -0.206 F 
ATOM     78  C   UNL A   1      41.798  38.751  39.852  1.00  0.00     0.022 A 
BRANCH  75  79
ATOM     79  S   UNL A   1      39.237  38.074  40.720  1.00  0.00     0.124 S 
ATOM     80  O   UNL A   1      39.576  39.117  41.681  1.00  0.00    -0.237 OA
ATOM     81  O   UNL A   1      38.423  38.493  39.582  1.00  0.00    -0.237 OA
ATOM     82  O   UNL A   1      38.864  36.787  41.306  1.00  0.00    -0.744 OA
ENDBRANCH  75  79
ENDBRANCH  49  72
ENDBRANCH  23  24
ENDBRANCH  15  18
ENDBRANCH  13  14
ENDBRANCH  12  13
ENDBRANCH  11  12
ENDBRANCH  10  11
ENDBRANCH   8  10
ENDBRANCH   1   6
BRANCH   1  83
ATOM     83  N   UNL A   1      47.760  27.425  26.185  1.00  0.00    -0.343 N 
ATOM     84  C   UNL A   1      46.590  27.693  25.596  1.00  0.00     0.243 C 
ATOM     85  H   UNL A   1      48.415  28.090  25.872  1.00  0.00     0.164 HD
ATOM     86  O   UNL A   1      46.537  28.799  25.046  1.00  0.00    -0.273 OA
BRANCH  84  87
ATOM     87  C   UNL A   1      45.420  26.720  25.535  1.00  0.00     0.175 C 
BRANCH  87  88
ATOM     88  N   UNL A   1      44.284  27.386  24.902  1.00  0.00    -0.342 N 
ATOM     89  C   UNL A   1      42.999  27.556  25.303  1.00  0.00     0.240 C 
ATOM     90  H   UNL A   1      44.490  27.785  24.025  1.00  0.00     0.164 HD
ATOM     91  O   UNL A   1      42.294  28.281  24.592  1.00  0.00    -0.273 OA
BRANCH  89  92
ATOM     92  C   UNL A   1      42.398  26.911  26.579  1.00  0.00     0.216 C 
BRANCH  92  93
ATOM     93  N   UNL A   1      41.055  26.313  26.598  1.00  0.00    -0.346 N 
ATOM     94  C   UNL A   1      40.795  25.192  27.364  1.00  0.00     0.239 C 
ATOM     95  H   UNL A   1      40.335  26.714  26.060  1.00  0.00     0.164 HD
ATOM     96  O   UNL A   1      41.103  25.228  28.559  1.00  0.00    -0.273 OA
BRANCH  94  97
ATOM     97  C   UNL A   1      39.902  23.995  26.807  1.00  0.00     0.219 C 
BRANCH  97  98
ATOM     98  N   UNL A   1      38.433  24.041  26.794  1.00  0.00    -0.312 N 
ATOM     99  C   UNL A   1      37.358  23.491  26.147  1.00  0.00     0.407 C 
ATOM    100  H   UNL A   1      38.117  24.678  27.475  1.00  0.00     0.167 HD
ATOM    101  O   UNL A   1      36.467  24.367  26.140  1.00  0.00    -0.225 OA
BRANCH  99 102
ATOM    102  O   UNL A   1      37.249  22.251  25.540  1.00  0.00    -0.445 OA
BRANCH 102 103
ATOM    103  C   UNL A   1      36.296  21.823  24.365  1.00  0.00     0.270 C 
BRANCH 103 104
ATOM    104  C   UNL A   1      34.782  22.040  23.965  1.00  0.00    -0.011 A 
ATOM    105  C   UNL A   1      33.715  21.198  24.271  1.00  0.00     0.007 A 
ATOM    106  C   UNL A   1      34.429  23.024  23.007  1.00  0.00     0.007 A 
ATOM    107  C   UNL A   1      32.372  21.533  23.921  1.00  0.00     0.000 A 
ATOM    108  C   UNL A   1      33.111  23.452  22.747  1.00  0.00     0.000 A 
ATOM    109  C   UNL A   1      32.063  22.716  23.250  1.00  0.00     0.000 A 
ENDBRANCH 103 104
ENDBRANCH 102 103
ENDBRANCH  99 102
ENDBRANCH  97  98
ENDBRANCH  94  97
ENDBRANCH  92  93
ENDBRANCH  89  92
ENDBRANCH  87  88
BRANCH  87 110
ATOM    110  C   UNL A   1      45.874  25.469  24.722  1.00  0.00     0.070 C 
BRANCH 110 111
ATOM    111  C   UNL A   1      45.220  24.151  25.066  1.00  0.00    -0.045 A 
ATOM    112  C   UNL A   1      46.010  23.067  25.471  1.00  0.00     0.004 A 
ATOM    113  C   UNL A   1      43.829  24.009  25.109  1.00  0.00     0.004 A 
ATOM    114  C   UNL A   1      45.424  21.841  25.787  1.00  0.00     0.000 A 
ATOM    115  C   UNL A   1      43.243  22.768  25.356  1.00  0.00     0.000 A 
ATOM    116  C   UNL A   1      44.043  21.680  25.688  1.00  0.00     0.000 A 
ENDBRANCH 110 111
ENDBRANCH  87 110
ENDBRANCH  84  87
ENDBRANCH   1  83
TORSDOF 28
ENDMDL
