MODEL 1
REMARK VINA RESULT:     -11.6      0.000      0.000
REMARK SMILES Cc1cc(C(F)(F)F)nn1CCC(=O)NCCCCNC(=O)c1ccc(-c2c3nc(c(-c4cc(S(=O)(=O)[O-])ccc4F)c4ccc([nH]4)c(-c4cc(S(=O)(=O)[O-])ccc4F)c4nc(c(-c5cc(S(=O)(=O)[O-])ccc5F)c5ccc2[nH]5)C=C4)C=C3)cc1
REMARK SMILES IDX 17 1 16 2 15 3 13 4 14 5 12 7 11 8 10 9 1 10 2 11 3 12 4 13
REMARK SMILES IDX 9 14 5 15 6 16 7 17 8 18 18 19 19 20 20 21 21 22 22 24 23 25
REMARK SMILES IDX 24 26 85 27 25 28 84 29 26 30 27 31 28 32 78 33 29 34 83 35
REMARK SMILES IDX 77 36 79 37 30 38 82 39 76 40 75 41 31 43 63 44 43 45 62 46
REMARK SMILES IDX 44 47 47 48 61 49 80 50 45 51 46 52 60 54 81 55 48 56 32 57
REMARK SMILES IDX 33 58 41 59 34 60 40 61 42 62 39 63 35 64 36 65 37 66 38 67
REMARK SMILES IDX 64 68 65 69 73 70 66 71 72 72 74 73 71 74 67 75 68 76 69 77
REMARK SMILES IDX 70 78 49 79 50 80 58 81 51 82 57 83 59 84 56 85 52 86 53 87
REMARK SMILES IDX 54 88 55 89
REMARK H PARENT 15 6 20 23 79 42 47 53
REMARK Flexibility Score: inf
ROOT
ATOM      1  C   UNL A   1      38.779  33.959  31.570  1.00  0.00     0.023 C 
ENDROOT
BRANCH   1   2
ATOM      2  C   UNL A   1      37.560  34.606  32.226  1.00  0.00     0.116 C 
BRANCH   2   3
ATOM      3  N   UNL A   1      37.401  34.130  33.591  1.00  0.00    -0.356 N 
ATOM      4  C   UNL A   1      36.374  33.423  34.145  1.00  0.00     0.221 C 
ATOM      5  O   UNL A   1      36.312  33.332  35.374  1.00  0.00    -0.275 OA
ATOM      6  H   UNL A   1      38.140  34.349  34.204  1.00  0.00     0.163 HD
BRANCH   4   7
ATOM      7  C   UNL A   1      35.339  32.730  33.278  1.00  0.00     0.123 C 
BRANCH   7   8
ATOM      8  C   UNL A   1      33.993  33.454  33.263  1.00  0.00     0.154 C 
BRANCH   8   9
ATOM      9  N   UNL A   1      33.909  34.505  32.256  1.00  0.00    -0.269 N 
ATOM     10  C   UNL A   1      34.027  36.572  33.720  1.00  0.00     0.066 C 
ATOM     11  C   UNL A   1      33.819  35.864  32.435  1.00  0.00     0.036 A 
ATOM     12  C   UNL A   1      33.500  36.373  31.193  1.00  0.00     0.058 A 
ATOM     13  C   UNL A   1      33.585  35.281  30.296  1.00  0.00     0.166 A 
ATOM     14  N   UNL A   1      33.954  34.165  30.955  1.00  0.00    -0.168 NA
BRANCH  13  15
ATOM     15  C   UNL A   1      33.280  35.309  28.822  1.00  0.00     0.435 C 
ATOM     16  F   UNL A   1      32.247  36.134  28.493  1.00  0.00    -0.164 F 
ATOM     17  F   UNL A   1      34.349  35.751  28.107  1.00  0.00    -0.164 F 
ATOM     18  F   UNL A   1      32.971  34.078  28.336  1.00  0.00    -0.164 F 
ENDBRANCH  13  15
ENDBRANCH   8   9
ENDBRANCH   7   8
ENDBRANCH   4   7
ENDBRANCH   2   3
ENDBRANCH   1   2
BRANCH   1  19
ATOM     19  C   UNL A   1      38.609  33.308  30.196  1.00  0.00     0.023 C 
BRANCH  19  20
ATOM     20  C   UNL A   1      38.601  31.785  30.224  1.00  0.00     0.116 C 
BRANCH  20  21
ATOM     21  N   UNL A   1      37.259  31.185  30.113  1.00  0.00    -0.352 N 
ATOM     22  C   UNL A   1      36.841  30.159  29.271  1.00  0.00     0.251 C 
ATOM     23  H   UNL A   1      36.571  31.556  30.711  1.00  0.00     0.163 HD
ATOM     24  O   UNL A   1      35.658  29.972  29.010  1.00  0.00    -0.269 OA
BRANCH  22  25
ATOM     25  C   UNL A   1      37.885  29.282  28.722  1.00  0.00     0.039 A 
ATOM     26  C   UNL A   1      38.563  29.559  27.530  1.00  0.00     0.014 A 
ATOM     27  C   UNL A   1      38.326  28.306  29.599  1.00  0.00     0.014 A 
ATOM     28  C   UNL A   1      39.802  28.949  27.315  1.00  0.00     0.010 A 
ATOM     29  C   UNL A   1      39.631  27.922  29.499  1.00  0.00     0.010 A 
ATOM     30  C   UNL A   1      40.361  28.175  28.340  1.00  0.00    -0.014 A 
BRANCH  30  31
ATOM     31  C   UNL A   1      41.753  27.730  28.341  1.00  0.00     0.031 A 
ATOM     32  C   UNL A   1      42.044  26.511  27.538  1.00  0.00     0.074 A 
ATOM     33  C   UNL A   1      42.760  28.542  28.734  1.00  0.00     0.049 A 
ATOM     34  N   UNL A   1      42.296  25.319  27.966  1.00  0.00    -0.248 NA
ATOM     35  C   UNL A   1      41.892  26.583  26.076  1.00  0.00     0.031 C 
ATOM     36  C   UNL A   1      42.683  29.933  29.206  1.00  0.00     0.029 A 
ATOM     37  N   UNL A   1      44.099  28.341  28.643  1.00  0.00    -0.354 N 
ATOM     38  C   UNL A   1      42.604  24.557  26.840  1.00  0.00     0.074 A 
ATOM     39  C   UNL A   1      42.089  25.308  25.727  1.00  0.00     0.031 C 
ATOM     40  C   UNL A   1      43.894  30.520  29.101  1.00  0.00     0.029 A 
ATOM     41  C   UNL A   1      44.865  29.492  28.785  1.00  0.00     0.049 A 
ATOM     42  H   UNL A   1      44.494  27.453  28.488  1.00  0.00     0.167 HD
ATOM     43  C   UNL A   1      43.487  23.516  26.907  1.00  0.00     0.034 A 
ATOM     44  C   UNL A   1      46.211  29.602  28.661  1.00  0.00     0.034 A 
ATOM     45  C   UNL A   1      43.820  23.232  28.291  1.00  0.00     0.049 A 
ATOM     46  C   UNL A   1      46.755  28.239  28.890  1.00  0.00     0.074 A 
ATOM     47  C   UNL A   1      43.093  22.893  29.416  1.00  0.00     0.029 A 
ATOM     48  N   UNL A   1      45.029  23.700  28.765  1.00  0.00    -0.354 N 
ATOM     49  N   UNL A   1      46.615  27.596  30.020  1.00  0.00    -0.248 NA
ATOM     50  C   UNL A   1      47.006  27.396  27.731  1.00  0.00     0.031 C 
ATOM     51  C   UNL A   1      43.678  23.660  30.469  1.00  0.00     0.029 A 
ATOM     52  C   UNL A   1      44.788  24.336  29.957  1.00  0.00     0.049 A 
ATOM     53  H   UNL A   1      45.905  23.597  28.327  1.00  0.00     0.167 HD
ATOM     54  C   UNL A   1      46.316  26.290  29.656  1.00  0.00     0.074 A 
ATOM     55  C   UNL A   1      46.685  26.203  28.243  1.00  0.00     0.031 C 
ATOM     56  C   UNL A   1      45.532  25.489  30.441  1.00  0.00     0.034 A 
BRANCH  43  57
ATOM     57  C   UNL A   1      44.360  22.987  25.778  1.00  0.00     0.023 A 
ATOM     58  C   UNL A   1      44.281  21.603  25.513  1.00  0.00     0.031 A 
ATOM     59  C   UNL A   1      45.422  23.659  25.139  1.00  0.00     0.131 A 
ATOM     60  C   UNL A   1      45.287  20.935  24.794  1.00  0.00     0.055 A 
ATOM     61  C   UNL A   1      46.388  23.001  24.366  1.00  0.00     0.041 A 
ATOM     62  F   UNL A   1      45.644  24.969  25.274  1.00  0.00    -0.206 F 
ATOM     63  C   UNL A   1      46.348  21.625  24.224  1.00  0.00     0.022 A 
BRANCH  60  64
ATOM     64  S   UNL A   1      45.278  19.124  24.795  1.00  0.00     0.124 S 
ATOM     65  O   UNL A   1      44.089  18.840  25.591  1.00  0.00    -0.237 OA
ATOM     66  O   UNL A   1      45.190  18.824  23.370  1.00  0.00    -0.237 OA
ATOM     67  O   UNL A   1      46.549  18.780  25.428  1.00  0.00    -0.744 OA
ENDBRANCH  60  64
ENDBRANCH  43  57
BRANCH  44  68
ATOM     68  C   UNL A   1      46.962  30.741  28.068  1.00  0.00     0.023 A 
ATOM     69  C   UNL A   1      46.356  31.714  27.251  1.00  0.00     0.031 A 
ATOM     70  C   UNL A   1      48.286  31.004  28.495  1.00  0.00     0.131 A 
ATOM     71  C   UNL A   1      47.064  32.888  26.898  1.00  0.00     0.055 A 
ATOM     72  C   UNL A   1      48.980  32.164  28.142  1.00  0.00     0.041 A 
ATOM     73  F   UNL A   1      48.921  30.174  29.339  1.00  0.00    -0.206 F 
ATOM     74  C   UNL A   1      48.367  33.117  27.348  1.00  0.00     0.022 A 
BRANCH  71  75
ATOM     75  S   UNL A   1      46.255  34.186  25.909  1.00  0.00     0.124 S 
ATOM     76  O   UNL A   1      47.328  34.606  25.016  1.00  0.00    -0.237 OA
ATOM     77  O   UNL A   1      45.145  33.465  25.298  1.00  0.00    -0.237 OA
ATOM     78  O   UNL A   1      45.862  35.182  26.908  1.00  0.00    -0.744 OA
ENDBRANCH  71  75
ENDBRANCH  44  68
BRANCH  56  79
ATOM     79  C   UNL A   1      45.233  25.921  31.864  1.00  0.00     0.023 A 
ATOM     80  C   UNL A   1      44.041  26.550  32.292  1.00  0.00     0.031 A 
ATOM     81  C   UNL A   1      46.143  25.506  32.854  1.00  0.00     0.131 A 
ATOM     82  C   UNL A   1      43.797  26.734  33.670  1.00  0.00     0.055 A 
ATOM     83  C   UNL A   1      45.890  25.670  34.213  1.00  0.00     0.041 A 
ATOM     84  F   UNL A   1      47.279  24.876  32.510  1.00  0.00    -0.206 F 
ATOM     85  C   UNL A   1      44.714  26.286  34.627  1.00  0.00     0.022 A 
BRANCH  82  86
ATOM     86  S   UNL A   1      42.273  27.549  34.249  1.00  0.00     0.124 S 
ATOM     87  O   UNL A   1      41.632  27.989  33.014  1.00  0.00    -0.237 OA
ATOM     88  O   UNL A   1      41.593  26.481  34.976  1.00  0.00    -0.237 OA
ATOM     89  O   UNL A   1      42.767  28.637  35.095  1.00  0.00    -0.744 OA
ENDBRANCH  82  86
ENDBRANCH  56  79
ENDBRANCH  30  31
ENDBRANCH  22  25
ENDBRANCH  20  21
ENDBRANCH  19  20
ENDBRANCH   1  19
TORSDOF 17
ENDMDL
MODEL 2
REMARK VINA RESULT:     -11.2      5.236      7.809
REMARK SMILES Cc1cc(C(F)(F)F)nn1CCC(=O)NCCCCNC(=O)c1ccc(-c2c3nc(c(-c4cc(S(=O)(=O)[O-])ccc4F)c4ccc([nH]4)c(-c4cc(S(=O)(=O)[O-])ccc4F)c4nc(c(-c5cc(S(=O)(=O)[O-])ccc5F)c5ccc2[nH]5)C=C4)C=C3)cc1
REMARK SMILES IDX 17 1 16 2 15 3 13 4 14 5 12 7 11 8 10 9 1 10 2 11 3 12 4 13
REMARK SMILES IDX 9 14 5 15 6 16 7 17 8 18 18 19 19 20 20 21 21 22 22 24 23 25
REMARK SMILES IDX 24 26 85 27 25 28 84 29 26 30 27 31 28 32 78 33 29 34 83 35
REMARK SMILES IDX 77 36 79 37 30 38 82 39 76 40 75 41 31 43 63 44 43 45 62 46
REMARK SMILES IDX 44 47 47 48 61 49 80 50 45 51 46 52 60 54 81 55 48 56 32 57
REMARK SMILES IDX 33 58 41 59 34 60 40 61 42 62 39 63 35 64 36 65 37 66 38 67
REMARK SMILES IDX 64 68 65 69 73 70 66 71 72 72 74 73 71 74 67 75 68 76 69 77
REMARK SMILES IDX 70 78 49 79 50 80 58 81 51 82 57 83 59 84 56 85 52 86 53 87
REMARK SMILES IDX 54 88 55 89
REMARK H PARENT 15 6 20 23 79 42 47 53
REMARK Flexibility Score: inf
ROOT
ATOM      1  C   UNL A   1      33.187  29.447  25.601  1.00  0.00     0.023 C 
ENDROOT
BRANCH   1   2
ATOM      2  C   UNL A   1      32.331  29.527  24.337  1.00  0.00     0.116 C 
BRANCH   2   3
ATOM      3  N   UNL A   1      33.141  29.279  23.154  1.00  0.00    -0.356 N 
ATOM      4  C   UNL A   1      33.404  28.100  22.520  1.00  0.00     0.221 C 
ATOM      5  O   UNL A   1      34.311  28.066  21.684  1.00  0.00    -0.275 OA
ATOM      6  H   UNL A   1      33.558  30.075  22.753  1.00  0.00     0.163 HD
BRANCH   4   7
ATOM      7  C   UNL A   1      32.586  26.854  22.804  1.00  0.00     0.123 C 
BRANCH   7   8
ATOM      8  C   UNL A   1      31.316  26.770  21.958  1.00  0.00     0.154 C 
BRANCH   8   9
ATOM      9  N   UNL A   1      30.245  27.640  22.427  1.00  0.00    -0.269 N 
ATOM     10  C   UNL A   1      29.310  26.255  24.334  1.00  0.00     0.066 C 
ATOM     11  C   UNL A   1      29.295  27.396  23.390  1.00  0.00     0.036 A 
ATOM     12  C   UNL A   1      28.377  28.417  23.259  1.00  0.00     0.058 A 
ATOM     13  C   UNL A   1      28.932  29.318  22.319  1.00  0.00     0.166 A 
ATOM     14  N   UNL A   1      30.138  28.877  21.908  1.00  0.00    -0.168 NA
BRANCH  13  15
ATOM     15  C   UNL A   1      28.289  30.576  21.797  1.00  0.00     0.435 C 
ATOM     16  F   UNL A   1      29.156  31.618  21.667  1.00  0.00    -0.164 F 
ATOM     17  F   UNL A   1      27.756  30.380  20.562  1.00  0.00    -0.164 F 
ATOM     18  F   UNL A   1      27.275  31.004  22.594  1.00  0.00    -0.164 F 
ENDBRANCH  13  15
ENDBRANCH   8   9
ENDBRANCH   7   8
ENDBRANCH   4   7
ENDBRANCH   2   3
ENDBRANCH   1   2
BRANCH   1  19
ATOM     19  C   UNL A   1      32.533  29.771  26.945  1.00  0.00     0.023 C 
BRANCH  19  20
ATOM     20  C   UNL A   1      33.216  30.893  27.717  1.00  0.00     0.116 C 
BRANCH  20  21
ATOM     21  N   UNL A   1      32.668  32.235  27.446  1.00  0.00    -0.352 N 
ATOM     22  C   UNL A   1      33.010  33.442  28.047  1.00  0.00     0.251 C 
ATOM     23  H   UNL A   1      31.971  32.283  26.753  1.00  0.00     0.163 HD
ATOM     24  O   UNL A   1      32.274  34.422  28.006  1.00  0.00    -0.269 OA
BRANCH  22  25
ATOM     25  C   UNL A   1      34.317  33.504  28.718  1.00  0.00     0.039 A 
ATOM     26  C   UNL A   1      34.514  33.095  30.041  1.00  0.00     0.014 A 
ATOM     27  C   UNL A   1      35.380  33.751  27.867  1.00  0.00     0.014 A 
ATOM     28  C   UNL A   1      35.811  32.768  30.448  1.00  0.00     0.010 A 
ATOM     29  C   UNL A   1      36.582  33.195  28.194  1.00  0.00     0.010 A 
ATOM     30  C   UNL A   1      36.836  32.762  29.493  1.00  0.00    -0.014 A 
BRANCH  30  31
ATOM     31  C   UNL A   1      38.152  32.172  29.733  1.00  0.00     0.031 A 
ATOM     32  C   UNL A   1      38.321  30.762  29.285  1.00  0.00     0.074 A 
ATOM     33  C   UNL A   1      39.235  32.933  30.007  1.00  0.00     0.049 A 
ATOM     34  N   UNL A   1      38.381  29.699  30.014  1.00  0.00    -0.248 NA
ATOM     35  C   UNL A   1      38.270  30.475  27.843  1.00  0.00     0.031 C 
ATOM     36  C   UNL A   1      39.321  34.398  30.113  1.00  0.00     0.029 A 
ATOM     37  N   UNL A   1      40.537  32.560  30.093  1.00  0.00    -0.354 N 
ATOM     38  C   UNL A   1      38.650  28.643  29.144  1.00  0.00     0.074 A 
ATOM     39  C   UNL A   1      38.311  29.140  27.838  1.00  0.00     0.031 C 
ATOM     40  C   UNL A   1      40.605  34.792  29.981  1.00  0.00     0.029 A 
ATOM     41  C   UNL A   1      41.444  33.610  30.019  1.00  0.00     0.049 A 
ATOM     42  H   UNL A   1      40.815  31.622  30.200  1.00  0.00     0.167 HD
ATOM     43  C   UNL A   1      39.375  27.557  29.547  1.00  0.00     0.034 A 
ATOM     44  C   UNL A   1      42.797  33.526  29.998  1.00  0.00     0.034 A 
ATOM     45  C   UNL A   1      39.582  27.600  30.983  1.00  0.00     0.049 A 
ATOM     46  C   UNL A   1      43.134  32.213  30.605  1.00  0.00     0.074 A 
ATOM     47  C   UNL A   1      38.748  27.648  32.085  1.00  0.00     0.029 A 
ATOM     48  N   UNL A   1      40.813  28.029  31.439  1.00  0.00    -0.354 N 
ATOM     49  N   UNL A   1      42.838  31.901  31.840  1.00  0.00    -0.248 NA
ATOM     50  C   UNL A   1      43.337  31.079  29.717  1.00  0.00     0.031 C 
ATOM     51  C   UNL A   1      39.368  28.584  32.967  1.00  0.00     0.029 A 
ATOM     52  C   UNL A   1      40.589  28.972  32.410  1.00  0.00     0.049 A 
ATOM     53  H   UNL A   1      41.691  27.714  31.123  1.00  0.00     0.167 HD
ATOM     54  C   UNL A   1      42.385  30.591  31.782  1.00  0.00     0.074 A 
ATOM     55  C   UNL A   1      42.825  30.103  30.475  1.00  0.00     0.031 C 
ATOM     56  C   UNL A   1      41.453  30.115  32.663  1.00  0.00     0.034 A 
BRANCH  43  57
ATOM     57  C   UNL A   1      40.235  26.659  28.670  1.00  0.00     0.023 A 
ATOM     58  C   UNL A   1      41.352  27.262  28.052  1.00  0.00     0.031 A 
ATOM     59  C   UNL A   1      39.910  25.372  28.193  1.00  0.00     0.131 A 
ATOM     60  C   UNL A   1      41.981  26.675  26.939  1.00  0.00     0.055 A 
ATOM     61  C   UNL A   1      40.581  24.760  27.127  1.00  0.00     0.041 A 
ATOM     62  F   UNL A   1      38.888  24.655  28.667  1.00  0.00    -0.206 F 
ATOM     63  C   UNL A   1      41.597  25.428  26.466  1.00  0.00     0.022 A 
BRANCH  60  64
ATOM     64  S   UNL A   1      43.174  27.671  26.010  1.00  0.00     0.124 S 
ATOM     65  O   UNL A   1      43.365  28.806  26.905  1.00  0.00    -0.237 OA
ATOM     66  O   UNL A   1      44.299  26.750  25.884  1.00  0.00    -0.237 OA
ATOM     67  O   UNL A   1      42.469  27.969  24.766  1.00  0.00    -0.744 OA
ENDBRANCH  60  64
ENDBRANCH  43  57
BRANCH  44  68
ATOM     68  C   UNL A   1      43.731  34.379  29.216  1.00  0.00     0.023 A 
ATOM     69  C   UNL A   1      44.313  33.964  28.003  1.00  0.00     0.031 A 
ATOM     70  C   UNL A   1      43.893  35.742  29.566  1.00  0.00     0.131 A 
ATOM     71  C   UNL A   1      45.014  34.893  27.197  1.00  0.00     0.055 A 
ATOM     72  C   UNL A   1      44.588  36.653  28.766  1.00  0.00     0.041 A 
ATOM     73  F   UNL A   1      43.310  36.251  30.664  1.00  0.00    -0.206 F 
ATOM     74  C   UNL A   1      45.144  36.233  27.571  1.00  0.00     0.022 A 
BRANCH  71  75
ATOM     75  S   UNL A   1      45.698  34.379  25.588  1.00  0.00     0.124 S 
ATOM     76  O   UNL A   1      46.118  33.009  25.855  1.00  0.00    -0.237 OA
ATOM     77  O   UNL A   1      44.555  34.547  24.697  1.00  0.00    -0.237 OA
ATOM     78  O   UNL A   1      46.792  35.325  25.364  1.00  0.00    -0.744 OA
ENDBRANCH  71  75
ENDBRANCH  44  68
BRANCH  56  79
ATOM     79  C   UNL A   1      41.130  30.928  33.902  1.00  0.00     0.023 A 
ATOM     80  C   UNL A   1      40.228  32.017  33.951  1.00  0.00     0.031 A 
ATOM     81  C   UNL A   1      41.641  30.450  35.122  1.00  0.00     0.131 A 
ATOM     82  C   UNL A   1      39.866  32.575  35.195  1.00  0.00     0.055 A 
ATOM     83  C   UNL A   1      41.265  30.990  36.350  1.00  0.00     0.041 A 
ATOM     84  F   UNL A   1      42.478  29.399  35.142  1.00  0.00    -0.206 F 
ATOM     85  C   UNL A   1      40.375  32.056  36.391  1.00  0.00     0.022 A 
BRANCH  82  86
ATOM     86  S   UNL A   1      38.711  33.984  35.287  1.00  0.00     0.124 S 
ATOM     87  O   UNL A   1      39.462  34.991  36.029  1.00  0.00    -0.237 OA
ATOM     88  O   UNL A   1      38.457  34.284  33.881  1.00  0.00    -0.237 OA
ATOM     89  O   UNL A   1      37.559  33.435  36.006  1.00  0.00    -0.744 OA
ENDBRANCH  82  86
ENDBRANCH  56  79
ENDBRANCH  30  31
ENDBRANCH  22  25
ENDBRANCH  20  21
ENDBRANCH  19  20
ENDBRANCH   1  19
TORSDOF 17
ENDMDL
MODEL 3
REMARK VINA RESULT:     -11.2      4.653     10.045
REMARK SMILES Cc1cc(C(F)(F)F)nn1CCC(=O)NCCCCNC(=O)c1ccc(-c2c3nc(c(-c4cc(S(=O)(=O)[O-])ccc4F)c4ccc([nH]4)c(-c4cc(S(=O)(=O)[O-])ccc4F)c4nc(c(-c5cc(S(=O)(=O)[O-])ccc5F)c5ccc2[nH]5)C=C4)C=C3)cc1
REMARK SMILES IDX 17 1 16 2 15 3 13 4 14 5 12 7 11 8 10 9 1 10 2 11 3 12 4 13
REMARK SMILES IDX 9 14 5 15 6 16 7 17 8 18 18 19 19 20 20 21 21 22 22 24 23 25
REMARK SMILES IDX 24 26 85 27 25 28 84 29 26 30 27 31 28 32 78 33 29 34 83 35
REMARK SMILES IDX 77 36 79 37 30 38 82 39 76 40 75 41 31 43 63 44 43 45 62 46
REMARK SMILES IDX 44 47 47 48 61 49 80 50 45 51 46 52 60 54 81 55 48 56 32 57
REMARK SMILES IDX 33 58 41 59 34 60 40 61 42 62 39 63 35 64 36 65 37 66 38 67
REMARK SMILES IDX 64 68 65 69 73 70 66 71 72 72 74 73 71 74 67 75 68 76 69 77
REMARK SMILES IDX 70 78 49 79 50 80 58 81 51 82 57 83 59 84 56 85 52 86 53 87
REMARK SMILES IDX 54 88 55 89
REMARK H PARENT 15 6 20 23 79 42 47 53
REMARK Flexibility Score: inf
ROOT
ATOM      1  C   UNL A   1      35.915  21.476  24.842  1.00  0.00     0.023 C 
ENDROOT
BRANCH   1   2
ATOM      2  C   UNL A   1      34.694  22.328  24.499  1.00  0.00     0.116 C 
BRANCH   2   3
ATOM      3  N   UNL A   1      33.502  21.499  24.401  1.00  0.00    -0.356 N 
ATOM      4  C   UNL A   1      32.487  21.337  25.298  1.00  0.00     0.221 C 
ATOM      5  O   UNL A   1      31.697  20.403  25.136  1.00  0.00    -0.275 OA
ATOM      6  H   UNL A   1      33.415  20.982  23.568  1.00  0.00     0.163 HD
BRANCH   4   7
ATOM      7  C   UNL A   1      32.303  22.296  26.459  1.00  0.00     0.123 C 
BRANCH   7   8
ATOM      8  C   UNL A   1      30.979  23.057  26.399  1.00  0.00     0.154 C 
BRANCH   8   9
ATOM      9  N   UNL A   1      31.117  24.428  25.922  1.00  0.00    -0.269 N 
ATOM     10  C   UNL A   1      30.778  24.100  23.431  1.00  0.00     0.066 C 
ATOM     11  C   UNL A   1      31.135  24.894  24.630  1.00  0.00     0.036 A 
ATOM     12  C   UNL A   1      31.551  26.206  24.723  1.00  0.00     0.058 A 
ATOM     13  C   UNL A   1      31.596  26.499  26.108  1.00  0.00     0.166 A 
ATOM     14  N   UNL A   1      31.210  25.424  26.823  1.00  0.00    -0.168 NA
BRANCH  13  15
ATOM     15  C   UNL A   1      32.039  27.794  26.734  1.00  0.00     0.435 C 
ATOM     16  F   UNL A   1      33.369  28.046  26.586  1.00  0.00    -0.164 F 
ATOM     17  F   UNL A   1      31.397  28.855  26.177  1.00  0.00    -0.164 F 
ATOM     18  F   UNL A   1      31.775  27.838  28.067  1.00  0.00    -0.164 F 
ENDBRANCH  13  15
ENDBRANCH   8   9
ENDBRANCH   7   8
ENDBRANCH   4   7
ENDBRANCH   2   3
ENDBRANCH   1   2
BRANCH   1  19
ATOM     19  C   UNL A   1      37.300  22.001  24.462  1.00  0.00     0.023 C 
BRANCH  19  20
ATOM     20  C   UNL A   1      38.363  21.787  25.531  1.00  0.00     0.116 C 
BRANCH  20  21
ATOM     21  N   UNL A   1      38.828  20.392  25.653  1.00  0.00    -0.352 N 
ATOM     22  C   UNL A   1      40.121  19.933  25.884  1.00  0.00     0.251 C 
ATOM     23  H   UNL A   1      38.136  19.699  25.559  1.00  0.00     0.163 HD
ATOM     24  O   UNL A   1      40.459  18.783  25.627  1.00  0.00    -0.269 OA
BRANCH  22  25
ATOM     25  C   UNL A   1      41.069  20.885  26.480  1.00  0.00     0.039 A 
ATOM     26  C   UNL A   1      41.874  21.737  25.716  1.00  0.00     0.014 A 
ATOM     27  C   UNL A   1      40.918  21.058  27.844  1.00  0.00     0.014 A 
ATOM     28  C   UNL A   1      42.394  22.882  26.327  1.00  0.00     0.010 A 
ATOM     29  C   UNL A   1      41.212  22.289  28.353  1.00  0.00     0.010 A 
ATOM     30  C   UNL A   1      42.004  23.184  27.638  1.00  0.00    -0.014 A 
BRANCH  30  31
ATOM     31  C   UNL A   1      42.250  24.479  28.270  1.00  0.00     0.031 A 
ATOM     32  C   UNL A   1      41.201  25.513  28.057  1.00  0.00     0.074 A 
ATOM     33  C   UNL A   1      43.163  24.628  29.256  1.00  0.00     0.049 A 
ATOM     34  N   UNL A   1      41.256  26.555  27.296  1.00  0.00    -0.248 NA
ATOM     35  C   UNL A   1      39.870  25.292  28.644  1.00  0.00     0.031 C 
ATOM     36  C   UNL A   1      44.033  23.607  29.860  1.00  0.00     0.029 A 
ATOM     37  N   UNL A   1      43.394  25.708  30.044  1.00  0.00    -0.354 N 
ATOM     38  C   UNL A   1      40.076  27.263  27.520  1.00  0.00     0.074 A 
ATOM     39  C   UNL A   1      39.183  26.319  28.136  1.00  0.00     0.031 C 
ATOM     40  C   UNL A   1      44.481  24.038  31.058  1.00  0.00     0.029 A 
ATOM     41  C   UNL A   1      44.127  25.437  31.194  1.00  0.00     0.049 A 
ATOM     42  H   UNL A   1      43.068  26.609  29.821  1.00  0.00     0.167 HD
ATOM     43  C   UNL A   1      40.036  28.626  27.421  1.00  0.00     0.034 A 
ATOM     44  C   UNL A   1      44.435  26.300  32.193  1.00  0.00     0.034 A 
ATOM     45  C   UNL A   1      41.277  29.122  26.856  1.00  0.00     0.049 A 
ATOM     46  C   UNL A   1      44.336  27.659  31.604  1.00  0.00     0.074 A 
ATOM     47  C   UNL A   1      41.967  28.901  25.678  1.00  0.00     0.029 A 
ATOM     48  N   UNL A   1      42.205  29.661  27.726  1.00  0.00    -0.354 N 
ATOM     49  N   UNL A   1      45.094  28.066  30.619  1.00  0.00    -0.248 NA
ATOM     50  C   UNL A   1      43.083  28.383  31.754  1.00  0.00     0.031 C 
ATOM     51  C   UNL A   1      43.336  28.814  26.072  1.00  0.00     0.029 A 
ATOM     52  C   UNL A   1      43.420  29.092  27.439  1.00  0.00     0.049 A 
ATOM     53  H   UNL A   1      42.025  30.331  28.425  1.00  0.00     0.167 HD
ATOM     54  C   UNL A   1      44.242  28.767  29.776  1.00  0.00     0.074 A 
ATOM     55  C   UNL A   1      43.050  29.026  30.582  1.00  0.00     0.031 C 
ATOM     56  C   UNL A   1      44.454  28.818  28.425  1.00  0.00     0.034 A 
BRANCH  43  57
ATOM     57  C   UNL A   1      39.093  29.565  28.158  1.00  0.00     0.023 A 
ATOM     58  C   UNL A   1      39.433  29.885  29.490  1.00  0.00     0.031 A 
ATOM     59  C   UNL A   1      37.794  29.948  27.765  1.00  0.00     0.131 A 
ATOM     60  C   UNL A   1      38.482  30.400  30.388  1.00  0.00     0.055 A 
ATOM     61  C   UNL A   1      36.867  30.524  28.644  1.00  0.00     0.041 A 
ATOM     62  F   UNL A   1      37.307  29.729  26.540  1.00  0.00    -0.206 F 
ATOM     63  C   UNL A   1      37.195  30.716  29.974  1.00  0.00     0.022 A 
BRANCH  60  64
ATOM     64  S   UNL A   1      38.910  30.459  32.146  1.00  0.00     0.124 S 
ATOM     65  O   UNL A   1      40.350  30.687  32.087  1.00  0.00    -0.237 OA
ATOM     66  O   UNL A   1      38.097  31.576  32.616  1.00  0.00    -0.237 OA
ATOM     67  O   UNL A   1      38.506  29.144  32.636  1.00  0.00    -0.744 OA
ENDBRANCH  60  64
ENDBRANCH  43  57
BRANCH  44  68
ATOM     68  C   UNL A   1      44.499  25.993  33.647  1.00  0.00     0.023 A 
ATOM     69  C   UNL A   1      43.441  26.267  34.535  1.00  0.00     0.031 A 
ATOM     70  C   UNL A   1      45.562  25.203  34.149  1.00  0.00     0.131 A 
ATOM     71  C   UNL A   1      43.470  25.757  35.855  1.00  0.00     0.055 A 
ATOM     72  C   UNL A   1      45.585  24.704  35.453  1.00  0.00     0.041 A 
ATOM     73  F   UNL A   1      46.578  24.823  33.357  1.00  0.00    -0.206 F 
ATOM     74  C   UNL A   1      44.533  24.971  36.311  1.00  0.00     0.022 A 
BRANCH  71  75
ATOM     75  S   UNL A   1      42.066  26.040  36.980  1.00  0.00     0.124 S 
ATOM     76  O   UNL A   1      41.385  27.163  36.347  1.00  0.00    -0.237 OA
ATOM     77  O   UNL A   1      41.375  24.756  36.944  1.00  0.00    -0.237 OA
ATOM     78  O   UNL A   1      42.709  26.352  38.258  1.00  0.00    -0.744 OA
ENDBRANCH  71  75
ENDBRANCH  44  68
BRANCH  56  79
ATOM     79  C   UNL A   1      45.792  28.364  27.873  1.00  0.00     0.023 A 
ATOM     80  C   UNL A   1      46.116  27.036  27.510  1.00  0.00     0.031 A 
ATOM     81  C   UNL A   1      46.714  29.374  27.543  1.00  0.00     0.131 A 
ATOM     82  C   UNL A   1      47.324  26.766  26.833  1.00  0.00     0.055 A 
ATOM     83  C   UNL A   1      47.896  29.106  26.856  1.00  0.00     0.041 A 
ATOM     84  F   UNL A   1      46.448  30.657  27.836  1.00  0.00    -0.206 F 
ATOM     85  C   UNL A   1      48.206  27.800  26.498  1.00  0.00     0.022 A 
BRANCH  82  86
ATOM     86  S   UNL A   1      47.771  25.063  26.359  1.00  0.00     0.124 S 
ATOM     87  O   UNL A   1      47.803  25.113  24.902  1.00  0.00    -0.237 OA
ATOM     88  O   UNL A   1      49.059  24.872  27.021  1.00  0.00    -0.237 OA
ATOM     89  O   UNL A   1      46.681  24.257  26.914  1.00  0.00    -0.744 OA
ENDBRANCH  82  86
ENDBRANCH  56  79
ENDBRANCH  30  31
ENDBRANCH  22  25
ENDBRANCH  20  21
ENDBRANCH  19  20
ENDBRANCH   1  19
TORSDOF 17
ENDMDL
