MODEL 1
REMARK VINA RESULT:     -12.6      0.000      0.000
REMARK SMILES C[C@@H]1CN(C(=O)c2c(F)cc(Br)cc2F)C[C@H]1C(=O)NCCCCNC(=O)c1ccc(-c2c3nc(c(-c4cc(S(=O)(=O)[O-])ccc4F)c4ccc([nH]4)c(-c4cc(S(=O)(=O)[O-])ccc4F)c4nc(c(-c5cc(S(=O)(=O)[O-])ccc5F)c5ccc2[nH]5)C=C4)C=C3)cc1
REMARK SMILES IDX 23 1 22 2 21 3 20 4 18 5 19 6 17 8 1 9 2 10 3 11 4 12 16 13
REMARK SMILES IDX 5 14 6 15 7 16 8 17 14 18 9 19 10 20 13 21 15 22 11 23 12 24
REMARK SMILES IDX 24 25 25 26 26 27 27 29 28 30 29 31 90 32 30 33 89 34 31 35
REMARK SMILES IDX 32 36 33 37 83 38 34 39 88 40 82 41 84 42 35 43 87 44 81 45
REMARK SMILES IDX 80 46 36 48 68 49 48 50 67 51 49 52 52 53 66 54 85 55 50 56
REMARK SMILES IDX 51 57 65 59 86 60 53 61 37 62 38 63 46 64 39 65 45 66 47 67
REMARK SMILES IDX 44 68 40 69 41 70 42 71 43 72 69 73 70 74 78 75 71 76 77 77
REMARK SMILES IDX 79 78 76 79 72 80 73 81 74 82 75 83 54 84 55 85 63 86 56 87
REMARK SMILES IDX 62 88 64 89 61 90 57 91 58 92 59 93 60 94
REMARK H PARENT 20 7 25 28 84 47 52 58
REMARK Flexibility Score: inf
ROOT
ATOM      1  C   UNL A   1      31.719  29.988  27.101  1.00  0.00     0.023 C 
ENDROOT
BRANCH   1   2
ATOM      2  C   UNL A   1      32.386  28.620  27.100  1.00  0.00     0.023 C 
BRANCH   2   3
ATOM      3  C   UNL A   1      31.878  27.665  26.027  1.00  0.00     0.116 C 
BRANCH   3   4
ATOM      4  N   UNL A   1      30.903  26.714  26.514  1.00  0.00    -0.356 N 
ATOM      5  C   UNL A   1      30.036  25.931  25.812  1.00  0.00     0.225 C 
ATOM      6  O   UNL A   1      29.329  25.147  26.453  1.00  0.00    -0.275 OA
ATOM      7  H   UNL A   1      30.860  26.619  27.492  1.00  0.00     0.163 HD
BRANCH   5   8
ATOM      8  C   UNL A   1      29.899  25.995  24.289  1.00  0.00     0.102 C 
ATOM      9  C   UNL A   1      28.814  28.090  23.322  1.00  0.00     0.010 C 
ATOM     10  C   UNL A   1      30.125  27.399  23.678  1.00  0.00     0.020 C 
ATOM     11  C   UNL A   1      31.023  27.150  22.457  1.00  0.00     0.124 C 
ATOM     12  N   UNL A   1      31.741  25.933  22.798  1.00  0.00    -0.337 N 
ATOM     13  C   UNL A   1      30.865  25.059  23.566  1.00  0.00     0.133 C 
BRANCH  12  14
ATOM     14  C   UNL A   1      33.050  25.539  22.571  1.00  0.00     0.259 C 
ATOM     15  O   UNL A   1      33.679  25.996  21.615  1.00  0.00    -0.269 OA
BRANCH  14  16
ATOM     16  C   UNL A   1      33.729  24.487  23.358  1.00  0.00     0.111 A 
ATOM     17  C   UNL A   1      33.860  23.171  22.914  1.00  0.00     0.140 A 
ATOM     18  C   UNL A   1      34.507  24.881  24.451  1.00  0.00     0.140 A 
ATOM     19  F   UNL A   1      33.187  22.717  21.851  1.00  0.00    -0.206 F 
ATOM     20  C   UNL A   1      34.738  22.275  23.527  1.00  0.00     0.056 A 
ATOM     21  C   UNL A   1      35.396  24.003  25.072  1.00  0.00     0.056 A 
ATOM     22  F   UNL A   1      34.429  26.130  24.937  1.00  0.00    -0.206 F 
ATOM     23  C   UNL A   1      35.515  22.701  24.599  1.00  0.00     0.023 A 
ATOM     24  Br  UNL A   1      36.743  21.512  25.399  1.00  0.00    -0.051 Br
ENDBRANCH  14  16
ENDBRANCH  12  14
ENDBRANCH   5   8
ENDBRANCH   3   4
ENDBRANCH   2   3
ENDBRANCH   1   2
BRANCH   1  25
ATOM     25  C   UNL A   1      32.520  31.107  26.437  1.00  0.00     0.116 C 
BRANCH  25  26
ATOM     26  N   UNL A   1      32.365  32.413  27.075  1.00  0.00    -0.352 N 
ATOM     27  C   UNL A   1      33.258  33.103  27.865  1.00  0.00     0.251 C 
ATOM     28  H   UNL A   1      31.502  32.861  26.919  1.00  0.00     0.163 HD
ATOM     29  O   UNL A   1      32.932  34.165  28.386  1.00  0.00    -0.269 OA
BRANCH  27  30
ATOM     30  C   UNL A   1      34.588  32.508  28.113  1.00  0.00     0.039 A 
ATOM     31  C   UNL A   1      35.725  33.310  28.002  1.00  0.00     0.014 A 
ATOM     32  C   UNL A   1      34.684  31.202  28.596  1.00  0.00     0.014 A 
ATOM     33  C   UNL A   1      36.944  32.846  28.504  1.00  0.00     0.010 A 
ATOM     34  C   UNL A   1      35.874  30.779  29.174  1.00  0.00     0.010 A 
ATOM     35  C   UNL A   1      37.009  31.608  29.164  1.00  0.00    -0.014 A 
BRANCH  35  36
ATOM     36  C   UNL A   1      38.224  31.158  29.899  1.00  0.00     0.031 A 
ATOM     37  C   UNL A   1      39.125  30.127  29.277  1.00  0.00     0.074 A 
ATOM     38  C   UNL A   1      38.434  31.561  31.168  1.00  0.00     0.049 A 
ATOM     39  N   UNL A   1      40.077  29.418  29.825  1.00  0.00    -0.248 NA
ATOM     40  C   UNL A   1      38.882  29.823  27.860  1.00  0.00     0.031 C 
ATOM     41  C   UNL A   1      37.609  32.524  31.903  1.00  0.00     0.029 A 
ATOM     42  N   UNL A   1      39.391  31.187  32.080  1.00  0.00    -0.354 N 
ATOM     43  C   UNL A   1      40.515  28.547  28.832  1.00  0.00     0.074 A 
ATOM     44  C   UNL A   1      39.692  28.793  27.666  1.00  0.00     0.031 C 
ATOM     45  C   UNL A   1      38.102  32.672  33.144  1.00  0.00     0.029 A 
ATOM     46  C   UNL A   1      39.240  31.776  33.316  1.00  0.00     0.049 A 
ATOM     47  H   UNL A   1      40.118  30.558  31.870  1.00  0.00     0.167 HD
ATOM     48  C   UNL A   1      41.517  27.635  28.887  1.00  0.00     0.034 A 
ATOM     49  C   UNL A   1      39.921  31.594  34.465  1.00  0.00     0.034 A 
ATOM     50  C   UNL A   1      42.354  27.432  30.043  1.00  0.00     0.049 A 
ATOM     51  C   UNL A   1      41.048  30.595  34.496  1.00  0.00     0.074 A 
ATOM     52  C   UNL A   1      43.438  26.582  30.187  1.00  0.00     0.029 A 
ATOM     53  N   UNL A   1      42.204  28.092  31.255  1.00  0.00    -0.354 N 
ATOM     54  N   UNL A   1      41.462  29.791  33.546  1.00  0.00    -0.248 NA
ATOM     55  C   UNL A   1      41.799  30.478  35.754  1.00  0.00     0.031 C 
ATOM     56  C   UNL A   1      43.916  26.699  31.497  1.00  0.00     0.029 A 
ATOM     57  C   UNL A   1      43.167  27.662  32.154  1.00  0.00     0.049 A 
ATOM     58  H   UNL A   1      41.515  28.767  31.448  1.00  0.00     0.167 HD
ATOM     59  C   UNL A   1      42.542  29.097  34.080  1.00  0.00     0.074 A 
ATOM     60  C   UNL A   1      42.716  29.575  35.436  1.00  0.00     0.031 C 
ATOM     61  C   UNL A   1      43.327  28.156  33.499  1.00  0.00     0.034 A 
BRANCH  48  62
ATOM     62  C   UNL A   1      41.735  26.777  27.665  1.00  0.00     0.023 A 
ATOM     63  C   UNL A   1      41.282  25.447  27.608  1.00  0.00     0.031 A 
ATOM     64  C   UNL A   1      42.447  27.277  26.561  1.00  0.00     0.131 A 
ATOM     65  C   UNL A   1      41.625  24.636  26.517  1.00  0.00     0.055 A 
ATOM     66  C   UNL A   1      42.711  26.490  25.439  1.00  0.00     0.041 A 
ATOM     67  F   UNL A   1      42.919  28.533  26.565  1.00  0.00    -0.206 F 
ATOM     68  C   UNL A   1      42.316  25.155  25.420  1.00  0.00     0.022 A 
BRANCH  65  69
ATOM     69  S   UNL A   1      41.292  22.859  26.627  1.00  0.00     0.124 S 
ATOM     70  O   UNL A   1      41.888  22.527  27.919  1.00  0.00    -0.237 OA
ATOM     71  O   UNL A   1      39.835  22.805  26.563  1.00  0.00    -0.237 OA
ATOM     72  O   UNL A   1      41.988  22.306  25.467  1.00  0.00    -0.744 OA
ENDBRANCH  65  69
ENDBRANCH  48  62
BRANCH  49  73
ATOM     73  C   UNL A   1      39.550  32.355  35.691  1.00  0.00     0.023 A 
ATOM     74  C   UNL A   1      38.672  31.808  36.639  1.00  0.00     0.031 A 
ATOM     75  C   UNL A   1      40.043  33.652  35.917  1.00  0.00     0.131 A 
ATOM     76  C   UNL A   1      38.282  32.568  37.752  1.00  0.00     0.055 A 
ATOM     77  C   UNL A   1      39.685  34.390  37.048  1.00  0.00     0.041 A 
ATOM     78  F   UNL A   1      40.893  34.216  35.045  1.00  0.00    -0.206 F 
ATOM     79  C   UNL A   1      38.790  33.852  37.968  1.00  0.00     0.022 A 
BRANCH  76  80
ATOM     80  S   UNL A   1      37.045  31.878  38.885  1.00  0.00     0.124 S 
ATOM     81  O   UNL A   1      37.650  32.147  40.185  1.00  0.00    -0.237 OA
ATOM     82  O   UNL A   1      35.861  32.663  38.554  1.00  0.00    -0.237 OA
ATOM     83  O   UNL A   1      36.983  30.469  38.504  1.00  0.00    -0.744 OA
ENDBRANCH  76  80
ENDBRANCH  49  73
BRANCH  61  84
ATOM     84  C   UNL A   1      44.483  27.634  34.308  1.00  0.00     0.023 A 
ATOM     85  C   UNL A   1      44.382  26.465  35.079  1.00  0.00     0.031 A 
ATOM     86  C   UNL A   1      45.713  28.316  34.286  1.00  0.00     0.131 A 
ATOM     87  C   UNL A   1      45.486  26.029  35.828  1.00  0.00     0.055 A 
ATOM     88  C   UNL A   1      46.819  27.856  35.000  1.00  0.00     0.041 A 
ATOM     89  F   UNL A   1      45.858  29.438  33.562  1.00  0.00    -0.206 F 
ATOM     90  C   UNL A   1      46.707  26.709  35.781  1.00  0.00     0.022 A 
BRANCH  87  91
ATOM     91  S   UNL A   1      45.298  24.576  36.898  1.00  0.00     0.124 S 
ATOM     92  O   UNL A   1      46.685  24.200  37.146  1.00  0.00    -0.237 OA
ATOM     93  O   UNL A   1      44.569  25.118  38.041  1.00  0.00    -0.237 OA
ATOM     94  O   UNL A   1      44.539  23.638  36.071  1.00  0.00    -0.744 OA
ENDBRANCH  87  91
ENDBRANCH  61  84
ENDBRANCH  35  36
ENDBRANCH  27  30
ENDBRANCH  25  26
ENDBRANCH   1  25
TORSDOF 16
ENDMDL
MODEL 2
REMARK VINA RESULT:     -12.6      5.346     10.215
REMARK SMILES C[C@@H]1CN(C(=O)c2c(F)cc(Br)cc2F)C[C@H]1C(=O)NCCCCNC(=O)c1ccc(-c2c3nc(c(-c4cc(S(=O)(=O)[O-])ccc4F)c4ccc([nH]4)c(-c4cc(S(=O)(=O)[O-])ccc4F)c4nc(c(-c5cc(S(=O)(=O)[O-])ccc5F)c5ccc2[nH]5)C=C4)C=C3)cc1
REMARK SMILES IDX 23 1 22 2 21 3 20 4 18 5 19 6 17 8 1 9 2 10 3 11 4 12 16 13
REMARK SMILES IDX 5 14 6 15 7 16 8 17 14 18 9 19 10 20 13 21 15 22 11 23 12 24
REMARK SMILES IDX 24 25 25 26 26 27 27 29 28 30 29 31 90 32 30 33 89 34 31 35
REMARK SMILES IDX 32 36 33 37 83 38 34 39 88 40 82 41 84 42 35 43 87 44 81 45
REMARK SMILES IDX 80 46 36 48 68 49 48 50 67 51 49 52 52 53 66 54 85 55 50 56
REMARK SMILES IDX 51 57 65 59 86 60 53 61 37 62 38 63 46 64 39 65 45 66 47 67
REMARK SMILES IDX 44 68 40 69 41 70 42 71 43 72 69 73 70 74 78 75 71 76 77 77
REMARK SMILES IDX 79 78 76 79 72 80 73 81 74 82 75 83 54 84 55 85 63 86 56 87
REMARK SMILES IDX 62 88 64 89 61 90 57 91 58 92 59 93 60 94
REMARK H PARENT 20 7 25 28 84 47 52 58
REMARK Flexibility Score: inf
ROOT
ATOM      1  C   UNL A   1      35.661  21.232  24.609  1.00  0.00     0.023 C 
ENDROOT
BRANCH   1   2
ATOM      2  C   UNL A   1      34.659  20.823  25.680  1.00  0.00     0.023 C 
BRANCH   2   3
ATOM      3  C   UNL A   1      33.423  20.105  25.154  1.00  0.00     0.116 C 
BRANCH   3   4
ATOM      4  N   UNL A   1      32.182  20.627  25.682  1.00  0.00    -0.356 N 
ATOM      5  C   UNL A   1      31.632  21.864  25.529  1.00  0.00     0.225 C 
ATOM      6  O   UNL A   1      30.523  22.062  26.035  1.00  0.00    -0.275 OA
ATOM      7  H   UNL A   1      31.660  19.999  26.231  1.00  0.00     0.163 HD
BRANCH   5   8
ATOM      8  C   UNL A   1      32.331  23.001  24.778  1.00  0.00     0.102 C 
ATOM      9  C   UNL A   1      32.852  22.598  22.316  1.00  0.00     0.010 C 
ATOM     10  C   UNL A   1      31.865  23.190  23.315  1.00  0.00     0.020 C 
ATOM     11  C   UNL A   1      31.690  24.708  23.158  1.00  0.00     0.124 C 
ATOM     12  N   UNL A   1      31.402  25.165  24.507  1.00  0.00    -0.337 N 
ATOM     13  C   UNL A   1      32.154  24.357  25.457  1.00  0.00     0.133 C 
BRANCH  12  14
ATOM     14  C   UNL A   1      30.540  26.136  24.988  1.00  0.00     0.259 C 
ATOM     15  O   UNL A   1      30.072  26.045  26.125  1.00  0.00    -0.269 OA
BRANCH  14  16
ATOM     16  C   UNL A   1      30.035  27.255  24.162  1.00  0.00     0.111 A 
ATOM     17  C   UNL A   1      28.749  27.282  23.622  1.00  0.00     0.140 A 
ATOM     18  C   UNL A   1      30.766  28.448  24.153  1.00  0.00     0.140 A 
ATOM     19  F   UNL A   1      27.962  26.200  23.627  1.00  0.00    -0.206 F 
ATOM     20  C   UNL A   1      28.200  28.452  23.096  1.00  0.00     0.056 A 
ATOM     21  C   UNL A   1      30.231  29.630  23.638  1.00  0.00     0.056 A 
ATOM     22  F   UNL A   1      32.012  28.495  24.649  1.00  0.00    -0.206 F 
ATOM     23  C   UNL A   1      28.942  29.628  23.118  1.00  0.00     0.023 A 
ATOM     24  Br  UNL A   1      28.186  31.227  22.457  1.00  0.00    -0.051 Br
ENDBRANCH  14  16
ENDBRANCH  12  14
ENDBRANCH   5   8
ENDBRANCH   3   4
ENDBRANCH   2   3
ENDBRANCH   1   2
BRANCH   1  25
ATOM     25  C   UNL A   1      37.017  21.706  25.128  1.00  0.00     0.116 C 
BRANCH  25  26
ATOM     26  N   UNL A   1      38.022  20.650  25.227  1.00  0.00    -0.352 N 
ATOM     27  C   UNL A   1      39.233  20.665  25.884  1.00  0.00     0.251 C 
ATOM     28  H   UNL A   1      37.804  19.812  24.759  1.00  0.00     0.163 HD
ATOM     29  O   UNL A   1      39.995  19.707  25.799  1.00  0.00    -0.269 OA
BRANCH  27  30
ATOM     30  C   UNL A   1      39.613  21.877  26.639  1.00  0.00     0.039 A 
ATOM     31  C   UNL A   1      40.573  21.780  27.648  1.00  0.00     0.014 A 
ATOM     32  C   UNL A   1      39.122  23.123  26.244  1.00  0.00     0.014 A 
ATOM     33  C   UNL A   1      41.143  22.946  28.168  1.00  0.00     0.010 A 
ATOM     34  C   UNL A   1      39.752  24.274  26.697  1.00  0.00     0.010 A 
ATOM     35  C   UNL A   1      40.792  24.198  27.639  1.00  0.00    -0.014 A 
BRANCH  35  36
ATOM     36  C   UNL A   1      41.513  25.449  28.004  1.00  0.00     0.031 A 
ATOM     37  C   UNL A   1      40.772  26.553  28.705  1.00  0.00     0.074 A 
ATOM     38  C   UNL A   1      42.778  25.648  27.580  1.00  0.00     0.049 A 
ATOM     39  N   UNL A   1      41.119  27.799  28.891  1.00  0.00    -0.248 NA
ATOM     40  C   UNL A   1      39.437  26.214  29.220  1.00  0.00     0.031 C 
ATOM     41  C   UNL A   1      43.595  24.674  26.852  1.00  0.00     0.029 A 
ATOM     42  N   UNL A   1      43.591  26.751  27.675  1.00  0.00    -0.354 N 
ATOM     43  C   UNL A   1      40.027  28.408  29.501  1.00  0.00     0.074 A 
ATOM     44  C   UNL A   1      38.993  27.398  29.611  1.00  0.00     0.031 C 
ATOM     45  C   UNL A   1      44.791  25.218  26.576  1.00  0.00     0.029 A 
ATOM     46  C   UNL A   1      44.811  26.595  27.055  1.00  0.00     0.049 A 
ATOM     47  H   UNL A   1      43.327  27.576  28.141  1.00  0.00     0.167 HD
ATOM     48  C   UNL A   1      39.902  29.686  29.937  1.00  0.00     0.034 A 
ATOM     49  C   UNL A   1      45.819  27.471  26.867  1.00  0.00     0.034 A 
ATOM     50  C   UNL A   1      40.956  30.666  29.858  1.00  0.00     0.049 A 
ATOM     51  C   UNL A   1      45.670  28.878  27.383  1.00  0.00     0.074 A 
ATOM     52  C   UNL A   1      40.962  31.969  30.326  1.00  0.00     0.029 A 
ATOM     53  N   UNL A   1      42.197  30.449  29.275  1.00  0.00    -0.354 N 
ATOM     54  N   UNL A   1      44.639  29.434  27.973  1.00  0.00    -0.248 NA
ATOM     55  C   UNL A   1      46.822  29.776  27.210  1.00  0.00     0.031 C 
ATOM     56  C   UNL A   1      42.190  32.551  29.991  1.00  0.00     0.029 A 
ATOM     57  C   UNL A   1      42.972  31.594  29.363  1.00  0.00     0.049 A 
ATOM     58  H   UNL A   1      42.486  29.604  28.861  1.00  0.00     0.167 HD
ATOM     59  C   UNL A   1      45.028  30.736  28.269  1.00  0.00     0.074 A 
ATOM     60  C   UNL A   1      46.388  30.884  27.793  1.00  0.00     0.031 C 
ATOM     61  C   UNL A   1      44.328  31.719  28.888  1.00  0.00     0.034 A 
BRANCH  48  62
ATOM     62  C   UNL A   1      38.567  30.090  30.512  1.00  0.00     0.023 A 
ATOM     63  C   UNL A   1      37.564  30.663  29.712  1.00  0.00     0.031 A 
ATOM     64  C   UNL A   1      38.311  29.947  31.887  1.00  0.00     0.131 A 
ATOM     65  C   UNL A   1      36.393  31.157  30.304  1.00  0.00     0.055 A 
ATOM     66  C   UNL A   1      37.106  30.362  32.457  1.00  0.00     0.041 A 
ATOM     67  F   UNL A   1      39.238  29.423  32.704  1.00  0.00    -0.206 F 
ATOM     68  C   UNL A   1      36.146  30.989  31.668  1.00  0.00     0.022 A 
BRANCH  65  69
ATOM     69  S   UNL A   1      35.273  32.160  29.292  1.00  0.00     0.124 S 
ATOM     70  O   UNL A   1      34.685  31.150  28.416  1.00  0.00    -0.237 OA
ATOM     71  O   UNL A   1      34.379  32.740  30.288  1.00  0.00    -0.237 OA
ATOM     72  O   UNL A   1      36.166  33.107  28.627  1.00  0.00    -0.744 OA
ENDBRANCH  65  69
ENDBRANCH  48  62
BRANCH  49  73
ATOM     73  C   UNL A   1      47.053  27.056  26.142  1.00  0.00     0.023 A 
ATOM     74  C   UNL A   1      48.099  26.408  26.816  1.00  0.00     0.031 A 
ATOM     75  C   UNL A   1      47.216  27.328  24.772  1.00  0.00     0.131 A 
ATOM     76  C   UNL A   1      49.281  26.087  26.129  1.00  0.00     0.055 A 
ATOM     77  C   UNL A   1      48.377  26.970  24.083  1.00  0.00     0.041 A 
ATOM     78  F   UNL A   1      46.240  27.937  24.081  1.00  0.00    -0.206 F 
ATOM     79  C   UNL A   1      49.423  26.355  24.765  1.00  0.00     0.022 A 
BRANCH  76  80
ATOM     80  S   UNL A   1      50.661  25.371  27.063  1.00  0.00     0.124 S 
ATOM     81  O   UNL A   1      51.098  26.508  27.865  1.00  0.00    -0.237 OA
ATOM     82  O   UNL A   1      50.006  24.288  27.788  1.00  0.00    -0.237 OA
ATOM     83  O   UNL A   1      51.593  24.946  26.021  1.00  0.00    -0.744 OA
ENDBRANCH  76  80
ENDBRANCH  49  73
BRANCH  61  84
ATOM     84  C   UNL A   1      45.047  33.015  29.144  1.00  0.00     0.023 A 
ATOM     85  C   UNL A   1      45.076  34.048  28.192  1.00  0.00     0.031 A 
ATOM     86  C   UNL A   1      45.698  33.220  30.373  1.00  0.00     0.131 A 
ATOM     87  C   UNL A   1      45.775  35.232  28.474  1.00  0.00     0.055 A 
ATOM     88  C   UNL A   1      46.356  34.415  30.664  1.00  0.00     0.041 A 
ATOM     89  F   UNL A   1      45.697  32.262  31.314  1.00  0.00    -0.206 F 
ATOM     90  C   UNL A   1      46.402  35.427  29.709  1.00  0.00     0.022 A 
BRANCH  87  91
ATOM     91  S   UNL A   1      45.886  36.508  27.189  1.00  0.00     0.124 S 
ATOM     92  O   UNL A   1      44.508  36.980  27.110  1.00  0.00    -0.237 OA
ATOM     93  O   UNL A   1      46.850  37.445  27.758  1.00  0.00    -0.237 OA
ATOM     94  O   UNL A   1      46.358  35.773  26.017  1.00  0.00    -0.744 OA
ENDBRANCH  87  91
ENDBRANCH  61  84
ENDBRANCH  35  36
ENDBRANCH  27  30
ENDBRANCH  25  26
ENDBRANCH   1  25
TORSDOF 16
ENDMDL
MODEL 3
REMARK VINA RESULT:     -12.6      5.314     10.421
REMARK SMILES C[C@@H]1CN(C(=O)c2c(F)cc(Br)cc2F)C[C@H]1C(=O)NCCCCNC(=O)c1ccc(-c2c3nc(c(-c4cc(S(=O)(=O)[O-])ccc4F)c4ccc([nH]4)c(-c4cc(S(=O)(=O)[O-])ccc4F)c4nc(c(-c5cc(S(=O)(=O)[O-])ccc5F)c5ccc2[nH]5)C=C4)C=C3)cc1
REMARK SMILES IDX 23 1 22 2 21 3 20 4 18 5 19 6 17 8 1 9 2 10 3 11 4 12 16 13
REMARK SMILES IDX 5 14 6 15 7 16 8 17 14 18 9 19 10 20 13 21 15 22 11 23 12 24
REMARK SMILES IDX 24 25 25 26 26 27 27 29 28 30 29 31 90 32 30 33 89 34 31 35
REMARK SMILES IDX 32 36 33 37 83 38 34 39 88 40 82 41 84 42 35 43 87 44 81 45
REMARK SMILES IDX 80 46 36 48 68 49 48 50 67 51 49 52 52 53 66 54 85 55 50 56
REMARK SMILES IDX 51 57 65 59 86 60 53 61 37 62 38 63 46 64 39 65 45 66 47 67
REMARK SMILES IDX 44 68 40 69 41 70 42 71 43 72 69 73 70 74 78 75 71 76 77 77
REMARK SMILES IDX 79 78 76 79 72 80 73 81 74 82 75 83 54 84 55 85 63 86 56 87
REMARK SMILES IDX 62 88 64 89 61 90 57 91 58 92 59 93 60 94
REMARK H PARENT 20 7 25 28 84 47 52 58
REMARK Flexibility Score: inf
ROOT
ATOM      1  C   UNL A   1      35.994  21.466  25.907  1.00  0.00     0.023 C 
ENDROOT
BRANCH   1   2
ATOM      2  C   UNL A   1      34.757  20.786  25.336  1.00  0.00     0.023 C 
BRANCH   2   3
ATOM      3  C   UNL A   1      33.541  20.802  26.254  1.00  0.00     0.116 C 
BRANCH   3   4
ATOM      4  N   UNL A   1      32.349  21.325  25.625  1.00  0.00    -0.356 N 
ATOM      5  C   UNL A   1      32.096  22.582  25.164  1.00  0.00     0.225 C 
ATOM      6  O   UNL A   1      31.012  22.779  24.607  1.00  0.00    -0.275 OA
ATOM      7  H   UNL A   1      31.614  20.680  25.513  1.00  0.00     0.163 HD
BRANCH   5   8
ATOM      8  C   UNL A   1      33.084  23.742  25.320  1.00  0.00     0.102 C 
ATOM      9  C   UNL A   1      34.865  23.981  23.512  1.00  0.00     0.010 C 
ATOM     10  C   UNL A   1      33.490  24.427  23.993  1.00  0.00     0.020 C 
ATOM     11  C   UNL A   1      33.418  25.931  24.297  1.00  0.00     0.124 C 
ATOM     12  N   UNL A   1      32.439  26.022  25.366  1.00  0.00    -0.337 N 
ATOM     13  C   UNL A   1      32.557  24.852  26.226  1.00  0.00     0.133 C 
BRANCH  12  14
ATOM     14  C   UNL A   1      31.448  26.952  25.633  1.00  0.00     0.259 C 
ATOM     15  O   UNL A   1      31.028  27.101  26.782  1.00  0.00    -0.269 OA
BRANCH  14  16
ATOM     16  C   UNL A   1      30.754  27.725  24.579  1.00  0.00     0.111 A 
ATOM     17  C   UNL A   1      29.696  27.209  23.830  1.00  0.00     0.140 A 
ATOM     18  C   UNL A   1      30.976  29.104  24.521  1.00  0.00     0.140 A 
ATOM     19  F   UNL A   1      29.383  25.909  23.858  1.00  0.00    -0.206 F 
ATOM     20  C   UNL A   1      28.880  28.032  23.053  1.00  0.00     0.056 A 
ATOM     21  C   UNL A   1      30.166  29.944  23.755  1.00  0.00     0.056 A 
ATOM     22  F   UNL A   1      31.980  29.669  25.210  1.00  0.00    -0.206 F 
ATOM     23  C   UNL A   1      29.111  29.403  23.030  1.00  0.00     0.023 A 
ATOM     24  Br  UNL A   1      27.979  30.530  22.024  1.00  0.00    -0.051 Br
ENDBRANCH  14  16
ENDBRANCH  12  14
ENDBRANCH   5   8
ENDBRANCH   3   4
ENDBRANCH   2   3
ENDBRANCH   1   2
BRANCH   1  25
ATOM     25  C   UNL A   1      37.177  21.587  24.948  1.00  0.00     0.116 C 
BRANCH  25  26
ATOM     26  N   UNL A   1      38.183  20.539  25.103  1.00  0.00    -0.352 N 
ATOM     27  C   UNL A   1      39.374  20.576  25.793  1.00  0.00     0.251 C 
ATOM     28  H   UNL A   1      37.981  19.687  24.651  1.00  0.00     0.163 HD
ATOM     29  O   UNL A   1      40.142  19.620  25.755  1.00  0.00    -0.269 OA
BRANCH  27  30
ATOM     30  C   UNL A   1      39.728  21.810  26.527  1.00  0.00     0.039 A 
ATOM     31  C   UNL A   1      40.650  21.741  27.573  1.00  0.00     0.014 A 
ATOM     32  C   UNL A   1      39.254  23.044  26.077  1.00  0.00     0.014 A 
ATOM     33  C   UNL A   1      41.201  22.921  28.080  1.00  0.00     0.010 A 
ATOM     34  C   UNL A   1      39.869  24.207  26.521  1.00  0.00     0.010 A 
ATOM     35  C   UNL A   1      40.872  24.158  27.503  1.00  0.00    -0.014 A 
BRANCH  35  36
ATOM     36  C   UNL A   1      41.582  25.418  27.859  1.00  0.00     0.031 A 
ATOM     37  C   UNL A   1      40.851  26.489  28.620  1.00  0.00     0.074 A 
ATOM     38  C   UNL A   1      42.818  25.657  27.376  1.00  0.00     0.049 A 
ATOM     39  N   UNL A   1      41.178  27.739  28.816  1.00  0.00    -0.248 NA
ATOM     40  C   UNL A   1      39.553  26.106  29.194  1.00  0.00     0.031 C 
ATOM     41  C   UNL A   1      43.619  24.718  26.585  1.00  0.00     0.029 A 
ATOM     42  N   UNL A   1      43.609  26.778  27.453  1.00  0.00    -0.354 N 
ATOM     43  C   UNL A   1      40.104  28.308  29.493  1.00  0.00     0.074 A 
ATOM     44  C   UNL A   1      39.102  27.271  29.633  1.00  0.00     0.031 C 
ATOM     45  C   UNL A   1      44.787  25.297  26.262  1.00  0.00     0.029 A 
ATOM     46  C   UNL A   1      44.799  26.665  26.769  1.00  0.00     0.049 A 
ATOM     47  H   UNL A   1      43.349  27.586  27.950  1.00  0.00     0.167 HD
ATOM     48  C   UNL A   1      39.972  29.573  29.963  1.00  0.00     0.034 A 
ATOM     49  C   UNL A   1      45.775  27.569  26.550  1.00  0.00     0.034 A 
ATOM     50  C   UNL A   1      40.997  30.580  29.853  1.00  0.00     0.049 A 
ATOM     51  C   UNL A   1      45.620  28.961  27.104  1.00  0.00     0.074 A 
ATOM     52  C   UNL A   1      40.996  31.873  30.348  1.00  0.00     0.029 A 
ATOM     53  N   UNL A   1      42.212  30.405  29.203  1.00  0.00    -0.354 N 
ATOM     54  N   UNL A   1      44.607  29.479  27.757  1.00  0.00    -0.248 NA
ATOM     55  C   UNL A   1      46.739  29.890  26.892  1.00  0.00     0.031 C 
ATOM     56  C   UNL A   1      42.191  32.491  29.964  1.00  0.00     0.029 A 
ATOM     57  C   UNL A   1      42.963  31.568  29.277  1.00  0.00     0.049 A 
ATOM     58  H   UNL A   1      42.499  29.577  28.757  1.00  0.00     0.167 HD
ATOM     59  C   UNL A   1      44.980  30.784  28.062  1.00  0.00     0.074 A 
ATOM     60  C   UNL A   1      46.310  30.975  27.521  1.00  0.00     0.031 C 
ATOM     61  C   UNL A   1      44.289  31.736  28.737  1.00  0.00     0.034 A 
BRANCH  48  62
ATOM     62  C   UNL A   1      38.659  29.932  30.614  1.00  0.00     0.023 A 
ATOM     63  C   UNL A   1      37.642  30.594  29.904  1.00  0.00     0.031 A 
ATOM     64  C   UNL A   1      38.438  29.654  31.974  1.00  0.00     0.131 A 
ATOM     65  C   UNL A   1      36.495  31.039  30.577  1.00  0.00     0.055 A 
ATOM     66  C   UNL A   1      37.255  30.023  32.617  1.00  0.00     0.041 A 
ATOM     67  F   UNL A   1      39.380  29.040  32.708  1.00  0.00    -0.206 F 
ATOM     68  C   UNL A   1      36.283  30.737  31.923  1.00  0.00     0.022 A 
BRANCH  65  69
ATOM     69  S   UNL A   1      35.362  32.151  29.702  1.00  0.00     0.124 S 
ATOM     70  O   UNL A   1      34.872  31.288  28.630  1.00  0.00    -0.237 OA
ATOM     71  O   UNL A   1      34.394  32.495  30.738  1.00  0.00    -0.237 OA
ATOM     72  O   UNL A   1      36.225  33.247  29.266  1.00  0.00    -0.744 OA
ENDBRANCH  65  69
ENDBRANCH  48  62
BRANCH  49  73
ATOM     73  C   UNL A   1      46.979  27.200  25.754  1.00  0.00     0.023 A 
ATOM     74  C   UNL A   1      47.127  27.637  24.429  1.00  0.00     0.031 A 
ATOM     75  C   UNL A   1      47.986  26.382  26.297  1.00  0.00     0.131 A 
ATOM     76  C   UNL A   1      48.235  27.222  23.675  1.00  0.00     0.055 A 
ATOM     77  C   UNL A   1      49.108  26.006  25.557  1.00  0.00     0.041 A 
ATOM     78  F   UNL A   1      47.896  25.946  27.564  1.00  0.00    -0.206 F 
ATOM     79  C   UNL A   1      49.232  26.417  24.233  1.00  0.00     0.022 A 
BRANCH  76  80
ATOM     80  S   UNL A   1      48.324  27.697  21.927  1.00  0.00     0.124 S 
ATOM     81  O   UNL A   1      49.438  28.639  21.932  1.00  0.00    -0.237 OA
ATOM     82  O   UNL A   1      48.570  26.415  21.277  1.00  0.00    -0.237 OA
ATOM     83  O   UNL A   1      47.011  28.284  21.667  1.00  0.00    -0.744 OA
ENDBRANCH  76  80
ENDBRANCH  49  73
BRANCH  61  84
ATOM     84  C   UNL A   1      44.990  33.044  28.985  1.00  0.00     0.023 A 
ATOM     85  C   UNL A   1      44.909  34.112  28.076  1.00  0.00     0.031 A 
ATOM     86  C   UNL A   1      45.736  33.223  30.163  1.00  0.00     0.131 A 
ATOM     87  C   UNL A   1      45.594  35.307  28.347  1.00  0.00     0.055 A 
ATOM     88  C   UNL A   1      46.381  34.426  30.446  1.00  0.00     0.041 A 
ATOM     89  F   UNL A   1      45.841  32.230  31.061  1.00  0.00    -0.206 F 
ATOM     90  C   UNL A   1      46.317  35.475  29.532  1.00  0.00     0.022 A 
BRANCH  87  91
ATOM     91  S   UNL A   1      45.560  36.634  27.110  1.00  0.00     0.124 S 
ATOM     92  O   UNL A   1      46.211  36.001  25.969  1.00  0.00    -0.237 OA
ATOM     93  O   UNL A   1      44.131  36.894  26.966  1.00  0.00    -0.237 OA
ATOM     94  O   UNL A   1      46.323  37.710  27.742  1.00  0.00    -0.744 OA
ENDBRANCH  87  91
ENDBRANCH  61  84
ENDBRANCH  35  36
ENDBRANCH  27  30
ENDBRANCH  25  26
ENDBRANCH   1  25
TORSDOF 16
ENDMDL
