MODEL 1
REMARK VINA RESULT:     -11.8      0.000      0.000
REMARK SMILES C[C@@H](C(=O)NCCCCNC(=O)c1ccc(-c2c3nc(c(-c4cc(S(=O)(=O)[O-])ccc4F)c4ccc([nH]4)c(-c4cc(S(=O)(=O)[O-])ccc4F)c4nc(c(-c5cc(S(=O)(=O)[O-])ccc5F)c5ccc2[nH]5)C=C4)C=C3)cc1)[C@H](C)n1ncc2ccc([N+](=O)[O-])cc21
REMARK SMILES IDX 7 1 6 2 5 3 3 4 4 5 2 7 1 8 76 9 77 10 78 11 79 12 89 13
REMARK SMILES IDX 80 14 81 15 88 16 82 17 84 18 83 19 85 20 86 21 87 22 8 23
REMARK SMILES IDX 9 24 10 25 11 26 12 28 13 29 14 30 75 31 15 32 74 33 16 34
REMARK SMILES IDX 17 35 18 36 68 37 19 38 73 39 67 40 69 41 20 42 72 43 66 44
REMARK SMILES IDX 65 45 21 47 53 48 33 49 52 50 34 51 37 52 51 53 70 54 35 55
REMARK SMILES IDX 36 56 50 58 71 59 38 60 22 61 23 62 31 63 24 64 30 65 32 66
REMARK SMILES IDX 29 67 25 68 26 69 27 70 28 71 54 72 55 73 63 74 56 75 62 76
REMARK SMILES IDX 64 77 61 78 57 79 58 80 59 81 60 82 39 83 40 84 48 85 41 86
REMARK SMILES IDX 47 87 49 88 46 89 42 90 43 91 44 92 45 93
REMARK H PARENT 5 6 10 27 69 46 37 57
REMARK Flexibility Score: inf
ROOT
ATOM      1  C   UNL A   1      35.089  20.212  25.070  1.00  0.00     0.023 C 
ENDROOT
BRANCH   1   2
ATOM      2  C   UNL A   1      33.593  20.362  25.354  1.00  0.00     0.116 C 
BRANCH   2   3
ATOM      3  N   UNL A   1      33.357  20.814  26.715  1.00  0.00    -0.356 N 
ATOM      4  C   UNL A   1      33.105  22.071  27.184  1.00  0.00     0.224 C 
ATOM      5  O   UNL A   1      33.103  22.252  28.402  1.00  0.00    -0.275 OA
ATOM      6  H   UNL A   1      33.383  20.109  27.401  1.00  0.00     0.163 HD
BRANCH   4   7
ATOM      7  C   UNL A   1      32.873  23.212  26.201  1.00  0.00     0.100 C 
ATOM      8  C   UNL A   1      34.077  24.160  26.289  1.00  0.00     0.020 C 
BRANCH   7   9
ATOM      9  C   UNL A   1      31.557  23.971  26.509  1.00  0.00     0.117 C 
ATOM     10  C   UNL A   1      30.344  23.061  26.768  1.00  0.00     0.034 C 
BRANCH   9  11
ATOM     11  N   UNL A   1      31.200  24.871  25.397  1.00  0.00    -0.261 N 
ATOM     12  N   UNL A   1      30.608  24.338  24.303  1.00  0.00    -0.180 NA
ATOM     13  C   UNL A   1      31.291  26.247  25.351  1.00  0.00     0.075 A 
ATOM     14  C   UNL A   1      30.201  25.397  23.609  1.00  0.00     0.143 A 
ATOM     15  C   UNL A   1      30.578  26.615  24.209  1.00  0.00     0.020 A 
ATOM     16  C   UNL A   1      31.898  27.197  26.191  1.00  0.00     0.114 A 
ATOM     17  C   UNL A   1      30.394  27.974  23.901  1.00  0.00     0.019 A 
ATOM     18  C   UNL A   1      31.734  28.550  25.839  1.00  0.00     0.271 A 
ATOM     19  C   UNL A   1      30.975  28.942  24.728  1.00  0.00     0.086 A 
BRANCH  18  20
ATOM     20  N   UNL A   1      32.385  29.585  26.652  1.00  0.00     0.062 N 
ATOM     21  O   UNL A   1      31.787  30.662  26.800  1.00  0.00    -0.258 OA
ATOM     22  O   UNL A   1      33.497  29.326  27.132  1.00  0.00    -0.258 OA
ENDBRANCH  18  20
ENDBRANCH   9  11
ENDBRANCH   7   9
ENDBRANCH   4   7
ENDBRANCH   2   3
ENDBRANCH   1   2
BRANCH   1  23
ATOM     23  C   UNL A   1      35.785  21.498  24.621  1.00  0.00     0.023 C 
BRANCH  23  24
ATOM     24  C   UNL A   1      37.012  21.889  25.440  1.00  0.00     0.116 C 
BRANCH  24  25
ATOM     25  N   UNL A   1      37.949  20.791  25.617  1.00  0.00    -0.352 N 
ATOM     26  C   UNL A   1      39.244  20.825  26.083  1.00  0.00     0.251 C 
ATOM     27  H   UNL A   1      37.611  19.900  25.369  1.00  0.00     0.163 HD
ATOM     28  O   UNL A   1      39.936  19.815  26.037  1.00  0.00    -0.269 OA
BRANCH  26  29
ATOM     29  C   UNL A   1      39.800  22.095  26.602  1.00  0.00     0.039 A 
ATOM     30  C   UNL A   1      40.743  22.055  27.632  1.00  0.00     0.014 A 
ATOM     31  C   UNL A   1      39.411  23.319  26.053  1.00  0.00     0.014 A 
ATOM     32  C   UNL A   1      41.354  23.237  28.060  1.00  0.00     0.010 A 
ATOM     33  C   UNL A   1      40.071  24.484  26.430  1.00  0.00     0.010 A 
ATOM     34  C   UNL A   1      41.052  24.456  27.434  1.00  0.00    -0.014 A 
BRANCH  34  35
ATOM     35  C   UNL A   1      41.728  25.726  27.808  1.00  0.00     0.031 A 
ATOM     36  C   UNL A   1      40.965  26.772  28.573  1.00  0.00     0.074 A 
ATOM     37  C   UNL A   1      42.974  25.984  27.368  1.00  0.00     0.049 A 
ATOM     38  N   UNL A   1      41.285  28.014  28.830  1.00  0.00    -0.248 NA
ATOM     39  C   UNL A   1      39.644  26.371  29.078  1.00  0.00     0.031 C 
ATOM     40  C   UNL A   1      43.807  25.062  26.595  1.00  0.00     0.029 A 
ATOM     41  N   UNL A   1      43.749  27.111  27.486  1.00  0.00    -0.354 N 
ATOM     42  C   UNL A   1      40.192  28.555  29.498  1.00  0.00     0.074 A 
ATOM     43  C   UNL A   1      39.184  27.517  29.555  1.00  0.00     0.031 C 
ATOM     44  C   UNL A   1      44.975  25.659  26.308  1.00  0.00     0.029 A 
ATOM     45  C   UNL A   1      44.956  27.023  26.831  1.00  0.00     0.049 A 
ATOM     46  H   UNL A   1      43.467  27.909  27.990  1.00  0.00     0.167 HD
ATOM     47  C   UNL A   1      40.050  29.796  30.029  1.00  0.00     0.034 A 
ATOM     48  C   UNL A   1      45.923  27.942  26.646  1.00  0.00     0.034 A 
ATOM     49  C   UNL A   1      41.076  30.810  29.976  1.00  0.00     0.049 A 
ATOM     50  C   UNL A   1      45.745  29.321  27.230  1.00  0.00     0.074 A 
ATOM     51  C   UNL A   1      41.063  32.081  30.525  1.00  0.00     0.029 A 
ATOM     52  N   UNL A   1      42.300  30.669  29.332  1.00  0.00    -0.354 N 
ATOM     53  N   UNL A   1      44.718  29.813  27.884  1.00  0.00    -0.248 NA
ATOM     54  C   UNL A   1      46.858  30.263  27.059  1.00  0.00     0.031 C 
ATOM     55  C   UNL A   1      42.249  32.728  30.161  1.00  0.00     0.029 A 
ATOM     56  C   UNL A   1      43.037  31.838  29.449  1.00  0.00     0.049 A 
ATOM     57  H   UNL A   1      42.599  29.859  28.861  1.00  0.00     0.167 HD
ATOM     58  C   UNL A   1      45.077  31.112  28.232  1.00  0.00     0.074 A 
ATOM     59  C   UNL A   1      46.414  31.325  27.716  1.00  0.00     0.031 C 
ATOM     60  C   UNL A   1      44.369  32.039  28.926  1.00  0.00     0.034 A 
BRANCH  47  61
ATOM     61  C   UNL A   1      38.723  30.123  30.673  1.00  0.00     0.023 A 
ATOM     62  C   UNL A   1      37.708  30.797  29.972  1.00  0.00     0.031 A 
ATOM     63  C   UNL A   1      38.491  29.811  32.025  1.00  0.00     0.131 A 
ATOM     64  C   UNL A   1      36.557  31.228  30.649  1.00  0.00     0.055 A 
ATOM     65  C   UNL A   1      37.300  30.159  32.668  1.00  0.00     0.041 A 
ATOM     66  F   UNL A   1      39.429  29.185  32.754  1.00  0.00    -0.206 F 
ATOM     67  C   UNL A   1      36.333  30.892  31.986  1.00  0.00     0.022 A 
BRANCH  64  68
ATOM     68  S   UNL A   1      35.448  32.391  29.807  1.00  0.00     0.124 S 
ATOM     69  O   UNL A   1      34.385  32.554  30.796  1.00  0.00    -0.237 OA
ATOM     70  O   UNL A   1      36.308  33.550  29.597  1.00  0.00    -0.237 OA
ATOM     71  O   UNL A   1      35.057  31.675  28.594  1.00  0.00    -0.744 OA
ENDBRANCH  64  68
ENDBRANCH  47  61
BRANCH  48  72
ATOM     72  C   UNL A   1      47.140  27.598  25.859  1.00  0.00     0.023 A 
ATOM     73  C   UNL A   1      47.200  27.842  24.478  1.00  0.00     0.031 A 
ATOM     74  C   UNL A   1      48.258  27.009  26.476  1.00  0.00     0.131 A 
ATOM     75  C   UNL A   1      48.341  27.468  23.752  1.00  0.00     0.055 A 
ATOM     76  C   UNL A   1      49.408  26.679  25.757  1.00  0.00     0.041 A 
ATOM     77  F   UNL A   1      48.254  26.765  27.796  1.00  0.00    -0.206 F 
ATOM     78  C   UNL A   1      49.451  26.900  24.384  1.00  0.00     0.022 A 
BRANCH  75  79
ATOM     79  S   UNL A   1      48.336  27.687  21.951  1.00  0.00     0.124 S 
ATOM     80  O   UNL A   1      47.001  28.231  21.722  1.00  0.00    -0.237 OA
ATOM     81  O   UNL A   1      49.448  28.611  21.755  1.00  0.00    -0.237 OA
ATOM     82  O   UNL A   1      48.556  26.334  21.444  1.00  0.00    -0.744 OA
ENDBRANCH  75  79
ENDBRANCH  48  72
BRANCH  60  83
ATOM     83  C   UNL A   1      45.056  33.349  29.226  1.00  0.00     0.023 A 
ATOM     84  C   UNL A   1      45.003  34.438  28.341  1.00  0.00     0.031 A 
ATOM     85  C   UNL A   1      45.765  33.505  30.431  1.00  0.00     0.131 A 
ATOM     86  C   UNL A   1      45.681  35.627  28.657  1.00  0.00     0.055 A 
ATOM     87  C   UNL A   1      46.394  34.704  30.763  1.00  0.00     0.041 A 
ATOM     88  F   UNL A   1      45.848  32.493  31.311  1.00  0.00    -0.206 F 
ATOM     89  C   UNL A   1      46.362  35.772  29.870  1.00  0.00     0.022 A 
BRANCH  86  90
ATOM     90  S   UNL A   1      45.717  36.965  27.434  1.00  0.00     0.124 S 
ATOM     91  O   UNL A   1      46.619  37.926  28.063  1.00  0.00    -0.237 OA
ATOM     92  O   UNL A   1      46.230  36.292  26.246  1.00  0.00    -0.237 OA
ATOM     93  O   UNL A   1      44.321  37.391  27.350  1.00  0.00    -0.744 OA
ENDBRANCH  86  90
ENDBRANCH  60  83
ENDBRANCH  34  35
ENDBRANCH  26  29
ENDBRANCH  24  25
ENDBRANCH  23  24
ENDBRANCH   1  23
TORSDOF 17
ENDMDL
MODEL 2
REMARK VINA RESULT:     -11.7      5.314     10.189
REMARK SMILES C[C@@H](C(=O)NCCCCNC(=O)c1ccc(-c2c3nc(c(-c4cc(S(=O)(=O)[O-])ccc4F)c4ccc([nH]4)c(-c4cc(S(=O)(=O)[O-])ccc4F)c4nc(c(-c5cc(S(=O)(=O)[O-])ccc5F)c5ccc2[nH]5)C=C4)C=C3)cc1)[C@H](C)n1ncc2ccc([N+](=O)[O-])cc21
REMARK SMILES IDX 7 1 6 2 5 3 3 4 4 5 2 7 1 8 76 9 77 10 78 11 79 12 89 13
REMARK SMILES IDX 80 14 81 15 88 16 82 17 84 18 83 19 85 20 86 21 87 22 8 23
REMARK SMILES IDX 9 24 10 25 11 26 12 28 13 29 14 30 75 31 15 32 74 33 16 34
REMARK SMILES IDX 17 35 18 36 68 37 19 38 73 39 67 40 69 41 20 42 72 43 66 44
REMARK SMILES IDX 65 45 21 47 53 48 33 49 52 50 34 51 37 52 51 53 70 54 35 55
REMARK SMILES IDX 36 56 50 58 71 59 38 60 22 61 23 62 31 63 24 64 30 65 32 66
REMARK SMILES IDX 29 67 25 68 26 69 27 70 28 71 54 72 55 73 63 74 56 75 62 76
REMARK SMILES IDX 64 77 61 78 57 79 58 80 59 81 60 82 39 83 40 84 48 85 41 86
REMARK SMILES IDX 47 87 49 88 46 89 42 90 43 91 44 92 45 93
REMARK H PARENT 5 6 10 27 69 46 37 57
REMARK Flexibility Score: inf
ROOT
ATOM      1  C   UNL A   1      33.375  28.558  25.618  1.00  0.00     0.023 C 
ENDROOT
BRANCH   1   2
ATOM      2  C   UNL A   1      32.595  27.509  26.413  1.00  0.00     0.116 C 
BRANCH   2   3
ATOM      3  N   UNL A   1      33.155  26.181  26.226  1.00  0.00    -0.356 N 
ATOM      4  C   UNL A   1      32.525  24.998  25.966  1.00  0.00     0.224 C 
ATOM      5  O   UNL A   1      33.186  23.960  26.013  1.00  0.00    -0.275 OA
ATOM      6  H   UNL A   1      34.135  26.126  26.297  1.00  0.00     0.163 HD
BRANCH   4   7
ATOM      7  C   UNL A   1      31.031  24.988  25.668  1.00  0.00     0.100 C 
ATOM      8  C   UNL A   1      30.427  23.743  26.331  1.00  0.00     0.020 C 
BRANCH   7   9
ATOM      9  C   UNL A   1      30.755  24.982  24.142  1.00  0.00     0.117 C 
ATOM     10  C   UNL A   1      31.435  23.834  23.377  1.00  0.00     0.034 C 
BRANCH   9  11
ATOM     11  N   UNL A   1      31.200  26.244  23.525  1.00  0.00    -0.261 N 
ATOM     12  N   UNL A   1      32.479  26.332  23.091  1.00  0.00    -0.180 NA
ATOM     13  C   UNL A   1      30.445  27.357  23.218  1.00  0.00     0.075 A 
ATOM     14  C   UNL A   1      32.505  27.460  22.388  1.00  0.00     0.143 A 
ATOM     15  C   UNL A   1      31.271  28.140  22.411  1.00  0.00     0.020 A 
ATOM     16  C   UNL A   1      29.133  27.745  23.543  1.00  0.00     0.114 A 
ATOM     17  C   UNL A   1      30.779  29.328  21.842  1.00  0.00     0.019 A 
ATOM     18  C   UNL A   1      28.677  28.958  22.993  1.00  0.00     0.271 A 
ATOM     19  C   UNL A   1      29.472  29.730  22.137  1.00  0.00     0.086 A 
BRANCH  18  20
ATOM     20  N   UNL A   1      27.332  29.438  23.335  1.00  0.00     0.062 N 
ATOM     21  O   UNL A   1      27.174  30.661  23.473  1.00  0.00    -0.258 OA
ATOM     22  O   UNL A   1      26.438  28.593  23.478  1.00  0.00    -0.258 OA
ENDBRANCH  18  20
ENDBRANCH   9  11
ENDBRANCH   7   9
ENDBRANCH   4   7
ENDBRANCH   2   3
ENDBRANCH   1   2
BRANCH   1  23
ATOM     23  C   UNL A   1      32.718  29.938  25.567  1.00  0.00     0.023 C 
BRANCH  23  24
ATOM     24  C   UNL A   1      32.179  30.447  26.900  1.00  0.00     0.116 C 
BRANCH  24  25
ATOM     25  N   UNL A   1      32.066  31.896  26.951  1.00  0.00    -0.352 N 
ATOM     26  C   UNL A   1      32.929  32.812  27.510  1.00  0.00     0.251 C 
ATOM     27  H   UNL A   1      31.261  32.274  26.527  1.00  0.00     0.163 HD
ATOM     28  O   UNL A   1      32.604  33.992  27.580  1.00  0.00    -0.269 OA
BRANCH  26  29
ATOM     29  C   UNL A   1      34.226  32.355  28.056  1.00  0.00     0.039 A 
ATOM     30  C   UNL A   1      35.314  33.232  28.049  1.00  0.00     0.014 A 
ATOM     31  C   UNL A   1      34.359  31.074  28.596  1.00  0.00     0.014 A 
ATOM     32  C   UNL A   1      36.515  32.852  28.656  1.00  0.00     0.010 A 
ATOM     33  C   UNL A   1      35.530  30.725  29.260  1.00  0.00     0.010 A 
ATOM     34  C   UNL A   1      36.619  31.611  29.302  1.00  0.00    -0.014 A 
BRANCH  34  35
ATOM     35  C   UNL A   1      37.852  31.194  30.020  1.00  0.00     0.031 A 
ATOM     36  C   UNL A   1      38.774  30.191  29.384  1.00  0.00     0.074 A 
ATOM     37  C   UNL A   1      38.082  31.624  31.275  1.00  0.00     0.049 A 
ATOM     38  N   UNL A   1      39.787  29.545  29.903  1.00  0.00    -0.248 NA
ATOM     39  C   UNL A   1      38.487  29.842  27.985  1.00  0.00     0.031 C 
ATOM     40  C   UNL A   1      37.248  32.575  32.011  1.00  0.00     0.029 A 
ATOM     41  N   UNL A   1      39.074  31.294  32.166  1.00  0.00    -0.354 N 
ATOM     42  C   UNL A   1      40.238  28.687  28.905  1.00  0.00     0.074 A 
ATOM     43  C   UNL A   1      39.351  28.862  27.774  1.00  0.00     0.031 C 
ATOM     44  C   UNL A   1      37.762  32.752  33.239  1.00  0.00     0.029 A 
ATOM     45  C   UNL A   1      38.931  31.891  33.398  1.00  0.00     0.049 A 
ATOM     46  H   UNL A   1      39.817  30.687  31.945  1.00  0.00     0.167 HD
ATOM     47  C   UNL A   1      41.302  27.844  28.927  1.00  0.00     0.034 A 
ATOM     48  C   UNL A   1      39.640  31.741  34.533  1.00  0.00     0.034 A 
ATOM     49  C   UNL A   1      42.184  27.699  30.060  1.00  0.00     0.049 A 
ATOM     50  C   UNL A   1      40.810  30.791  34.545  1.00  0.00     0.074 A 
ATOM     51  C   UNL A   1      43.320  26.919  30.175  1.00  0.00     0.029 A 
ATOM     52  N   UNL A   1      42.024  28.348  31.280  1.00  0.00    -0.354 N 
ATOM     53  N   UNL A   1      41.245  30.005  33.587  1.00  0.00    -0.248 NA
ATOM     54  C   UNL A   1      41.591  30.717  35.786  1.00  0.00     0.031 C 
ATOM     55  C   UNL A   1      43.811  27.047  31.480  1.00  0.00     0.029 A 
ATOM     56  C   UNL A   1      43.027  27.966  32.158  1.00  0.00     0.049 A 
ATOM     57  H   UNL A   1      41.304  28.986  31.488  1.00  0.00     0.167 HD
ATOM     58  C   UNL A   1      42.371  29.368  34.100  1.00  0.00     0.074 A 
ATOM     59  C   UNL A   1      42.548  29.862  35.451  1.00  0.00     0.031 C 
ATOM     60  C   UNL A   1      43.190  28.465  33.504  1.00  0.00     0.034 A 
BRANCH  47  61
ATOM     61  C   UNL A   1      41.534  26.996  27.699  1.00  0.00     0.023 A 
ATOM     62  C   UNL A   1      41.141  25.647  27.647  1.00  0.00     0.031 A 
ATOM     63  C   UNL A   1      42.214  27.524  26.585  1.00  0.00     0.131 A 
ATOM     64  C   UNL A   1      41.519  24.848  26.557  1.00  0.00     0.055 A 
ATOM     65  C   UNL A   1      42.502  26.746  25.462  1.00  0.00     0.041 A 
ATOM     66  F   UNL A   1      42.633  28.800  26.581  1.00  0.00    -0.206 F 
ATOM     67  C   UNL A   1      42.175  25.393  25.452  1.00  0.00     0.022 A 
BRANCH  64  68
ATOM     68  S   UNL A   1      41.306  23.052  26.693  1.00  0.00     0.124 S 
ATOM     69  O   UNL A   1      41.788  22.799  28.049  1.00  0.00    -0.237 OA
ATOM     70  O   UNL A   1      39.872  22.888  26.483  1.00  0.00    -0.237 OA
ATOM     71  O   UNL A   1      42.157  22.524  25.629  1.00  0.00    -0.744 OA
ENDBRANCH  64  68
ENDBRANCH  47  61
BRANCH  48  72
ATOM     72  C   UNL A   1      39.254  32.493  35.760  1.00  0.00     0.023 A 
ATOM     73  C   UNL A   1      38.453  31.900  36.748  1.00  0.00     0.031 A 
ATOM     74  C   UNL A   1      39.671  33.822  35.954  1.00  0.00     0.131 A 
ATOM     75  C   UNL A   1      38.067  32.645  37.874  1.00  0.00     0.055 A 
ATOM     76  C   UNL A   1      39.321  34.543  37.097  1.00  0.00     0.041 A 
ATOM     77  F   UNL A   1      40.446  34.430  35.043  1.00  0.00    -0.206 F 
ATOM     78  C   UNL A   1      38.506  33.958  38.061  1.00  0.00     0.022 A 
BRANCH  75  79
ATOM     79  S   UNL A   1      36.935  31.887  39.071  1.00  0.00     0.124 S 
ATOM     80  O   UNL A   1      36.943  30.491  38.645  1.00  0.00    -0.237 OA
ATOM     81  O   UNL A   1      37.596  32.176  40.338  1.00  0.00    -0.237 OA
ATOM     82  O   UNL A   1      35.679  32.600  38.849  1.00  0.00    -0.744 OA
ENDBRANCH  75  79
ENDBRANCH  48  72
BRANCH  60  83
ATOM     83  C   UNL A   1      44.394  28.002  34.287  1.00  0.00     0.023 A 
ATOM     84  C   UNL A   1      44.363  26.851  35.092  1.00  0.00     0.031 A 
ATOM     85  C   UNL A   1      45.596  28.728  34.212  1.00  0.00     0.131 A 
ATOM     86  C   UNL A   1      45.505  26.480  35.821  1.00  0.00     0.055 A 
ATOM     87  C   UNL A   1      46.742  28.326  34.897  1.00  0.00     0.041 A 
ATOM     88  F   UNL A   1      45.678  29.838  33.458  1.00  0.00    -0.206 F 
ATOM     89  C   UNL A   1      46.698  27.200  35.715  1.00  0.00     0.022 A 
BRANCH  86  90
ATOM     90  S   UNL A   1      45.395  25.074  36.962  1.00  0.00     0.124 S 
ATOM     91  O   UNL A   1      44.068  25.258  37.542  1.00  0.00    -0.237 OA
ATOM     92  O   UNL A   1      45.548  23.931  36.068  1.00  0.00    -0.237 OA
ATOM     93  O   UNL A   1      46.509  25.292  37.883  1.00  0.00    -0.744 OA
ENDBRANCH  86  90
ENDBRANCH  60  83
ENDBRANCH  34  35
ENDBRANCH  26  29
ENDBRANCH  24  25
ENDBRANCH  23  24
ENDBRANCH   1  23
TORSDOF 17
ENDMDL
MODEL 3
REMARK VINA RESULT:     -11.6      5.615     10.923
REMARK SMILES C[C@@H](C(=O)NCCCCNC(=O)c1ccc(-c2c3nc(c(-c4cc(S(=O)(=O)[O-])ccc4F)c4ccc([nH]4)c(-c4cc(S(=O)(=O)[O-])ccc4F)c4nc(c(-c5cc(S(=O)(=O)[O-])ccc5F)c5ccc2[nH]5)C=C4)C=C3)cc1)[C@H](C)n1ncc2ccc([N+](=O)[O-])cc21
REMARK SMILES IDX 7 1 6 2 5 3 3 4 4 5 2 7 1 8 76 9 77 10 78 11 79 12 89 13
REMARK SMILES IDX 80 14 81 15 88 16 82 17 84 18 83 19 85 20 86 21 87 22 8 23
REMARK SMILES IDX 9 24 10 25 11 26 12 28 13 29 14 30 75 31 15 32 74 33 16 34
REMARK SMILES IDX 17 35 18 36 68 37 19 38 73 39 67 40 69 41 20 42 72 43 66 44
REMARK SMILES IDX 65 45 21 47 53 48 33 49 52 50 34 51 37 52 51 53 70 54 35 55
REMARK SMILES IDX 36 56 50 58 71 59 38 60 22 61 23 62 31 63 24 64 30 65 32 66
REMARK SMILES IDX 29 67 25 68 26 69 27 70 28 71 54 72 55 73 63 74 56 75 62 76
REMARK SMILES IDX 64 77 61 78 57 79 58 80 59 81 60 82 39 83 40 84 48 85 41 86
REMARK SMILES IDX 47 87 49 88 46 89 42 90 43 91 44 92 45 93
REMARK H PARENT 5 6 10 27 69 46 37 57
REMARK Flexibility Score: inf
ROOT
ATOM      1  C   UNL A   1      31.789  30.285  26.568  1.00  0.00     0.023 C 
ENDROOT
BRANCH   1   2
ATOM      2  C   UNL A   1      31.442  29.720  25.189  1.00  0.00     0.116 C 
BRANCH   2   3
ATOM      3  N   UNL A   1      32.626  29.598  24.355  1.00  0.00    -0.356 N 
ATOM      4  C   UNL A   1      33.385  28.498  24.075  1.00  0.00     0.224 C 
ATOM      5  O   UNL A   1      34.448  28.658  23.476  1.00  0.00    -0.275 OA
ATOM      6  H   UNL A   1      32.925  30.433  23.929  1.00  0.00     0.163 HD
BRANCH   4   7
ATOM      7  C   UNL A   1      32.923  27.123  24.540  1.00  0.00     0.100 C 
ATOM      8  C   UNL A   1      33.655  26.798  25.849  1.00  0.00     0.020 C 
BRANCH   7   9
ATOM      9  C   UNL A   1      33.205  26.036  23.471  1.00  0.00     0.117 C 
ATOM     10  C   UNL A   1      32.629  26.347  22.080  1.00  0.00     0.034 C 
BRANCH   9  11
ATOM     11  N   UNL A   1      32.657  24.734  23.892  1.00  0.00    -0.261 N 
ATOM     12  N   UNL A   1      31.312  24.592  23.952  1.00  0.00    -0.180 NA
ATOM     13  C   UNL A   1      33.339  23.562  24.144  1.00  0.00     0.075 A 
ATOM     14  C   UNL A   1      31.132  23.285  24.117  1.00  0.00     0.143 A 
ATOM     15  C   UNL A   1      32.348  22.582  24.228  1.00  0.00     0.020 A 
ATOM     16  C   UNL A   1      34.704  23.258  24.283  1.00  0.00     0.114 A 
ATOM     17  C   UNL A   1      32.705  21.232  24.397  1.00  0.00     0.019 A 
ATOM     18  C   UNL A   1      35.034  21.905  24.491  1.00  0.00     0.271 A 
ATOM     19  C   UNL A   1      34.058  20.900  24.524  1.00  0.00     0.086 A 
BRANCH  18  20
ATOM     20  N   UNL A   1      36.440  21.533  24.691  1.00  0.00     0.062 N 
ATOM     21  O   UNL A   1      37.298  22.414  24.525  1.00  0.00    -0.258 OA
ATOM     22  O   UNL A   1      36.688  20.360  25.002  1.00  0.00    -0.258 OA
ENDBRANCH  18  20
ENDBRANCH   9  11
ENDBRANCH   7   9
ENDBRANCH   4   7
ENDBRANCH   2   3
ENDBRANCH   1   2
BRANCH   1  23
ATOM     23  C   UNL A   1      31.556  31.789  26.717  1.00  0.00     0.023 C 
BRANCH  23  24
ATOM     24  C   UNL A   1      32.807  32.612  27.010  1.00  0.00     0.116 C 
BRANCH  24  25
ATOM     25  N   UNL A   1      32.515  33.870  27.679  1.00  0.00    -0.352 N 
ATOM     26  C   UNL A   1      33.156  34.448  28.752  1.00  0.00     0.251 C 
ATOM     27  H   UNL A   1      31.754  34.378  27.315  1.00  0.00     0.163 HD
ATOM     28  O   UNL A   1      32.686  35.452  29.274  1.00  0.00    -0.269 OA
BRANCH  26  29
ATOM     29  C   UNL A   1      34.388  33.827  29.288  1.00  0.00     0.039 A 
ATOM     30  C   UNL A   1      35.630  34.333  28.897  1.00  0.00     0.014 A 
ATOM     31  C   UNL A   1      34.314  32.768  30.195  1.00  0.00     0.014 A 
ATOM     32  C   UNL A   1      36.798  33.828  29.475  1.00  0.00     0.010 A 
ATOM     33  C   UNL A   1      35.471  32.315  30.820  1.00  0.00     0.010 A 
ATOM     34  C   UNL A   1      36.725  32.842  30.471  1.00  0.00    -0.014 A 
BRANCH  34  35
ATOM     35  C   UNL A   1      37.935  32.325  31.162  1.00  0.00     0.031 A 
ATOM     36  C   UNL A   1      38.689  31.168  30.567  1.00  0.00     0.074 A 
ATOM     37  C   UNL A   1      38.286  32.813  32.367  1.00  0.00     0.049 A 
ATOM     38  N   UNL A   1      39.641  30.437  31.089  1.00  0.00    -0.248 NA
ATOM     39  C   UNL A   1      38.283  30.756  29.216  1.00  0.00     0.031 C 
ATOM     40  C   UNL A   1      37.618  33.914  33.063  1.00  0.00     0.029 A 
ATOM     41  N   UNL A   1      39.277  32.426  33.235  1.00  0.00    -0.354 N 
ATOM     42  C   UNL A   1      39.926  29.458  30.144  1.00  0.00     0.074 A 
ATOM     43  C   UNL A   1      39.006  29.661  29.044  1.00  0.00     0.031 C 
ATOM     44  C   UNL A   1      38.218  34.114  34.247  1.00  0.00     0.029 A 
ATOM     45  C   UNL A   1      39.278  33.125  34.420  1.00  0.00     0.049 A 
ATOM     46  H   UNL A   1      39.926  31.714  33.030  1.00  0.00     0.167 HD
ATOM     47  C   UNL A   1      40.876  28.490  30.184  1.00  0.00     0.034 A 
ATOM     48  C   UNL A   1      40.025  32.969  35.530  1.00  0.00     0.034 A 
ATOM     49  C   UNL A   1      41.795  28.317  31.283  1.00  0.00     0.049 A 
ATOM     50  C   UNL A   1      41.068  31.881  35.565  1.00  0.00     0.074 A 
ATOM     51  C   UNL A   1      42.831  27.408  31.408  1.00  0.00     0.029 A 
ATOM     52  N   UNL A   1      41.785  29.069  32.453  1.00  0.00    -0.354 N 
ATOM     53  N   UNL A   1      41.347  30.977  34.654  1.00  0.00    -0.248 NA
ATOM     54  C   UNL A   1      41.901  31.799  36.771  1.00  0.00     0.031 C 
ATOM     55  C   UNL A   1      43.406  27.568  32.675  1.00  0.00     0.029 A 
ATOM     56  C   UNL A   1      42.780  28.628  33.312  1.00  0.00     0.049 A 
ATOM     57  H   UNL A   1      41.163  29.807  32.643  1.00  0.00     0.167 HD
ATOM     58  C   UNL A   1      42.412  30.240  35.164  1.00  0.00     0.074 A 
ATOM     59  C   UNL A   1      42.724  30.806  36.462  1.00  0.00     0.031 C 
ATOM     60  C   UNL A   1      43.079  29.199  34.606  1.00  0.00     0.034 A 
BRANCH  47  61
ATOM     61  C   UNL A   1      40.933  27.531  29.018  1.00  0.00     0.023 A 
ATOM     62  C   UNL A   1      41.908  27.649  28.011  1.00  0.00     0.031 A 
ATOM     63  C   UNL A   1      39.964  26.522  28.876  1.00  0.00     0.131 A 
ATOM     64  C   UNL A   1      41.831  26.846  26.863  1.00  0.00     0.055 A 
ATOM     65  C   UNL A   1      39.950  25.662  27.775  1.00  0.00     0.041 A 
ATOM     66  F   UNL A   1      38.994  26.370  29.793  1.00  0.00    -0.206 F 
ATOM     67  C   UNL A   1      40.874  25.836  26.749  1.00  0.00     0.022 A 
BRANCH  64  68
ATOM     68  S   UNL A   1      42.881  27.269  25.446  1.00  0.00     0.124 S 
ATOM     69  O   UNL A   1      42.105  28.331  24.810  1.00  0.00    -0.237 OA
ATOM     70  O   UNL A   1      44.124  27.681  26.086  1.00  0.00    -0.237 OA
ATOM     71  O   UNL A   1      42.952  26.021  24.688  1.00  0.00    -0.744 OA
ENDBRANCH  64  68
ENDBRANCH  47  61
BRANCH  48  72
ATOM     72  C   UNL A   1      39.804  33.852  36.709  1.00  0.00     0.023 A 
ATOM     73  C   UNL A   1      39.155  33.375  37.859  1.00  0.00     0.031 A 
ATOM     74  C   UNL A   1      40.229  35.193  36.698  1.00  0.00     0.131 A 
ATOM     75  C   UNL A   1      38.920  34.240  38.939  1.00  0.00     0.055 A 
ATOM     76  C   UNL A   1      40.033  36.037  37.793  1.00  0.00     0.041 A 
ATOM     77  F   UNL A   1      40.864  35.695  35.627  1.00  0.00    -0.206 F 
ATOM     78  C   UNL A   1      39.366  35.564  38.919  1.00  0.00     0.022 A 
BRANCH  75  79
ATOM     79  S   UNL A   1      37.973  33.622  40.357  1.00  0.00     0.124 S 
ATOM     80  O   UNL A   1      37.722  34.851  41.103  1.00  0.00    -0.237 OA
ATOM     81  O   UNL A   1      36.816  33.017  39.708  1.00  0.00    -0.237 OA
ATOM     82  O   UNL A   1      38.891  32.680  40.994  1.00  0.00    -0.744 OA
ENDBRANCH  75  79
ENDBRANCH  48  72
BRANCH  60  83
ATOM     83  C   UNL A   1      44.258  28.645  35.367  1.00  0.00     0.023 A 
ATOM     84  C   UNL A   1      44.113  27.644  36.342  1.00  0.00     0.031 A 
ATOM     85  C   UNL A   1      45.551  29.126  35.096  1.00  0.00     0.131 A 
ATOM     86  C   UNL A   1      45.240  27.182  37.040  1.00  0.00     0.055 A 
ATOM     87  C   UNL A   1      46.674  28.628  35.756  1.00  0.00     0.041 A 
ATOM     88  F   UNL A   1      45.745  30.084  34.175  1.00  0.00    -0.206 F 
ATOM     89  C   UNL A   1      46.521  27.656  36.741  1.00  0.00     0.022 A 
BRANCH  86  90
ATOM     90  S   UNL A   1      45.007  25.996  38.392  1.00  0.00     0.124 S 
ATOM     91  O   UNL A   1      44.703  24.766  37.666  1.00  0.00    -0.237 OA
ATOM     92  O   UNL A   1      46.298  26.034  39.069  1.00  0.00    -0.237 OA
ATOM     93  O   UNL A   1      43.892  26.557  39.153  1.00  0.00    -0.744 OA
ENDBRANCH  86  90
ENDBRANCH  60  83
ENDBRANCH  34  35
ENDBRANCH  26  29
ENDBRANCH  24  25
ENDBRANCH  23  24
ENDBRANCH   1  23
TORSDOF 17
ENDMDL
