MODEL 1
REMARK VINA RESULT:     -12.4      0.000      0.000
REMARK SMILES O=C(NCCCCNC(=O)c1cccc(Nc2ccnc3ccc(Cl)cc23)c1)c1ccc(-c2c3nc(c(-c4cc(S(=O)(=O)[O-])ccc4F)c4ccc([nH]4)c(-c4cc(S(=O)(=O)[O-])ccc4F)c4nc(c(-c5cc(S(=O)(=O)[O-])ccc5F)c5ccc2[nH]5)C=C4)C=C3)cc1
REMARK SMILES IDX 5 1 4 2 3 3 1 4 2 5 29 7 30 8 91 9 31 10 90 11 32 12 33 13
REMARK SMILES IDX 34 14 84 15 35 16 89 17 83 18 85 19 36 20 88 21 82 22 81 23
REMARK SMILES IDX 37 25 69 26 49 27 68 28 50 29 53 30 67 31 86 32 51 33 52 34
REMARK SMILES IDX 66 36 87 37 54 38 38 39 39 40 47 41 40 42 46 43 48 44 45 45
REMARK SMILES IDX 41 46 42 47 43 48 44 49 70 50 71 51 79 52 72 53 78 54 80 55
REMARK SMILES IDX 77 56 73 57 74 58 75 59 76 60 55 61 56 62 64 63 57 64 63 65
REMARK SMILES IDX 65 66 62 67 58 68 59 69 60 70 61 71 6 72 7 73 8 74 9 75
REMARK SMILES IDX 10 77 11 78 12 79 28 80 13 81 15 82 14 83 16 84 17 86 18 87
REMARK SMILES IDX 27 88 19 89 21 90 26 91 20 92 22 93 24 94 23 95 25 96
REMARK H PARENT 3 6 85 24 53 35 8 76 16 85
REMARK Flexibility Score: inf
ROOT
ATOM      1  C   UNL A   1      33.641  28.069  25.058  1.00  0.00     0.023 C 
ENDROOT
BRANCH   1   2
ATOM      2  C   UNL A   1      33.932  28.408  26.517  1.00  0.00     0.116 C 
BRANCH   2   3
ATOM      3  N   UNL A   1      33.687  29.804  26.847  1.00  0.00    -0.352 N 
ATOM      4  O   UNL A   1      33.989  31.792  27.852  1.00  0.00    -0.269 OA
ATOM      5  C   UNL A   1      34.430  30.677  27.608  1.00  0.00     0.251 C 
ATOM      6  H   UNL A   1      32.862  30.183  26.465  1.00  0.00     0.163 HD
BRANCH   5   7
ATOM      7  C   UNL A   1      35.743  30.259  28.152  1.00  0.00     0.039 A 
ATOM      8  C   UNL A   1      36.922  30.464  27.431  1.00  0.00     0.014 A 
ATOM      9  C   UNL A   1      35.790  29.658  29.413  1.00  0.00     0.014 A 
ATOM     10  C   UNL A   1      38.123  29.938  27.903  1.00  0.00     0.010 A 
ATOM     11  C   UNL A   1      37.009  29.204  29.921  1.00  0.00     0.010 A 
ATOM     12  C   UNL A   1      38.182  29.308  29.154  1.00  0.00    -0.014 A 
BRANCH  12  13
ATOM     13  C   UNL A   1      39.477  28.787  29.668  1.00  0.00     0.031 A 
ATOM     14  C   UNL A   1      40.187  29.474  30.802  1.00  0.00     0.074 A 
ATOM     15  C   UNL A   1      40.015  27.689  29.102  1.00  0.00     0.049 A 
ATOM     16  N   UNL A   1      41.353  29.205  31.332  1.00  0.00    -0.248 NA
ATOM     17  C   UNL A   1      39.499  30.620  31.410  1.00  0.00     0.031 C 
ATOM     18  C   UNL A   1      39.412  26.930  28.003  1.00  0.00     0.029 A 
ATOM     19  N   UNL A   1      41.184  27.021  29.364  1.00  0.00    -0.354 N 
ATOM     20  C   UNL A   1      41.552  30.160  32.325  1.00  0.00     0.074 A 
ATOM     21  C   UNL A   1      40.398  31.036  32.291  1.00  0.00     0.031 C 
ATOM     22  C   UNL A   1      40.205  25.892  27.701  1.00  0.00     0.029 A 
ATOM     23  C   UNL A   1      41.405  25.953  28.529  1.00  0.00     0.049 A 
ATOM     24  H   UNL A   1      41.804  27.283  30.083  1.00  0.00     0.167 HD
ATOM     25  C   UNL A   1      42.594  30.285  33.186  1.00  0.00     0.034 A 
ATOM     26  C   UNL A   1      42.469  25.134  28.410  1.00  0.00     0.034 A 
ATOM     27  C   UNL A   1      43.739  29.403  33.194  1.00  0.00     0.049 A 
ATOM     28  C   UNL A   1      43.647  25.335  29.325  1.00  0.00     0.074 A 
ATOM     29  C   UNL A   1      44.837  29.423  34.037  1.00  0.00     0.029 A 
ATOM     30  N   UNL A   1      43.944  28.352  32.307  1.00  0.00    -0.354 N 
ATOM     31  N   UNL A   1      43.817  26.236  30.264  1.00  0.00    -0.248 NA
ATOM     32  C   UNL A   1      44.771  24.405  29.169  1.00  0.00     0.031 C 
ATOM     33  C   UNL A   1      45.739  28.442  33.610  1.00  0.00     0.029 A 
ATOM     34  C   UNL A   1      45.165  27.743  32.560  1.00  0.00     0.049 A 
ATOM     35  H   UNL A   1      43.314  28.079  31.602  1.00  0.00     0.167 HD
ATOM     36  C   UNL A   1      45.057  25.960  30.834  1.00  0.00     0.074 A 
ATOM     37  C   UNL A   1      45.586  24.807  30.134  1.00  0.00     0.031 C 
ATOM     38  C   UNL A   1      45.692  26.598  31.850  1.00  0.00     0.034 A 
BRANCH  25  39
ATOM     39  C   UNL A   1      42.565  31.453  34.147  1.00  0.00     0.023 A 
ATOM     40  C   UNL A   1      41.769  31.442  35.307  1.00  0.00     0.031 A 
ATOM     41  C   UNL A   1      43.311  32.616  33.879  1.00  0.00     0.131 A 
ATOM     42  C   UNL A   1      41.667  32.595  36.101  1.00  0.00     0.055 A 
ATOM     43  C   UNL A   1      43.278  33.727  34.724  1.00  0.00     0.041 A 
ATOM     44  F   UNL A   1      44.075  32.698  32.779  1.00  0.00    -0.206 F 
ATOM     45  C   UNL A   1      42.437  33.729  35.833  1.00  0.00     0.022 A 
BRANCH  42  46
ATOM     46  S   UNL A   1      40.382  32.653  37.379  1.00  0.00     0.124 S 
ATOM     47  O   UNL A   1      41.154  32.378  38.589  1.00  0.00    -0.237 OA
ATOM     48  O   UNL A   1      39.865  34.010  37.246  1.00  0.00    -0.237 OA
ATOM     49  O   UNL A   1      39.458  31.590  36.987  1.00  0.00    -0.744 OA
ENDBRANCH  42  46
ENDBRANCH  25  39
BRANCH  26  50
ATOM     50  C   UNL A   1      42.479  24.082  27.356  1.00  0.00     0.023 A 
ATOM     51  C   UNL A   1      41.843  22.848  27.555  1.00  0.00     0.031 A 
ATOM     52  C   UNL A   1      43.131  24.300  26.128  1.00  0.00     0.131 A 
ATOM     53  C   UNL A   1      41.898  21.866  26.554  1.00  0.00     0.055 A 
ATOM     54  C   UNL A   1      43.137  23.341  25.115  1.00  0.00     0.041 A 
ATOM     55  F   UNL A   1      43.751  25.466  25.886  1.00  0.00    -0.206 F 
ATOM     56  C   UNL A   1      42.526  22.110  25.329  1.00  0.00     0.022 A 
BRANCH  53  57
ATOM     57  S   UNL A   1      41.190  20.233  26.899  1.00  0.00     0.124 S 
ATOM     58  O   UNL A   1      42.292  19.349  26.535  1.00  0.00    -0.237 OA
ATOM     59  O   UNL A   1      40.888  20.328  28.324  1.00  0.00    -0.237 OA
ATOM     60  O   UNL A   1      40.024  20.173  26.019  1.00  0.00    -0.744 OA
ENDBRANCH  53  57
ENDBRANCH  26  50
BRANCH  38  61
ATOM     61  C   UNL A   1      47.009  26.020  32.312  1.00  0.00     0.023 A 
ATOM     62  C   UNL A   1      48.223  26.313  31.669  1.00  0.00     0.031 A 
ATOM     63  C   UNL A   1      47.041  25.158  33.424  1.00  0.00     0.131 A 
ATOM     64  C   UNL A   1      49.412  25.713  32.113  1.00  0.00     0.055 A 
ATOM     65  C   UNL A   1      48.235  24.612  33.898  1.00  0.00     0.041 A 
ATOM     66  F   UNL A   1      45.910  24.836  34.073  1.00  0.00    -0.206 F 
ATOM     67  C   UNL A   1      49.428  24.880  33.236  1.00  0.00     0.022 A 
BRANCH  64  68
ATOM     68  S   UNL A   1      50.931  25.963  31.153  1.00  0.00     0.124 S 
ATOM     69  O   UNL A   1      51.907  25.202  31.927  1.00  0.00    -0.237 OA
ATOM     70  O   UNL A   1      50.575  25.406  29.853  1.00  0.00    -0.237 OA
ATOM     71  O   UNL A   1      51.118  27.412  31.176  1.00  0.00    -0.744 OA
ENDBRANCH  64  68
ENDBRANCH  38  61
ENDBRANCH  12  13
ENDBRANCH   5   7
ENDBRANCH   2   3
ENDBRANCH   1   2
BRANCH   1  72
ATOM     72  C   UNL A   1      33.503  29.257  24.106  1.00  0.00     0.023 C 
BRANCH  72  73
ATOM     73  C   UNL A   1      33.220  28.914  22.649  1.00  0.00     0.116 C 
BRANCH  73  74
ATOM     74  N   UNL A   1      31.868  29.232  22.228  1.00  0.00    -0.352 N 
ATOM     75  C   UNL A   1      30.704  28.514  22.297  1.00  0.00     0.251 C 
ATOM     76  H   UNL A   1      31.771  30.123  21.819  1.00  0.00     0.163 HD
ATOM     77  O   UNL A   1      29.676  28.999  21.828  1.00  0.00    -0.269 OA
BRANCH  75  78
ATOM     78  C   UNL A   1      30.643  27.161  22.896  1.00  0.00     0.041 A 
ATOM     79  C   UNL A   1      30.056  27.051  24.162  1.00  0.00     0.014 A 
ATOM     80  C   UNL A   1      31.273  26.048  22.326  1.00  0.00     0.039 A 
ATOM     81  C   UNL A   1      30.054  25.831  24.835  1.00  0.00     0.003 A 
ATOM     82  C   UNL A   1      31.272  24.815  22.996  1.00  0.00     0.039 A 
ATOM     83  C   UNL A   1      30.659  24.721  24.253  1.00  0.00     0.026 A 
BRANCH  82  84
ATOM     84  N   UNL A   1      32.109  23.751  22.561  1.00  0.00    -0.355 N 
ATOM     85  H   UNL A   1      31.889  23.241  21.749  1.00  0.00     0.167 HD
BRANCH  84  86
ATOM     86  C   UNL A   1      33.270  23.437  23.323  1.00  0.00     0.050 A 
ATOM     87  C   UNL A   1      34.177  24.466  23.590  1.00  0.00     0.047 A 
ATOM     88  C   UNL A   1      33.522  22.140  23.828  1.00  0.00     0.025 A 
ATOM     89  C   UNL A   1      35.223  24.217  24.445  1.00  0.00     0.114 A 
ATOM     90  C   UNL A   1      34.670  21.990  24.640  1.00  0.00     0.072 A 
ATOM     91  C   UNL A   1      32.704  21.010  23.582  1.00  0.00     0.033 A 
ATOM     92  N   UNL A   1      35.483  23.005  24.967  1.00  0.00    -0.256 NA
ATOM     93  C   UNL A   1      34.995  20.733  25.125  1.00  0.00     0.030 A 
ATOM     94  C   UNL A   1      33.063  19.757  24.080  1.00  0.00     0.041 A 
ATOM     95  C   UNL A   1      34.218  19.612  24.837  1.00  0.00     0.023 A 
ATOM     96  Cl  UNL A   1      32.087  18.380  23.752  1.00  0.00    -0.084 Cl
ENDBRANCH  84  86
ENDBRANCH  82  84
ENDBRANCH  75  78
ENDBRANCH  73  74
ENDBRANCH  72  73
ENDBRANCH   1  72
TORSDOF 16
ENDMDL
MODEL 2
REMARK VINA RESULT:     -12.4      4.751      7.674
REMARK SMILES O=C(NCCCCNC(=O)c1cccc(Nc2ccnc3ccc(Cl)cc23)c1)c1ccc(-c2c3nc(c(-c4cc(S(=O)(=O)[O-])ccc4F)c4ccc([nH]4)c(-c4cc(S(=O)(=O)[O-])ccc4F)c4nc(c(-c5cc(S(=O)(=O)[O-])ccc5F)c5ccc2[nH]5)C=C4)C=C3)cc1
REMARK SMILES IDX 5 1 4 2 3 3 1 4 2 5 29 7 30 8 91 9 31 10 90 11 32 12 33 13
REMARK SMILES IDX 34 14 84 15 35 16 89 17 83 18 85 19 36 20 88 21 82 22 81 23
REMARK SMILES IDX 37 25 69 26 49 27 68 28 50 29 53 30 67 31 86 32 51 33 52 34
REMARK SMILES IDX 66 36 87 37 54 38 38 39 39 40 47 41 40 42 46 43 48 44 45 45
REMARK SMILES IDX 41 46 42 47 43 48 44 49 70 50 71 51 79 52 72 53 78 54 80 55
REMARK SMILES IDX 77 56 73 57 74 58 75 59 76 60 55 61 56 62 64 63 57 64 63 65
REMARK SMILES IDX 65 66 62 67 58 68 59 69 60 70 61 71 6 72 7 73 8 74 9 75
REMARK SMILES IDX 10 77 11 78 12 79 28 80 13 81 15 82 14 83 16 84 17 86 18 87
REMARK SMILES IDX 27 88 19 89 21 90 26 91 20 92 22 93 24 94 23 95 25 96
REMARK H PARENT 3 6 85 24 53 35 8 76 16 85
REMARK Flexibility Score: inf
ROOT
ATOM      1  C   UNL A   1      34.862  21.572  25.262  1.00  0.00     0.023 C 
ENDROOT
BRANCH   1   2
ATOM      2  C   UNL A   1      36.273  22.035  25.614  1.00  0.00     0.116 C 
BRANCH   2   3
ATOM      3  N   UNL A   1      37.254  20.960  25.601  1.00  0.00    -0.352 N 
ATOM      4  O   UNL A   1      39.277  19.984  25.691  1.00  0.00    -0.269 OA
ATOM      5  C   UNL A   1      38.605  20.992  25.861  1.00  0.00     0.251 C 
ATOM      6  H   UNL A   1      36.896  20.072  25.372  1.00  0.00     0.163 HD
BRANCH   5   7
ATOM      7  C   UNL A   1      39.247  22.247  26.316  1.00  0.00     0.039 A 
ATOM      8  C   UNL A   1      38.812  23.491  25.851  1.00  0.00     0.014 A 
ATOM      9  C   UNL A   1      40.299  22.172  27.233  1.00  0.00     0.014 A 
ATOM     10  C   UNL A   1      39.521  24.642  26.186  1.00  0.00     0.010 A 
ATOM     11  C   UNL A   1      40.957  23.338  27.631  1.00  0.00     0.010 A 
ATOM     12  C   UNL A   1      40.597  24.581  27.085  1.00  0.00    -0.014 A 
BRANCH  12  13
ATOM     13  C   UNL A   1      41.321  25.822  27.468  1.00  0.00     0.031 A 
ATOM     14  C   UNL A   1      40.661  26.862  28.331  1.00  0.00     0.074 A 
ATOM     15  C   UNL A   1      42.581  26.010  27.030  1.00  0.00     0.049 A 
ATOM     16  N   UNL A   1      41.110  28.033  28.706  1.00  0.00    -0.248 NA
ATOM     17  C   UNL A   1      39.314  26.548  28.825  1.00  0.00     0.031 C 
ATOM     18  C   UNL A   1      43.331  25.066  26.198  1.00  0.00     0.029 A 
ATOM     19  N   UNL A   1      43.453  27.052  27.217  1.00  0.00    -0.354 N 
ATOM     20  C   UNL A   1      40.095  28.607  29.466  1.00  0.00     0.074 A 
ATOM     21  C   UNL A   1      38.993  27.666  29.461  1.00  0.00     0.031 C 
ATOM     22  C   UNL A   1      44.554  25.563  25.964  1.00  0.00     0.029 A 
ATOM     23  C   UNL A   1      44.651  26.890  26.563  1.00  0.00     0.049 A 
ATOM     24  H   UNL A   1      43.240  27.841  27.768  1.00  0.00     0.167 HD
ATOM     25  C   UNL A   1      40.089  29.801  30.111  1.00  0.00     0.034 A 
ATOM     26  C   UNL A   1      45.698  27.727  26.424  1.00  0.00     0.034 A 
ATOM     27  C   UNL A   1      41.198  30.728  30.094  1.00  0.00     0.049 A 
ATOM     28  C   UNL A   1      45.644  29.077  27.087  1.00  0.00     0.074 A 
ATOM     29  C   UNL A   1      41.310  31.952  30.732  1.00  0.00     0.029 A 
ATOM     30  N   UNL A   1      42.383  30.543  29.389  1.00  0.00    -0.354 N 
ATOM     31  N   UNL A   1      44.681  29.603  27.808  1.00  0.00    -0.248 NA
ATOM     32  C   UNL A   1      46.817  29.942  26.922  1.00  0.00     0.031 C 
ATOM     33  C   UNL A   1      42.520  32.540  30.349  1.00  0.00     0.029 A 
ATOM     34  C   UNL A   1      43.212  31.645  29.548  1.00  0.00     0.049 A 
ATOM     35  H   UNL A   1      42.602  29.746  28.856  1.00  0.00     0.167 HD
ATOM     36  C   UNL A   1      45.148  30.850  28.211  1.00  0.00     0.074 A 
ATOM     37  C   UNL A   1      46.479  30.993  27.655  1.00  0.00     0.031 C 
ATOM     38  C   UNL A   1      44.535  31.786  28.981  1.00  0.00     0.034 A 
BRANCH  25  39
ATOM     39  C   UNL A   1      38.821  30.193  30.839  1.00  0.00     0.023 A 
ATOM     40  C   UNL A   1      37.864  31.044  30.259  1.00  0.00     0.031 A 
ATOM     41  C   UNL A   1      38.585  29.742  32.151  1.00  0.00     0.131 A 
ATOM     42  C   UNL A   1      36.769  31.488  31.016  1.00  0.00     0.055 A 
ATOM     43  C   UNL A   1      37.445  30.113  32.866  1.00  0.00     0.041 A 
ATOM     44  F   UNL A   1      39.470  28.943  32.768  1.00  0.00    -0.206 F 
ATOM     45  C   UNL A   1      36.538  31.008  32.307  1.00  0.00     0.022 A 
BRANCH  42  46
ATOM     46  S   UNL A   1      35.753  32.839  30.356  1.00  0.00     0.124 S 
ATOM     47  O   UNL A   1      35.921  32.659  28.915  1.00  0.00    -0.237 OA
ATOM     48  O   UNL A   1      34.432  32.530  30.889  1.00  0.00    -0.237 OA
ATOM     49  O   UNL A   1      36.383  34.041  30.900  1.00  0.00    -0.744 OA
ENDBRANCH  42  46
ENDBRANCH  25  39
BRANCH  26  50
ATOM     50  C   UNL A   1      46.863  27.321  25.590  1.00  0.00     0.023 A 
ATOM     51  C   UNL A   1      47.007  27.776  24.271  1.00  0.00     0.031 A 
ATOM     52  C   UNL A   1      47.854  26.465  26.106  1.00  0.00     0.131 A 
ATOM     53  C   UNL A   1      48.100  27.350  23.502  1.00  0.00     0.055 A 
ATOM     54  C   UNL A   1      48.968  26.088  25.355  1.00  0.00     0.041 A 
ATOM     55  F   UNL A   1      47.766  26.006  27.365  1.00  0.00    -0.206 F 
ATOM     56  C   UNL A   1      49.091  26.523  24.040  1.00  0.00     0.022 A 
BRANCH  53  57
ATOM     57  S   UNL A   1      48.180  27.840  21.759  1.00  0.00     0.124 S 
ATOM     58  O   UNL A   1      49.296  28.779  21.764  1.00  0.00    -0.237 OA
ATOM     59  O   UNL A   1      48.419  26.563  21.095  1.00  0.00    -0.237 OA
ATOM     60  O   UNL A   1      46.867  28.433  21.511  1.00  0.00    -0.744 OA
ENDBRANCH  53  57
ENDBRANCH  26  50
BRANCH  38  61
ATOM     61  C   UNL A   1      45.326  33.026  29.322  1.00  0.00     0.023 A 
ATOM     62  C   UNL A   1      45.229  34.208  28.567  1.00  0.00     0.031 A 
ATOM     63  C   UNL A   1      46.194  33.019  30.429  1.00  0.00     0.131 A 
ATOM     64  C   UNL A   1      46.021  35.318  28.902  1.00  0.00     0.055 A 
ATOM     65  C   UNL A   1      46.933  34.145  30.794  1.00  0.00     0.041 A 
ATOM     66  F   UNL A   1      46.333  31.915  31.182  1.00  0.00    -0.206 F 
ATOM     67  C   UNL A   1      46.857  35.300  30.023  1.00  0.00     0.022 A 
BRANCH  64  68
ATOM     68  S   UNL A   1      46.013  36.763  27.805  1.00  0.00     0.124 S 
ATOM     69  O   UNL A   1      47.431  37.105  27.744  1.00  0.00    -0.237 OA
ATOM     70  O   UNL A   1      45.435  36.222  26.580  1.00  0.00    -0.237 OA
ATOM     71  O   UNL A   1      45.173  37.727  28.512  1.00  0.00    -0.744 OA
ENDBRANCH  64  68
ENDBRANCH  38  61
ENDBRANCH  12  13
ENDBRANCH   5   7
ENDBRANCH   2   3
ENDBRANCH   1   2
BRANCH   1  72
ATOM     72  C   UNL A   1      33.951  21.236  26.442  1.00  0.00     0.023 C 
BRANCH  72  73
ATOM     73  C   UNL A   1      33.629  22.389  27.385  1.00  0.00     0.116 C 
BRANCH  73  74
ATOM     74  N   UNL A   1      32.209  22.562  27.627  1.00  0.00    -0.352 N 
ATOM     75  C   UNL A   1      31.227  23.156  26.881  1.00  0.00     0.251 C 
ATOM     76  H   UNL A   1      31.896  22.186  28.482  1.00  0.00     0.163 HD
ATOM     77  O   UNL A   1      30.083  23.208  27.331  1.00  0.00    -0.269 OA
BRANCH  75  78
ATOM     78  C   UNL A   1      31.497  23.763  25.557  1.00  0.00     0.041 A 
ATOM     79  C   UNL A   1      31.411  22.922  24.441  1.00  0.00     0.014 A 
ATOM     80  C   UNL A   1      31.973  25.071  25.403  1.00  0.00     0.039 A 
ATOM     81  C   UNL A   1      31.751  23.393  23.175  1.00  0.00     0.003 A 
ATOM     82  C   UNL A   1      32.314  25.554  24.130  1.00  0.00     0.039 A 
ATOM     83  C   UNL A   1      32.200  24.702  23.023  1.00  0.00     0.026 A 
BRANCH  82  84
ATOM     84  N   UNL A   1      33.027  26.775  23.983  1.00  0.00    -0.355 N 
ATOM     85  H   UNL A   1      33.960  26.775  23.669  1.00  0.00     0.167 HD
BRANCH  84  86
ATOM     86  C   UNL A   1      32.368  27.997  24.299  1.00  0.00     0.050 A 
ATOM     87  C   UNL A   1      31.243  28.347  23.547  1.00  0.00     0.047 A 
ATOM     88  C   UNL A   1      32.795  28.845  25.347  1.00  0.00     0.025 A 
ATOM     89  C   UNL A   1      30.508  29.443  23.932  1.00  0.00     0.114 A 
ATOM     90  C   UNL A   1      31.996  29.982  25.606  1.00  0.00     0.072 A 
ATOM     91  C   UNL A   1      33.946  28.620  26.142  1.00  0.00     0.033 A 
ATOM     92  N   UNL A   1      30.866  30.260  24.938  1.00  0.00    -0.256 NA
ATOM     93  C   UNL A   1      32.390  30.875  26.589  1.00  0.00     0.030 A 
ATOM     94  C   UNL A   1      34.318  29.542  27.121  1.00  0.00     0.041 A 
ATOM     95  C   UNL A   1      33.552  30.681  27.335  1.00  0.00     0.023 A 
ATOM     96  Cl  UNL A   1      35.734  29.285  28.063  1.00  0.00    -0.084 Cl
ENDBRANCH  84  86
ENDBRANCH  82  84
ENDBRANCH  75  78
ENDBRANCH  73  74
ENDBRANCH  72  73
ENDBRANCH   1  72
TORSDOF 16
ENDMDL
MODEL 3
REMARK VINA RESULT:     -12.3      1.293      1.606
REMARK SMILES O=C(NCCCCNC(=O)c1cccc(Nc2ccnc3ccc(Cl)cc23)c1)c1ccc(-c2c3nc(c(-c4cc(S(=O)(=O)[O-])ccc4F)c4ccc([nH]4)c(-c4cc(S(=O)(=O)[O-])ccc4F)c4nc(c(-c5cc(S(=O)(=O)[O-])ccc5F)c5ccc2[nH]5)C=C4)C=C3)cc1
REMARK SMILES IDX 5 1 4 2 3 3 1 4 2 5 29 7 30 8 91 9 31 10 90 11 32 12 33 13
REMARK SMILES IDX 34 14 84 15 35 16 89 17 83 18 85 19 36 20 88 21 82 22 81 23
REMARK SMILES IDX 37 25 69 26 49 27 68 28 50 29 53 30 67 31 86 32 51 33 52 34
REMARK SMILES IDX 66 36 87 37 54 38 38 39 39 40 47 41 40 42 46 43 48 44 45 45
REMARK SMILES IDX 41 46 42 47 43 48 44 49 70 50 71 51 79 52 72 53 78 54 80 55
REMARK SMILES IDX 77 56 73 57 74 58 75 59 76 60 55 61 56 62 64 63 57 64 63 65
REMARK SMILES IDX 65 66 62 67 58 68 59 69 60 70 61 71 6 72 7 73 8 74 9 75
REMARK SMILES IDX 10 77 11 78 12 79 28 80 13 81 15 82 14 83 16 84 17 86 18 87
REMARK SMILES IDX 27 88 19 89 21 90 26 91 20 92 22 93 24 94 23 95 25 96
REMARK H PARENT 3 6 85 24 53 35 8 76 16 85
REMARK Flexibility Score: inf
ROOT
ATOM      1  C   UNL A   1      33.664  27.998  25.236  1.00  0.00     0.023 C 
ENDROOT
BRANCH   1   2
ATOM      2  C   UNL A   1      33.719  28.383  26.712  1.00  0.00     0.116 C 
BRANCH   2   3
ATOM      3  N   UNL A   1      33.505  29.803  26.947  1.00  0.00    -0.352 N 
ATOM      4  O   UNL A   1      33.863  31.852  27.802  1.00  0.00    -0.269 OA
ATOM      5  C   UNL A   1      34.280  30.714  27.629  1.00  0.00     0.251 C 
ATOM      6  H   UNL A   1      32.679  30.171  26.556  1.00  0.00     0.163 HD
BRANCH   5   7
ATOM      7  C   UNL A   1      35.596  30.311  28.176  1.00  0.00     0.039 A 
ATOM      8  C   UNL A   1      36.766  30.465  27.428  1.00  0.00     0.014 A 
ATOM      9  C   UNL A   1      35.655  29.775  29.465  1.00  0.00     0.014 A 
ATOM     10  C   UNL A   1      37.968  29.951  27.910  1.00  0.00     0.010 A 
ATOM     11  C   UNL A   1      36.877  29.334  29.979  1.00  0.00     0.010 A 
ATOM     12  C   UNL A   1      38.039  29.386  29.192  1.00  0.00    -0.014 A 
BRANCH  12  13
ATOM     13  C   UNL A   1      39.336  28.877  29.713  1.00  0.00     0.031 A 
ATOM     14  C   UNL A   1      40.029  29.567  30.856  1.00  0.00     0.074 A 
ATOM     15  C   UNL A   1      39.892  27.789  29.146  1.00  0.00     0.049 A 
ATOM     16  N   UNL A   1      41.194  29.310  31.394  1.00  0.00    -0.248 NA
ATOM     17  C   UNL A   1      39.323  30.703  31.464  1.00  0.00     0.031 C 
ATOM     18  C   UNL A   1      39.307  27.028  28.039  1.00  0.00     0.029 A 
ATOM     19  N   UNL A   1      41.066  27.134  29.415  1.00  0.00    -0.354 N 
ATOM     20  C   UNL A   1      41.373  30.262  32.394  1.00  0.00     0.074 A 
ATOM     21  C   UNL A   1      40.210  31.125  32.354  1.00  0.00     0.031 C 
ATOM     22  C   UNL A   1      40.115  26.001  27.738  1.00  0.00     0.029 A 
ATOM     23  C   UNL A   1      41.307  26.072  28.576  1.00  0.00     0.049 A 
ATOM     24  H   UNL A   1      41.678  27.400  30.140  1.00  0.00     0.167 HD
ATOM     25  C   UNL A   1      42.407  30.396  33.263  1.00  0.00     0.034 A 
ATOM     26  C   UNL A   1      42.382  25.267  28.462  1.00  0.00     0.034 A 
ATOM     27  C   UNL A   1      43.562  29.527  33.277  1.00  0.00     0.049 A 
ATOM     28  C   UNL A   1      43.550  25.477  29.388  1.00  0.00     0.074 A 
ATOM     29  C   UNL A   1      44.653  29.556  34.128  1.00  0.00     0.029 A 
ATOM     30  N   UNL A   1      43.787  28.483  32.386  1.00  0.00    -0.354 N 
ATOM     31  N   UNL A   1      43.702  26.376  30.333  1.00  0.00    -0.248 NA
ATOM     32  C   UNL A   1      44.687  24.562  29.236  1.00  0.00     0.031 C 
ATOM     33  C   UNL A   1      45.570  28.589  33.704  1.00  0.00     0.029 A 
ATOM     34  C   UNL A   1      45.013  27.888  32.646  1.00  0.00     0.049 A 
ATOM     35  H   UNL A   1      43.166  28.206  31.675  1.00  0.00     0.167 HD
ATOM     36  C   UNL A   1      44.940  26.112  30.911  1.00  0.00     0.074 A 
ATOM     37  C   UNL A   1      45.489  24.968  30.210  1.00  0.00     0.031 C 
ATOM     38  C   UNL A   1      45.560  26.753  31.935  1.00  0.00     0.034 A 
BRANCH  25  39
ATOM     39  C   UNL A   1      42.355  31.559  34.230  1.00  0.00     0.023 A 
ATOM     40  C   UNL A   1      41.555  31.530  35.386  1.00  0.00     0.031 A 
ATOM     41  C   UNL A   1      43.085  32.734  33.971  1.00  0.00     0.131 A 
ATOM     42  C   UNL A   1      41.433  32.678  36.185  1.00  0.00     0.055 A 
ATOM     43  C   UNL A   1      43.032  33.841  34.821  1.00  0.00     0.041 A 
ATOM     44  F   UNL A   1      43.852  32.833  32.874  1.00  0.00    -0.206 F 
ATOM     45  C   UNL A   1      42.186  33.824  35.925  1.00  0.00     0.022 A 
BRANCH  42  46
ATOM     46  S   UNL A   1      40.141  32.710  37.458  1.00  0.00     0.124 S 
ATOM     47  O   UNL A   1      39.259  31.633  37.014  1.00  0.00    -0.237 OA
ATOM     48  O   UNL A   1      40.895  32.455  38.679  1.00  0.00    -0.237 OA
ATOM     49  O   UNL A   1      39.575  34.053  37.340  1.00  0.00    -0.744 OA
ENDBRANCH  42  46
ENDBRANCH  25  39
BRANCH  26  50
ATOM     50  C   UNL A   1      42.413  24.220  27.404  1.00  0.00     0.023 A 
ATOM     51  C   UNL A   1      41.826  22.963  27.606  1.00  0.00     0.031 A 
ATOM     52  C   UNL A   1      43.037  24.466  26.166  1.00  0.00     0.131 A 
ATOM     53  C   UNL A   1      41.900  21.988  26.600  1.00  0.00     0.055 A 
ATOM     54  C   UNL A   1      43.061  23.512  25.149  1.00  0.00     0.041 A 
ATOM     55  F   UNL A   1      43.610  25.655  25.920  1.00  0.00    -0.206 F 
ATOM     56  C   UNL A   1      42.499  22.259  25.367  1.00  0.00     0.022 A 
BRANCH  53  57
ATOM     57  S   UNL A   1      41.258  20.329  26.949  1.00  0.00     0.124 S 
ATOM     58  O   UNL A   1      40.176  20.219  25.978  1.00  0.00    -0.237 OA
ATOM     59  O   UNL A   1      42.428  19.493  26.704  1.00  0.00    -0.237 OA
ATOM     60  O   UNL A   1      40.836  20.413  28.347  1.00  0.00    -0.744 OA
ENDBRANCH  53  57
ENDBRANCH  26  50
BRANCH  38  61
ATOM     61  C   UNL A   1      46.879  26.188  32.405  1.00  0.00     0.023 A 
ATOM     62  C   UNL A   1      46.958  25.178  33.380  1.00  0.00     0.031 A 
ATOM     63  C   UNL A   1      48.081  26.674  31.860  1.00  0.00     0.131 A 
ATOM     64  C   UNL A   1      48.212  24.720  33.812  1.00  0.00     0.055 A 
ATOM     65  C   UNL A   1      49.324  26.172  32.249  1.00  0.00     0.041 A 
ATOM     66  F   UNL A   1      48.068  27.644  30.931  1.00  0.00    -0.206 F 
ATOM     67  C   UNL A   1      49.395  25.197  33.238  1.00  0.00     0.022 A 
BRANCH  64  68
ATOM     68  S   UNL A   1      48.288  23.552  35.198  1.00  0.00     0.124 S 
ATOM     69  O   UNL A   1      48.992  22.420  34.602  1.00  0.00    -0.237 OA
ATOM     70  O   UNL A   1      49.030  24.306  36.202  1.00  0.00    -0.237 OA
ATOM     71  O   UNL A   1      46.884  23.308  35.520  1.00  0.00    -0.744 OA
ENDBRANCH  64  68
ENDBRANCH  38  61
ENDBRANCH  12  13
ENDBRANCH   5   7
ENDBRANCH   2   3
ENDBRANCH   1   2
BRANCH   1  72
ATOM     72  C   UNL A   1      33.602  29.155  24.241  1.00  0.00     0.023 C 
BRANCH  72  73
ATOM     73  C   UNL A   1      33.350  28.772  22.787  1.00  0.00     0.116 C 
BRANCH  73  74
ATOM     74  N   UNL A   1      32.021  29.115  22.317  1.00  0.00    -0.352 N 
ATOM     75  C   UNL A   1      30.835  28.434  22.376  1.00  0.00     0.251 C 
ATOM     76  H   UNL A   1      31.962  29.994  21.877  1.00  0.00     0.163 HD
ATOM     77  O   UNL A   1      29.835  28.933  21.861  1.00  0.00    -0.269 OA
BRANCH  75  78
ATOM     78  C   UNL A   1      30.716  27.104  23.016  1.00  0.00     0.041 A 
ATOM     79  C   UNL A   1      30.182  27.065  24.310  1.00  0.00     0.014 A 
ATOM     80  C   UNL A   1      31.247  25.938  22.451  1.00  0.00     0.039 A 
ATOM     81  C   UNL A   1      30.134  25.866  25.017  1.00  0.00     0.003 A 
ATOM     82  C   UNL A   1      31.199  24.725  23.156  1.00  0.00     0.039 A 
ATOM     83  C   UNL A   1      30.641  24.704  24.441  1.00  0.00     0.026 A 
BRANCH  82  84
ATOM     84  N   UNL A   1      31.945  23.599  22.715  1.00  0.00    -0.355 N 
ATOM     85  H   UNL A   1      31.608  23.028  21.987  1.00  0.00     0.167 HD
BRANCH  84  86
ATOM     86  C   UNL A   1      33.189  23.310  23.346  1.00  0.00     0.050 A 
ATOM     87  C   UNL A   1      34.105  24.355  23.497  1.00  0.00     0.047 A 
ATOM     88  C   UNL A   1      33.514  22.024  23.837  1.00  0.00     0.025 A 
ATOM     89  C   UNL A   1      35.244  24.132  24.233  1.00  0.00     0.114 A 
ATOM     90  C   UNL A   1      34.747  21.901  24.518  1.00  0.00     0.072 A 
ATOM     91  C   UNL A   1      32.690  20.881  23.699  1.00  0.00     0.033 A 
ATOM     92  N   UNL A   1      35.578  22.931  24.738  1.00  0.00    -0.256 NA
ATOM     93  C   UNL A   1      35.143  20.656  24.980  1.00  0.00     0.030 A 
ATOM     94  C   UNL A   1      33.120  19.640  24.171  1.00  0.00     0.041 A 
ATOM     95  C   UNL A   1      34.354  19.520  24.796  1.00  0.00     0.023 A 
ATOM     96  Cl  UNL A   1      32.133  18.246  23.972  1.00  0.00    -0.084 Cl
ENDBRANCH  84  86
ENDBRANCH  82  84
ENDBRANCH  75  78
ENDBRANCH  73  74
ENDBRANCH  72  73
ENDBRANCH   1  72
TORSDOF 16
ENDMDL
