MODEL 1
REMARK VINA RESULT:     -12.5      0.000      0.000
REMARK SMILES CCc1cc(OC(F)(F)F)cc2c1O[C@H](C(F)(F)F)C(C(=O)NCCCCNC(=O)c1ccc(-c3c4nc(c(-c5cc(S(=O)(=O)[O-])ccc5F)c5ccc([nH]5)c(-c5cc(S(=O)(=O)[O-])ccc5F)c5nc(c(-c6cc(S(=O)(=O)[O-])ccc6F)c6ccc3[nH]6)C=C5)C=C4)cc1)=C2
REMARK SMILES IDX 26 1 25 2 24 3 23 4 21 5 22 6 20 8 3 9 4 10 13 11 5 12 12 13
REMARK SMILES IDX 14 14 11 15 94 16 15 17 2 18 1 19 6 20 7 21 8 22 9 23 10 24
REMARK SMILES IDX 16 25 17 26 18 27 19 28 27 29 28 30 29 31 30 33 31 34 32 35
REMARK SMILES IDX 93 36 33 37 92 38 34 39 35 40 36 41 86 42 37 43 91 44 85 45
REMARK SMILES IDX 87 46 38 47 90 48 84 49 83 50 39 52 71 53 51 54 70 55 52 56
REMARK SMILES IDX 55 57 69 58 88 59 53 60 54 61 68 63 89 64 56 65 40 66 41 67
REMARK SMILES IDX 49 68 42 69 48 70 50 71 47 72 43 73 44 74 45 75 46 76 72 77
REMARK SMILES IDX 73 78 81 79 74 80 80 81 82 82 79 83 75 84 76 85 77 86 78 87
REMARK SMILES IDX 57 88 58 89 66 90 59 91 65 92 67 93 64 94 60 95 61 96 62 97
REMARK SMILES IDX 63 98
REMARK H PARENT 23 7 28 32 87 51 55 62
REMARK Flexibility Score: inf
ROOT
ATOM      1  C   UNL A   1      35.035  21.836  25.362  1.00  0.00     0.023 C 
ENDROOT
BRANCH   1   2
ATOM      2  C   UNL A   1      34.504  21.844  23.926  1.00  0.00     0.023 C 
BRANCH   2   3
ATOM      3  C   UNL A   1      33.294  22.754  23.712  1.00  0.00     0.116 C 
BRANCH   3   4
ATOM      4  N   UNL A   1      32.372  22.652  24.825  1.00  0.00    -0.352 N 
ATOM      5  C   UNL A   1      31.602  23.564  25.468  1.00  0.00     0.251 C 
ATOM      6  O   UNL A   1      30.872  23.152  26.371  1.00  0.00    -0.270 OA
ATOM      7  H   UNL A   1      32.288  21.740  25.185  1.00  0.00     0.163 HD
BRANCH   5   8
ATOM      8  C   UNL A   1      31.518  25.006  25.079  1.00  0.00     0.067 C 
ATOM      9  C   UNL A   1      31.164  29.197  24.851  1.00  0.00    -0.002 A 
ATOM     10  C   UNL A   1      30.495  29.753  23.744  1.00  0.00     0.054 A 
ATOM     11  C   UNL A   1      31.281  27.798  24.932  1.00  0.00     0.131 A 
ATOM     12  C   UNL A   1      29.964  28.939  22.739  1.00  0.00     0.130 A 
ATOM     13  C   UNL A   1      30.774  26.979  23.920  1.00  0.00     0.021 A 
ATOM     14  O   UNL A   1      31.848  27.274  26.066  1.00  0.00    -0.475 OA
ATOM     15  C   UNL A   1      30.117  27.554  22.830  1.00  0.00     0.058 A 
ATOM     16  C   UNL A   1      30.845  25.529  24.047  1.00  0.00     0.025 C 
ATOM     17  C   UNL A   1      32.344  25.909  25.980  1.00  0.00     0.314 C 
BRANCH   9  18
ATOM     18  C   UNL A   1      31.772  30.043  25.953  1.00  0.00     0.036 C 
ATOM     19  C   UNL A   1      31.204  31.443  26.150  1.00  0.00     0.009 C 
ENDBRANCH   9  18
BRANCH  12  20
ATOM     20  O   UNL A   1      29.275  29.352  21.634  1.00  0.00    -0.406 OA
BRANCH  20  21
ATOM     21  C   UNL A   1      28.355  30.418  21.780  1.00  0.00     0.573 C 
ATOM     22  F   UNL A   1      27.652  30.618  20.645  1.00  0.00    -0.132 F 
ATOM     23  F   UNL A   1      27.504  30.189  22.802  1.00  0.00    -0.132 F 
ATOM     24  F   UNL A   1      29.042  31.550  22.051  1.00  0.00    -0.132 F 
ENDBRANCH  20  21
ENDBRANCH  12  20
BRANCH  17  25
ATOM     25  C   UNL A   1      33.843  25.922  25.607  1.00  0.00     0.429 C 
ATOM     26  F   UNL A   1      34.474  27.019  26.098  1.00  0.00    -0.167 F 
ATOM     27  F   UNL A   1      34.478  24.842  26.129  1.00  0.00    -0.167 F 
ATOM     28  F   UNL A   1      34.077  25.916  24.277  1.00  0.00    -0.167 F 
ENDBRANCH  17  25
ENDBRANCH   5   8
ENDBRANCH   3   4
ENDBRANCH   2   3
ENDBRANCH   1   2
BRANCH   1  29
ATOM     29  C   UNL A   1      36.477  22.312  25.513  1.00  0.00     0.116 C 
BRANCH  29  30
ATOM     30  N   UNL A   1      37.431  21.221  25.627  1.00  0.00    -0.352 N 
ATOM     31  C   UNL A   1      38.746  21.268  26.026  1.00  0.00     0.251 C 
ATOM     32  H   UNL A   1      37.090  20.330  25.386  1.00  0.00     0.163 HD
ATOM     33  O   UNL A   1      39.440  20.265  25.952  1.00  0.00    -0.269 OA
BRANCH  31  34
ATOM     34  C   UNL A   1      39.317  22.552  26.493  1.00  0.00     0.039 A 
ATOM     35  C   UNL A   1      40.368  22.518  27.411  1.00  0.00     0.014 A 
ATOM     36  C   UNL A   1      38.838  23.773  26.013  1.00  0.00     0.014 A 
ATOM     37  C   UNL A   1      40.981  23.709  27.799  1.00  0.00     0.010 A 
ATOM     38  C   UNL A   1      39.497  24.953  26.346  1.00  0.00     0.010 A 
ATOM     39  C   UNL A   1      40.574  24.933  27.244  1.00  0.00    -0.014 A 
BRANCH  39  40
ATOM     40  C   UNL A   1      41.273  26.197  27.594  1.00  0.00     0.031 A 
ATOM     41  C   UNL A   1      42.695  26.424  27.158  1.00  0.00     0.074 A 
ATOM     42  C   UNL A   1      40.636  27.119  28.343  1.00  0.00     0.049 A 
ATOM     43  N   UNL A   1      43.473  27.452  27.378  1.00  0.00    -0.248 NA
ATOM     44  C   UNL A   1      43.334  25.337  26.401  1.00  0.00     0.031 C 
ATOM     45  C   UNL A   1      39.276  26.983  28.872  1.00  0.00     0.029 A 
ATOM     46  N   UNL A   1      41.042  28.349  28.790  1.00  0.00    -0.354 N 
ATOM     47  C   UNL A   1      44.694  27.135  26.793  1.00  0.00     0.074 A 
ATOM     48  C   UNL A   1      44.571  25.791  26.271  1.00  0.00     0.031 C 
ATOM     49  C   UNL A   1      38.951  28.100  29.543  1.00  0.00     0.029 A 
ATOM     50  C   UNL A   1      40.087  29.015  29.524  1.00  0.00     0.049 A 
ATOM     51  H   UNL A   1      41.934  28.723  28.604  1.00  0.00     0.167 HD
ATOM     52  C   UNL A   1      45.805  27.906  26.678  1.00  0.00     0.034 A 
ATOM     53  C   UNL A   1      40.123  30.226  30.114  1.00  0.00     0.034 A 
ATOM     54  C   UNL A   1      45.905  29.249  27.198  1.00  0.00     0.049 A 
ATOM     55  C   UNL A   1      41.368  31.063  29.975  1.00  0.00     0.074 A 
ATOM     56  C   UNL A   1      46.960  30.138  27.093  1.00  0.00     0.029 A 
ATOM     57  N   UNL A   1      44.914  29.895  27.927  1.00  0.00    -0.354 N 
ATOM     58  N   UNL A   1      42.494  30.775  29.362  1.00  0.00    -0.248 NA
ATOM     59  C   UNL A   1      41.341  32.396  30.589  1.00  0.00     0.031 C 
ATOM     60  C   UNL A   1      46.634  31.293  27.812  1.00  0.00     0.029 A 
ATOM     61  C   UNL A   1      45.343  31.159  28.301  1.00  0.00     0.049 A 
ATOM     62  H   UNL A   1      44.034  29.511  28.146  1.00  0.00     0.167 HD
ATOM     63  C   UNL A   1      43.295  31.906  29.492  1.00  0.00     0.074 A 
ATOM     64  C   UNL A   1      42.517  32.884  30.224  1.00  0.00     0.031 C 
ATOM     65  C   UNL A   1      44.559  32.120  29.042  1.00  0.00     0.034 A 
BRANCH  52  66
ATOM     66  C   UNL A   1      47.001  27.298  25.982  1.00  0.00     0.023 A 
ATOM     67  C   UNL A   1      47.967  26.557  26.687  1.00  0.00     0.031 A 
ATOM     68  C   UNL A   1      47.197  27.485  24.602  1.00  0.00     0.131 A 
ATOM     69  C   UNL A   1      49.121  26.104  26.031  1.00  0.00     0.055 A 
ATOM     70  C   UNL A   1      48.306  26.957  23.938  1.00  0.00     0.041 A 
ATOM     71  F   UNL A   1      46.322  28.200  23.879  1.00  0.00    -0.206 F 
ATOM     72  C   UNL A   1      49.285  26.275  24.655  1.00  0.00     0.022 A 
BRANCH  69  73
ATOM     73  S   UNL A   1      50.473  25.421  27.029  1.00  0.00     0.124 S 
ATOM     74  O   UNL A   1      51.388  24.942  25.996  1.00  0.00    -0.237 OA
ATOM     75  O   UNL A   1      50.919  26.581  27.791  1.00  0.00    -0.237 OA
ATOM     76  O   UNL A   1      49.824  24.370  27.811  1.00  0.00    -0.744 OA
ENDBRANCH  69  73
ENDBRANCH  52  66
BRANCH  53  77
ATOM     77  C   UNL A   1      38.948  30.728  30.883  1.00  0.00     0.023 A 
ATOM     78  C   UNL A   1      37.817  31.238  30.226  1.00  0.00     0.031 A 
ATOM     79  C   UNL A   1      38.954  30.738  32.289  1.00  0.00     0.131 A 
ATOM     80  C   UNL A   1      36.760  31.781  30.972  1.00  0.00     0.055 A 
ATOM     81  C   UNL A   1      37.878  31.233  33.028  1.00  0.00     0.041 A 
ATOM     82  F   UNL A   1      40.007  30.255  32.967  1.00  0.00    -0.206 F 
ATOM     83  C   UNL A   1      36.777  31.771  32.368  1.00  0.00     0.022 A 
BRANCH  80  84
ATOM     84  S   UNL A   1      35.394  32.581  30.086  1.00  0.00     0.124 S 
ATOM     85  O   UNL A   1      34.388  32.701  31.135  1.00  0.00    -0.237 OA
ATOM     86  O   UNL A   1      36.010  33.826  29.641  1.00  0.00    -0.237 OA
ATOM     87  O   UNL A   1      35.077  31.630  29.022  1.00  0.00    -0.744 OA
ENDBRANCH  80  84
ENDBRANCH  53  77
BRANCH  65  88
ATOM     88  C   UNL A   1      45.152  33.484  29.295  1.00  0.00     0.023 A 
ATOM     89  C   UNL A   1      45.089  34.510  28.334  1.00  0.00     0.031 A 
ATOM     90  C   UNL A   1      45.810  33.755  30.508  1.00  0.00     0.131 A 
ATOM     91  C   UNL A   1      45.728  35.735  28.577  1.00  0.00     0.055 A 
ATOM     92  C   UNL A   1      46.390  34.997  30.770  1.00  0.00     0.041 A 
ATOM     93  F   UNL A   1      45.903  32.813  31.460  1.00  0.00    -0.206 F 
ATOM     94  C   UNL A   1      46.365  35.990  29.795  1.00  0.00     0.022 A 
BRANCH  91  95
ATOM     95  S   UNL A   1      45.810  36.955  27.237  1.00  0.00     0.124 S 
ATOM     96  O   UNL A   1      46.411  36.179  26.157  1.00  0.00    -0.237 OA
ATOM     97  O   UNL A   1      44.407  37.315  27.060  1.00  0.00    -0.237 OA
ATOM     98  O   UNL A   1      46.656  38.012  27.786  1.00  0.00    -0.744 OA
ENDBRANCH  91  95
ENDBRANCH  65  88
ENDBRANCH  39  40
ENDBRANCH  31  34
ENDBRANCH  29  30
ENDBRANCH   1  29
TORSDOF 18
ENDMDL
MODEL 2
REMARK VINA RESULT:     -12.4      1.687      7.757
REMARK SMILES CCc1cc(OC(F)(F)F)cc2c1O[C@H](C(F)(F)F)C(C(=O)NCCCCNC(=O)c1ccc(-c3c4nc(c(-c5cc(S(=O)(=O)[O-])ccc5F)c5ccc([nH]5)c(-c5cc(S(=O)(=O)[O-])ccc5F)c5nc(c(-c6cc(S(=O)(=O)[O-])ccc6F)c6ccc3[nH]6)C=C5)C=C4)cc1)=C2
REMARK SMILES IDX 26 1 25 2 24 3 23 4 21 5 22 6 20 8 3 9 4 10 13 11 5 12 12 13
REMARK SMILES IDX 14 14 11 15 94 16 15 17 2 18 1 19 6 20 7 21 8 22 9 23 10 24
REMARK SMILES IDX 16 25 17 26 18 27 19 28 27 29 28 30 29 31 30 33 31 34 32 35
REMARK SMILES IDX 93 36 33 37 92 38 34 39 35 40 36 41 86 42 37 43 91 44 85 45
REMARK SMILES IDX 87 46 38 47 90 48 84 49 83 50 39 52 71 53 51 54 70 55 52 56
REMARK SMILES IDX 55 57 69 58 88 59 53 60 54 61 68 63 89 64 56 65 40 66 41 67
REMARK SMILES IDX 49 68 42 69 48 70 50 71 47 72 43 73 44 74 45 75 46 76 72 77
REMARK SMILES IDX 73 78 81 79 74 80 80 81 82 82 79 83 75 84 76 85 77 86 78 87
REMARK SMILES IDX 57 88 58 89 66 90 59 91 65 92 67 93 64 94 60 95 61 96 62 97
REMARK SMILES IDX 63 98
REMARK H PARENT 23 7 28 32 87 51 55 62
REMARK Flexibility Score: inf
ROOT
ATOM      1  C   UNL A   1      34.796  21.649  24.753  1.00  0.00     0.023 C 
ENDROOT
BRANCH   1   2
ATOM      2  C   UNL A   1      34.556  22.514  23.512  1.00  0.00     0.023 C 
BRANCH   2   3
ATOM      3  C   UNL A   1      33.083  22.652  23.122  1.00  0.00     0.116 C 
BRANCH   3   4
ATOM      4  N   UNL A   1      32.228  22.488  24.280  1.00  0.00    -0.352 N 
ATOM      5  C   UNL A   1      31.544  23.369  25.050  1.00  0.00     0.251 C 
ATOM      6  O   UNL A   1      30.852  22.908  25.960  1.00  0.00    -0.270 OA
ATOM      7  H   UNL A   1      32.124  21.551  24.565  1.00  0.00     0.163 HD
BRANCH   5   8
ATOM      8  C   UNL A   1      31.504  24.843  24.796  1.00  0.00     0.067 C 
ATOM      9  C   UNL A   1      31.208  29.043  24.942  1.00  0.00    -0.002 A 
ATOM     10  C   UNL A   1      30.634  29.711  23.843  1.00  0.00     0.054 A 
ATOM     11  C   UNL A   1      31.305  27.640  24.897  1.00  0.00     0.131 A 
ATOM     12  C   UNL A   1      30.179  29.006  22.726  1.00  0.00     0.130 A 
ATOM     13  C   UNL A   1      30.873  26.929  23.775  1.00  0.00     0.021 A 
ATOM     14  O   UNL A   1      31.774  27.001  26.018  1.00  0.00    -0.475 OA
ATOM     15  C   UNL A   1      30.312  27.616  22.696  1.00  0.00     0.058 A 
ATOM     16  C   UNL A   1      30.921  25.473  23.768  1.00  0.00     0.025 C 
ATOM     17  C   UNL A   1      32.263  25.643  25.841  1.00  0.00     0.314 C 
BRANCH   9  18
ATOM     18  C   UNL A   1      31.733  29.770  26.164  1.00  0.00     0.036 C 
ATOM     19  C   UNL A   1      31.397  31.251  26.290  1.00  0.00     0.009 C 
ENDBRANCH   9  18
BRANCH  12  20
ATOM     20  O   UNL A   1      29.585  29.532  21.614  1.00  0.00    -0.406 OA
BRANCH  20  21
ATOM     21  C   UNL A   1      28.286  30.079  21.747  1.00  0.00     0.573 C 
ATOM     22  F   UNL A   1      28.301  31.203  22.494  1.00  0.00    -0.132 F 
ATOM     23  F   UNL A   1      27.747  30.349  20.539  1.00  0.00    -0.132 F 
ATOM     24  F   UNL A   1      27.495  29.175  22.366  1.00  0.00    -0.132 F 
ENDBRANCH  20  21
ENDBRANCH  12  20
BRANCH  17  25
ATOM     25  C   UNL A   1      33.787  25.667  25.591  1.00  0.00     0.429 C 
ATOM     26  F   UNL A   1      34.364  26.783  26.105  1.00  0.00    -0.167 F 
ATOM     27  F   UNL A   1      34.389  24.607  26.190  1.00  0.00    -0.167 F 
ATOM     28  F   UNL A   1      34.129  25.632  24.285  1.00  0.00    -0.167 F 
ENDBRANCH  17  25
ENDBRANCH   5   8
ENDBRANCH   3   4
ENDBRANCH   2   3
ENDBRANCH   1   2
BRANCH   1  29
ATOM     29  C   UNL A   1      36.090  21.951  25.502  1.00  0.00     0.116 C 
BRANCH  29  30
ATOM     30  N   UNL A   1      37.054  20.865  25.440  1.00  0.00    -0.352 N 
ATOM     31  C   UNL A   1      38.402  20.896  25.712  1.00  0.00     0.251 C 
ATOM     32  H   UNL A   1      36.694  19.991  25.168  1.00  0.00     0.163 HD
ATOM     33  O   UNL A   1      39.088  19.908  25.497  1.00  0.00    -0.269 OA
BRANCH  31  34
ATOM     34  C   UNL A   1      39.012  22.147  26.216  1.00  0.00     0.039 A 
ATOM     35  C   UNL A   1      40.107  22.054  27.077  1.00  0.00     0.014 A 
ATOM     36  C   UNL A   1      38.525  23.397  25.825  1.00  0.00     0.014 A 
ATOM     37  C   UNL A   1      40.754  23.218  27.495  1.00  0.00     0.010 A 
ATOM     38  C   UNL A   1      39.214  24.551  26.186  1.00  0.00     0.010 A 
ATOM     39  C   UNL A   1      40.335  24.473  27.026  1.00  0.00    -0.014 A 
BRANCH  39  40
ATOM     40  C   UNL A   1      41.066  25.709  27.406  1.00  0.00     0.031 A 
ATOM     41  C   UNL A   1      40.360  26.808  28.154  1.00  0.00     0.074 A 
ATOM     42  C   UNL A   1      42.354  25.856  27.038  1.00  0.00     0.049 A 
ATOM     43  N   UNL A   1      40.824  27.961  28.560  1.00  0.00    -0.248 NA
ATOM     44  C   UNL A   1      38.938  26.592  28.456  1.00  0.00     0.031 C 
ATOM     45  C   UNL A   1      43.125  24.882  26.262  1.00  0.00     0.029 A 
ATOM     46  N   UNL A   1      43.243  26.875  27.266  1.00  0.00    -0.354 N 
ATOM     47  C   UNL A   1      39.752  28.612  29.160  1.00  0.00     0.074 A 
ATOM     48  C   UNL A   1      38.599  27.751  29.001  1.00  0.00     0.031 C 
ATOM     49  C   UNL A   1      44.379  25.336  26.106  1.00  0.00     0.029 A 
ATOM     50  C   UNL A   1      44.494  26.646  26.739  1.00  0.00     0.049 A 
ATOM     51  H   UNL A   1      43.009  27.694  27.760  1.00  0.00     0.167 HD
ATOM     52  C   UNL A   1      39.736  29.804  29.808  1.00  0.00     0.034 A 
ATOM     53  C   UNL A   1      45.606  27.406  26.763  1.00  0.00     0.034 A 
ATOM     54  C   UNL A   1      40.899  30.644  29.964  1.00  0.00     0.049 A 
ATOM     55  C   UNL A   1      45.565  28.728  27.487  1.00  0.00     0.074 A 
ATOM     56  C   UNL A   1      41.011  31.844  30.646  1.00  0.00     0.029 A 
ATOM     57  N   UNL A   1      42.152  30.377  29.426  1.00  0.00    -0.354 N 
ATOM     58  N   UNL A   1      44.558  29.300  28.106  1.00  0.00    -0.248 NA
ATOM     59  C   UNL A   1      46.815  29.496  27.532  1.00  0.00     0.031 C 
ATOM     60  C   UNL A   1      42.310  32.332  30.465  1.00  0.00     0.029 A 
ATOM     61  C   UNL A   1      43.034  31.401  29.736  1.00  0.00     0.049 A 
ATOM     62  H   UNL A   1      42.381  29.576  28.900  1.00  0.00     0.167 HD
ATOM     63  C   UNL A   1      45.065  30.481  28.641  1.00  0.00     0.074 A 
ATOM     64  C   UNL A   1      46.468  30.528  28.287  1.00  0.00     0.031 C 
ATOM     65  C   UNL A   1      44.429  31.439  29.365  1.00  0.00     0.034 A 
BRANCH  52  66
ATOM     66  C   UNL A   1      38.414  30.269  30.372  1.00  0.00     0.023 A 
ATOM     67  C   UNL A   1      37.536  31.077  29.626  1.00  0.00     0.031 A 
ATOM     68  C   UNL A   1      38.036  29.929  31.683  1.00  0.00     0.131 A 
ATOM     69  C   UNL A   1      36.370  31.583  30.220  1.00  0.00     0.055 A 
ATOM     70  C   UNL A   1      36.831  30.365  32.240  1.00  0.00     0.041 A 
ATOM     71  F   UNL A   1      38.839  29.179  32.453  1.00  0.00    -0.206 F 
ATOM     72  C   UNL A   1      35.998  31.211  31.514  1.00  0.00     0.022 A 
BRANCH  69  73
ATOM     73  S   UNL A   1      35.427  32.852  29.332  1.00  0.00     0.124 S 
ATOM     74  O   UNL A   1      34.234  32.971  30.167  1.00  0.00    -0.237 OA
ATOM     75  O   UNL A   1      36.337  33.991  29.351  1.00  0.00    -0.237 OA
ATOM     76  O   UNL A   1      35.201  32.254  28.018  1.00  0.00    -0.744 OA
ENDBRANCH  69  73
ENDBRANCH  52  66
BRANCH  53  77
ATOM     77  C   UNL A   1      46.854  26.942  26.092  1.00  0.00     0.023 A 
ATOM     78  C   UNL A   1      47.872  26.305  26.818  1.00  0.00     0.031 A 
ATOM     79  C   UNL A   1      47.062  27.163  24.719  1.00  0.00     0.131 A 
ATOM     80  C   UNL A   1      49.072  25.953  26.180  1.00  0.00     0.055 A 
ATOM     81  C   UNL A   1      48.237  26.765  24.078  1.00  0.00     0.041 A 
ATOM     82  F   UNL A   1      46.117  27.761  23.976  1.00  0.00    -0.206 F 
ATOM     83  C   UNL A   1      49.256  26.168  24.812  1.00  0.00     0.022 A 
BRANCH  80  84
ATOM     84  S   UNL A   1      50.426  25.285  27.186  1.00  0.00     0.124 S 
ATOM     85  O   UNL A   1      50.782  26.436  28.008  1.00  0.00    -0.237 OA
ATOM     86  O   UNL A   1      49.772  24.179  27.876  1.00  0.00    -0.237 OA
ATOM     87  O   UNL A   1      51.425  24.894  26.192  1.00  0.00    -0.744 OA
ENDBRANCH  80  84
ENDBRANCH  53  77
BRANCH  65  88
ATOM     88  C   UNL A   1      45.269  32.593  29.857  1.00  0.00     0.023 A 
ATOM     89  C   UNL A   1      45.917  32.560  31.105  1.00  0.00     0.031 A 
ATOM     90  C   UNL A   1      45.404  33.752  29.073  1.00  0.00     0.131 A 
ATOM     91  C   UNL A   1      46.616  33.688  31.559  1.00  0.00     0.055 A 
ATOM     92  C   UNL A   1      46.154  34.848  29.503  1.00  0.00     0.041 A 
ATOM     93  F   UNL A   1      44.806  33.840  27.874  1.00  0.00    -0.206 F 
ATOM     94  C   UNL A   1      46.752  34.825  30.760  1.00  0.00     0.022 A 
BRANCH  91  95
ATOM     95  S   UNL A   1      47.257  33.689  33.257  1.00  0.00     0.124 S 
ATOM     96  O   UNL A   1      46.242  34.463  33.964  1.00  0.00    -0.237 OA
ATOM     97  O   UNL A   1      47.307  32.265  33.571  1.00  0.00    -0.237 OA
ATOM     98  O   UNL A   1      48.558  34.341  33.131  1.00  0.00    -0.744 OA
ENDBRANCH  91  95
ENDBRANCH  65  88
ENDBRANCH  39  40
ENDBRANCH  31  34
ENDBRANCH  29  30
ENDBRANCH   1  29
TORSDOF 18
ENDMDL
MODEL 3
REMARK VINA RESULT:     -12.4      5.341      8.867
REMARK SMILES CCc1cc(OC(F)(F)F)cc2c1O[C@H](C(F)(F)F)C(C(=O)NCCCCNC(=O)c1ccc(-c3c4nc(c(-c5cc(S(=O)(=O)[O-])ccc5F)c5ccc([nH]5)c(-c5cc(S(=O)(=O)[O-])ccc5F)c5nc(c(-c6cc(S(=O)(=O)[O-])ccc6F)c6ccc3[nH]6)C=C5)C=C4)cc1)=C2
REMARK SMILES IDX 26 1 25 2 24 3 23 4 21 5 22 6 20 8 3 9 4 10 13 11 5 12 12 13
REMARK SMILES IDX 14 14 11 15 94 16 15 17 2 18 1 19 6 20 7 21 8 22 9 23 10 24
REMARK SMILES IDX 16 25 17 26 18 27 19 28 27 29 28 30 29 31 30 33 31 34 32 35
REMARK SMILES IDX 93 36 33 37 92 38 34 39 35 40 36 41 86 42 37 43 91 44 85 45
REMARK SMILES IDX 87 46 38 47 90 48 84 49 83 50 39 52 71 53 51 54 70 55 52 56
REMARK SMILES IDX 55 57 69 58 88 59 53 60 54 61 68 63 89 64 56 65 40 66 41 67
REMARK SMILES IDX 49 68 42 69 48 70 50 71 47 72 43 73 44 74 45 75 46 76 72 77
REMARK SMILES IDX 73 78 81 79 74 80 80 81 82 82 79 83 75 84 76 85 77 86 78 87
REMARK SMILES IDX 57 88 58 89 66 90 59 91 65 92 67 93 64 94 60 95 61 96 62 97
REMARK SMILES IDX 63 98
REMARK H PARENT 23 7 28 32 87 51 55 62
REMARK Flexibility Score: inf
ROOT
ATOM      1  C   UNL A   1      31.575  31.758  26.738  1.00  0.00     0.023 C 
ENDROOT
BRANCH   1   2
ATOM      2  C   UNL A   1      31.777  30.250  26.560  1.00  0.00     0.023 C 
BRANCH   2   3
ATOM      3  C   UNL A   1      33.141  29.866  25.984  1.00  0.00     0.116 C 
BRANCH   3   4
ATOM      4  N   UNL A   1      33.056  29.667  24.552  1.00  0.00    -0.352 N 
ATOM      5  C   UNL A   1      33.055  28.556  23.776  1.00  0.00     0.251 C 
ATOM      6  O   UNL A   1      32.920  28.713  22.561  1.00  0.00    -0.270 OA
ATOM      7  H   UNL A   1      32.984  30.506  24.041  1.00  0.00     0.163 HD
BRANCH   5   8
ATOM      8  C   UNL A   1      33.106  27.162  24.317  1.00  0.00     0.067 C 
ATOM      9  C   UNL A   1      32.735  23.564  26.476  1.00  0.00    -0.002 A 
ATOM     10  C   UNL A   1      33.853  22.711  26.552  1.00  0.00     0.054 A 
ATOM     11  C   UNL A   1      32.857  24.768  25.758  1.00  0.00     0.131 A 
ATOM     12  C   UNL A   1      35.057  23.041  25.924  1.00  0.00     0.130 A 
ATOM     13  C   UNL A   1      34.050  25.094  25.108  1.00  0.00     0.021 A 
ATOM     14  O   UNL A   1      31.790  25.629  25.781  1.00  0.00    -0.475 OA
ATOM     15  C   UNL A   1      35.143  24.230  25.195  1.00  0.00     0.058 A 
ATOM     16  C   UNL A   1      34.183  26.373  24.423  1.00  0.00     0.025 C 
ATOM     17  C   UNL A   1      31.742  26.641  24.736  1.00  0.00     0.314 C 
BRANCH   9  18
ATOM     18  C   UNL A   1      31.405  23.235  27.126  1.00  0.00     0.036 C 
ATOM     19  C   UNL A   1      30.370  22.517  26.268  1.00  0.00     0.009 C 
ENDBRANCH   9  18
BRANCH  12  20
ATOM     20  O   UNL A   1      36.214  22.316  25.943  1.00  0.00    -0.406 OA
BRANCH  20  21
ATOM     21  C   UNL A   1      36.494  21.474  24.840  1.00  0.00     0.573 C 
ATOM     22  F   UNL A   1      37.087  22.159  23.839  1.00  0.00    -0.132 F 
ATOM     23  F   UNL A   1      37.280  20.439  25.205  1.00  0.00    -0.132 F 
ATOM     24  F   UNL A   1      35.331  20.972  24.370  1.00  0.00    -0.132 F 
ENDBRANCH  20  21
ENDBRANCH  12  20
BRANCH  17  25
ATOM     25  C   UNL A   1      30.905  26.121  23.546  1.00  0.00     0.429 C 
ATOM     26  F   UNL A   1      31.687  25.570  22.583  1.00  0.00    -0.167 F 
ATOM     27  F   UNL A   1      30.046  25.151  23.951  1.00  0.00    -0.167 F 
ATOM     28  F   UNL A   1      30.169  27.074  22.935  1.00  0.00    -0.167 F 
ENDBRANCH  17  25
ENDBRANCH   5   8
ENDBRANCH   3   4
ENDBRANCH   2   3
ENDBRANCH   1   2
BRANCH   1  29
ATOM     29  C   UNL A   1      32.826  32.525  27.157  1.00  0.00     0.116 C 
BRANCH  29  30
ATOM     30  N   UNL A   1      32.553  33.901  27.536  1.00  0.00    -0.352 N 
ATOM     31  C   UNL A   1      33.169  34.665  28.500  1.00  0.00     0.251 C 
ATOM     32  H   UNL A   1      31.830  34.345  27.037  1.00  0.00     0.163 HD
ATOM     33  O   UNL A   1      32.732  35.775  28.766  1.00  0.00    -0.269 OA
BRANCH  31  34
ATOM     34  C   UNL A   1      34.326  34.109  29.236  1.00  0.00     0.039 A 
ATOM     35  C   UNL A   1      34.082  33.228  30.291  1.00  0.00     0.014 A 
ATOM     36  C   UNL A   1      35.637  34.432  28.875  1.00  0.00     0.014 A 
ATOM     37  C   UNL A   1      35.156  32.622  30.944  1.00  0.00     0.010 A 
ATOM     38  C   UNL A   1      36.703  33.773  29.479  1.00  0.00     0.010 A 
ATOM     39  C   UNL A   1      36.474  32.862  30.521  1.00  0.00    -0.014 A 
BRANCH  39  40
ATOM     40  C   UNL A   1      37.617  32.161  31.161  1.00  0.00     0.031 A 
ATOM     41  C   UNL A   1      38.403  31.133  30.393  1.00  0.00     0.074 A 
ATOM     42  C   UNL A   1      37.917  32.425  32.448  1.00  0.00     0.049 A 
ATOM     43  N   UNL A   1      39.420  30.410  30.783  1.00  0.00    -0.248 NA
ATOM     44  C   UNL A   1      37.964  30.862  29.016  1.00  0.00     0.031 C 
ATOM     45  C   UNL A   1      37.190  33.360  33.309  1.00  0.00     0.029 A 
ATOM     46  N   UNL A   1      38.908  31.933  33.258  1.00  0.00    -0.354 N 
ATOM     47  C   UNL A   1      39.741  29.594  29.704  1.00  0.00     0.074 A 
ATOM     48  C   UNL A   1      38.764  29.864  28.670  1.00  0.00     0.031 C 
ATOM     49  C   UNL A   1      37.780  33.399  34.515  1.00  0.00     0.029 A 
ATOM     50  C   UNL A   1      38.903  32.467  34.526  1.00  0.00     0.049 A 
ATOM     51  H   UNL A   1      39.564  31.261  32.960  1.00  0.00     0.167 HD
ATOM     52  C   UNL A   1      40.772  28.721  29.577  1.00  0.00     0.034 A 
ATOM     53  C   UNL A   1      39.710  32.232  35.578  1.00  0.00     0.034 A 
ATOM     54  C   UNL A   1      41.742  28.471  30.617  1.00  0.00     0.049 A 
ATOM     55  C   UNL A   1      40.848  31.256  35.415  1.00  0.00     0.074 A 
ATOM     56  C   UNL A   1      42.855  27.650  30.579  1.00  0.00     0.029 A 
ATOM     57  N   UNL A   1      41.711  29.037  31.886  1.00  0.00    -0.354 N 
ATOM     58  N   UNL A   1      41.177  30.539  34.365  1.00  0.00    -0.248 NA
ATOM     59  C   UNL A   1      41.733  31.073  36.572  1.00  0.00     0.031 C 
ATOM     60  C   UNL A   1      43.457  27.668  31.842  1.00  0.00     0.029 A 
ATOM     61  C   UNL A   1      42.768  28.562  32.647  1.00  0.00     0.049 A 
ATOM     62  H   UNL A   1      41.036  29.682  32.199  1.00  0.00     0.167 HD
ATOM     63  C   UNL A   1      42.328  29.845  34.728  1.00  0.00     0.074 A 
ATOM     64  C   UNL A   1      42.643  30.243  36.084  1.00  0.00     0.031 C 
ATOM     65  C   UNL A   1      43.062  28.961  34.003  1.00  0.00     0.034 A 
BRANCH  52  66
ATOM     66  C   UNL A   1      40.881  27.961  28.275  1.00  0.00     0.023 A 
ATOM     67  C   UNL A   1      40.295  26.693  28.109  1.00  0.00     0.031 A 
ATOM     68  C   UNL A   1      41.605  28.495  27.194  1.00  0.00     0.131 A 
ATOM     69  C   UNL A   1      40.511  25.969  26.927  1.00  0.00     0.055 A 
ATOM     70  C   UNL A   1      41.744  27.805  25.988  1.00  0.00     0.041 A 
ATOM     71  F   UNL A   1      42.205  29.691  27.297  1.00  0.00    -0.206 F 
ATOM     72  C   UNL A   1      41.210  26.526  25.854  1.00  0.00     0.022 A 
BRANCH  69  73
ATOM     73  S   UNL A   1      39.996  24.231  26.871  1.00  0.00     0.124 S 
ATOM     74  O   UNL A   1      38.788  24.308  26.052  1.00  0.00    -0.237 OA
ATOM     75  O   UNL A   1      41.146  23.581  26.255  1.00  0.00    -0.237 OA
ATOM     76  O   UNL A   1      39.766  23.895  28.275  1.00  0.00    -0.744 OA
ENDBRANCH  69  73
ENDBRANCH  52  66
BRANCH  53  77
ATOM     77  C   UNL A   1      39.486  32.932  36.876  1.00  0.00     0.023 A 
ATOM     78  C   UNL A   1      38.591  32.420  37.828  1.00  0.00     0.031 A 
ATOM     79  C   UNL A   1      40.136  34.145  37.166  1.00  0.00     0.131 A 
ATOM     80  C   UNL A   1      38.334  33.141  39.006  1.00  0.00     0.055 A 
ATOM     81  C   UNL A   1      39.916  34.832  38.361  1.00  0.00     0.041 A 
ATOM     82  F   UNL A   1      41.008  34.674  36.293  1.00  0.00    -0.206 F 
ATOM     83  C   UNL A   1      38.999  34.337  39.283  1.00  0.00     0.022 A 
BRANCH  80  84
ATOM     84  S   UNL A   1      37.049  32.533  40.132  1.00  0.00     0.124 S 
ATOM     85  O   UNL A   1      37.629  31.276  40.593  1.00  0.00    -0.237 OA
ATOM     86  O   UNL A   1      36.978  33.607  41.116  1.00  0.00    -0.237 OA
ATOM     87  O   UNL A   1      35.876  32.401  39.270  1.00  0.00    -0.744 OA
ENDBRANCH  80  84
ENDBRANCH  53  77
BRANCH  65  88
ATOM     88  C   UNL A   1      44.303  28.405  34.659  1.00  0.00     0.023 A 
ATOM     89  C   UNL A   1      44.299  27.165  35.323  1.00  0.00     0.031 A 
ATOM     90  C   UNL A   1      45.502  29.139  34.637  1.00  0.00     0.131 A 
ATOM     91  C   UNL A   1      45.452  26.727  35.992  1.00  0.00     0.055 A 
ATOM     92  C   UNL A   1      46.664  28.669  35.251  1.00  0.00     0.041 A 
ATOM     93  F   UNL A   1      45.563  30.330  34.021  1.00  0.00    -0.206 F 
ATOM     94  C   UNL A   1      46.638  27.463  35.947  1.00  0.00     0.022 A 
BRANCH  91  95
ATOM     95  S   UNL A   1      45.350  25.231  37.013  1.00  0.00     0.124 S 
ATOM     96  O   UNL A   1      45.171  25.788  38.350  1.00  0.00    -0.237 OA
ATOM     97  O   UNL A   1      44.193  24.546  36.447  1.00  0.00    -0.237 OA
ATOM     98  O   UNL A   1      46.633  24.571  36.783  1.00  0.00    -0.744 OA
ENDBRANCH  91  95
ENDBRANCH  65  88
ENDBRANCH  39  40
ENDBRANCH  31  34
ENDBRANCH  29  30
ENDBRANCH   1  29
TORSDOF 18
ENDMDL
