MODEL 1
REMARK VINA RESULT:     -12.2      0.000      0.000
REMARK SMILES C[C@H](Nc1ccc2c(c1)OCCO2)[C@H](C)C(=O)NCCCCNC(=O)c1ccc(-c2c3nc(c(-c4cc(S(=O)(=O)[O-])ccc4F)c4ccc([nH]4)c(-c4cc(S(=O)(=O)[O-])ccc4F)c4nc(c(-c5cc(S(=O)(=O)[O-])ccc5F)c5ccc2[nH]5)C=C4)C=C3)cc1
REMARK SMILES IDX 20 1 19 2 18 3 16 4 17 5 14 7 15 8 2 9 1 10 3 11 4 13 5 14
REMARK SMILES IDX 9 15 6 16 8 17 7 18 10 19 13 20 11 21 12 22 21 23 22 24
REMARK SMILES IDX 23 25 24 26 25 28 26 29 27 30 88 31 28 32 87 33 29 34 30 35
REMARK SMILES IDX 31 36 81 37 32 38 86 39 80 40 82 41 33 42 85 43 79 44 78 45
REMARK SMILES IDX 34 47 66 48 46 49 65 50 47 51 50 52 64 53 83 54 48 55 49 56
REMARK SMILES IDX 63 58 84 59 51 60 35 61 36 62 44 63 37 64 43 65 45 66 42 67
REMARK SMILES IDX 38 68 39 69 40 70 41 71 67 72 68 73 76 74 69 75 75 76 77 77
REMARK SMILES IDX 74 78 70 79 71 80 72 81 73 82 52 83 53 84 61 85 54 86 60 87
REMARK SMILES IDX 62 88 59 89 55 90 56 91 57 92 58 93
REMARK H PARENT 18 6 3 12 23 27 82 46 50 57
REMARK Flexibility Score: inf
ROOT
ATOM      1  C   UNL A   1      35.205  22.216  26.484  1.00  0.00     0.023 C 
ENDROOT
BRANCH   1   2
ATOM      2  C   UNL A   1      34.248  21.462  27.407  1.00  0.00     0.116 C 
BRANCH   2   3
ATOM      3  N   UNL A   1      33.037  22.221  27.663  1.00  0.00    -0.356 N 
ATOM      4  C   UNL A   1      32.072  22.766  26.890  1.00  0.00     0.224 C 
ATOM      5  O   UNL A   1      31.222  23.421  27.516  1.00  0.00    -0.275 OA
ATOM      6  H   UNL A   1      32.883  22.376  28.623  1.00  0.00     0.163 HD
BRANCH   4   7
ATOM      7  C   UNL A   1      31.896  22.651  25.367  1.00  0.00     0.097 C 
ATOM      8  C   UNL A   1      31.925  21.171  24.936  1.00  0.00     0.020 C 
BRANCH   7   9
ATOM      9  C   UNL A   1      30.973  23.506  24.497  1.00  0.00     0.088 C 
ATOM     10  C   UNL A   1      31.560  23.800  23.103  1.00  0.00     0.031 C 
BRANCH   9  11
ATOM     11  N   UNL A   1      30.252  24.679  25.020  1.00  0.00    -0.382 N 
ATOM     12  H   UNL A   1      29.344  24.445  25.320  1.00  0.00     0.160 HD
BRANCH  11  13
ATOM     13  C   UNL A   1      30.519  26.015  25.201  1.00  0.00     0.038 A 
ATOM     14  C   UNL A   1      30.211  26.906  24.153  1.00  0.00     0.030 A 
ATOM     15  C   UNL A   1      31.132  26.575  26.315  1.00  0.00     0.076 A 
ATOM     16  C   UNL A   1      30.593  28.255  24.178  1.00  0.00     0.052 A 
ATOM     17  C   UNL A   1      31.582  27.901  26.328  1.00  0.00     0.163 A 
ATOM     18  C   UNL A   1      31.338  28.729  25.243  1.00  0.00     0.161 A 
ATOM     19  O   UNL A   1      32.356  28.263  27.400  1.00  0.00    -0.486 OA
ATOM     20  O   UNL A   1      31.872  29.987  25.154  1.00  0.00    -0.486 OA
ATOM     21  C   UNL A   1      33.005  29.531  27.254  1.00  0.00     0.271 C 
ATOM     22  C   UNL A   1      33.150  29.978  25.806  1.00  0.00     0.271 C 
ENDBRANCH  11  13
ENDBRANCH   9  11
ENDBRANCH   7   9
ENDBRANCH   4   7
ENDBRANCH   2   3
ENDBRANCH   1   2
BRANCH   1  23
ATOM     23  C   UNL A   1      35.818  21.410  25.355  1.00  0.00     0.023 C 
BRANCH  23  24
ATOM     24  C   UNL A   1      37.221  21.850  24.974  1.00  0.00     0.116 C 
BRANCH  24  25
ATOM     25  N   UNL A   1      38.260  20.884  25.327  1.00  0.00    -0.352 N 
ATOM     26  C   UNL A   1      39.401  21.034  26.086  1.00  0.00     0.251 C 
ATOM     27  H   UNL A   1      38.122  19.979  24.963  1.00  0.00     0.163 HD
ATOM     28  O   UNL A   1      40.198  20.106  26.191  1.00  0.00    -0.269 OA
BRANCH  26  29
ATOM     29  C   UNL A   1      39.693  22.342  26.712  1.00  0.00     0.039 A 
ATOM     30  C   UNL A   1      40.765  22.457  27.598  1.00  0.00     0.014 A 
ATOM     31  C   UNL A   1      38.981  23.475  26.330  1.00  0.00     0.014 A 
ATOM     32  C   UNL A   1      41.215  23.726  27.975  1.00  0.00     0.010 A 
ATOM     33  C   UNL A   1      39.522  24.729  26.575  1.00  0.00     0.010 A 
ATOM     34  C   UNL A   1      40.654  24.875  27.394  1.00  0.00    -0.014 A 
BRANCH  34  35
ATOM     35  C   UNL A   1      41.216  26.239  27.603  1.00  0.00     0.031 A 
ATOM     36  C   UNL A   1      42.581  26.571  27.056  1.00  0.00     0.074 A 
ATOM     37  C   UNL A   1      40.569  27.133  28.380  1.00  0.00     0.049 A 
ATOM     38  N   UNL A   1      43.351  27.600  27.305  1.00  0.00    -0.248 NA
ATOM     39  C   UNL A   1      43.187  25.572  26.162  1.00  0.00     0.031 C 
ATOM     40  C   UNL A   1      39.268  26.924  29.021  1.00  0.00     0.029 A 
ATOM     41  N   UNL A   1      40.926  28.399  28.777  1.00  0.00    -0.354 N 
ATOM     42  C   UNL A   1      44.545  27.344  26.640  1.00  0.00     0.074 A 
ATOM     43  C   UNL A   1      44.424  26.027  26.055  1.00  0.00     0.031 C 
ATOM     44  C   UNL A   1      38.916  28.036  29.687  1.00  0.00     0.029 A 
ATOM     45  C   UNL A   1      39.992  29.015  29.580  1.00  0.00     0.049 A 
ATOM     46  H   UNL A   1      41.771  28.828  28.511  1.00  0.00     0.167 HD
ATOM     47  C   UNL A   1      45.630  28.146  26.495  1.00  0.00     0.034 A 
ATOM     48  C   UNL A   1      40.006  30.224  30.174  1.00  0.00     0.034 A 
ATOM     49  C   UNL A   1      45.709  29.480  27.034  1.00  0.00     0.049 A 
ATOM     50  C   UNL A   1      41.217  31.105  30.000  1.00  0.00     0.074 A 
ATOM     51  C   UNL A   1      46.719  30.414  26.884  1.00  0.00     0.029 A 
ATOM     52  N   UNL A   1      44.732  30.074  27.823  1.00  0.00    -0.354 N 
ATOM     53  N   UNL A   1      42.326  30.863  29.339  1.00  0.00    -0.248 NA
ATOM     54  C   UNL A   1      41.180  32.420  30.655  1.00  0.00     0.031 C 
ATOM     55  C   UNL A   1      46.376  31.552  27.625  1.00  0.00     0.029 A 
ATOM     56  C   UNL A   1      45.124  31.353  28.186  1.00  0.00     0.049 A 
ATOM     57  H   UNL A   1      43.884  29.649  28.086  1.00  0.00     0.167 HD
ATOM     58  C   UNL A   1      43.106  32.007  29.478  1.00  0.00     0.074 A 
ATOM     59  C   UNL A   1      42.337  32.941  30.274  1.00  0.00     0.031 C 
ATOM     60  C   UNL A   1      44.345  32.265  28.987  1.00  0.00     0.034 A 
BRANCH  47  61
ATOM     61  C   UNL A   1      46.805  27.585  25.727  1.00  0.00     0.023 A 
ATOM     62  C   UNL A   1      47.125  28.043  24.437  1.00  0.00     0.031 A 
ATOM     63  C   UNL A   1      47.573  26.534  26.257  1.00  0.00     0.131 A 
ATOM     64  C   UNL A   1      48.098  27.377  23.677  1.00  0.00     0.055 A 
ATOM     65  C   UNL A   1      48.612  25.943  25.534  1.00  0.00     0.041 A 
ATOM     66  F   UNL A   1      47.309  26.042  27.478  1.00  0.00    -0.206 F 
ATOM     67  C   UNL A   1      48.864  26.347  24.227  1.00  0.00     0.022 A 
BRANCH  64  68
ATOM     68  S   UNL A   1      48.209  27.752  21.906  1.00  0.00     0.124 S 
ATOM     69  O   UNL A   1      46.913  28.382  21.659  1.00  0.00    -0.237 OA
ATOM     70  O   UNL A   1      49.368  28.634  21.842  1.00  0.00    -0.237 OA
ATOM     71  O   UNL A   1      48.385  26.440  21.288  1.00  0.00    -0.744 OA
ENDBRANCH  64  68
ENDBRANCH  47  61
BRANCH  48  72
ATOM     72  C   UNL A   1      38.845  30.684  30.990  1.00  0.00     0.023 A 
ATOM     73  C   UNL A   1      37.735  31.287  30.378  1.00  0.00     0.031 A 
ATOM     74  C   UNL A   1      38.840  30.560  32.391  1.00  0.00     0.131 A 
ATOM     75  C   UNL A   1      36.683  31.780  31.164  1.00  0.00     0.055 A 
ATOM     76  C   UNL A   1      37.768  31.010  33.167  1.00  0.00     0.041 A 
ATOM     77  F   UNL A   1      39.873  29.984  33.026  1.00  0.00    -0.206 F 
ATOM     78  C   UNL A   1      36.687  31.635  32.554  1.00  0.00     0.022 A 
BRANCH  75  79
ATOM     79  S   UNL A   1      35.335  32.677  30.348  1.00  0.00     0.124 S 
ATOM     80  O   UNL A   1      35.122  31.869  29.153  1.00  0.00    -0.237 OA
ATOM     81  O   UNL A   1      34.281  32.624  31.355  1.00  0.00    -0.237 OA
ATOM     82  O   UNL A   1      35.903  34.003  30.112  1.00  0.00    -0.744 OA
ENDBRANCH  75  79
ENDBRANCH  48  72
BRANCH  60  83
ATOM     83  C   UNL A   1      44.920  33.629  29.268  1.00  0.00     0.023 A 
ATOM     84  C   UNL A   1      44.668  34.723  28.424  1.00  0.00     0.031 A 
ATOM     85  C   UNL A   1      45.726  33.833  30.402  1.00  0.00     0.131 A 
ATOM     86  C   UNL A   1      45.251  35.968  28.706  1.00  0.00     0.055 A 
ATOM     87  C   UNL A   1      46.260  35.086  30.705  1.00  0.00     0.041 A 
ATOM     88  F   UNL A   1      45.996  32.819  31.240  1.00  0.00    -0.206 F 
ATOM     89  C   UNL A   1      46.032  36.159  29.850  1.00  0.00     0.022 A 
BRANCH  86  90
ATOM     90  S   UNL A   1      45.026  37.324  27.523  1.00  0.00     0.124 S 
ATOM     91  O   UNL A   1      45.241  38.497  28.363  1.00  0.00    -0.237 OA
ATOM     92  O   UNL A   1      46.062  37.050  26.532  1.00  0.00    -0.237 OA
ATOM     93  O   UNL A   1      43.655  37.142  27.050  1.00  0.00    -0.744 OA
ENDBRANCH  86  90
ENDBRANCH  60  83
ENDBRANCH  34  35
ENDBRANCH  26  29
ENDBRANCH  24  25
ENDBRANCH  23  24
ENDBRANCH   1  23
TORSDOF 17
ENDMDL
MODEL 2
REMARK VINA RESULT:     -12.1      2.071      8.361
REMARK SMILES C[C@H](Nc1ccc2c(c1)OCCO2)[C@H](C)C(=O)NCCCCNC(=O)c1ccc(-c2c3nc(c(-c4cc(S(=O)(=O)[O-])ccc4F)c4ccc([nH]4)c(-c4cc(S(=O)(=O)[O-])ccc4F)c4nc(c(-c5cc(S(=O)(=O)[O-])ccc5F)c5ccc2[nH]5)C=C4)C=C3)cc1
REMARK SMILES IDX 20 1 19 2 18 3 16 4 17 5 14 7 15 8 2 9 1 10 3 11 4 13 5 14
REMARK SMILES IDX 9 15 6 16 8 17 7 18 10 19 13 20 11 21 12 22 21 23 22 24
REMARK SMILES IDX 23 25 24 26 25 28 26 29 27 30 88 31 28 32 87 33 29 34 30 35
REMARK SMILES IDX 31 36 81 37 32 38 86 39 80 40 82 41 33 42 85 43 79 44 78 45
REMARK SMILES IDX 34 47 66 48 46 49 65 50 47 51 50 52 64 53 83 54 48 55 49 56
REMARK SMILES IDX 63 58 84 59 51 60 35 61 36 62 44 63 37 64 43 65 45 66 42 67
REMARK SMILES IDX 38 68 39 69 40 70 41 71 67 72 68 73 76 74 69 75 75 76 77 77
REMARK SMILES IDX 74 78 70 79 71 80 72 81 73 82 52 83 53 84 61 85 54 86 60 87
REMARK SMILES IDX 62 88 59 89 55 90 56 91 57 92 58 93
REMARK H PARENT 18 6 3 12 23 27 82 46 50 57
REMARK Flexibility Score: inf
ROOT
ATOM      1  C   UNL A   1      35.508  22.949  23.916  1.00  0.00     0.023 C 
ENDROOT
BRANCH   1   2
ATOM      2  C   UNL A   1      35.795  24.120  24.856  1.00  0.00     0.116 C 
BRANCH   2   3
ATOM      3  N   UNL A   1      34.601  24.549  25.563  1.00  0.00    -0.356 N 
ATOM      4  C   UNL A   1      33.483  25.224  25.221  1.00  0.00     0.224 C 
ATOM      5  O   UNL A   1      32.716  25.460  26.169  1.00  0.00    -0.275 OA
ATOM      6  H   UNL A   1      34.610  24.290  26.512  1.00  0.00     0.163 HD
BRANCH   4   7
ATOM      7  C   UNL A   1      33.049  25.700  23.824  1.00  0.00     0.097 C 
ATOM      8  C   UNL A   1      33.663  27.080  23.515  1.00  0.00     0.020 C 
BRANCH   7   9
ATOM      9  C   UNL A   1      32.894  24.825  22.579  1.00  0.00     0.088 C 
ATOM     10  C   UNL A   1      32.781  25.643  21.278  1.00  0.00     0.031 C 
BRANCH   9  11
ATOM     11  N   UNL A   1      32.006  23.651  22.540  1.00  0.00    -0.382 N 
ATOM     12  H   UNL A   1      31.249  23.788  21.924  1.00  0.00     0.160 HD
BRANCH  11  13
ATOM     13  C   UNL A   1      31.959  22.415  23.137  1.00  0.00     0.038 A 
ATOM     14  C   UNL A   1      31.914  22.353  24.544  1.00  0.00     0.030 A 
ATOM     15  C   UNL A   1      32.015  21.194  22.476  1.00  0.00     0.076 A 
ATOM     16  C   UNL A   1      32.028  21.145  25.247  1.00  0.00     0.052 A 
ATOM     17  C   UNL A   1      32.200  19.986  23.160  1.00  0.00     0.163 A 
ATOM     18  C   UNL A   1      32.238  19.970  24.546  1.00  0.00     0.161 A 
ATOM     19  O   UNL A   1      32.451  18.886  22.382  1.00  0.00    -0.486 OA
ATOM     20  O   UNL A   1      32.547  18.839  25.252  1.00  0.00    -0.486 OA
ATOM     21  C   UNL A   1      32.886  17.735  23.115  1.00  0.00     0.271 C 
ATOM     22  C   UNL A   1      33.477  18.068  24.478  1.00  0.00     0.271 C 
ENDBRANCH  11  13
ENDBRANCH   9  11
ENDBRANCH   7   9
ENDBRANCH   4   7
ENDBRANCH   2   3
ENDBRANCH   1   2
BRANCH   1  23
ATOM     23  C   UNL A   1      35.783  21.565  24.471  1.00  0.00     0.023 C 
BRANCH  23  24
ATOM     24  C   UNL A   1      36.713  21.556  25.672  1.00  0.00     0.116 C 
BRANCH  24  25
ATOM     25  N   UNL A   1      37.839  20.634  25.541  1.00  0.00    -0.352 N 
ATOM     26  C   UNL A   1      39.153  20.765  25.936  1.00  0.00     0.251 C 
ATOM     27  H   UNL A   1      37.624  19.780  25.099  1.00  0.00     0.163 HD
ATOM     28  O   UNL A   1      39.972  19.895  25.650  1.00  0.00    -0.269 OA
BRANCH  26  29
ATOM     29  C   UNL A   1      39.583  21.991  26.641  1.00  0.00     0.039 A 
ATOM     30  C   UNL A   1      40.635  21.926  27.557  1.00  0.00     0.014 A 
ATOM     31  C   UNL A   1      39.027  23.222  26.307  1.00  0.00     0.014 A 
ATOM     32  C   UNL A   1      41.224  23.108  28.015  1.00  0.00     0.010 A 
ATOM     33  C   UNL A   1      39.709  24.385  26.636  1.00  0.00     0.010 A 
ATOM     34  C   UNL A   1      40.825  24.346  27.487  1.00  0.00    -0.014 A 
BRANCH  34  35
ATOM     35  C   UNL A   1      41.542  25.618  27.787  1.00  0.00     0.031 A 
ATOM     36  C   UNL A   1      40.844  26.694  28.580  1.00  0.00     0.074 A 
ATOM     37  C   UNL A   1      42.756  25.860  27.251  1.00  0.00     0.049 A 
ATOM     38  N   UNL A   1      41.183  27.945  28.764  1.00  0.00    -0.248 NA
ATOM     39  C   UNL A   1      39.557  26.326  29.188  1.00  0.00     0.031 C 
ATOM     40  C   UNL A   1      43.523  24.931  26.416  1.00  0.00     0.029 A 
ATOM     41  N   UNL A   1      43.560  26.974  27.317  1.00  0.00    -0.354 N 
ATOM     42  C   UNL A   1      40.126  28.519  29.464  1.00  0.00     0.074 A 
ATOM     43  C   UNL A   1      39.105  27.502  29.589  1.00  0.00     0.031 C 
ATOM     44  C   UNL A   1      44.699  25.492  26.090  1.00  0.00     0.029 A 
ATOM     45  C   UNL A   1      44.747  26.844  26.634  1.00  0.00     0.049 A 
ATOM     46  H   UNL A   1      43.309  27.788  27.809  1.00  0.00     0.167 HD
ATOM     47  C   UNL A   1      40.029  29.767  29.989  1.00  0.00     0.034 A 
ATOM     48  C   UNL A   1      45.756  27.720  26.453  1.00  0.00     0.034 A 
ATOM     49  C   UNL A   1      41.081  30.747  29.907  1.00  0.00     0.049 A 
ATOM     50  C   UNL A   1      45.634  29.101  27.046  1.00  0.00     0.074 A 
ATOM     51  C   UNL A   1      41.131  32.011  30.468  1.00  0.00     0.029 A 
ATOM     52  N   UNL A   1      42.278  30.569  29.224  1.00  0.00    -0.354 N 
ATOM     53  N   UNL A   1      44.642  29.619  27.735  1.00  0.00    -0.248 NA
ATOM     54  C   UNL A   1      46.764  30.016  26.834  1.00  0.00     0.031 C 
ATOM     55  C   UNL A   1      42.333  32.615  30.081  1.00  0.00     0.029 A 
ATOM     56  C   UNL A   1      43.062  31.707  29.331  1.00  0.00     0.049 A 
ATOM     57  H   UNL A   1      42.533  29.753  28.735  1.00  0.00     0.167 HD
ATOM     58  C   UNL A   1      45.043  30.912  28.060  1.00  0.00     0.074 A 
ATOM     59  C   UNL A   1      46.368  31.089  27.503  1.00  0.00     0.031 C 
ATOM     60  C   UNL A   1      44.379  31.865  28.761  1.00  0.00     0.034 A 
BRANCH  47  61
ATOM     61  C   UNL A   1      38.736  30.122  30.688  1.00  0.00     0.023 A 
ATOM     62  C   UNL A   1      37.665  30.713  29.995  1.00  0.00     0.031 A 
ATOM     63  C   UNL A   1      38.595  29.934  32.074  1.00  0.00     0.131 A 
ATOM     64  C   UNL A   1      36.557  31.202  30.702  1.00  0.00     0.055 A 
ATOM     65  C   UNL A   1      37.442  30.329  32.757  1.00  0.00     0.041 A 
ATOM     66  F   UNL A   1      39.587  29.388  32.795  1.00  0.00    -0.206 F 
ATOM     67  C   UNL A   1      36.425  30.990  32.075  1.00  0.00     0.022 A 
BRANCH  64  68
ATOM     68  S   UNL A   1      35.391  32.283  29.829  1.00  0.00     0.124 S 
ATOM     69  O   UNL A   1      36.274  33.357  29.373  1.00  0.00    -0.237 OA
ATOM     70  O   UNL A   1      34.864  31.406  28.790  1.00  0.00    -0.237 OA
ATOM     71  O   UNL A   1      34.438  32.669  30.866  1.00  0.00    -0.744 OA
ENDBRANCH  64  68
ENDBRANCH  47  61
BRANCH  48  72
ATOM     72  C   UNL A   1      46.970  27.332  25.679  1.00  0.00     0.023 A 
ATOM     73  C   UNL A   1      47.132  27.748  24.348  1.00  0.00     0.031 A 
ATOM     74  C   UNL A   1      47.968  26.518  26.242  1.00  0.00     0.131 A 
ATOM     75  C   UNL A   1      48.244  27.316  23.609  1.00  0.00     0.055 A 
ATOM     76  C   UNL A   1      49.098  26.128  25.517  1.00  0.00     0.041 A 
ATOM     77  F   UNL A   1      47.866  26.099  27.514  1.00  0.00    -0.206 F 
ATOM     78  C   UNL A   1      49.234  26.518  24.189  1.00  0.00     0.022 A 
BRANCH  75  79
ATOM     79  S   UNL A   1      48.345  27.757  21.853  1.00  0.00     0.124 S 
ATOM     80  O   UNL A   1      49.364  28.799  21.866  1.00  0.00    -0.237 OA
ATOM     81  O   UNL A   1      48.731  26.489  21.243  1.00  0.00    -0.237 OA
ATOM     82  O   UNL A   1      46.992  28.211  21.538  1.00  0.00    -0.744 OA
ENDBRANCH  75  79
ENDBRANCH  48  72
BRANCH  60  83
ATOM     83  C   UNL A   1      45.099  33.167  28.995  1.00  0.00     0.023 A 
ATOM     84  C   UNL A   1      45.934  33.358  30.108  1.00  0.00     0.031 A 
ATOM     85  C   UNL A   1      44.950  34.228  28.084  1.00  0.00     0.131 A 
ATOM     86  C   UNL A   1      46.559  34.598  30.304  1.00  0.00     0.055 A 
ATOM     87  C   UNL A   1      45.615  35.441  28.257  1.00  0.00     0.041 A 
ATOM     88  F   UNL A   1      44.162  34.095  27.004  1.00  0.00    -0.206 F 
ATOM     89  C   UNL A   1      46.418  35.635  29.377  1.00  0.00     0.022 A 
BRANCH  86  90
ATOM     90  S   UNL A   1      47.515  34.863  31.823  1.00  0.00     0.124 S 
ATOM     91  O   UNL A   1      47.715  36.308  31.806  1.00  0.00    -0.237 OA
ATOM     92  O   UNL A   1      46.614  34.355  32.852  1.00  0.00    -0.237 OA
ATOM     93  O   UNL A   1      48.723  34.066  31.611  1.00  0.00    -0.744 OA
ENDBRANCH  86  90
ENDBRANCH  60  83
ENDBRANCH  34  35
ENDBRANCH  26  29
ENDBRANCH  24  25
ENDBRANCH  23  24
ENDBRANCH   1  23
TORSDOF 17
ENDMDL
MODEL 3
REMARK VINA RESULT:     -12.1      5.064      8.267
REMARK SMILES C[C@H](Nc1ccc2c(c1)OCCO2)[C@H](C)C(=O)NCCCCNC(=O)c1ccc(-c2c3nc(c(-c4cc(S(=O)(=O)[O-])ccc4F)c4ccc([nH]4)c(-c4cc(S(=O)(=O)[O-])ccc4F)c4nc(c(-c5cc(S(=O)(=O)[O-])ccc5F)c5ccc2[nH]5)C=C4)C=C3)cc1
REMARK SMILES IDX 20 1 19 2 18 3 16 4 17 5 14 7 15 8 2 9 1 10 3 11 4 13 5 14
REMARK SMILES IDX 9 15 6 16 8 17 7 18 10 19 13 20 11 21 12 22 21 23 22 24
REMARK SMILES IDX 23 25 24 26 25 28 26 29 27 30 88 31 28 32 87 33 29 34 30 35
REMARK SMILES IDX 31 36 81 37 32 38 86 39 80 40 82 41 33 42 85 43 79 44 78 45
REMARK SMILES IDX 34 47 66 48 46 49 65 50 47 51 50 52 64 53 83 54 48 55 49 56
REMARK SMILES IDX 63 58 84 59 51 60 35 61 36 62 44 63 37 64 43 65 45 66 42 67
REMARK SMILES IDX 38 68 39 69 40 70 41 71 67 72 68 73 76 74 69 75 75 76 77 77
REMARK SMILES IDX 74 78 70 79 71 80 72 81 73 82 52 83 53 84 61 85 54 86 60 87
REMARK SMILES IDX 62 88 59 89 55 90 56 91 57 92 58 93
REMARK H PARENT 18 6 3 12 23 27 82 46 50 57
REMARK Flexibility Score: inf
ROOT
ATOM      1  C   UNL A   1      32.441  29.537  24.311  1.00  0.00     0.023 C 
ENDROOT
BRANCH   1   2
ATOM      2  C   UNL A   1      33.581  28.556  24.585  1.00  0.00     0.116 C 
BRANCH   2   3
ATOM      3  N   UNL A   1      33.845  27.702  23.440  1.00  0.00    -0.356 N 
ATOM      4  C   UNL A   1      33.330  26.542  22.978  1.00  0.00     0.224 C 
ATOM      5  O   UNL A   1      33.907  26.089  21.976  1.00  0.00    -0.275 OA
ATOM      6  H   UNL A   1      34.569  28.048  22.869  1.00  0.00     0.163 HD
BRANCH   4   7
ATOM      7  C   UNL A   1      32.128  25.753  23.522  1.00  0.00     0.097 C 
ATOM      8  C   UNL A   1      30.809  26.447  23.126  1.00  0.00     0.020 C 
BRANCH   7   9
ATOM      9  C   UNL A   1      32.002  24.229  23.586  1.00  0.00     0.088 C 
ATOM     10  C   UNL A   1      30.611  23.721  23.159  1.00  0.00     0.031 C 
BRANCH   9  11
ATOM     11  N   UNL A   1      32.527  23.437  24.711  1.00  0.00    -0.382 N 
ATOM     12  H   UNL A   1      32.478  23.933  25.559  1.00  0.00     0.160 HD
BRANCH  11  13
ATOM     13  C   UNL A   1      33.065  22.185  24.884  1.00  0.00     0.038 A 
ATOM     14  C   UNL A   1      34.459  22.031  24.747  1.00  0.00     0.030 A 
ATOM     15  C   UNL A   1      32.345  21.021  25.124  1.00  0.00     0.076 A 
ATOM     16  C   UNL A   1      35.080  20.774  24.745  1.00  0.00     0.052 A 
ATOM     17  C   UNL A   1      32.937  19.753  25.055  1.00  0.00     0.163 A 
ATOM     18  C   UNL A   1      34.300  19.633  24.833  1.00  0.00     0.161 A 
ATOM     19  O   UNL A   1      32.079  18.685  25.100  1.00  0.00    -0.486 OA
ATOM     20  O   UNL A   1      34.900  18.420  24.625  1.00  0.00    -0.486 OA
ATOM     21  C   UNL A   1      32.686  17.430  24.770  1.00  0.00     0.271 C 
ATOM     22  C   UNL A   1      33.962  17.567  23.952  1.00  0.00     0.271 C 
ENDBRANCH  11  13
ENDBRANCH   9  11
ENDBRANCH   7   9
ENDBRANCH   4   7
ENDBRANCH   2   3
ENDBRANCH   1   2
BRANCH   1  23
ATOM     23  C   UNL A   1      31.601  29.935  25.508  1.00  0.00     0.023 C 
BRANCH  23  24
ATOM     24  C   UNL A   1      32.415  30.344  26.724  1.00  0.00     0.116 C 
BRANCH  24  25
ATOM     25  N   UNL A   1      32.353  31.773  27.024  1.00  0.00    -0.352 N 
ATOM     26  C   UNL A   1      33.309  32.621  27.540  1.00  0.00     0.251 C 
ATOM     27  H   UNL A   1      31.487  32.199  26.825  1.00  0.00     0.163 HD
ATOM     28  O   UNL A   1      33.023  33.787  27.801  1.00  0.00    -0.269 OA
BRANCH  26  29
ATOM     29  C   UNL A   1      34.658  32.099  27.845  1.00  0.00     0.039 A 
ATOM     30  C   UNL A   1      35.734  32.984  27.941  1.00  0.00     0.014 A 
ATOM     31  C   UNL A   1      34.834  30.754  28.153  1.00  0.00     0.014 A 
ATOM     32  C   UNL A   1      36.940  32.544  28.493  1.00  0.00     0.010 A 
ATOM     33  C   UNL A   1      35.973  30.360  28.843  1.00  0.00     0.010 A 
ATOM     34  C   UNL A   1      37.041  31.252  29.033  1.00  0.00    -0.014 A 
BRANCH  34  35
ATOM     35  C   UNL A   1      38.229  30.792  29.806  1.00  0.00     0.031 A 
ATOM     36  C   UNL A   1      39.182  29.804  29.183  1.00  0.00     0.074 A 
ATOM     37  C   UNL A   1      38.389  31.157  31.095  1.00  0.00     0.049 A 
ATOM     38  N   UNL A   1      40.139  29.106  29.739  1.00  0.00    -0.248 NA
ATOM     39  C   UNL A   1      38.980  29.513  27.756  1.00  0.00     0.031 C 
ATOM     40  C   UNL A   1      37.511  32.062  31.842  1.00  0.00     0.029 A 
ATOM     41  N   UNL A   1      39.344  30.800  32.017  1.00  0.00    -0.354 N 
ATOM     42  C   UNL A   1      40.615  28.261  28.741  1.00  0.00     0.074 A 
ATOM     43  C   UNL A   1      39.782  28.476  27.579  1.00  0.00     0.031 C 
ATOM     44  C   UNL A   1      37.993  32.225  33.085  1.00  0.00     0.029 A 
ATOM     45  C   UNL A   1      39.175  31.388  33.250  1.00  0.00     0.049 A 
ATOM     46  H   UNL A   1      40.081  30.180  31.813  1.00  0.00     0.167 HD
ATOM     47  C   UNL A   1      41.674  27.413  28.775  1.00  0.00     0.034 A 
ATOM     48  C   UNL A   1      39.884  31.256  34.389  1.00  0.00     0.034 A 
ATOM     49  C   UNL A   1      42.530  27.257  29.924  1.00  0.00     0.049 A 
ATOM     50  C   UNL A   1      41.059  30.312  34.409  1.00  0.00     0.074 A 
ATOM     51  C   UNL A   1      43.677  26.492  30.049  1.00  0.00     0.029 A 
ATOM     52  N   UNL A   1      42.338  27.888  31.146  1.00  0.00    -0.354 N 
ATOM     53  N   UNL A   1      41.518  29.545  33.446  1.00  0.00    -0.248 NA
ATOM     54  C   UNL A   1      41.808  30.213  35.668  1.00  0.00     0.031 C 
ATOM     55  C   UNL A   1      44.147  26.619  31.362  1.00  0.00     0.029 A 
ATOM     56  C   UNL A   1      43.331  27.512  32.038  1.00  0.00     0.049 A 
ATOM     57  H   UNL A   1      41.604  28.511  31.350  1.00  0.00     0.167 HD
ATOM     58  C   UNL A   1      42.626  28.893  33.979  1.00  0.00     0.074 A 
ATOM     59  C   UNL A   1      42.773  29.366  35.340  1.00  0.00     0.031 C 
ATOM     60  C   UNL A   1      43.453  27.990  33.394  1.00  0.00     0.034 A 
BRANCH  47  61
ATOM     61  C   UNL A   1      41.944  26.597  27.532  1.00  0.00     0.023 A 
ATOM     62  C   UNL A   1      41.509  25.265  27.418  1.00  0.00     0.031 A 
ATOM     63  C   UNL A   1      42.703  27.130  26.475  1.00  0.00     0.131 A 
ATOM     64  C   UNL A   1      41.935  24.477  26.339  1.00  0.00     0.055 A 
ATOM     65  C   UNL A   1      43.036  26.370  25.351  1.00  0.00     0.041 A 
ATOM     66  F   UNL A   1      43.160  28.391  26.529  1.00  0.00    -0.206 F 
ATOM     67  C   UNL A   1      42.672  25.028  25.289  1.00  0.00     0.022 A 
BRANCH  64  68
ATOM     68  S   UNL A   1      41.671  22.685  26.428  1.00  0.00     0.124 S 
ATOM     69  O   UNL A   1      42.411  22.222  25.254  1.00  0.00    -0.237 OA
ATOM     70  O   UNL A   1      42.250  22.344  27.721  1.00  0.00    -0.237 OA
ATOM     71  O   UNL A   1      40.220  22.547  26.334  1.00  0.00    -0.744 OA
ENDBRANCH  64  68
ENDBRANCH  47  61
BRANCH  48  72
ATOM     72  C   UNL A   1      39.512  32.029  35.609  1.00  0.00     0.023 A 
ATOM     73  C   UNL A   1      38.654  31.475  36.572  1.00  0.00     0.031 A 
ATOM     74  C   UNL A   1      39.978  33.340  35.816  1.00  0.00     0.131 A 
ATOM     75  C   UNL A   1      38.255  32.241  37.679  1.00  0.00     0.055 A 
ATOM     76  C   UNL A   1      39.615  34.082  36.943  1.00  0.00     0.041 A 
ATOM     77  F   UNL A   1      40.807  33.914  34.929  1.00  0.00    -0.206 F 
ATOM     78  C   UNL A   1      38.739  33.536  37.877  1.00  0.00     0.022 A 
BRANCH  75  79
ATOM     79  S   UNL A   1      37.036  31.541  38.824  1.00  0.00     0.124 S 
ATOM     80  O   UNL A   1      36.885  30.186  38.306  1.00  0.00    -0.237 OA
ATOM     81  O   UNL A   1      37.719  31.665  40.107  1.00  0.00    -0.237 OA
ATOM     82  O   UNL A   1      35.872  32.407  38.654  1.00  0.00    -0.744 OA
ENDBRANCH  75  79
ENDBRANCH  48  72
BRANCH  60  83
ATOM     83  C   UNL A   1      44.611  27.490  34.218  1.00  0.00     0.023 A 
ATOM     84  C   UNL A   1      44.500  26.348  35.028  1.00  0.00     0.031 A 
ATOM     85  C   UNL A   1      45.845  28.164  34.181  1.00  0.00     0.131 A 
ATOM     86  C   UNL A   1      45.594  25.936  35.804  1.00  0.00     0.055 A 
ATOM     87  C   UNL A   1      46.945  27.719  34.915  1.00  0.00     0.041 A 
ATOM     88  F   UNL A   1      46.001  29.261  33.422  1.00  0.00    -0.206 F 
ATOM     89  C   UNL A   1      46.820  26.605  35.738  1.00  0.00     0.022 A 
BRANCH  86  90
ATOM     90  S   UNL A   1      45.377  24.546  36.948  1.00  0.00     0.124 S 
ATOM     91  O   UNL A   1      44.133  24.901  37.622  1.00  0.00    -0.237 OA
ATOM     92  O   UNL A   1      45.309  23.403  36.044  1.00  0.00    -0.237 OA
ATOM     93  O   UNL A   1      46.575  24.601  37.785  1.00  0.00    -0.744 OA
ENDBRANCH  86  90
ENDBRANCH  60  83
ENDBRANCH  34  35
ENDBRANCH  26  29
ENDBRANCH  24  25
ENDBRANCH  23  24
ENDBRANCH   1  23
TORSDOF 17
ENDMDL
