MODEL 1
REMARK VINA RESULT:     -11.4      0.000      0.000
REMARK SMILES C[C@@](NC(=O)CCOC1CC[NH2+]CC1)(C(=O)NCCCCNC(=O)c1ccc(-c2c3nc(c(-c4cc(S(=O)(=O)[O-])ccc4F)c4ccc([nH]4)c(-c4cc(S(=O)(=O)[O-])ccc4F)c4nc(c(-c5cc(S(=O)(=O)[O-])ccc5F)c5ccc2[nH]5)C=C4)C=C3)cc1)C(F)(F)F
REMARK SMILES IDX 18 1 17 2 15 3 16 4 2 6 1 7 3 8 4 9 5 11 6 12 7 13 8 14 9 15
REMARK SMILES IDX 10 16 14 17 11 18 13 19 12 20 88 23 89 24 90 25 91 26 19 27
REMARK SMILES IDX 20 28 21 29 22 30 23 31 24 33 25 34 26 35 87 36 27 37 86 38
REMARK SMILES IDX 28 39 29 40 30 41 80 42 31 43 85 44 79 45 81 46 32 47 84 48
REMARK SMILES IDX 78 49 77 50 33 52 65 53 45 54 64 55 46 56 49 57 63 58 82 59
REMARK SMILES IDX 47 60 48 61 62 63 83 64 50 65 34 66 35 67 43 68 36 69 42 70
REMARK SMILES IDX 44 71 41 72 37 73 38 74 39 75 40 76 66 77 67 78 75 79 68 80
REMARK SMILES IDX 74 81 76 82 73 83 69 84 70 85 71 86 72 87 51 88 52 89 60 90
REMARK SMILES IDX 53 91 59 92 61 93 58 94 54 95 55 96 56 97 57 98
REMARK H PARENT 17 5 3 10 12 21 12 22 22 32 81 51 49 62
REMARK Flexibility Score: inf
ROOT
ATOM      1  C   UNL A   1      32.454  27.833  26.758  1.00  0.00     0.116 C 
ENDROOT
BRANCH   1   2
ATOM      2  N   UNL A   1      31.538  26.722  26.977  1.00  0.00    -0.354 N 
ATOM      3  C   UNL A   1      31.475  25.470  26.411  1.00  0.00     0.254 C 
ATOM      4  O   UNL A   1      31.015  24.597  27.155  1.00  0.00    -0.272 OA
ATOM      5  H   UNL A   1      30.841  26.898  27.650  1.00  0.00     0.163 HD
BRANCH   3   6
ATOM      6  C   UNL A   1      32.016  25.114  24.998  1.00  0.00     0.212 C 
ATOM      7  C   UNL A   1      31.152  24.093  24.254  1.00  0.00     0.056 C 
BRANCH   6   8
ATOM      8  N   UNL A   1      32.452  26.250  24.103  1.00  0.00    -0.334 N 
ATOM      9  C   UNL A   1      31.861  27.217  23.369  1.00  0.00     0.223 C 
ATOM     10  H   UNL A   1      33.434  26.296  24.035  1.00  0.00     0.164 HD
ATOM     11  O   UNL A   1      32.585  27.891  22.630  1.00  0.00    -0.275 OA
BRANCH   9  12
ATOM     12  C   UNL A   1      30.389  27.481  23.427  1.00  0.00     0.128 C 
BRANCH  12  13
ATOM     13  C   UNL A   1      30.069  28.543  22.391  1.00  0.00     0.170 C 
BRANCH  13  14
ATOM     14  O   UNL A   1      29.973  29.817  23.038  1.00  0.00    -0.377 OA
BRANCH  14  15
ATOM     15  C   UNL A   1      28.629  30.294  23.176  1.00  0.00     0.129 C 
ATOM     16  C   UNL A   1      27.942  30.201  21.819  1.00  0.00     0.093 C 
ATOM     17  C   UNL A   1      28.643  31.717  23.751  1.00  0.00     0.093 C 
ATOM     18  C   UNL A   1      28.329  31.345  20.893  1.00  0.00     0.263 C 
ATOM     19  C   UNL A   1      28.770  32.845  22.723  1.00  0.00     0.263 C 
ATOM     20  N   UNL A   1      27.993  32.626  21.507  1.00  0.00    -0.346 N 
ATOM     21  H   UNL A   1      27.000  32.635  21.740  1.00  0.00     0.346 HD
ATOM     22  H   UNL A   1      28.212  33.371  20.844  1.00  0.00     0.346 HD
ENDBRANCH  14  15
ENDBRANCH  13  14
ENDBRANCH  12  13
ENDBRANCH   9  12
ENDBRANCH   6   8
BRANCH   6  23
ATOM     23  C   UNL A   1      33.333  24.332  25.326  1.00  0.00     0.420 C 
ATOM     24  F   UNL A   1      33.127  23.021  25.567  1.00  0.00    -0.168 F 
ATOM     25  F   UNL A   1      34.171  24.399  24.246  1.00  0.00    -0.168 F 
ATOM     26  F   UNL A   1      34.037  24.860  26.349  1.00  0.00    -0.168 F 
ENDBRANCH   6  23
ENDBRANCH   3   6
ENDBRANCH   1   2
BRANCH   1  27
ATOM     27  C   UNL A   1      32.015  29.185  27.312  1.00  0.00     0.023 C 
BRANCH  27  28
ATOM     28  C   UNL A   1      32.542  30.417  26.586  1.00  0.00     0.023 C 
BRANCH  28  29
ATOM     29  C   UNL A   1      33.371  31.393  27.413  1.00  0.00     0.116 C 
BRANCH  29  30
ATOM     30  N   UNL A   1      32.841  32.749  27.458  1.00  0.00    -0.352 N 
ATOM     31  C   UNL A   1      33.261  33.811  28.237  1.00  0.00     0.251 C 
ATOM     32  H   UNL A   1      32.086  32.933  26.854  1.00  0.00     0.163 HD
ATOM     33  O   UNL A   1      32.666  34.884  28.190  1.00  0.00    -0.269 OA
BRANCH  31  34
ATOM     34  C   UNL A   1      34.391  33.616  29.174  1.00  0.00     0.039 A 
ATOM     35  C   UNL A   1      34.178  32.899  30.354  1.00  0.00     0.014 A 
ATOM     36  C   UNL A   1      35.676  34.034  28.825  1.00  0.00     0.014 A 
ATOM     37  C   UNL A   1      35.276  32.491  31.117  1.00  0.00     0.010 A 
ATOM     38  C   UNL A   1      36.769  33.542  29.532  1.00  0.00     0.010 A 
ATOM     39  C   UNL A   1      36.585  32.747  30.675  1.00  0.00    -0.014 A 
BRANCH  39  40
ATOM     40  C   UNL A   1      37.771  32.175  31.371  1.00  0.00     0.031 A 
ATOM     41  C   UNL A   1      38.544  31.048  30.741  1.00  0.00     0.074 A 
ATOM     42  C   UNL A   1      38.095  32.603  32.610  1.00  0.00     0.049 A 
ATOM     43  N   UNL A   1      39.535  30.345  31.231  1.00  0.00    -0.248 NA
ATOM     44  C   UNL A   1      38.119  30.631  29.398  1.00  0.00     0.031 C 
ATOM     45  C   UNL A   1      37.391  33.647  33.360  1.00  0.00     0.029 A 
ATOM     46  N   UNL A   1      39.096  32.207  33.465  1.00  0.00    -0.354 N 
ATOM     47  C   UNL A   1      39.833  29.389  30.266  1.00  0.00     0.074 A 
ATOM     48  C   UNL A   1      38.871  29.561  29.197  1.00  0.00     0.031 C 
ATOM     49  C   UNL A   1      37.999  33.830  34.543  1.00  0.00     0.029 A 
ATOM     50  C   UNL A   1      39.106  32.887  34.663  1.00  0.00     0.049 A 
ATOM     51  H   UNL A   1      39.745  31.502  33.242  1.00  0.00     0.167 HD
ATOM     52  C   UNL A   1      40.830  28.470  30.257  1.00  0.00     0.034 A 
ATOM     53  C   UNL A   1      39.909  32.762  35.738  1.00  0.00     0.034 A 
ATOM     54  C   UNL A   1      41.797  28.328  31.318  1.00  0.00     0.049 A 
ATOM     55  C   UNL A   1      41.013  31.734  35.708  1.00  0.00     0.074 A 
ATOM     56  C   UNL A   1      42.890  27.481  31.380  1.00  0.00     0.029 A 
ATOM     57  N   UNL A   1      41.786  29.047  32.506  1.00  0.00    -0.354 N 
ATOM     58  N   UNL A   1      41.317  30.877  34.761  1.00  0.00    -0.248 NA
ATOM     59  C   UNL A   1      41.885  31.663  36.888  1.00  0.00     0.031 C 
ATOM     60  C   UNL A   1      43.502  27.643  32.629  1.00  0.00     0.029 A 
ATOM     61  C   UNL A   1      42.835  28.643  33.318  1.00  0.00     0.049 A 
ATOM     62  H   UNL A   1      41.129  29.743  32.738  1.00  0.00     0.167 HD
ATOM     63  C   UNL A   1      42.438  30.188  35.220  1.00  0.00     0.074 A 
ATOM     64  C   UNL A   1      42.760  30.739  36.520  1.00  0.00     0.031 C 
ATOM     65  C   UNL A   1      43.140  29.195  34.617  1.00  0.00     0.034 A 
BRANCH  52  66
ATOM     66  C   UNL A   1      40.905  27.541  29.068  1.00  0.00     0.023 A 
ATOM     67  C   UNL A   1      41.840  27.738  28.037  1.00  0.00     0.031 A 
ATOM     68  C   UNL A   1      40.002  26.471  28.939  1.00  0.00     0.131 A 
ATOM     69  C   UNL A   1      41.793  26.940  26.885  1.00  0.00     0.055 A 
ATOM     70  C   UNL A   1      40.019  25.623  27.829  1.00  0.00     0.041 A 
ATOM     71  F   UNL A   1      39.074  26.242  29.881  1.00  0.00    -0.206 F 
ATOM     72  C   UNL A   1      40.906  25.866  26.784  1.00  0.00     0.022 A 
BRANCH  69  73
ATOM     73  S   UNL A   1      42.796  27.429  25.454  1.00  0.00     0.124 S 
ATOM     74  O   UNL A   1      42.798  26.200  24.663  1.00  0.00    -0.237 OA
ATOM     75  O   UNL A   1      42.036  28.543  24.901  1.00  0.00    -0.237 OA
ATOM     76  O   UNL A   1      44.086  27.783  26.045  1.00  0.00    -0.744 OA
ENDBRANCH  69  73
ENDBRANCH  52  66
BRANCH  53  77
ATOM     77  C   UNL A   1      39.713  33.627  36.939  1.00  0.00     0.023 A 
ATOM     78  C   UNL A   1      39.065  33.136  38.083  1.00  0.00     0.031 A 
ATOM     79  C   UNL A   1      40.131  34.969  36.943  1.00  0.00     0.131 A 
ATOM     80  C   UNL A   1      38.811  33.992  39.166  1.00  0.00     0.055 A 
ATOM     81  C   UNL A   1      39.920  35.804  38.043  1.00  0.00     0.041 A 
ATOM     82  F   UNL A   1      40.762  35.488  35.878  1.00  0.00    -0.206 F 
ATOM     83  C   UNL A   1      39.244  35.319  39.158  1.00  0.00     0.022 A 
BRANCH  80  84
ATOM     84  S   UNL A   1      37.832  33.364  40.559  1.00  0.00     0.124 S 
ATOM     85  O   UNL A   1      37.558  34.586  41.305  1.00  0.00    -0.237 OA
ATOM     86  O   UNL A   1      36.694  32.755  39.879  1.00  0.00    -0.237 OA
ATOM     87  O   UNL A   1      38.740  32.422  41.214  1.00  0.00    -0.744 OA
ENDBRANCH  80  84
ENDBRANCH  53  77
BRANCH  65  88
ATOM     88  C   UNL A   1      44.357  28.678  35.344  1.00  0.00     0.023 A 
ATOM     89  C   UNL A   1      44.271  27.647  36.296  1.00  0.00     0.031 A 
ATOM     90  C   UNL A   1      45.623  29.234  35.084  1.00  0.00     0.131 A 
ATOM     91  C   UNL A   1      45.419  27.240  36.991  1.00  0.00     0.055 A 
ATOM     92  C   UNL A   1      46.771  28.784  35.736  1.00  0.00     0.041 A 
ATOM     93  F   UNL A   1      45.763  30.223  34.186  1.00  0.00    -0.206 F 
ATOM     94  C   UNL A   1      46.671  27.790  36.705  1.00  0.00     0.022 A 
BRANCH  91  95
ATOM     95  S   UNL A   1      45.242  26.040  38.340  1.00  0.00     0.124 S 
ATOM     96  O   UNL A   1      46.529  26.155  39.019  1.00  0.00    -0.237 OA
ATOM     97  O   UNL A   1      44.088  26.555  39.068  1.00  0.00    -0.237 OA
ATOM     98  O   UNL A   1      45.021  24.773  37.645  1.00  0.00    -0.744 OA
ENDBRANCH  91  95
ENDBRANCH  65  88
ENDBRANCH  39  40
ENDBRANCH  31  34
ENDBRANCH  29  30
ENDBRANCH  28  29
ENDBRANCH  27  28
ENDBRANCH   1  27
TORSDOF 20
ENDMDL
MODEL 2
REMARK VINA RESULT:     -11.3      2.023      2.467
REMARK SMILES C[C@@](NC(=O)CCOC1CC[NH2+]CC1)(C(=O)NCCCCNC(=O)c1ccc(-c2c3nc(c(-c4cc(S(=O)(=O)[O-])ccc4F)c4ccc([nH]4)c(-c4cc(S(=O)(=O)[O-])ccc4F)c4nc(c(-c5cc(S(=O)(=O)[O-])ccc5F)c5ccc2[nH]5)C=C4)C=C3)cc1)C(F)(F)F
REMARK SMILES IDX 18 1 17 2 15 3 16 4 2 6 1 7 3 8 4 9 5 11 6 12 7 13 8 14 9 15
REMARK SMILES IDX 10 16 14 17 11 18 13 19 12 20 88 23 89 24 90 25 91 26 19 27
REMARK SMILES IDX 20 28 21 29 22 30 23 31 24 33 25 34 26 35 87 36 27 37 86 38
REMARK SMILES IDX 28 39 29 40 30 41 80 42 31 43 85 44 79 45 81 46 32 47 84 48
REMARK SMILES IDX 78 49 77 50 33 52 65 53 45 54 64 55 46 56 49 57 63 58 82 59
REMARK SMILES IDX 47 60 48 61 62 63 83 64 50 65 34 66 35 67 43 68 36 69 42 70
REMARK SMILES IDX 44 71 41 72 37 73 38 74 39 75 40 76 66 77 67 78 75 79 68 80
REMARK SMILES IDX 74 81 76 82 73 83 69 84 70 85 71 86 72 87 51 88 52 89 60 90
REMARK SMILES IDX 53 91 59 92 61 93 58 94 54 95 55 96 56 97 57 98
REMARK H PARENT 17 5 3 10 12 21 12 22 22 32 81 51 49 62
REMARK Flexibility Score: inf
ROOT
ATOM      1  C   UNL A   1      31.859  27.673  26.180  1.00  0.00     0.116 C 
ENDROOT
BRANCH   1   2
ATOM      2  N   UNL A   1      31.188  26.483  26.684  1.00  0.00    -0.354 N 
ATOM      3  C   UNL A   1      31.295  25.159  26.329  1.00  0.00     0.254 C 
ATOM      4  O   UNL A   1      31.081  24.364  27.250  1.00  0.00    -0.272 OA
ATOM      5  H   UNL A   1      30.544  26.657  27.408  1.00  0.00     0.163 HD
BRANCH   3   6
ATOM      6  C   UNL A   1      31.743  24.657  24.927  1.00  0.00     0.212 C 
ATOM      7  C   UNL A   1      31.077  23.344  24.508  1.00  0.00     0.056 C 
BRANCH   6   8
ATOM      8  N   UNL A   1      31.783  25.659  23.799  1.00  0.00    -0.334 N 
ATOM      9  C   UNL A   1      30.901  26.421  23.118  1.00  0.00     0.223 C 
ATOM     10  H   UNL A   1      32.702  25.791  23.469  1.00  0.00     0.164 HD
ATOM     11  O   UNL A   1      31.321  27.027  22.127  1.00  0.00    -0.275 OA
BRANCH   9  12
ATOM     12  C   UNL A   1      29.466  26.543  23.524  1.00  0.00     0.128 C 
BRANCH  12  13
ATOM     13  C   UNL A   1      28.944  27.863  22.985  1.00  0.00     0.170 C 
BRANCH  13  14
ATOM     14  O   UNL A   1      29.316  28.917  23.880  1.00  0.00    -0.377 OA
BRANCH  14  15
ATOM     15  C   UNL A   1      29.782  30.099  23.218  1.00  0.00     0.129 C 
ATOM     16  C   UNL A   1      29.157  31.311  23.897  1.00  0.00     0.093 C 
ATOM     17  C   UNL A   1      29.460  30.012  21.720  1.00  0.00     0.093 C 
ATOM     18  C   UNL A   1      27.719  31.546  23.458  1.00  0.00     0.263 C 
ATOM     19  C   UNL A   1      28.075  30.519  21.310  1.00  0.00     0.263 C 
ATOM     20  N   UNL A   1      27.658  31.730  22.011  1.00  0.00    -0.346 N 
ATOM     21  H   UNL A   1      28.274  32.497  21.746  1.00  0.00     0.346 HD
ATOM     22  H   UNL A   1      26.693  31.939  21.751  1.00  0.00     0.346 HD
ENDBRANCH  14  15
ENDBRANCH  13  14
ENDBRANCH  12  13
ENDBRANCH   9  12
ENDBRANCH   6   8
BRANCH   6  23
ATOM     23  C   UNL A   1      33.240  24.264  25.170  1.00  0.00     0.420 C 
ATOM     24  F   UNL A   1      33.387  23.040  25.717  1.00  0.00    -0.168 F 
ATOM     25  F   UNL A   1      33.892  24.229  23.967  1.00  0.00    -0.168 F 
ATOM     26  F   UNL A   1      33.923  25.161  25.913  1.00  0.00    -0.168 F 
ENDBRANCH   6  23
ENDBRANCH   3   6
ENDBRANCH   1   2
BRANCH   1  27
ATOM     27  C   UNL A   1      32.065  28.805  27.183  1.00  0.00     0.023 C 
BRANCH  27  28
ATOM     28  C   UNL A   1      31.394  30.132  26.852  1.00  0.00     0.023 C 
BRANCH  28  29
ATOM     29  C   UNL A   1      32.283  31.212  26.245  1.00  0.00     0.116 C 
BRANCH  29  30
ATOM     30  N   UNL A   1      32.112  32.535  26.829  1.00  0.00    -0.352 N 
ATOM     31  C   UNL A   1      32.986  33.238  27.636  1.00  0.00     0.251 C 
ATOM     32  H   UNL A   1      31.263  32.987  26.621  1.00  0.00     0.163 HD
ATOM     33  O   UNL A   1      32.662  34.332  28.090  1.00  0.00    -0.269 OA
BRANCH  31  34
ATOM     34  C   UNL A   1      34.285  32.627  27.997  1.00  0.00     0.039 A 
ATOM     35  C   UNL A   1      35.420  33.439  28.071  1.00  0.00     0.014 A 
ATOM     36  C   UNL A   1      34.353  31.286  28.378  1.00  0.00     0.014 A 
ATOM     37  C   UNL A   1      36.589  32.936  28.651  1.00  0.00     0.010 A 
ATOM     38  C   UNL A   1      35.484  30.821  29.043  1.00  0.00     0.010 A 
ATOM     39  C   UNL A   1      36.609  31.646  29.206  1.00  0.00    -0.014 A 
BRANCH  39  40
ATOM     40  C   UNL A   1      37.778  31.148  29.983  1.00  0.00     0.031 A 
ATOM     41  C   UNL A   1      38.691  30.109  29.390  1.00  0.00     0.074 A 
ATOM     42  C   UNL A   1      37.965  31.559  31.256  1.00  0.00     0.049 A 
ATOM     43  N   UNL A   1      39.693  29.472  29.941  1.00  0.00    -0.248 NA
ATOM     44  C   UNL A   1      38.411  29.704  28.006  1.00  0.00     0.031 C 
ATOM     45  C   UNL A   1      37.118  32.518  31.972  1.00  0.00     0.029 A 
ATOM     46  N   UNL A   1      38.922  31.217  32.181  1.00  0.00    -0.354 N 
ATOM     47  C   UNL A   1      40.146  28.575  28.979  1.00  0.00     0.074 A 
ATOM     48  C   UNL A   1      39.263  28.705  27.839  1.00  0.00     0.031 C 
ATOM     49  C   UNL A   1      37.611  32.710  33.206  1.00  0.00     0.029 A 
ATOM     50  C   UNL A   1      38.779  31.855  33.392  1.00  0.00     0.049 A 
ATOM     51  H   UNL A   1      39.644  30.575  31.994  1.00  0.00     0.167 HD
ATOM     52  C   UNL A   1      41.214  27.741  29.030  1.00  0.00     0.034 A 
ATOM     53  C   UNL A   1      39.501  31.759  34.527  1.00  0.00     0.034 A 
ATOM     54  C   UNL A   1      42.100  27.641  30.163  1.00  0.00     0.049 A 
ATOM     55  C   UNL A   1      40.684  30.826  34.562  1.00  0.00     0.074 A 
ATOM     56  C   UNL A   1      43.251  26.883  30.294  1.00  0.00     0.029 A 
ATOM     57  N   UNL A   1      41.934  28.317  31.365  1.00  0.00    -0.354 N 
ATOM     58  N   UNL A   1      41.135  30.027  33.621  1.00  0.00    -0.248 NA
ATOM     59  C   UNL A   1      41.462  30.785  35.808  1.00  0.00     0.031 C 
ATOM     60  C   UNL A   1      43.745  27.052  31.593  1.00  0.00     0.029 A 
ATOM     61  C   UNL A   1      42.944  27.972  32.250  1.00  0.00     0.049 A 
ATOM     62  H   UNL A   1      41.205  28.950  31.560  1.00  0.00     0.167 HD
ATOM     63  C   UNL A   1      42.268  29.417  34.153  1.00  0.00     0.074 A 
ATOM     64  C   UNL A   1      42.437  29.947  35.489  1.00  0.00     0.031 C 
ATOM     65  C   UNL A   1      43.096  28.503  33.585  1.00  0.00     0.034 A 
BRANCH  52  66
ATOM     66  C   UNL A   1      41.461  26.860  27.827  1.00  0.00     0.023 A 
ATOM     67  C   UNL A   1      41.023  25.525  27.789  1.00  0.00     0.031 A 
ATOM     68  C   UNL A   1      42.182  27.346  26.722  1.00  0.00     0.131 A 
ATOM     69  C   UNL A   1      41.387  24.697  26.717  1.00  0.00     0.055 A 
ATOM     70  C   UNL A   1      42.464  26.541  25.615  1.00  0.00     0.041 A 
ATOM     71  F   UNL A   1      42.643  28.606  26.706  1.00  0.00    -0.206 F 
ATOM     72  C   UNL A   1      42.082  25.202  25.617  1.00  0.00     0.022 A 
BRANCH  69  73
ATOM     73  S   UNL A   1      41.079  22.915  26.860  1.00  0.00     0.124 S 
ATOM     74  O   UNL A   1      39.626  22.855  26.721  1.00  0.00    -0.237 OA
ATOM     75  O   UNL A   1      41.849  22.371  25.748  1.00  0.00    -0.237 OA
ATOM     76  O   UNL A   1      41.584  22.586  28.192  1.00  0.00    -0.744 OA
ENDBRANCH  69  73
ENDBRANCH  52  66
BRANCH  53  77
ATOM     77  C   UNL A   1      39.138  32.565  35.730  1.00  0.00     0.023 A 
ATOM     78  C   UNL A   1      39.626  33.870  35.899  1.00  0.00     0.031 A 
ATOM     79  C   UNL A   1      38.334  32.026  36.749  1.00  0.00     0.131 A 
ATOM     80  C   UNL A   1      39.347  34.577  37.079  1.00  0.00     0.055 A 
ATOM     81  C   UNL A   1      38.016  32.751  37.900  1.00  0.00     0.041 A 
ATOM     82  F   UNL A   1      37.833  30.785  36.636  1.00  0.00    -0.206 F 
ATOM     83  C   UNL A   1      38.535  34.031  38.075  1.00  0.00     0.022 A 
BRANCH  80  84
ATOM     84  S   UNL A   1      40.126  36.196  37.328  1.00  0.00     0.124 S 
ATOM     85  O   UNL A   1      39.280  36.777  38.364  1.00  0.00    -0.237 OA
ATOM     86  O   UNL A   1      41.477  35.823  37.735  1.00  0.00    -0.237 OA
ATOM     87  O   UNL A   1      40.026  36.826  36.013  1.00  0.00    -0.744 OA
ENDBRANCH  80  84
ENDBRANCH  53  77
BRANCH  65  88
ATOM     88  C   UNL A   1      44.289  28.062  34.396  1.00  0.00     0.023 A 
ATOM     89  C   UNL A   1      44.225  26.965  35.273  1.00  0.00     0.031 A 
ATOM     90  C   UNL A   1      45.507  28.758  34.295  1.00  0.00     0.131 A 
ATOM     91  C   UNL A   1      45.342  26.628  36.053  1.00  0.00     0.055 A 
ATOM     92  C   UNL A   1      46.632  28.381  35.029  1.00  0.00     0.041 A 
ATOM     93  F   UNL A   1      45.623  29.815  33.475  1.00  0.00    -0.206 F 
ATOM     94  C   UNL A   1      46.549  27.319  35.924  1.00  0.00     0.022 A 
BRANCH  91  95
ATOM     95  S   UNL A   1      45.170  25.326  37.305  1.00  0.00     0.124 S 
ATOM     96  O   UNL A   1      46.516  25.265  37.865  1.00  0.00    -0.237 OA
ATOM     97  O   UNL A   1      44.138  25.869  38.181  1.00  0.00    -0.237 OA
ATOM     98  O   UNL A   1      44.769  24.154  36.528  1.00  0.00    -0.744 OA
ENDBRANCH  91  95
ENDBRANCH  65  88
ENDBRANCH  39  40
ENDBRANCH  31  34
ENDBRANCH  29  30
ENDBRANCH  28  29
ENDBRANCH  27  28
ENDBRANCH   1  27
TORSDOF 20
ENDMDL
MODEL 3
REMARK VINA RESULT:     -11.3      2.508      4.193
REMARK SMILES C[C@@](NC(=O)CCOC1CC[NH2+]CC1)(C(=O)NCCCCNC(=O)c1ccc(-c2c3nc(c(-c4cc(S(=O)(=O)[O-])ccc4F)c4ccc([nH]4)c(-c4cc(S(=O)(=O)[O-])ccc4F)c4nc(c(-c5cc(S(=O)(=O)[O-])ccc5F)c5ccc2[nH]5)C=C4)C=C3)cc1)C(F)(F)F
REMARK SMILES IDX 18 1 17 2 15 3 16 4 2 6 1 7 3 8 4 9 5 11 6 12 7 13 8 14 9 15
REMARK SMILES IDX 10 16 14 17 11 18 13 19 12 20 88 23 89 24 90 25 91 26 19 27
REMARK SMILES IDX 20 28 21 29 22 30 23 31 24 33 25 34 26 35 87 36 27 37 86 38
REMARK SMILES IDX 28 39 29 40 30 41 80 42 31 43 85 44 79 45 81 46 32 47 84 48
REMARK SMILES IDX 78 49 77 50 33 52 65 53 45 54 64 55 46 56 49 57 63 58 82 59
REMARK SMILES IDX 47 60 48 61 62 63 83 64 50 65 34 66 35 67 43 68 36 69 42 70
REMARK SMILES IDX 44 71 41 72 37 73 38 74 39 75 40 76 66 77 67 78 75 79 68 80
REMARK SMILES IDX 74 81 76 82 73 83 69 84 70 85 71 86 72 87 51 88 52 89 60 90
REMARK SMILES IDX 53 91 59 92 61 93 58 94 54 95 55 96 56 97 57 98
REMARK H PARENT 17 5 3 10 12 21 12 22 22 32 81 51 49 62
REMARK Flexibility Score: inf
ROOT
ATOM      1  C   UNL A   1      32.196  27.535  26.371  1.00  0.00     0.116 C 
ENDROOT
BRANCH   1   2
ATOM      2  N   UNL A   1      31.006  27.191  25.607  1.00  0.00    -0.354 N 
ATOM      3  C   UNL A   1      30.806  27.032  24.255  1.00  0.00     0.254 C 
ATOM      4  O   UNL A   1      29.925  26.216  23.962  1.00  0.00    -0.272 OA
ATOM      5  H   UNL A   1      30.201  27.045  26.154  1.00  0.00     0.163 HD
BRANCH   3   6
ATOM      6  C   UNL A   1      31.659  27.720  23.152  1.00  0.00     0.212 C 
ATOM      7  C   UNL A   1      32.874  28.471  23.700  1.00  0.00     0.056 C 
BRANCH   6   8
ATOM      8  N   UNL A   1      31.996  26.917  21.918  1.00  0.00    -0.334 N 
ATOM      9  C   UNL A   1      32.801  25.881  21.599  1.00  0.00     0.223 C 
ATOM     10  H   UNL A   1      31.493  27.236  21.134  1.00  0.00     0.164 HD
ATOM     11  O   UNL A   1      32.910  25.595  20.402  1.00  0.00    -0.275 OA
BRANCH   9  12
ATOM     12  C   UNL A   1      33.547  25.097  22.633  1.00  0.00     0.128 C 
BRANCH  12  13
ATOM     13  C   UNL A   1      32.836  23.766  22.805  1.00  0.00     0.170 C 
BRANCH  13  14
ATOM     14  O   UNL A   1      32.754  23.455  24.200  1.00  0.00    -0.377 OA
BRANCH  14  15
ATOM     15  C   UNL A   1      33.912  22.783  24.711  1.00  0.00     0.129 C 
ATOM     16  C   UNL A   1      33.787  21.298  24.392  1.00  0.00     0.093 C 
ATOM     17  C   UNL A   1      34.055  23.070  26.211  1.00  0.00     0.093 C 
ATOM     18  C   UNL A   1      32.855  20.574  25.353  1.00  0.00     0.263 C 
ATOM     19  C   UNL A   1      33.290  22.124  27.142  1.00  0.00     0.263 C 
ATOM     20  N   UNL A   1      33.329  20.726  26.725  1.00  0.00    -0.346 N 
ATOM     21  H   UNL A   1      34.289  20.387  26.787  1.00  0.00     0.346 HD
ATOM     22  H   UNL A   1      32.718  20.187  27.341  1.00  0.00     0.346 HD
ENDBRANCH  14  15
ENDBRANCH  13  14
ENDBRANCH  12  13
ENDBRANCH   9  12
ENDBRANCH   6   8
BRANCH   6  23
ATOM     23  C   UNL A   1      30.706  28.855  22.645  1.00  0.00     0.420 C 
ATOM     24  F   UNL A   1      29.562  28.388  22.105  1.00  0.00    -0.168 F 
ATOM     25  F   UNL A   1      30.339  29.636  23.708  1.00  0.00    -0.168 F 
ATOM     26  F   UNL A   1      31.289  29.703  21.771  1.00  0.00    -0.168 F 
ENDBRANCH   6  23
ENDBRANCH   3   6
ENDBRANCH   1   2
BRANCH   1  27
ATOM     27  C   UNL A   1      32.035  28.648  27.402  1.00  0.00     0.023 C 
BRANCH  27  28
ATOM     28  C   UNL A   1      31.392  29.939  26.909  1.00  0.00     0.023 C 
BRANCH  28  29
ATOM     29  C   UNL A   1      32.331  30.987  26.322  1.00  0.00     0.116 C 
BRANCH  29  30
ATOM     30  N   UNL A   1      32.168  32.323  26.877  1.00  0.00    -0.352 N 
ATOM     31  C   UNL A   1      33.059  33.051  27.645  1.00  0.00     0.251 C 
ATOM     32  H   UNL A   1      31.312  32.767  26.680  1.00  0.00     0.163 HD
ATOM     33  O   UNL A   1      32.741  34.154  28.080  1.00  0.00    -0.269 OA
BRANCH  31  34
ATOM     34  C   UNL A   1      34.370  32.455  27.987  1.00  0.00     0.039 A 
ATOM     35  C   UNL A   1      35.494  33.281  28.054  1.00  0.00     0.014 A 
ATOM     36  C   UNL A   1      34.459  31.112  28.360  1.00  0.00     0.014 A 
ATOM     37  C   UNL A   1      36.676  32.790  28.618  1.00  0.00     0.010 A 
ATOM     38  C   UNL A   1      35.603  30.658  29.009  1.00  0.00     0.010 A 
ATOM     39  C   UNL A   1      36.719  31.497  29.165  1.00  0.00    -0.014 A 
BRANCH  39  40
ATOM     40  C   UNL A   1      37.903  31.010  29.927  1.00  0.00     0.031 A 
ATOM     41  C   UNL A   1      38.815  29.976  29.323  1.00  0.00     0.074 A 
ATOM     42  C   UNL A   1      38.105  31.427  31.195  1.00  0.00     0.049 A 
ATOM     43  N   UNL A   1      39.830  29.348  29.861  1.00  0.00    -0.248 NA
ATOM     44  C   UNL A   1      38.518  29.566  27.944  1.00  0.00     0.031 C 
ATOM     45  C   UNL A   1      37.262  32.380  31.921  1.00  0.00     0.029 A 
ATOM     46  N   UNL A   1      39.079  31.094  32.107  1.00  0.00    -0.354 N 
ATOM     47  C   UNL A   1      40.276  28.453  28.895  1.00  0.00     0.074 A 
ATOM     48  C   UNL A   1      39.375  28.572  27.767  1.00  0.00     0.031 C 
ATOM     49  C   UNL A   1      37.772  32.579  33.147  1.00  0.00     0.029 A 
ATOM     50  C   UNL A   1      38.949  31.734  33.319  1.00  0.00     0.049 A 
ATOM     51  H   UNL A   1      39.802  30.456  31.911  1.00  0.00     0.167 HD
ATOM     52  C   UNL A   1      41.351  27.626  28.932  1.00  0.00     0.034 A 
ATOM     53  C   UNL A   1      39.688  31.647  34.443  1.00  0.00     0.034 A 
ATOM     54  C   UNL A   1      42.254  27.536  30.052  1.00  0.00     0.049 A 
ATOM     55  C   UNL A   1      40.878  30.722  34.463  1.00  0.00     0.074 A 
ATOM     56  C   UNL A   1      43.412  26.787  30.168  1.00  0.00     0.029 A 
ATOM     57  N   UNL A   1      42.100  28.214  31.255  1.00  0.00    -0.354 N 
ATOM     58  N   UNL A   1      41.321  29.925  33.517  1.00  0.00    -0.248 NA
ATOM     59  C   UNL A   1      41.674  30.691  35.698  1.00  0.00     0.031 C 
ATOM     60  C   UNL A   1      43.923  26.964  31.459  1.00  0.00     0.029 A 
ATOM     61  C   UNL A   1      43.125  27.879  32.126  1.00  0.00     0.049 A 
ATOM     62  H   UNL A   1      41.369  28.842  31.459  1.00  0.00     0.167 HD
ATOM     63  C   UNL A   1      42.466  29.324  34.035  1.00  0.00     0.074 A 
ATOM     64  C   UNL A   1      42.651  29.860  35.367  1.00  0.00     0.031 C 
ATOM     65  C   UNL A   1      43.293  28.415  33.457  1.00  0.00     0.034 A 
BRANCH  52  66
ATOM     66  C   UNL A   1      41.587  26.744  27.727  1.00  0.00     0.023 A 
ATOM     67  C   UNL A   1      41.168  25.402  27.704  1.00  0.00     0.031 A 
ATOM     68  C   UNL A   1      42.278  27.236  26.607  1.00  0.00     0.131 A 
ATOM     69  C   UNL A   1      41.522  24.576  26.628  1.00  0.00     0.055 A 
ATOM     70  C   UNL A   1      42.550  26.430  25.498  1.00  0.00     0.041 A 
ATOM     71  F   UNL A   1      42.720  28.503  26.577  1.00  0.00    -0.206 F 
ATOM     72  C   UNL A   1      42.188  25.086  25.512  1.00  0.00     0.022 A 
BRANCH  69  73
ATOM     73  S   UNL A   1      41.244  22.790  26.785  1.00  0.00     0.124 S 
ATOM     74  O   UNL A   1      41.998  22.274  25.644  1.00  0.00    -0.237 OA
ATOM     75  O   UNL A   1      41.798  22.497  28.101  1.00  0.00    -0.237 OA
ATOM     76  O   UNL A   1      39.792  22.658  26.673  1.00  0.00    -0.744 OA
ENDBRANCH  69  73
ENDBRANCH  52  66
BRANCH  53  77
ATOM     77  C   UNL A   1      39.336  32.453  35.649  1.00  0.00     0.023 A 
ATOM     78  C   UNL A   1      38.543  31.912  36.672  1.00  0.00     0.031 A 
ATOM     79  C   UNL A   1      39.749  33.791  35.774  1.00  0.00     0.131 A 
ATOM     80  C   UNL A   1      38.148  32.715  37.754  1.00  0.00     0.055 A 
ATOM     81  C   UNL A   1      39.397  34.572  36.877  1.00  0.00     0.041 A 
ATOM     82  F   UNL A   1      40.516  34.357  34.828  1.00  0.00    -0.206 F 
ATOM     83  C   UNL A   1      38.580  34.038  37.869  1.00  0.00     0.022 A 
BRANCH  80  84
ATOM     84  S   UNL A   1      36.995  32.026  38.974  1.00  0.00     0.124 S 
ATOM     85  O   UNL A   1      37.035  30.605  38.650  1.00  0.00    -0.237 OA
ATOM     86  O   UNL A   1      37.618  32.418  40.234  1.00  0.00    -0.237 OA
ATOM     87  O   UNL A   1      35.735  32.702  38.668  1.00  0.00    -0.744 OA
ENDBRANCH  80  84
ENDBRANCH  53  77
BRANCH  65  88
ATOM     88  C   UNL A   1      44.501  27.985  34.252  1.00  0.00     0.023 A 
ATOM     89  C   UNL A   1      44.466  26.874  35.112  1.00  0.00     0.031 A 
ATOM     90  C   UNL A   1      45.705  28.707  34.152  1.00  0.00     0.131 A 
ATOM     91  C   UNL A   1      45.595  26.547  35.878  1.00  0.00     0.055 A 
ATOM     92  C   UNL A   1      46.842  28.341  34.872  1.00  0.00     0.041 A 
ATOM     93  F   UNL A   1      45.793  29.778  33.348  1.00  0.00    -0.206 F 
ATOM     94  C   UNL A   1      46.787  27.263  35.750  1.00  0.00     0.022 A 
BRANCH  91  95
ATOM     95  S   UNL A   1      45.459  25.223  37.110  1.00  0.00     0.124 S 
ATOM     96  O   UNL A   1      46.386  24.225  36.587  1.00  0.00    -0.237 OA
ATOM     97  O   UNL A   1      45.872  25.895  38.338  1.00  0.00    -0.237 OA
ATOM     98  O   UNL A   1      44.048  24.846  37.055  1.00  0.00    -0.744 OA
ENDBRANCH  91  95
ENDBRANCH  65  88
ENDBRANCH  39  40
ENDBRANCH  31  34
ENDBRANCH  29  30
ENDBRANCH  28  29
ENDBRANCH  27  28
ENDBRANCH   1  27
TORSDOF 20
ENDMDL
