MODEL 1
REMARK VINA RESULT:     -11.5      0.000      0.000
REMARK SMILES O=C(NCCCCNC(=O)[C@@]1([NH2+]C2CC2)CCC[C@@H](Sc2ncn[nH]2)C1)c1ccc(-c2c3nc(c(-c4cc(S(=O)(=O)[O-])ccc4F)c4ccc([nH]4)c(-c4cc(S(=O)(=O)[O-])ccc4F)c4nc(c(-c5cc(S(=O)(=O)[O-])ccc5F)c5ccc2[nH]5)C=C4)C=C3)cc1
REMARK SMILES IDX 5 1 4 2 3 3 1 4 2 5 27 7 28 8 89 9 29 10 88 11 30 12 31 13
REMARK SMILES IDX 32 14 82 15 33 16 87 17 81 18 83 19 34 20 86 21 80 22 79 23
REMARK SMILES IDX 35 25 67 26 47 27 66 28 48 29 51 30 65 31 84 32 49 33 50 34
REMARK SMILES IDX 64 36 85 37 52 38 36 39 37 40 45 41 38 42 44 43 46 44 43 45
REMARK SMILES IDX 39 46 40 47 41 48 42 49 68 50 69 51 77 52 70 53 76 54 78 55
REMARK SMILES IDX 75 56 71 57 72 58 73 59 74 60 53 61 54 62 62 63 55 64 61 65
REMARK SMILES IDX 63 66 60 67 56 68 57 69 58 70 59 71 6 72 7 73 8 74 9 75
REMARK SMILES IDX 10 77 11 78 16 79 26 80 17 81 19 82 18 83 12 84 13 87 14 88
REMARK SMILES IDX 15 89 20 90 21 91 22 92 25 93 23 94 24 95
REMARK H PARENT 3 6 83 24 51 35 8 76 12 85 12 86 25 96
REMARK Flexibility Score: inf
ROOT
ATOM      1  C   UNL A   1      34.683  22.132  26.213  1.00  0.00     0.023 C 
ENDROOT
BRANCH   1   2
ATOM      2  C   UNL A   1      36.113  22.619  26.021  1.00  0.00     0.116 C 
BRANCH   2   3
ATOM      3  N   UNL A   1      37.066  21.534  25.821  1.00  0.00    -0.352 N 
ATOM      4  O   UNL A   1      39.098  20.574  25.622  1.00  0.00    -0.269 OA
ATOM      5  C   UNL A   1      38.436  21.547  25.952  1.00  0.00     0.251 C 
ATOM      6  H   UNL A   1      36.675  20.671  25.555  1.00  0.00     0.163 HD
BRANCH   5   7
ATOM      7  C   UNL A   1      39.090  22.766  26.474  1.00  0.00     0.039 A 
ATOM      8  C   UNL A   1      38.633  24.024  26.079  1.00  0.00     0.014 A 
ATOM      9  C   UNL A   1      40.199  22.647  27.316  1.00  0.00     0.014 A 
ATOM     10  C   UNL A   1      39.385  25.151  26.381  1.00  0.00     0.010 A 
ATOM     11  C   UNL A   1      40.898  23.795  27.700  1.00  0.00     0.010 A 
ATOM     12  C   UNL A   1      40.521  25.053  27.202  1.00  0.00    -0.014 A 
BRANCH  12  13
ATOM     13  C   UNL A   1      41.266  26.291  27.546  1.00  0.00     0.031 A 
ATOM     14  C   UNL A   1      42.633  26.561  26.978  1.00  0.00     0.074 A 
ATOM     15  C   UNL A   1      40.667  27.199  28.340  1.00  0.00     0.049 A 
ATOM     16  N   UNL A   1      43.406  27.604  27.153  1.00  0.00    -0.248 NA
ATOM     17  C   UNL A   1      43.211  25.526  26.110  1.00  0.00     0.031 C 
ATOM     18  C   UNL A   1      39.341  27.038  28.945  1.00  0.00     0.029 A 
ATOM     19  N   UNL A   1      41.068  28.442  28.752  1.00  0.00    -0.354 N 
ATOM     20  C   UNL A   1      44.569  27.344  26.435  1.00  0.00     0.074 A 
ATOM     21  C   UNL A   1      44.409  26.030  25.848  1.00  0.00     0.031 C 
ATOM     22  C   UNL A   1      39.015  28.161  29.597  1.00  0.00     0.029 A 
ATOM     23  C   UNL A   1      40.134  29.092  29.524  1.00  0.00     0.049 A 
ATOM     24  H   UNL A   1      41.940  28.833  28.517  1.00  0.00     0.167 HD
ATOM     25  C   UNL A   1      45.663  28.134  26.278  1.00  0.00     0.034 A 
ATOM     26  C   UNL A   1      40.178  30.296  30.124  1.00  0.00     0.034 A 
ATOM     27  C   UNL A   1      45.796  29.446  26.868  1.00  0.00     0.049 A 
ATOM     28  C   UNL A   1      41.412  31.137  29.958  1.00  0.00     0.074 A 
ATOM     29  C   UNL A   1      46.847  30.341  26.756  1.00  0.00     0.029 A 
ATOM     30  N   UNL A   1      44.852  30.052  27.688  1.00  0.00    -0.354 N 
ATOM     31  N   UNL A   1      42.503  30.876  29.276  1.00  0.00    -0.248 NA
ATOM     32  C   UNL A   1      41.422  32.433  30.643  1.00  0.00     0.031 C 
ATOM     33  C   UNL A   1      46.565  31.456  27.555  1.00  0.00     0.029 A 
ATOM     34  C   UNL A   1      45.307  31.293  28.111  1.00  0.00     0.049 A 
ATOM     35  H   UNL A   1      43.983  29.658  27.932  1.00  0.00     0.167 HD
ATOM     36  C   UNL A   1      43.325  31.985  29.440  1.00  0.00     0.074 A 
ATOM     37  C   UNL A   1      42.592  32.925  30.264  1.00  0.00     0.031 C 
ATOM     38  C   UNL A   1      44.573  32.206  28.955  1.00  0.00     0.034 A 
BRANCH  25  39
ATOM     39  C   UNL A   1      46.817  27.574  25.480  1.00  0.00     0.023 A 
ATOM     40  C   UNL A   1      47.085  27.991  24.163  1.00  0.00     0.031 A 
ATOM     41  C   UNL A   1      47.652  26.588  26.037  1.00  0.00     0.131 A 
ATOM     42  C   UNL A   1      48.114  27.380  23.428  1.00  0.00     0.055 A 
ATOM     43  C   UNL A   1      48.721  26.037  25.327  1.00  0.00     0.041 A 
ATOM     44  F   UNL A   1      47.435  26.134  27.281  1.00  0.00    -0.206 F 
ATOM     45  C   UNL A   1      48.948  26.422  24.009  1.00  0.00     0.022 A 
BRANCH  42  46
ATOM     46  S   UNL A   1      48.258  27.752  21.659  1.00  0.00     0.124 S 
ATOM     47  O   UNL A   1      49.350  28.722  21.647  1.00  0.00    -0.237 OA
ATOM     48  O   UNL A   1      48.557  26.445  21.085  1.00  0.00    -0.237 OA
ATOM     49  O   UNL A   1      46.947  28.300  21.315  1.00  0.00    -0.744 OA
ENDBRANCH  42  46
ENDBRANCH  25  39
BRANCH  26  50
ATOM     50  C   UNL A   1      39.034  30.756  30.959  1.00  0.00     0.023 A 
ATOM     51  C   UNL A   1      38.045  31.600  30.433  1.00  0.00     0.031 A 
ATOM     52  C   UNL A   1      38.923  30.364  32.306  1.00  0.00     0.131 A 
ATOM     53  C   UNL A   1      37.003  32.052  31.259  1.00  0.00     0.055 A 
ATOM     54  C   UNL A   1      37.857  30.773  33.107  1.00  0.00     0.041 A 
ATOM     55  F   UNL A   1      39.841  29.552  32.855  1.00  0.00    -0.206 F 
ATOM     56  C   UNL A   1      36.894  31.632  32.587  1.00  0.00     0.022 A 
BRANCH  53  57
ATOM     57  S   UNL A   1      35.825  33.256  30.588  1.00  0.00     0.124 S 
ATOM     58  O   UNL A   1      35.639  34.154  31.722  1.00  0.00    -0.237 OA
ATOM     59  O   UNL A   1      36.562  33.800  29.453  1.00  0.00    -0.237 OA
ATOM     60  O   UNL A   1      34.664  32.438  30.242  1.00  0.00    -0.744 OA
ENDBRANCH  53  57
ENDBRANCH  26  50
BRANCH  38  61
ATOM     61  C   UNL A   1      45.198  33.536  29.293  1.00  0.00     0.023 A 
ATOM     62  C   UNL A   1      45.062  34.648  28.444  1.00  0.00     0.031 A 
ATOM     63  C   UNL A   1      45.974  33.680  30.457  1.00  0.00     0.131 A 
ATOM     64  C   UNL A   1      45.747  35.838  28.737  1.00  0.00     0.055 A 
ATOM     65  C   UNL A   1      46.605  34.883  30.773  1.00  0.00     0.041 A 
ATOM     66  F   UNL A   1      46.138  32.647  31.299  1.00  0.00    -0.206 F 
ATOM     67  C   UNL A   1      46.505  35.966  29.903  1.00  0.00     0.022 A 
BRANCH  64  68
ATOM     68  S   UNL A   1      45.714  37.183  27.521  1.00  0.00     0.124 S 
ATOM     69  O   UNL A   1      46.379  36.572  26.374  1.00  0.00    -0.237 OA
ATOM     70  O   UNL A   1      44.284  37.434  27.371  1.00  0.00    -0.237 OA
ATOM     71  O   UNL A   1      46.464  38.254  28.174  1.00  0.00    -0.744 OA
ENDBRANCH  64  68
ENDBRANCH  38  61
ENDBRANCH  12  13
ENDBRANCH   5   7
ENDBRANCH   2   3
ENDBRANCH   1   2
BRANCH   1  72
ATOM     72  C   UNL A   1      33.791  23.049  27.044  1.00  0.00     0.023 C 
BRANCH  72  73
ATOM     73  C   UNL A   1      33.238  24.255  26.297  1.00  0.00     0.116 C 
BRANCH  73  74
ATOM     74  N   UNL A   1      31.856  24.553  26.630  1.00  0.00    -0.351 N 
ATOM     75  C   UNL A   1      30.989  25.484  26.118  1.00  0.00     0.281 C 
ATOM     76  H   UNL A   1      31.477  23.992  27.345  1.00  0.00     0.163 HD
ATOM     77  O   UNL A   1      29.798  25.299  26.387  1.00  0.00    -0.268 OA
BRANCH  75  78
ATOM     78  C   UNL A   1      31.504  26.674  25.228  1.00  0.00     0.176 C 
ATOM     79  C   UNL A   1      30.388  27.233  24.310  1.00  0.00     0.079 C 
ATOM     80  C   UNL A   1      32.078  27.754  26.204  1.00  0.00     0.094 C 
ATOM     81  C   UNL A   1      30.738  28.566  23.663  1.00  0.00     0.008 C 
ATOM     82  C   UNL A   1      32.198  29.171  25.626  1.00  0.00     0.061 C 
ATOM     83  C   UNL A   1      31.032  29.603  24.734  1.00  0.00     0.015 C 
BRANCH  78  84
ATOM     84  N   UNL A   1      32.663  26.276  24.380  1.00  0.00    -0.331 N 
ATOM     85  H   UNL A   1      33.248  25.677  24.964  1.00  0.00     0.347 HD
ATOM     86  H   UNL A   1      33.019  27.181  24.075  1.00  0.00     0.347 HD
BRANCH  84  87
ATOM     87  C   UNL A   1      32.502  25.571  23.106  1.00  0.00     0.183 C 
ATOM     88  C   UNL A   1      33.041  25.972  21.764  1.00  0.00     0.071 C 
ATOM     89  C   UNL A   1      33.703  24.864  22.525  1.00  0.00     0.071 C 
ENDBRANCH  84  87
ENDBRANCH  78  84
BRANCH  82  90
ATOM     90  S   UNL A   1      32.518  30.425  26.933  1.00  0.00    -0.083 SA
BRANCH  90  91
ATOM     91  C   UNL A   1      34.187  30.200  27.299  1.00  0.00     0.183 A 
ATOM     92  N   UNL A   1      34.833  29.093  27.571  1.00  0.00    -0.210 NA
ATOM     93  N   UNL A   1      35.042  31.256  27.345  1.00  0.00    -0.254 N 
ATOM     94  C   UNL A   1      36.116  29.536  27.766  1.00  0.00     0.247 A 
ATOM     95  N   UNL A   1      36.284  30.859  27.671  1.00  0.00    -0.162 NA
ATOM     96  H   UNL A   1      34.785  32.189  27.163  1.00  0.00     0.192 HD
ENDBRANCH  90  91
ENDBRANCH  82  90
ENDBRANCH  75  78
ENDBRANCH  73  74
ENDBRANCH  72  73
ENDBRANCH   1  72
TORSDOF 18
ENDMDL
MODEL 2
REMARK VINA RESULT:     -11.4      2.313      3.170
REMARK SMILES O=C(NCCCCNC(=O)[C@@]1([NH2+]C2CC2)CCC[C@@H](Sc2ncn[nH]2)C1)c1ccc(-c2c3nc(c(-c4cc(S(=O)(=O)[O-])ccc4F)c4ccc([nH]4)c(-c4cc(S(=O)(=O)[O-])ccc4F)c4nc(c(-c5cc(S(=O)(=O)[O-])ccc5F)c5ccc2[nH]5)C=C4)C=C3)cc1
REMARK SMILES IDX 5 1 4 2 3 3 1 4 2 5 27 7 28 8 89 9 29 10 88 11 30 12 31 13
REMARK SMILES IDX 32 14 82 15 33 16 87 17 81 18 83 19 34 20 86 21 80 22 79 23
REMARK SMILES IDX 35 25 67 26 47 27 66 28 48 29 51 30 65 31 84 32 49 33 50 34
REMARK SMILES IDX 64 36 85 37 52 38 36 39 37 40 45 41 38 42 44 43 46 44 43 45
REMARK SMILES IDX 39 46 40 47 41 48 42 49 68 50 69 51 77 52 70 53 76 54 78 55
REMARK SMILES IDX 75 56 71 57 72 58 73 59 74 60 53 61 54 62 62 63 55 64 61 65
REMARK SMILES IDX 63 66 60 67 56 68 57 69 58 70 59 71 6 72 7 73 8 74 9 75
REMARK SMILES IDX 10 77 11 78 16 79 26 80 17 81 19 82 18 83 12 84 13 87 14 88
REMARK SMILES IDX 15 89 20 90 21 91 22 92 25 93 23 94 24 95
REMARK H PARENT 3 6 83 24 51 35 8 76 12 85 12 86 25 96
REMARK Flexibility Score: inf
ROOT
ATOM      1  C   UNL A   1      35.061  21.547  25.897  1.00  0.00     0.023 C 
ENDROOT
BRANCH   1   2
ATOM      2  C   UNL A   1      36.488  22.077  25.846  1.00  0.00     0.116 C 
BRANCH   2   3
ATOM      3  N   UNL A   1      37.487  21.023  25.716  1.00  0.00    -0.352 N 
ATOM      4  O   UNL A   1      39.557  20.128  25.665  1.00  0.00    -0.269 OA
ATOM      5  C   UNL A   1      38.843  21.079  25.946  1.00  0.00     0.251 C 
ATOM      6  H   UNL A   1      37.143  20.148  25.423  1.00  0.00     0.163 HD
BRANCH   5   7
ATOM      7  C   UNL A   1      39.419  22.318  26.513  1.00  0.00     0.039 A 
ATOM      8  C   UNL A   1      38.977  23.561  26.058  1.00  0.00     0.014 A 
ATOM      9  C   UNL A   1      40.442  22.231  27.460  1.00  0.00     0.014 A 
ATOM     10  C   UNL A   1      39.675  24.707  26.417  1.00  0.00     0.010 A 
ATOM     11  C   UNL A   1      41.078  23.398  27.895  1.00  0.00     0.010 A 
ATOM     12  C   UNL A   1      40.726  24.641  27.345  1.00  0.00    -0.014 A 
BRANCH  12  13
ATOM     13  C   UNL A   1      41.410  25.898  27.744  1.00  0.00     0.031 A 
ATOM     14  C   UNL A   1      42.815  26.198  27.295  1.00  0.00     0.074 A 
ATOM     15  C   UNL A   1      40.723  26.796  28.476  1.00  0.00     0.049 A 
ATOM     16  N   UNL A   1      43.545  27.260  27.529  1.00  0.00    -0.248 NA
ATOM     17  C   UNL A   1      43.490  25.172  26.488  1.00  0.00     0.031 C 
ATOM     18  C   UNL A   1      39.353  26.607  28.965  1.00  0.00     0.029 A 
ATOM     19  N   UNL A   1      41.058  28.051  28.912  1.00  0.00    -0.354 N 
ATOM     20  C   UNL A   1      44.772  27.024  26.917  1.00  0.00     0.074 A 
ATOM     21  C   UNL A   1      44.694  25.703  26.328  1.00  0.00     0.031 C 
ATOM     22  C   UNL A   1      38.946  27.726  29.578  1.00  0.00     0.029 A 
ATOM     23  C   UNL A   1      40.046  28.683  29.596  1.00  0.00     0.049 A 
ATOM     24  H   UNL A   1      41.938  28.461  28.752  1.00  0.00     0.167 HD
ATOM     25  C   UNL A   1      45.856  27.838  26.850  1.00  0.00     0.034 A 
ATOM     26  C   UNL A   1      40.009  29.891  30.188  1.00  0.00     0.034 A 
ATOM     27  C   UNL A   1      45.908  29.156  27.440  1.00  0.00     0.049 A 
ATOM     28  C   UNL A   1      41.233  30.760  30.124  1.00  0.00     0.074 A 
ATOM     29  C   UNL A   1      46.944  30.075  27.413  1.00  0.00     0.029 A 
ATOM     30  N   UNL A   1      44.882  29.744  28.169  1.00  0.00    -0.354 N 
ATOM     31  N   UNL A   1      42.385  30.521  29.541  1.00  0.00    -0.248 NA
ATOM     32  C   UNL A   1      41.153  32.060  30.798  1.00  0.00     0.031 C 
ATOM     33  C   UNL A   1      46.568  31.188  28.176  1.00  0.00     0.029 A 
ATOM     34  C   UNL A   1      45.270  30.997  28.622  1.00  0.00     0.049 A 
ATOM     35  H   UNL A   1      44.004  29.331  28.340  1.00  0.00     0.167 HD
ATOM     36  C   UNL A   1      43.164  31.649  29.768  1.00  0.00     0.074 A 
ATOM     37  C   UNL A   1      42.340  32.577  30.519  1.00  0.00     0.031 C 
ATOM     38  C   UNL A   1      44.444  31.898  29.392  1.00  0.00     0.034 A 
BRANCH  25  39
ATOM     39  C   UNL A   1      47.089  27.301  26.159  1.00  0.00     0.023 A 
ATOM     40  C   UNL A   1      48.045  26.524  26.838  1.00  0.00     0.031 A 
ATOM     41  C   UNL A   1      47.323  27.591  24.802  1.00  0.00     0.131 A 
ATOM     42  C   UNL A   1      49.218  26.121  26.179  1.00  0.00     0.055 A 
ATOM     43  C   UNL A   1      48.456  27.124  24.132  1.00  0.00     0.041 A 
ATOM     44  F   UNL A   1      46.458  28.345  24.106  1.00  0.00    -0.206 F 
ATOM     45  C   UNL A   1      49.419  26.397  24.824  1.00  0.00     0.022 A 
BRANCH  42  46
ATOM     46  S   UNL A   1      50.542  25.354  27.153  1.00  0.00     0.124 S 
ATOM     47  O   UNL A   1      49.842  24.234  27.777  1.00  0.00    -0.237 OA
ATOM     48  O   UNL A   1      51.523  25.004  26.132  1.00  0.00    -0.237 OA
ATOM     49  O   UNL A   1      50.950  26.413  28.073  1.00  0.00    -0.744 OA
ENDBRANCH  42  46
ENDBRANCH  25  39
BRANCH  26  50
ATOM     50  C   UNL A   1      38.787  30.328  30.917  1.00  0.00     0.023 A 
ATOM     51  C   UNL A   1      37.743  30.989  30.253  1.00  0.00     0.031 A 
ATOM     52  C   UNL A   1      38.652  30.098  32.299  1.00  0.00     0.131 A 
ATOM     53  C   UNL A   1      36.623  31.428  30.977  1.00  0.00     0.055 A 
ATOM     54  C   UNL A   1      37.514  30.489  33.004  1.00  0.00     0.041 A 
ATOM     55  F   UNL A   1      39.620  29.464  32.980  1.00  0.00    -0.206 F 
ATOM     56  C   UNL A   1      36.495  31.169  32.344  1.00  0.00     0.022 A 
BRANCH  53  57
ATOM     57  S   UNL A   1      35.363  32.407  30.116  1.00  0.00     0.124 S 
ATOM     58  O   UNL A   1      35.026  31.540  28.993  1.00  0.00    -0.237 OA
ATOM     59  O   UNL A   1      34.338  32.553  31.145  1.00  0.00    -0.237 OA
ATOM     60  O   UNL A   1      36.071  33.637  29.766  1.00  0.00    -0.744 OA
ENDBRANCH  53  57
ENDBRANCH  26  50
BRANCH  38  61
ATOM     61  C   UNL A   1      45.006  33.244  29.773  1.00  0.00     0.023 A 
ATOM     62  C   UNL A   1      44.839  34.370  28.948  1.00  0.00     0.031 A 
ATOM     63  C   UNL A   1      45.755  33.391  30.954  1.00  0.00     0.131 A 
ATOM     64  C   UNL A   1      45.467  35.580  29.283  1.00  0.00     0.055 A 
ATOM     65  C   UNL A   1      46.328  34.612  31.311  1.00  0.00     0.041 A 
ATOM     66  F   UNL A   1      45.947  32.346  31.775  1.00  0.00    -0.206 F 
ATOM     67  C   UNL A   1      46.199  35.710  30.466  1.00  0.00     0.022 A 
BRANCH  64  68
ATOM     68  S   UNL A   1      45.400  36.952  28.099  1.00  0.00     0.124 S 
ATOM     69  O   UNL A   1      44.939  38.054  28.937  1.00  0.00    -0.237 OA
ATOM     70  O   UNL A   1      46.783  37.036  27.640  1.00  0.00    -0.237 OA
ATOM     71  O   UNL A   1      44.442  36.493  27.095  1.00  0.00    -0.744 OA
ENDBRANCH  64  68
ENDBRANCH  38  61
ENDBRANCH  12  13
ENDBRANCH   5   7
ENDBRANCH   2   3
ENDBRANCH   1   2
BRANCH   1  72
ATOM     72  C   UNL A   1      34.517  21.021  24.573  1.00  0.00     0.023 C 
BRANCH  72  73
ATOM     73  C   UNL A   1      33.128  21.525  24.205  1.00  0.00     0.116 C 
BRANCH  73  74
ATOM     74  N   UNL A   1      33.089  22.232  22.937  1.00  0.00    -0.351 N 
ATOM     75  C   UNL A   1      33.050  23.574  22.656  1.00  0.00     0.281 C 
ATOM     76  H   UNL A   1      33.092  21.649  22.143  1.00  0.00     0.163 HD
ATOM     77  O   UNL A   1      33.329  23.877  21.492  1.00  0.00    -0.268 OA
BRANCH  75  78
ATOM     78  C   UNL A   1      32.702  24.628  23.769  1.00  0.00     0.176 C 
ATOM     79  C   UNL A   1      33.800  24.701  24.860  1.00  0.00     0.079 C 
ATOM     80  C   UNL A   1      32.483  25.997  23.043  1.00  0.00     0.094 C 
ATOM     81  C   UNL A   1      33.671  25.907  25.780  1.00  0.00     0.008 C 
ATOM     82  C   UNL A   1      32.601  27.243  23.931  1.00  0.00     0.061 C 
ATOM     83  C   UNL A   1      33.724  27.190  24.969  1.00  0.00     0.015 C 
BRANCH  78  84
ATOM     84  N   UNL A   1      31.398  24.336  24.427  1.00  0.00    -0.331 N 
ATOM     85  H   UNL A   1      30.955  23.607  23.866  1.00  0.00     0.347 HD
ATOM     86  H   UNL A   1      30.974  25.262  24.472  1.00  0.00     0.347 HD
BRANCH  84  87
ATOM     87  C   UNL A   1      31.300  23.893  25.820  1.00  0.00     0.183 C 
ATOM     88  C   UNL A   1      30.076  23.869  26.689  1.00  0.00     0.071 C 
ATOM     89  C   UNL A   1      30.593  22.590  26.107  1.00  0.00     0.071 C 
ENDBRANCH  84  87
ENDBRANCH  78  84
BRANCH  82  90
ATOM     90  S   UNL A   1      32.703  28.790  22.940  1.00  0.00    -0.083 SA
BRANCH  90  91
ATOM     91  C   UNL A   1      31.056  29.126  22.559  1.00  0.00     0.183 A 
ATOM     92  N   UNL A   1      29.966  28.633  23.094  1.00  0.00    -0.210 NA
ATOM     93  N   UNL A   1      30.730  30.005  21.575  1.00  0.00    -0.254 N 
ATOM     94  C   UNL A   1      28.975  29.272  22.393  1.00  0.00     0.247 A 
ATOM     95  N   UNL A   1      29.397  30.096  21.430  1.00  0.00    -0.162 NA
ATOM     96  H   UNL A   1      31.385  30.509  21.039  1.00  0.00     0.192 HD
ENDBRANCH  90  91
ENDBRANCH  82  90
ENDBRANCH  75  78
ENDBRANCH  73  74
ENDBRANCH  72  73
ENDBRANCH   1  72
TORSDOF 18
ENDMDL
MODEL 3
REMARK VINA RESULT:     -11.3      1.755      2.637
REMARK SMILES O=C(NCCCCNC(=O)[C@@]1([NH2+]C2CC2)CCC[C@@H](Sc2ncn[nH]2)C1)c1ccc(-c2c3nc(c(-c4cc(S(=O)(=O)[O-])ccc4F)c4ccc([nH]4)c(-c4cc(S(=O)(=O)[O-])ccc4F)c4nc(c(-c5cc(S(=O)(=O)[O-])ccc5F)c5ccc2[nH]5)C=C4)C=C3)cc1
REMARK SMILES IDX 5 1 4 2 3 3 1 4 2 5 27 7 28 8 89 9 29 10 88 11 30 12 31 13
REMARK SMILES IDX 32 14 82 15 33 16 87 17 81 18 83 19 34 20 86 21 80 22 79 23
REMARK SMILES IDX 35 25 67 26 47 27 66 28 48 29 51 30 65 31 84 32 49 33 50 34
REMARK SMILES IDX 64 36 85 37 52 38 36 39 37 40 45 41 38 42 44 43 46 44 43 45
REMARK SMILES IDX 39 46 40 47 41 48 42 49 68 50 69 51 77 52 70 53 76 54 78 55
REMARK SMILES IDX 75 56 71 57 72 58 73 59 74 60 53 61 54 62 62 63 55 64 61 65
REMARK SMILES IDX 63 66 60 67 56 68 57 69 58 70 59 71 6 72 7 73 8 74 9 75
REMARK SMILES IDX 10 77 11 78 16 79 26 80 17 81 19 82 18 83 12 84 13 87 14 88
REMARK SMILES IDX 15 89 20 90 21 91 22 92 25 93 23 94 24 95
REMARK H PARENT 3 6 83 24 51 35 8 76 12 85 12 86 25 96
REMARK Flexibility Score: inf
ROOT
ATOM      1  C   UNL A   1      35.888  21.879  25.737  1.00  0.00     0.023 C 
ENDROOT
BRANCH   1   2
ATOM      2  C   UNL A   1      37.285  21.975  25.138  1.00  0.00     0.116 C 
BRANCH   2   3
ATOM      3  N   UNL A   1      38.158  20.878  25.539  1.00  0.00    -0.352 N 
ATOM      4  O   UNL A   1      40.033  19.911  26.338  1.00  0.00    -0.269 OA
ATOM      5  C   UNL A   1      39.370  20.927  26.190  1.00  0.00     0.251 C 
ATOM      6  H   UNL A   1      37.835  19.977  25.313  1.00  0.00     0.163 HD
BRANCH   5   7
ATOM      7  C   UNL A   1      39.863  22.232  26.680  1.00  0.00     0.039 A 
ATOM      8  C   UNL A   1      39.354  23.415  26.142  1.00  0.00     0.014 A 
ATOM      9  C   UNL A   1      40.878  22.268  27.640  1.00  0.00     0.014 A 
ATOM     10  C   UNL A   1      39.978  24.621  26.432  1.00  0.00     0.010 A 
ATOM     11  C   UNL A   1      41.437  23.497  28.004  1.00  0.00     0.010 A 
ATOM     12  C   UNL A   1      41.019  24.679  27.372  1.00  0.00    -0.014 A 
BRANCH  12  13
ATOM     13  C   UNL A   1      41.622  25.998  27.694  1.00  0.00     0.031 A 
ATOM     14  C   UNL A   1      42.967  26.395  27.151  1.00  0.00     0.074 A 
ATOM     15  C   UNL A   1      40.909  26.861  28.445  1.00  0.00     0.049 A 
ATOM     16  N   UNL A   1      43.621  27.518  27.311  1.00  0.00    -0.248 NA
ATOM     17  C   UNL A   1      43.673  25.402  26.329  1.00  0.00     0.031 C 
ATOM     18  C   UNL A   1      39.591  26.578  29.024  1.00  0.00     0.029 A 
ATOM     19  N   UNL A   1      41.167  28.151  28.827  1.00  0.00    -0.354 N 
ATOM     20  C   UNL A   1      44.824  27.362  26.629  1.00  0.00     0.074 A 
ATOM     21  C   UNL A   1      44.818  26.021  26.080  1.00  0.00     0.031 C 
ATOM     22  C   UNL A   1      39.133  27.679  29.633  1.00  0.00     0.029 A 
ATOM     23  C   UNL A   1      40.150  28.721  29.557  1.00  0.00     0.049 A 
ATOM     24  H   UNL A   1      42.000  28.624  28.601  1.00  0.00     0.167 HD
ATOM     25  C   UNL A   1      45.833  28.257  26.473  1.00  0.00     0.034 A 
ATOM     26  C   UNL A   1      40.052  29.939  30.119  1.00  0.00     0.034 A 
ATOM     27  C   UNL A   1      45.813  29.593  27.024  1.00  0.00     0.049 A 
ATOM     28  C   UNL A   1      41.194  30.901  29.956  1.00  0.00     0.074 A 
ATOM     29  C   UNL A   1      46.767  30.590  26.909  1.00  0.00     0.029 A 
ATOM     30  N   UNL A   1      44.788  30.119  27.802  1.00  0.00    -0.354 N 
ATOM     31  N   UNL A   1      42.325  30.736  29.307  1.00  0.00    -0.248 NA
ATOM     32  C   UNL A   1      41.050  32.210  30.600  1.00  0.00     0.031 C 
ATOM     33  C   UNL A   1      46.349  31.692  27.665  1.00  0.00     0.029 A 
ATOM     34  C   UNL A   1      45.100  31.412  28.196  1.00  0.00     0.049 A 
ATOM     35  H   UNL A   1      43.959  29.643  28.038  1.00  0.00     0.167 HD
ATOM     36  C   UNL A   1      43.021  31.930  29.456  1.00  0.00     0.074 A 
ATOM     37  C   UNL A   1      42.172  32.811  30.233  1.00  0.00     0.031 C 
ATOM     38  C   UNL A   1      44.252  32.268  28.994  1.00  0.00     0.034 A 
BRANCH  25  39
ATOM     39  C   UNL A   1      47.061  27.799  25.720  1.00  0.00     0.023 A 
ATOM     40  C   UNL A   1      47.233  28.057  24.348  1.00  0.00     0.031 A 
ATOM     41  C   UNL A   1      48.068  27.072  26.381  1.00  0.00     0.131 A 
ATOM     42  C   UNL A   1      48.347  27.536  23.670  1.00  0.00     0.055 A 
ATOM     43  C   UNL A   1      49.211  26.621  25.718  1.00  0.00     0.041 A 
ATOM     44  F   UNL A   1      47.951  26.777  27.686  1.00  0.00    -0.206 F 
ATOM     45  C   UNL A   1      49.348  26.839  24.351  1.00  0.00     0.022 A 
BRANCH  42  46
ATOM     46  S   UNL A   1      48.401  27.661  21.861  1.00  0.00     0.124 S 
ATOM     47  O   UNL A   1      49.520  28.577  21.659  1.00  0.00    -0.237 OA
ATOM     48  O   UNL A   1      48.625  26.278  21.456  1.00  0.00    -0.237 OA
ATOM     49  O   UNL A   1      47.090  28.207  21.515  1.00  0.00    -0.744 OA
ENDBRANCH  42  46
ENDBRANCH  25  39
BRANCH  26  50
ATOM     50  C   UNL A   1      38.844  30.300  30.912  1.00  0.00     0.023 A 
ATOM     51  C   UNL A   1      37.810  31.066  30.352  1.00  0.00     0.031 A 
ATOM     52  C   UNL A   1      38.714  29.891  32.252  1.00  0.00     0.131 A 
ATOM     53  C   UNL A   1      36.705  31.426  31.140  1.00  0.00     0.055 A 
ATOM     54  C   UNL A   1      37.590  30.207  33.014  1.00  0.00     0.041 A 
ATOM     55  F   UNL A   1      39.673  29.152  32.832  1.00  0.00    -0.206 F 
ATOM     56  C   UNL A   1      36.581  30.990  32.461  1.00  0.00     0.022 A 
BRANCH  53  57
ATOM     57  S   UNL A   1      35.460  32.537  30.430  1.00  0.00     0.124 S 
ATOM     58  O   UNL A   1      36.152  33.821  30.463  1.00  0.00    -0.237 OA
ATOM     59  O   UNL A   1      35.251  31.954  29.109  1.00  0.00    -0.237 OA
ATOM     60  O   UNL A   1      34.331  32.413  31.350  1.00  0.00    -0.744 OA
ENDBRANCH  53  57
ENDBRANCH  26  50
BRANCH  38  61
ATOM     61  C   UNL A   1      44.725  33.665  29.304  1.00  0.00     0.023 A 
ATOM     62  C   UNL A   1      44.420  34.748  28.461  1.00  0.00     0.031 A 
ATOM     63  C   UNL A   1      45.527  33.908  30.433  1.00  0.00     0.131 A 
ATOM     64  C   UNL A   1      44.967  36.013  28.725  1.00  0.00     0.055 A 
ATOM     65  C   UNL A   1      46.020  35.180  30.722  1.00  0.00     0.041 A 
ATOM     66  F   UNL A   1      45.851  32.907  31.268  1.00  0.00    -0.206 F 
ATOM     67  C   UNL A   1      45.753  36.239  29.857  1.00  0.00     0.022 A 
BRANCH  64  68
ATOM     68  S   UNL A   1      44.720  37.338  27.511  1.00  0.00     0.124 S 
ATOM     69  O   UNL A   1      44.711  38.528  28.357  1.00  0.00    -0.237 OA
ATOM     70  O   UNL A   1      45.881  37.184  26.640  1.00  0.00    -0.237 OA
ATOM     71  O   UNL A   1      43.437  37.005  26.895  1.00  0.00    -0.744 OA
ENDBRANCH  64  68
ENDBRANCH  38  61
ENDBRANCH  12  13
ENDBRANCH   5   7
ENDBRANCH   2   3
ENDBRANCH   1   2
BRANCH   1  72
ATOM     72  C   UNL A   1      34.928  20.951  25.000  1.00  0.00     0.023 C 
BRANCH  72  73
ATOM     73  C   UNL A   1      33.585  21.572  24.640  1.00  0.00     0.116 C 
BRANCH  73  74
ATOM     74  N   UNL A   1      33.562  22.166  23.315  1.00  0.00    -0.351 N 
ATOM     75  C   UNL A   1      33.389  23.467  22.917  1.00  0.00     0.281 C 
ATOM     76  H   UNL A   1      33.693  21.527  22.578  1.00  0.00     0.163 HD
ATOM     77  O   UNL A   1      33.720  23.709  21.752  1.00  0.00    -0.268 OA
BRANCH  75  78
ATOM     78  C   UNL A   1      32.838  24.556  23.907  1.00  0.00     0.176 C 
ATOM     79  C   UNL A   1      33.819  24.821  25.078  1.00  0.00     0.079 C 
ATOM     80  C   UNL A   1      32.554  25.839  23.057  1.00  0.00     0.094 C 
ATOM     81  C   UNL A   1      33.487  26.069  25.884  1.00  0.00     0.008 C 
ATOM     82  C   UNL A   1      32.467  27.151  23.849  1.00  0.00     0.061 C 
ATOM     83  C   UNL A   1      33.489  27.289  24.980  1.00  0.00     0.015 C 
BRANCH  78  84
ATOM     84  N   UNL A   1      31.514  24.176  24.474  1.00  0.00    -0.331 N 
ATOM     85  H   UNL A   1      31.152  23.434  23.874  1.00  0.00     0.347 HD
ATOM     86  H   UNL A   1      31.034  25.075  24.505  1.00  0.00     0.347 HD
BRANCH  84  87
ATOM     87  C   UNL A   1      31.352  23.702  25.850  1.00  0.00     0.183 C 
ATOM     88  C   UNL A   1      30.163  23.885  26.748  1.00  0.00     0.071 C 
ATOM     89  C   UNL A   1      30.403  22.555  26.104  1.00  0.00     0.071 C 
ENDBRANCH  84  87
ENDBRANCH  78  84
BRANCH  82  90
ATOM     90  S   UNL A   1      32.507  28.624  22.749  1.00  0.00    -0.083 SA
BRANCH  90  91
ATOM     91  C   UNL A   1      30.872  29.165  22.750  1.00  0.00     0.183 A 
ATOM     92  N   UNL A   1      29.904  28.876  21.915  1.00  0.00    -0.210 NA
ATOM     93  N   UNL A   1      30.418  30.023  23.703  1.00  0.00    -0.254 N 
ATOM     94  C   UNL A   1      28.848  29.587  22.424  1.00  0.00     0.247 A 
ATOM     95  N   UNL A   1      29.125  30.332  23.499  1.00  0.00    -0.162 NA
ATOM     96  H   UNL A   1      30.964  30.371  24.444  1.00  0.00     0.192 HD
ENDBRANCH  90  91
ENDBRANCH  82  90
ENDBRANCH  75  78
ENDBRANCH  73  74
ENDBRANCH  72  73
ENDBRANCH   1  72
TORSDOF 18
ENDMDL
