MODEL 1
REMARK VINA RESULT:     -12.4      0.000      0.000
REMARK SMILES C[C@@H](NC(=O)[C@@H]1CC[C@@H]2CCCC[C@@H]2[NH2+]1)C(=O)NCCCCNC(=O)c1ccc(-c2c3nc(c(-c4cc(S(=O)(=O)[O-])ccc4F)c4ccc([nH]4)c(-c4cc(S(=O)(=O)[O-])ccc4F)c4nc(c(-c5cc(S(=O)(=O)[O-])ccc5F)c5ccc2[nH]5)C=C4)C=C3)cc1
REMARK SMILES IDX 21 1 20 2 19 3 18 4 16 5 17 6 2 8 1 9 3 10 4 11 5 13 6 14
REMARK SMILES IDX 7 15 15 16 8 17 14 18 9 21 13 22 10 23 12 24 11 25 22 26
REMARK SMILES IDX 23 27 24 28 25 30 26 31 27 32 88 33 28 34 87 35 29 36 30 37
REMARK SMILES IDX 31 38 81 39 32 40 86 41 80 42 82 43 33 44 85 45 79 46 78 47
REMARK SMILES IDX 34 49 66 50 46 51 65 52 47 53 50 54 64 55 83 56 48 57 49 58
REMARK SMILES IDX 63 60 84 61 51 62 35 63 36 64 44 65 37 66 43 67 45 68 42 69
REMARK SMILES IDX 38 70 39 71 40 72 41 73 67 74 68 75 76 76 69 77 75 78 77 79
REMARK SMILES IDX 74 80 70 81 71 82 72 83 73 84 52 85 53 86 61 87 54 88 60 89
REMARK SMILES IDX 62 90 59 91 55 92 56 93 57 94 58 95
REMARK H PARENT 18 7 3 12 15 19 15 20 23 29 82 48 50 59
REMARK Flexibility Score: inf
ROOT
ATOM      1  C   UNL A   1      35.886  21.120  25.067  1.00  0.00     0.023 C 
ENDROOT
BRANCH   1   2
ATOM      2  C   UNL A   1      35.026  21.445  26.299  1.00  0.00     0.023 C 
BRANCH   2   3
ATOM      3  C   UNL A   1      33.506  21.605  26.151  1.00  0.00     0.116 C 
BRANCH   3   4
ATOM      4  N   UNL A   1      32.943  20.963  24.983  1.00  0.00    -0.354 N 
ATOM      5  C   UNL A   1      32.621  21.481  23.761  1.00  0.00     0.242 C 
ATOM      6  O   UNL A   1      32.170  20.697  22.918  1.00  0.00    -0.273 OA
ATOM      7  H   UNL A   1      32.764  20.000  25.084  1.00  0.00     0.163 HD
BRANCH   5   8
ATOM      8  C   UNL A   1      32.686  22.993  23.443  1.00  0.00     0.168 C 
ATOM      9  C   UNL A   1      34.025  23.316  22.769  1.00  0.00     0.041 C 
BRANCH   8  10
ATOM     10  N   UNL A   1      31.586  23.618  22.691  1.00  0.00    -0.339 N 
ATOM     11  C   UNL A   1      31.228  24.930  22.895  1.00  0.00     0.278 C 
ATOM     12  H   UNL A   1      31.094  23.083  22.027  1.00  0.00     0.164 HD
ATOM     13  O   UNL A   1      31.698  25.775  22.124  1.00  0.00    -0.268 OA
BRANCH  11  14
ATOM     14  C   UNL A   1      30.156  25.313  23.953  1.00  0.00     0.272 C 
ATOM     15  C   UNL A   1      29.643  26.743  23.911  1.00  0.00     0.076 C 
ATOM     16  N   UNL A   1      30.653  24.984  25.323  1.00  0.00    -0.333 N 
ATOM     17  C   UNL A   1      30.721  27.698  24.388  1.00  0.00     0.016 C 
ATOM     18  C   UNL A   1      31.562  25.964  25.963  1.00  0.00     0.186 C 
ATOM     19  H   UNL A   1      31.151  24.095  25.264  1.00  0.00     0.347 HD
ATOM     20  H   UNL A   1      29.821  24.972  25.911  1.00  0.00     0.347 HD
ATOM     21  C   UNL A   1      31.045  27.405  25.842  1.00  0.00     0.048 C 
ATOM     22  C   UNL A   1      33.025  25.795  25.502  1.00  0.00     0.065 C 
ATOM     23  C   UNL A   1      32.039  28.430  26.397  1.00  0.00     0.010 C 
ATOM     24  C   UNL A   1      33.980  26.920  25.911  1.00  0.00     0.006 C 
ATOM     25  C   UNL A   1      33.407  28.321  25.739  1.00  0.00     0.001 C 
ENDBRANCH  11  14
ENDBRANCH   8  10
ENDBRANCH   5   8
ENDBRANCH   3   4
ENDBRANCH   2   3
ENDBRANCH   1   2
BRANCH   1  26
ATOM     26  C   UNL A   1      37.338  21.604  24.967  1.00  0.00     0.116 C 
BRANCH  26  27
ATOM     27  N   UNL A   1      38.356  20.652  25.377  1.00  0.00    -0.352 N 
ATOM     28  C   UNL A   1      39.488  20.863  26.137  1.00  0.00     0.251 C 
ATOM     29  H   UNL A   1      38.219  19.727  25.069  1.00  0.00     0.163 HD
ATOM     30  O   UNL A   1      40.255  19.927  26.346  1.00  0.00    -0.269 OA
BRANCH  28  31
ATOM     31  C   UNL A   1      39.807  22.214  26.654  1.00  0.00     0.039 A 
ATOM     32  C   UNL A   1      40.776  22.328  27.657  1.00  0.00     0.014 A 
ATOM     33  C   UNL A   1      39.182  23.360  26.156  1.00  0.00     0.014 A 
ATOM     34  C   UNL A   1      41.202  23.593  28.073  1.00  0.00     0.010 A 
ATOM     35  C   UNL A   1      39.637  24.624  26.541  1.00  0.00     0.010 A 
ATOM     36  C   UNL A   1      40.678  24.751  27.474  1.00  0.00    -0.014 A 
BRANCH  36  37
ATOM     37  C   UNL A   1      41.301  26.078  27.726  1.00  0.00     0.031 A 
ATOM     38  C   UNL A   1      42.693  26.392  27.264  1.00  0.00     0.074 A 
ATOM     39  C   UNL A   1      40.608  26.987  28.443  1.00  0.00     0.049 A 
ATOM     40  N   UNL A   1      43.389  27.490  27.427  1.00  0.00    -0.248 NA
ATOM     41  C   UNL A   1      43.403  25.329  26.542  1.00  0.00     0.031 C 
ATOM     42  C   UNL A   1      39.263  26.778  28.990  1.00  0.00     0.029 A 
ATOM     43  N   UNL A   1      40.934  28.258  28.845  1.00  0.00    -0.354 N 
ATOM     44  C   UNL A   1      44.619  27.256  26.822  1.00  0.00     0.074 A 
ATOM     45  C   UNL A   1      44.587  25.889  26.338  1.00  0.00     0.031 C 
ATOM     46  C   UNL A   1      38.877  27.885  29.642  1.00  0.00     0.029 A 
ATOM     47  C   UNL A   1      39.953  28.868  29.594  1.00  0.00     0.049 A 
ATOM     48  H   UNL A   1      41.788  28.693  28.620  1.00  0.00     0.167 HD
ATOM     49  C   UNL A   1      45.666  28.106  26.671  1.00  0.00     0.034 A 
ATOM     50  C   UNL A   1      39.925  30.077  30.188  1.00  0.00     0.034 A 
ATOM     51  C   UNL A   1      45.688  29.460  27.178  1.00  0.00     0.049 A 
ATOM     52  C   UNL A   1      41.109  30.995  30.031  1.00  0.00     0.074 A 
ATOM     53  C   UNL A   1      46.682  30.416  27.046  1.00  0.00     0.029 A 
ATOM     54  N   UNL A   1      44.677  30.046  27.931  1.00  0.00    -0.354 N 
ATOM     55  N   UNL A   1      42.240  30.779  29.401  1.00  0.00    -0.248 NA
ATOM     56  C   UNL A   1      41.006  32.321  30.651  1.00  0.00     0.031 C 
ATOM     57  C   UNL A   1      46.300  31.553  27.769  1.00  0.00     0.029 A 
ATOM     58  C   UNL A   1      45.037  31.337  28.294  1.00  0.00     0.049 A 
ATOM     59  H   UNL A   1      43.829  29.609  28.172  1.00  0.00     0.167 HD
ATOM     60  C   UNL A   1      42.974  31.954  29.529  1.00  0.00     0.074 A 
ATOM     61  C   UNL A   1      42.150  32.878  30.281  1.00  0.00     0.031 C 
ATOM     62  C   UNL A   1      44.215  32.244  29.061  1.00  0.00     0.034 A 
BRANCH  49  63
ATOM     63  C   UNL A   1      46.884  27.580  25.948  1.00  0.00     0.023 A 
ATOM     64  C   UNL A   1      47.150  27.923  24.612  1.00  0.00     0.031 A 
ATOM     65  C   UNL A   1      47.779  26.706  26.592  1.00  0.00     0.131 A 
ATOM     66  C   UNL A   1      48.234  27.340  23.939  1.00  0.00     0.055 A 
ATOM     67  C   UNL A   1      48.901  26.188  25.940  1.00  0.00     0.041 A 
ATOM     68  F   UNL A   1      47.570  26.329  27.863  1.00  0.00    -0.206 F 
ATOM     69  C   UNL A   1      49.125  26.492  24.601  1.00  0.00     0.022 A 
BRANCH  66  70
ATOM     70  S   UNL A   1      48.381  27.594  22.149  1.00  0.00     0.124 S 
ATOM     71  O   UNL A   1      48.607  26.231  21.674  1.00  0.00    -0.237 OA
ATOM     72  O   UNL A   1      47.091  28.183  21.807  1.00  0.00    -0.237 OA
ATOM     73  O   UNL A   1      49.530  28.489  22.022  1.00  0.00    -0.744 OA
ENDBRANCH  66  70
ENDBRANCH  49  63
BRANCH  50  74
ATOM     74  C   UNL A   1      38.742  30.490  30.994  1.00  0.00     0.023 A 
ATOM     75  C   UNL A   1      37.657  31.155  30.404  1.00  0.00     0.031 A 
ATOM     76  C   UNL A   1      38.693  30.245  32.378  1.00  0.00     0.131 A 
ATOM     77  C   UNL A   1      36.585  31.589  31.199  1.00  0.00     0.055 A 
ATOM     78  C   UNL A   1      37.605  30.637  33.158  1.00  0.00     0.041 A 
ATOM     79  F   UNL A   1      39.700  29.602  32.990  1.00  0.00    -0.206 F 
ATOM     80  C   UNL A   1      36.547  31.324  32.571  1.00  0.00     0.022 A 
BRANCH  77  81
ATOM     81  S   UNL A   1      35.271  32.571  30.427  1.00  0.00     0.124 S 
ATOM     82  O   UNL A   1      34.899  31.733  29.294  1.00  0.00    -0.237 OA
ATOM     83  O   UNL A   1      34.292  32.664  31.506  1.00  0.00    -0.237 OA
ATOM     84  O   UNL A   1      35.938  33.825  30.085  1.00  0.00    -0.744 OA
ENDBRANCH  77  81
ENDBRANCH  50  74
BRANCH  62  85
ATOM     85  C   UNL A   1      44.733  33.636  29.325  1.00  0.00     0.023 A 
ATOM     86  C   UNL A   1      44.511  34.692  28.424  1.00  0.00     0.031 A 
ATOM     87  C   UNL A   1      45.480  33.903  30.486  1.00  0.00     0.131 A 
ATOM     88  C   UNL A   1      45.076  35.953  28.670  1.00  0.00     0.055 A 
ATOM     89  C   UNL A   1      45.993  35.174  30.753  1.00  0.00     0.041 A 
ATOM     90  F   UNL A   1      45.726  32.931  31.378  1.00  0.00    -0.206 F 
ATOM     91  C   UNL A   1      45.803  36.203  29.837  1.00  0.00     0.022 A 
BRANCH  88  92
ATOM     92  S   UNL A   1      44.923  37.242  27.403  1.00  0.00     0.124 S 
ATOM     93  O   UNL A   1      45.172  38.456  28.174  1.00  0.00    -0.237 OA
ATOM     94  O   UNL A   1      45.962  36.868  26.449  1.00  0.00    -0.237 OA
ATOM     95  O   UNL A   1      43.553  37.086  26.918  1.00  0.00    -0.744 OA
ENDBRANCH  88  92
ENDBRANCH  62  85
ENDBRANCH  36  37
ENDBRANCH  28  31
ENDBRANCH  26  27
ENDBRANCH   1  26
TORSDOF 16
ENDMDL
MODEL 2
REMARK VINA RESULT:     -12.2      4.945     10.227
REMARK SMILES C[C@@H](NC(=O)[C@@H]1CC[C@@H]2CCCC[C@@H]2[NH2+]1)C(=O)NCCCCNC(=O)c1ccc(-c2c3nc(c(-c4cc(S(=O)(=O)[O-])ccc4F)c4ccc([nH]4)c(-c4cc(S(=O)(=O)[O-])ccc4F)c4nc(c(-c5cc(S(=O)(=O)[O-])ccc5F)c5ccc2[nH]5)C=C4)C=C3)cc1
REMARK SMILES IDX 21 1 20 2 19 3 18 4 16 5 17 6 2 8 1 9 3 10 4 11 5 13 6 14
REMARK SMILES IDX 7 15 15 16 8 17 14 18 9 21 13 22 10 23 12 24 11 25 22 26
REMARK SMILES IDX 23 27 24 28 25 30 26 31 27 32 88 33 28 34 87 35 29 36 30 37
REMARK SMILES IDX 31 38 81 39 32 40 86 41 80 42 82 43 33 44 85 45 79 46 78 47
REMARK SMILES IDX 34 49 66 50 46 51 65 52 47 53 50 54 64 55 83 56 48 57 49 58
REMARK SMILES IDX 63 60 84 61 51 62 35 63 36 64 44 65 37 66 43 67 45 68 42 69
REMARK SMILES IDX 38 70 39 71 40 72 41 73 67 74 68 75 76 76 69 77 75 78 77 79
REMARK SMILES IDX 74 80 70 81 71 82 72 83 73 84 52 85 53 86 61 87 54 88 60 89
REMARK SMILES IDX 62 90 59 91 55 92 56 93 57 94 58 95
REMARK H PARENT 18 7 3 12 15 19 15 20 23 29 82 48 50 59
REMARK Flexibility Score: inf
ROOT
ATOM      1  C   UNL A   1      32.111  29.887  25.365  1.00  0.00     0.023 C 
ENDROOT
BRANCH   1   2
ATOM      2  C   UNL A   1      33.240  29.125  24.652  1.00  0.00     0.023 C 
BRANCH   2   3
ATOM      3  C   UNL A   1      33.190  28.931  23.130  1.00  0.00     0.116 C 
BRANCH   3   4
ATOM      4  N   UNL A   1      31.859  28.953  22.562  1.00  0.00    -0.354 N 
ATOM      5  C   UNL A   1      30.881  28.000  22.569  1.00  0.00     0.242 C 
ATOM      6  O   UNL A   1      29.810  28.287  22.023  1.00  0.00    -0.273 OA
ATOM      7  H   UNL A   1      31.620  29.788  22.098  1.00  0.00     0.163 HD
BRANCH   5   8
ATOM      8  C   UNL A   1      31.102  26.569  23.114  1.00  0.00     0.168 C 
ATOM      9  C   UNL A   1      29.769  26.004  23.619  1.00  0.00     0.041 C 
BRANCH   8  10
ATOM     10  N   UNL A   1      31.778  25.573  22.268  1.00  0.00    -0.339 N 
ATOM     11  C   UNL A   1      32.459  24.509  22.812  1.00  0.00     0.278 C 
ATOM     12  H   UNL A   1      31.742  25.671  21.289  1.00  0.00     0.164 HD
ATOM     13  O   UNL A   1      31.856  23.432  22.899  1.00  0.00    -0.268 OA
BRANCH  11  14
ATOM     14  C   UNL A   1      33.970  24.616  23.155  1.00  0.00     0.272 C 
ATOM     15  C   UNL A   1      34.747  23.311  23.210  1.00  0.00     0.076 C 
ATOM     16  N   UNL A   1      34.149  25.376  24.430  1.00  0.00    -0.333 N 
ATOM     17  C   UNL A   1      34.337  22.510  24.432  1.00  0.00     0.016 C 
ATOM     18  C   UNL A   1      33.966  24.623  25.693  1.00  0.00     0.186 C 
ATOM     19  H   UNL A   1      33.476  26.142  24.428  1.00  0.00     0.347 HD
ATOM     20  H   UNL A   1      35.127  25.663  24.432  1.00  0.00     0.347 HD
ATOM     21  C   UNL A   1      34.710  23.280  25.686  1.00  0.00     0.048 C 
ATOM     22  C   UNL A   1      32.481  24.501  26.093  1.00  0.00     0.065 C 
ATOM     23  C   UNL A   1      34.427  22.449  26.941  1.00  0.00     0.010 C 
ATOM     24  C   UNL A   1      32.184  23.527  27.237  1.00  0.00     0.006 C 
ATOM     25  C   UNL A   1      32.939  22.207  27.147  1.00  0.00     0.001 C 
ENDBRANCH  11  14
ENDBRANCH   8  10
ENDBRANCH   5   8
ENDBRANCH   3   4
ENDBRANCH   2   3
ENDBRANCH   1   2
BRANCH   1  26
ATOM     26  C   UNL A   1      32.260  30.340  26.823  1.00  0.00     0.116 C 
BRANCH  26  27
ATOM     27  N   UNL A   1      32.320  31.775  27.040  1.00  0.00    -0.352 N 
ATOM     28  C   UNL A   1      33.347  32.532  27.565  1.00  0.00     0.251 C 
ATOM     29  H   UNL A   1      31.515  32.277  26.777  1.00  0.00     0.163 HD
ATOM     30  O   UNL A   1      33.191  33.743  27.705  1.00  0.00    -0.269 OA
BRANCH  28  31
ATOM     31  C   UNL A   1      34.608  31.891  28.003  1.00  0.00     0.039 A 
ATOM     32  C   UNL A   1      35.746  32.692  28.144  1.00  0.00     0.014 A 
ATOM     33  C   UNL A   1      34.678  30.526  28.292  1.00  0.00     0.014 A 
ATOM     34  C   UNL A   1      36.916  32.152  28.685  1.00  0.00     0.010 A 
ATOM     35  C   UNL A   1      35.834  29.995  28.872  1.00  0.00     0.010 A 
ATOM     36  C   UNL A   1      36.949  30.814  29.110  1.00  0.00    -0.014 A 
BRANCH  36  37
ATOM     37  C   UNL A   1      38.095  30.305  29.912  1.00  0.00     0.031 A 
ATOM     38  C   UNL A   1      38.337  30.771  31.317  1.00  0.00     0.074 A 
ATOM     39  C   UNL A   1      38.962  29.454  29.325  1.00  0.00     0.049 A 
ATOM     40  N   UNL A   1      39.303  30.445  32.140  1.00  0.00    -0.248 NA
ATOM     41  C   UNL A   1      37.382  31.742  31.862  1.00  0.00     0.031 C 
ATOM     42  C   UNL A   1      38.859  28.968  27.945  1.00  0.00     0.029 A 
ATOM     43  N   UNL A   1      40.101  28.855  29.802  1.00  0.00    -0.354 N 
ATOM     44  C   UNL A   1      39.071  31.166  33.306  1.00  0.00     0.074 A 
ATOM     45  C   UNL A   1      37.901  31.986  33.058  1.00  0.00     0.031 C 
ATOM     46  C   UNL A   1      39.883  28.137  27.694  1.00  0.00     0.029 A 
ATOM     47  C   UNL A   1      40.734  28.058  28.875  1.00  0.00     0.049 A 
ATOM     48  H   UNL A   1      40.434  28.983  30.719  1.00  0.00     0.167 HD
ATOM     49  C   UNL A   1      39.758  31.131  34.475  1.00  0.00     0.034 A 
ATOM     50  C   UNL A   1      41.879  27.351  28.959  1.00  0.00     0.034 A 
ATOM     51  C   UNL A   1      40.935  30.322  34.698  1.00  0.00     0.049 A 
ATOM     52  C   UNL A   1      42.641  27.349  30.258  1.00  0.00     0.074 A 
ATOM     53  C   UNL A   1      41.683  30.185  35.857  1.00  0.00     0.029 A 
ATOM     54  N   UNL A   1      41.548  29.525  33.739  1.00  0.00    -0.354 N 
ATOM     55  N   UNL A   1      42.371  27.989  31.373  1.00  0.00    -0.248 NA
ATOM     56  C   UNL A   1      43.850  26.520  30.316  1.00  0.00     0.031 C 
ATOM     57  C   UNL A   1      42.779  29.358  35.581  1.00  0.00     0.029 A 
ATOM     58  C   UNL A   1      42.679  28.920  34.270  1.00  0.00     0.049 A 
ATOM     59  H   UNL A   1      41.228  29.407  32.816  1.00  0.00     0.167 HD
ATOM     60  C   UNL A   1      43.366  27.618  32.271  1.00  0.00     0.074 A 
ATOM     61  C   UNL A   1      44.230  26.688  31.574  1.00  0.00     0.031 C 
ATOM     62  C   UNL A   1      43.545  28.008  33.560  1.00  0.00     0.034 A 
BRANCH  49  63
ATOM     63  C   UNL A   1      39.263  32.020  35.593  1.00  0.00     0.023 A 
ATOM     64  C   UNL A   1      39.652  33.368  35.687  1.00  0.00     0.031 A 
ATOM     65  C   UNL A   1      38.413  31.511  36.592  1.00  0.00     0.131 A 
ATOM     66  C   UNL A   1      39.255  34.139  36.790  1.00  0.00     0.055 A 
ATOM     67  C   UNL A   1      37.959  32.306  37.647  1.00  0.00     0.041 A 
ATOM     68  F   UNL A   1      38.020  30.228  36.566  1.00  0.00    -0.206 F 
ATOM     69  C   UNL A   1      38.393  33.623  37.759  1.00  0.00     0.022 A 
BRANCH  66  70
ATOM     70  S   UNL A   1      39.998  35.778  37.012  1.00  0.00     0.124 S 
ATOM     71  O   UNL A   1      39.286  36.269  38.190  1.00  0.00    -0.237 OA
ATOM     72  O   UNL A   1      41.409  35.463  37.205  1.00  0.00    -0.237 OA
ATOM     73  O   UNL A   1      39.678  36.473  35.766  1.00  0.00    -0.744 OA
ENDBRANCH  66  70
ENDBRANCH  49  63
BRANCH  50  74
ATOM     74  C   UNL A   1      42.380  26.593  27.780  1.00  0.00     0.023 A 
ATOM     75  C   UNL A   1      42.048  25.244  27.587  1.00  0.00     0.031 A 
ATOM     76  C   UNL A   1      43.225  27.206  26.837  1.00  0.00     0.131 A 
ATOM     77  C   UNL A   1      42.588  24.538  26.501  1.00  0.00     0.055 A 
ATOM     78  C   UNL A   1      43.724  26.514  25.733  1.00  0.00     0.041 A 
ATOM     79  F   UNL A   1      43.565  28.498  26.969  1.00  0.00    -0.206 F 
ATOM     80  C   UNL A   1      43.414  25.167  25.566  1.00  0.00     0.022 A 
BRANCH  77  81
ATOM     81  S   UNL A   1      42.253  22.761  26.365  1.00  0.00     0.124 S 
ATOM     82  O   UNL A   1      42.680  22.480  25.000  1.00  0.00    -0.237 OA
ATOM     83  O   UNL A   1      43.091  22.215  27.427  1.00  0.00    -0.237 OA
ATOM     84  O   UNL A   1      40.814  22.667  26.602  1.00  0.00    -0.744 OA
ENDBRANCH  77  81
ENDBRANCH  50  74
BRANCH  62  85
ATOM     85  C   UNL A   1      44.706  27.392  34.301  1.00  0.00     0.023 A 
ATOM     86  C   UNL A   1      44.554  26.235  35.085  1.00  0.00     0.031 A 
ATOM     87  C   UNL A   1      45.979  27.988  34.240  1.00  0.00     0.131 A 
ATOM     88  C   UNL A   1      45.643  25.740  35.820  1.00  0.00     0.055 A 
ATOM     89  C   UNL A   1      47.071  27.459  34.929  1.00  0.00     0.041 A 
ATOM     90  F   UNL A   1      46.179  29.097  33.510  1.00  0.00    -0.206 F 
ATOM     91  C   UNL A   1      46.904  26.337  35.734  1.00  0.00     0.022 A 
BRANCH  88  92
ATOM     92  S   UNL A   1      45.370  24.355  36.959  1.00  0.00     0.124 S 
ATOM     93  O   UNL A   1      46.562  24.415  37.800  1.00  0.00    -0.237 OA
ATOM     94  O   UNL A   1      44.115  24.725  37.606  1.00  0.00    -0.237 OA
ATOM     95  O   UNL A   1      45.292  23.193  36.076  1.00  0.00    -0.744 OA
ENDBRANCH  88  92
ENDBRANCH  62  85
ENDBRANCH  36  37
ENDBRANCH  28  31
ENDBRANCH  26  27
ENDBRANCH   1  26
TORSDOF 16
ENDMDL
MODEL 3
REMARK VINA RESULT:     -12.2      0.906      7.608
REMARK SMILES C[C@@H](NC(=O)[C@@H]1CC[C@@H]2CCCC[C@@H]2[NH2+]1)C(=O)NCCCCNC(=O)c1ccc(-c2c3nc(c(-c4cc(S(=O)(=O)[O-])ccc4F)c4ccc([nH]4)c(-c4cc(S(=O)(=O)[O-])ccc4F)c4nc(c(-c5cc(S(=O)(=O)[O-])ccc5F)c5ccc2[nH]5)C=C4)C=C3)cc1
REMARK SMILES IDX 21 1 20 2 19 3 18 4 16 5 17 6 2 8 1 9 3 10 4 11 5 13 6 14
REMARK SMILES IDX 7 15 15 16 8 17 14 18 9 21 13 22 10 23 12 24 11 25 22 26
REMARK SMILES IDX 23 27 24 28 25 30 26 31 27 32 88 33 28 34 87 35 29 36 30 37
REMARK SMILES IDX 31 38 81 39 32 40 86 41 80 42 82 43 33 44 85 45 79 46 78 47
REMARK SMILES IDX 34 49 66 50 46 51 65 52 47 53 50 54 64 55 83 56 48 57 49 58
REMARK SMILES IDX 63 60 84 61 51 62 35 63 36 64 44 65 37 66 43 67 45 68 42 69
REMARK SMILES IDX 38 70 39 71 40 72 41 73 67 74 68 75 76 76 69 77 75 78 77 79
REMARK SMILES IDX 74 80 70 81 71 82 72 83 73 84 52 85 53 86 61 87 54 88 60 89
REMARK SMILES IDX 62 90 59 91 55 92 56 93 57 94 58 95
REMARK H PARENT 18 7 3 12 15 19 15 20 23 29 82 48 50 59
REMARK Flexibility Score: inf
ROOT
ATOM      1  C   UNL A   1      36.050  21.030  25.384  1.00  0.00     0.023 C 
ENDROOT
BRANCH   1   2
ATOM      2  C   UNL A   1      35.466  21.867  26.534  1.00  0.00     0.023 C 
BRANCH   2   3
ATOM      3  C   UNL A   1      33.947  21.916  26.750  1.00  0.00     0.116 C 
BRANCH   3   4
ATOM      4  N   UNL A   1      33.222  20.793  26.196  1.00  0.00    -0.354 N 
ATOM      5  C   UNL A   1      32.693  20.613  24.950  1.00  0.00     0.242 C 
ATOM      6  O   UNL A   1      32.135  19.534  24.725  1.00  0.00    -0.273 OA
ATOM      7  H   UNL A   1      33.089  20.039  26.815  1.00  0.00     0.163 HD
BRANCH   5   8
ATOM      8  C   UNL A   1      32.663  21.728  23.878  1.00  0.00     0.168 C 
ATOM      9  C   UNL A   1      31.987  21.197  22.608  1.00  0.00     0.041 C 
BRANCH   8  10
ATOM     10  N   UNL A   1      32.107  23.045  24.226  1.00  0.00    -0.339 N 
ATOM     11  C   UNL A   1      31.534  23.859  23.276  1.00  0.00     0.278 C 
ATOM     12  H   UNL A   1      32.146  23.352  25.160  1.00  0.00     0.164 HD
ATOM     13  O   UNL A   1      30.303  23.819  23.159  1.00  0.00    -0.268 OA
BRANCH  11  14
ATOM     14  C   UNL A   1      32.384  24.898  22.493  1.00  0.00     0.272 C 
ATOM     15  C   UNL A   1      33.848  25.009  22.887  1.00  0.00     0.076 C 
ATOM     16  N   UNL A   1      31.730  26.240  22.555  1.00  0.00    -0.333 N 
ATOM     17  C   UNL A   1      33.973  25.660  24.253  1.00  0.00     0.016 C 
ATOM     18  C   UNL A   1      31.961  27.045  23.777  1.00  0.00     0.186 C 
ATOM     19  H   UNL A   1      30.724  26.096  22.467  1.00  0.00     0.347 HD
ATOM     20  H   UNL A   1      32.156  26.777  21.800  1.00  0.00     0.347 HD
ATOM     21  C   UNL A   1      33.441  27.080  24.183  1.00  0.00     0.048 C 
ATOM     22  C   UNL A   1      31.017  26.645  24.930  1.00  0.00     0.065 C 
ATOM     23  C   UNL A   1      33.666  27.812  25.510  1.00  0.00     0.010 C 
ATOM     24  C   UNL A   1      31.356  27.243  26.299  1.00  0.00     0.006 C 
ATOM     25  C   UNL A   1      32.840  27.219  26.642  1.00  0.00     0.001 C 
ENDBRANCH  11  14
ENDBRANCH   8  10
ENDBRANCH   5   8
ENDBRANCH   3   4
ENDBRANCH   2   3
ENDBRANCH   1   2
BRANCH   1  26
ATOM     26  C   UNL A   1      37.473  21.278  24.869  1.00  0.00     0.116 C 
BRANCH  26  27
ATOM     27  N   UNL A   1      38.472  20.299  25.264  1.00  0.00    -0.352 N 
ATOM     28  C   UNL A   1      39.598  20.472  26.041  1.00  0.00     0.251 C 
ATOM     29  H   UNL A   1      38.324  19.384  24.929  1.00  0.00     0.163 HD
ATOM     30  O   UNL A   1      40.349  19.518  26.233  1.00  0.00    -0.269 OA
BRANCH  28  31
ATOM     31  C   UNL A   1      39.932  21.802  26.599  1.00  0.00     0.039 A 
ATOM     32  C   UNL A   1      40.927  21.880  27.579  1.00  0.00     0.014 A 
ATOM     33  C   UNL A   1      39.297  22.966  26.158  1.00  0.00     0.014 A 
ATOM     34  C   UNL A   1      41.365  23.129  28.029  1.00  0.00     0.010 A 
ATOM     35  C   UNL A   1      39.763  24.215  26.577  1.00  0.00     0.010 A 
ATOM     36  C   UNL A   1      40.828  24.308  27.486  1.00  0.00    -0.014 A 
BRANCH  36  37
ATOM     37  C   UNL A   1      41.459  25.625  27.770  1.00  0.00     0.031 A 
ATOM     38  C   UNL A   1      40.721  26.705  28.505  1.00  0.00     0.074 A 
ATOM     39  C   UNL A   1      42.699  25.860  27.294  1.00  0.00     0.049 A 
ATOM     40  N   UNL A   1      41.118  27.916  28.809  1.00  0.00    -0.248 NA
ATOM     41  C   UNL A   1      39.354  26.392  28.938  1.00  0.00     0.031 C 
ATOM     42  C   UNL A   1      43.498  24.903  26.521  1.00  0.00     0.029 A 
ATOM     43  N   UNL A   1      43.502  26.969  27.377  1.00  0.00    -0.354 N 
ATOM     44  C   UNL A   1      40.053  28.511  29.476  1.00  0.00     0.074 A 
ATOM     45  C   UNL A   1      38.976  27.540  29.482  1.00  0.00     0.031 C 
ATOM     46  C   UNL A   1      44.678  25.463  26.214  1.00  0.00     0.029 A 
ATOM     47  C   UNL A   1      44.710  26.825  26.733  1.00  0.00     0.049 A 
ATOM     48  H   UNL A   1      43.240  27.791  27.851  1.00  0.00     0.167 HD
ATOM     49  C   UNL A   1      39.989  29.742  30.044  1.00  0.00     0.034 A 
ATOM     50  C   UNL A   1      45.726  27.694  26.565  1.00  0.00     0.034 A 
ATOM     51  C   UNL A   1      41.066  30.705  30.011  1.00  0.00     0.049 A 
ATOM     52  C   UNL A   1      45.623  29.065  27.180  1.00  0.00     0.074 A 
ATOM     53  C   UNL A   1      41.118  31.964  30.589  1.00  0.00     0.029 A 
ATOM     54  N   UNL A   1      42.277  30.525  29.352  1.00  0.00    -0.354 N 
ATOM     55  N   UNL A   1      44.631  29.589  27.863  1.00  0.00    -0.248 NA
ATOM     56  C   UNL A   1      46.778  29.955  27.016  1.00  0.00     0.031 C 
ATOM     57  C   UNL A   1      42.329  32.566  30.226  1.00  0.00     0.029 A 
ATOM     58  C   UNL A   1      43.066  31.659  29.483  1.00  0.00     0.049 A 
ATOM     59  H   UNL A   1      42.536  29.712  28.863  1.00  0.00     0.167 HD
ATOM     60  C   UNL A   1      45.056  30.862  28.230  1.00  0.00     0.074 A 
ATOM     61  C   UNL A   1      46.397  31.018  27.707  1.00  0.00     0.031 C 
ATOM     62  C   UNL A   1      44.397  31.813  28.941  1.00  0.00     0.034 A 
BRANCH  49  63
ATOM     63  C   UNL A   1      38.694  30.121  30.725  1.00  0.00     0.023 A 
ATOM     64  C   UNL A   1      37.677  30.807  30.039  1.00  0.00     0.031 A 
ATOM     65  C   UNL A   1      38.481  29.817  32.082  1.00  0.00     0.131 A 
ATOM     66  C   UNL A   1      36.529  31.232  30.725  1.00  0.00     0.055 A 
ATOM     67  C   UNL A   1      37.302  30.175  32.741  1.00  0.00     0.041 A 
ATOM     68  F   UNL A   1      39.421  29.178  32.795  1.00  0.00    -0.206 F 
ATOM     69  C   UNL A   1      36.325  30.900  32.066  1.00  0.00     0.022 A 
BRANCH  66  70
ATOM     70  S   UNL A   1      35.375  32.344  29.877  1.00  0.00     0.124 S 
ATOM     71  O   UNL A   1      34.867  31.487  28.809  1.00  0.00    -0.237 OA
ATOM     72  O   UNL A   1      34.426  32.679  30.933  1.00  0.00    -0.237 OA
ATOM     73  O   UNL A   1      36.226  33.446  29.430  1.00  0.00    -0.744 OA
ENDBRANCH  66  70
ENDBRANCH  49  63
BRANCH  50  74
ATOM     74  C   UNL A   1      46.926  27.302  25.775  1.00  0.00     0.023 A 
ATOM     75  C   UNL A   1      47.089  27.718  24.445  1.00  0.00     0.031 A 
ATOM     76  C   UNL A   1      47.920  26.479  26.336  1.00  0.00     0.131 A 
ATOM     77  C   UNL A   1      48.198  27.279  23.705  1.00  0.00     0.055 A 
ATOM     78  C   UNL A   1      49.044  26.082  25.611  1.00  0.00     0.041 A 
ATOM     79  F   UNL A   1      47.817  26.062  27.608  1.00  0.00    -0.206 F 
ATOM     80  C   UNL A   1      49.183  26.474  24.283  1.00  0.00     0.022 A 
BRANCH  77  81
ATOM     81  S   UNL A   1      48.300  27.719  21.949  1.00  0.00     0.124 S 
ATOM     82  O   UNL A   1      48.506  26.417  21.327  1.00  0.00    -0.237 OA
ATOM     83  O   UNL A   1      47.002  28.343  21.719  1.00  0.00    -0.237 OA
ATOM     84  O   UNL A   1      49.444  28.627  21.891  1.00  0.00    -0.744 OA
ENDBRANCH  77  81
ENDBRANCH  50  74
BRANCH  62  85
ATOM     85  C   UNL A   1      45.145  33.093  29.220  1.00  0.00     0.023 A 
ATOM     86  C   UNL A   1      45.235  34.121  28.265  1.00  0.00     0.031 A 
ATOM     87  C   UNL A   1      45.798  33.275  30.452  1.00  0.00     0.131 A 
ATOM     88  C   UNL A   1      46.005  35.263  28.537  1.00  0.00     0.055 A 
ATOM     89  C   UNL A   1      46.516  34.437  30.738  1.00  0.00     0.041 A 
ATOM     90  F   UNL A   1      45.748  32.324  31.398  1.00  0.00    -0.206 F 
ATOM     91  C   UNL A   1      46.634  35.433  29.774  1.00  0.00     0.022 A 
BRANCH  88  92
ATOM     92  S   UNL A   1      46.249  36.486  27.220  1.00  0.00     0.124 S 
ATOM     93  O   UNL A   1      45.371  37.571  27.648  1.00  0.00    -0.237 OA
ATOM     94  O   UNL A   1      47.681  36.754  27.303  1.00  0.00    -0.237 OA
ATOM     95  O   UNL A   1      45.820  35.782  26.013  1.00  0.00    -0.744 OA
ENDBRANCH  88  92
ENDBRANCH  62  85
ENDBRANCH  36  37
ENDBRANCH  28  31
ENDBRANCH  26  27
ENDBRANCH   1  26
TORSDOF 16
ENDMDL
