MODEL 1
REMARK VINA RESULT:     -10.1      0.000      0.000
REMARK SMILES O=C(CCCNC(=O)CN1CSCC1=O)NCCCCNC(=O)c1ccc(-c2c3nc(c(-c4cc(S(=O)(=O)[O-])ccc4F)c4ccc([nH]4)c(-c4cc(S(=O)(=O)[O-])ccc4F)c4nc(c(-c5cc(S(=O)(=O)[O-])ccc5F)c5ccc2[nH]5)C=C4)C=C3)cc1
REMARK SMILES IDX 17 1 16 2 1 3 2 4 3 6 4 7 5 8 6 9 7 10 8 12 9 13 10 14 11 15
REMARK SMILES IDX 14 16 12 17 13 18 15 19 18 20 19 21 20 22 21 23 22 24 23 26
REMARK SMILES IDX 24 27 25 28 86 29 26 30 85 31 27 32 28 33 29 34 79 35 30 36
REMARK SMILES IDX 84 37 78 38 80 39 31 40 83 41 77 42 76 43 32 45 64 46 44 47
REMARK SMILES IDX 63 48 45 49 48 50 62 51 81 52 46 53 47 54 61 56 82 57 49 58
REMARK SMILES IDX 33 59 34 60 42 61 35 62 41 63 43 64 40 65 36 66 37 67 38 68
REMARK SMILES IDX 39 69 65 70 66 71 74 72 67 73 73 74 75 75 72 76 68 77 69 78
REMARK SMILES IDX 70 79 71 80 50 81 51 82 59 83 52 84 58 85 60 86 57 87 53 88
REMARK SMILES IDX 54 89 55 90 56 91
REMARK H PARENT 16 5 6 11 21 25 80 44 48 55
REMARK Flexibility Score: inf
ROOT
ATOM      1  C   UNL A   1      37.522  22.380  25.853  1.00  0.00     0.116 C 
ENDROOT
BRANCH   1   2
ATOM      2  N   UNL A   1      36.263  22.894  26.355  1.00  0.00    -0.356 N 
ATOM      3  O   UNL A   1      35.849  24.324  24.604  1.00  0.00    -0.275 OA
ATOM      4  C   UNL A   1      35.503  23.803  25.659  1.00  0.00     0.220 C 
ATOM      5  H   UNL A   1      35.940  22.579  27.230  1.00  0.00     0.163 HD
BRANCH   4   6
ATOM      6  C   UNL A   1      34.159  24.088  26.296  1.00  0.00     0.102 C 
BRANCH   6   7
ATOM      7  C   UNL A   1      33.571  25.421  25.824  1.00  0.00     0.031 C 
BRANCH   7   8
ATOM      8  C   UNL A   1      32.589  25.319  24.654  1.00  0.00     0.116 C 
BRANCH   8   9
ATOM      9  N   UNL A   1      33.236  24.828  23.450  1.00  0.00    -0.355 N 
ATOM     10  C   UNL A   1      32.920  23.750  22.677  1.00  0.00     0.239 C 
ATOM     11  H   UNL A   1      34.015  25.348  23.150  1.00  0.00     0.163 HD
ATOM     12  O   UNL A   1      33.637  23.518  21.703  1.00  0.00    -0.273 OA
BRANCH  10  13
ATOM     13  C   UNL A   1      31.717  22.874  23.018  1.00  0.00     0.220 C 
BRANCH  13  14
ATOM     14  N   UNL A   1      32.087  21.566  23.548  1.00  0.00    -0.323 N 
ATOM     15  C   UNL A   1      32.477  21.429  24.925  1.00  0.00     0.190 C 
ATOM     16  C   UNL A   1      32.129  20.443  22.746  1.00  0.00     0.233 C 
ATOM     17  S   UNL A   1      33.059  19.745  25.154  1.00  0.00    -0.130 SA
ATOM     18  C   UNL A   1      32.585  19.214  23.495  1.00  0.00     0.171 C 
ATOM     19  O   UNL A   1      31.795  20.420  21.568  1.00  0.00    -0.274 OA
ENDBRANCH  13  14
ENDBRANCH  10  13
ENDBRANCH   8   9
ENDBRANCH   7   8
ENDBRANCH   6   7
ENDBRANCH   4   6
ENDBRANCH   1   2
BRANCH   1  20
ATOM     20  C   UNL A   1      37.318  21.220  24.883  1.00  0.00     0.023 C 
BRANCH  20  21
ATOM     21  C   UNL A   1      38.277  20.037  25.062  1.00  0.00     0.023 C 
BRANCH  21  22
ATOM     22  C   UNL A   1      39.379  20.235  26.100  1.00  0.00     0.116 C 
BRANCH  22  23
ATOM     23  N   UNL A   1      40.426  19.235  25.992  1.00  0.00    -0.352 N 
ATOM     24  C   UNL A   1      41.792  19.390  25.983  1.00  0.00     0.251 C 
ATOM     25  H   UNL A   1      40.111  18.305  25.915  1.00  0.00     0.163 HD
ATOM     26  O   UNL A   1      42.503  18.430  25.685  1.00  0.00    -0.269 OA
BRANCH  24  27
ATOM     27  C   UNL A   1      42.408  20.700  26.296  1.00  0.00     0.039 A 
ATOM     28  C   UNL A   1      42.785  21.538  25.243  1.00  0.00     0.014 A 
ATOM     29  C   UNL A   1      42.633  21.101  27.616  1.00  0.00     0.014 A 
ATOM     30  C   UNL A   1      43.319  22.802  25.514  1.00  0.00     0.010 A 
ATOM     31  C   UNL A   1      43.094  22.391  27.884  1.00  0.00     0.010 A 
ATOM     32  C   UNL A   1      43.439  23.258  26.836  1.00  0.00    -0.014 A 
BRANCH  32  33
ATOM     33  C   UNL A   1      43.916  24.637  27.137  1.00  0.00     0.031 A 
ATOM     34  C   UNL A   1      42.962  25.673  27.671  1.00  0.00     0.074 A 
ATOM     35  C   UNL A   1      45.196  24.973  26.878  1.00  0.00     0.049 A 
ATOM     36  N   UNL A   1      43.171  26.941  27.920  1.00  0.00    -0.248 NA
ATOM     37  C   UNL A   1      41.585  25.229  27.933  1.00  0.00     0.031 C 
ATOM     38  C   UNL A   1      46.210  24.071  26.328  1.00  0.00     0.029 A 
ATOM     39  N   UNL A   1      45.863  26.164  27.030  1.00  0.00    -0.354 N 
ATOM     40  C   UNL A   1      41.953  27.448  28.363  1.00  0.00     0.074 A 
ATOM     41  C   UNL A   1      40.998  26.363  28.283  1.00  0.00     0.031 C 
ATOM     42  C   UNL A   1      47.373  24.732  26.215  1.00  0.00     0.029 A 
ATOM     43  C   UNL A   1      47.179  26.119  26.628  1.00  0.00     0.049 A 
ATOM     44  H   UNL A   1      45.440  26.976  27.395  1.00  0.00     0.167 HD
ATOM     45  C   UNL A   1      41.665  28.694  28.817  1.00  0.00     0.034 A 
ATOM     46  C   UNL A   1      48.119  27.084  26.577  1.00  0.00     0.034 A 
ATOM     47  C   UNL A   1      42.630  29.766  28.892  1.00  0.00     0.049 A 
ATOM     48  C   UNL A   1      47.762  28.475  27.041  1.00  0.00     0.074 A 
ATOM     49  C   UNL A   1      42.452  31.051  29.374  1.00  0.00     0.029 A 
ATOM     50  N   UNL A   1      43.949  29.684  28.464  1.00  0.00    -0.354 N 
ATOM     51  N   UNL A   1      46.616  28.926  27.499  1.00  0.00    -0.248 NA
ATOM     52  C   UNL A   1      48.828  29.484  26.991  1.00  0.00     0.031 C 
ATOM     53  C   UNL A   1      43.635  31.767  29.165  1.00  0.00     0.029 A 
ATOM     54  C   UNL A   1      44.584  30.905  28.638  1.00  0.00     0.049 A 
ATOM     55  H   UNL A   1      44.372  28.877  28.092  1.00  0.00     0.167 HD
ATOM     56  C   UNL A   1      46.836  30.262  27.822  1.00  0.00     0.074 A 
ATOM     57  C   UNL A   1      48.226  30.538  27.523  1.00  0.00     0.031 C 
ATOM     58  C   UNL A   1      45.968  31.176  28.327  1.00  0.00     0.034 A 
BRANCH  45  59
ATOM     59  C   UNL A   1      40.240  28.968  29.241  1.00  0.00     0.023 A 
ATOM     60  C   UNL A   1      39.854  28.944  30.593  1.00  0.00     0.031 A 
ATOM     61  C   UNL A   1      39.248  29.238  28.282  1.00  0.00     0.131 A 
ATOM     62  C   UNL A   1      38.505  29.105  30.942  1.00  0.00     0.055 A 
ATOM     63  C   UNL A   1      37.922  29.487  28.643  1.00  0.00     0.041 A 
ATOM     64  F   UNL A   1      39.548  29.254  26.974  1.00  0.00    -0.206 F 
ATOM     65  C   UNL A   1      37.540  29.404  29.979  1.00  0.00     0.022 A 
BRANCH  62  66
ATOM     66  S   UNL A   1      38.007  28.766  32.652  1.00  0.00     0.124 S 
ATOM     67  O   UNL A   1      36.649  29.304  32.676  1.00  0.00    -0.237 OA
ATOM     68  O   UNL A   1      38.120  27.314  32.731  1.00  0.00    -0.237 OA
ATOM     69  O   UNL A   1      38.980  29.513  33.447  1.00  0.00    -0.744 OA
ENDBRANCH  62  66
ENDBRANCH  45  59
BRANCH  46  70
ATOM     70  C   UNL A   1      49.483  26.786  26.049  1.00  0.00     0.023 A 
ATOM     71  C   UNL A   1      49.875  27.208  24.768  1.00  0.00     0.031 A 
ATOM     72  C   UNL A   1      50.399  26.028  26.800  1.00  0.00     0.131 A 
ATOM     73  C   UNL A   1      51.126  26.826  24.258  1.00  0.00     0.055 A 
ATOM     74  C   UNL A   1      51.667  25.704  26.313  1.00  0.00     0.041 A 
ATOM     75  F   UNL A   1      50.078  25.597  28.031  1.00  0.00    -0.206 F 
ATOM     76  C   UNL A   1      52.031  26.091  25.027  1.00  0.00     0.022 A 
BRANCH  73  77
ATOM     77  S   UNL A   1      51.516  27.220  22.530  1.00  0.00     0.124 S 
ATOM     78  O   UNL A   1      51.638  28.672  22.578  1.00  0.00    -0.237 OA
ATOM     79  O   UNL A   1      52.754  26.476  22.322  1.00  0.00    -0.237 OA
ATOM     80  O   UNL A   1      50.358  26.713  21.797  1.00  0.00    -0.744 OA
ENDBRANCH  73  77
ENDBRANCH  46  70
BRANCH  58  81
ATOM     81  C   UNL A   1      46.516  32.551  28.635  1.00  0.00     0.023 A 
ATOM     82  C   UNL A   1      46.505  33.587  27.685  1.00  0.00     0.031 A 
ATOM     83  C   UNL A   1      47.066  32.824  29.901  1.00  0.00     0.131 A 
ATOM     84  C   UNL A   1      47.087  34.826  27.993  1.00  0.00     0.055 A 
ATOM     85  C   UNL A   1      47.580  34.079  30.225  1.00  0.00     0.041 A 
ATOM     86  F   UNL A   1      47.108  31.872  30.847  1.00  0.00    -0.206 F 
ATOM     87  C   UNL A   1      47.606  35.085  29.265  1.00  0.00     0.022 A 
BRANCH  84  88
ATOM     88  S   UNL A   1      47.249  36.065  26.679  1.00  0.00     0.124 S 
ATOM     89  O   UNL A   1      45.899  36.611  26.609  1.00  0.00    -0.237 OA
ATOM     90  O   UNL A   1      48.272  36.959  27.215  1.00  0.00    -0.237 OA
ATOM     91  O   UNL A   1      47.662  35.281  25.516  1.00  0.00    -0.744 OA
ENDBRANCH  84  88
ENDBRANCH  58  81
ENDBRANCH  32  33
ENDBRANCH  24  27
ENDBRANCH  22  23
ENDBRANCH  21  22
ENDBRANCH  20  21
ENDBRANCH   1  20
TORSDOF 19
ENDMDL
MODEL 2
REMARK VINA RESULT:     -10.0      2.498      3.403
REMARK SMILES O=C(CCCNC(=O)CN1CSCC1=O)NCCCCNC(=O)c1ccc(-c2c3nc(c(-c4cc(S(=O)(=O)[O-])ccc4F)c4ccc([nH]4)c(-c4cc(S(=O)(=O)[O-])ccc4F)c4nc(c(-c5cc(S(=O)(=O)[O-])ccc5F)c5ccc2[nH]5)C=C4)C=C3)cc1
REMARK SMILES IDX 17 1 16 2 1 3 2 4 3 6 4 7 5 8 6 9 7 10 8 12 9 13 10 14 11 15
REMARK SMILES IDX 14 16 12 17 13 18 15 19 18 20 19 21 20 22 21 23 22 24 23 26
REMARK SMILES IDX 24 27 25 28 86 29 26 30 85 31 27 32 28 33 29 34 79 35 30 36
REMARK SMILES IDX 84 37 78 38 80 39 31 40 83 41 77 42 76 43 32 45 64 46 44 47
REMARK SMILES IDX 63 48 45 49 48 50 62 51 81 52 46 53 47 54 61 56 82 57 49 58
REMARK SMILES IDX 33 59 34 60 42 61 35 62 41 63 43 64 40 65 36 66 37 67 38 68
REMARK SMILES IDX 39 69 65 70 66 71 74 72 67 73 73 74 75 75 72 76 68 77 69 78
REMARK SMILES IDX 70 79 71 80 50 81 51 82 59 83 52 84 58 85 60 86 57 87 53 88
REMARK SMILES IDX 54 89 55 90 56 91
REMARK H PARENT 16 5 6 11 21 25 80 44 48 55
REMARK Flexibility Score: inf
ROOT
ATOM      1  C   UNL A   1      34.402  24.277  23.120  1.00  0.00     0.116 C 
ENDROOT
BRANCH   1   2
ATOM      2  N   UNL A   1      32.965  24.205  23.288  1.00  0.00    -0.356 N 
ATOM      3  O   UNL A   1      32.580  26.470  23.216  1.00  0.00    -0.275 OA
ATOM      4  C   UNL A   1      32.160  25.320  23.280  1.00  0.00     0.220 C 
ATOM      5  H   UNL A   1      32.548  23.322  23.413  1.00  0.00     0.163 HD
BRANCH   4   6
ATOM      6  C   UNL A   1      30.680  25.003  23.321  1.00  0.00     0.102 C 
BRANCH   6   7
ATOM      7  C   UNL A   1      29.914  25.957  24.242  1.00  0.00     0.031 C 
BRANCH   7   8
ATOM      8  C   UNL A   1      30.300  25.882  25.721  1.00  0.00     0.116 C 
BRANCH   8   9
ATOM      9  N   UNL A   1      29.708  24.727  26.373  1.00  0.00    -0.355 N 
ATOM     10  C   UNL A   1      30.315  23.624  26.897  1.00  0.00     0.239 C 
ATOM     11  H   UNL A   1      28.727  24.743  26.448  1.00  0.00     0.163 HD
ATOM     12  O   UNL A   1      29.593  22.755  27.388  1.00  0.00    -0.273 OA
BRANCH  10  13
ATOM     13  C   UNL A   1      31.836  23.486  26.870  1.00  0.00     0.220 C 
BRANCH  13  14
ATOM     14  N   UNL A   1      32.294  22.273  26.201  1.00  0.00    -0.323 N 
ATOM     15  C   UNL A   1      31.719  21.883  24.943  1.00  0.00     0.190 C 
ATOM     16  C   UNL A   1      33.239  21.443  26.770  1.00  0.00     0.233 C 
ATOM     17  S   UNL A   1      32.365  20.256  24.537  1.00  0.00    -0.130 SA
ATOM     18  C   UNL A   1      33.522  20.225  25.924  1.00  0.00     0.171 C 
ATOM     19  O   UNL A   1      33.824  21.675  27.820  1.00  0.00    -0.274 OA
ENDBRANCH  13  14
ENDBRANCH  10  13
ENDBRANCH   8   9
ENDBRANCH   7   8
ENDBRANCH   6   7
ENDBRANCH   4   6
ENDBRANCH   1   2
BRANCH   1  20
ATOM     20  C   UNL A   1      35.141  24.091  24.442  1.00  0.00     0.023 C 
BRANCH  20  21
ATOM     21  C   UNL A   1      35.920  22.778  24.581  1.00  0.00     0.023 C 
BRANCH  21  22
ATOM     22  C   UNL A   1      36.490  22.494  25.968  1.00  0.00     0.116 C 
BRANCH  22  23
ATOM     23  N   UNL A   1      37.482  21.434  25.952  1.00  0.00    -0.352 N 
ATOM     24  C   UNL A   1      38.846  21.505  26.103  1.00  0.00     0.251 C 
ATOM     25  H   UNL A   1      37.124  20.527  25.813  1.00  0.00     0.163 HD
ATOM     26  O   UNL A   1      39.529  20.510  25.861  1.00  0.00    -0.269 OA
BRANCH  24  27
ATOM     27  C   UNL A   1      39.498  22.767  26.523  1.00  0.00     0.039 A 
ATOM     28  C   UNL A   1      40.491  22.720  27.505  1.00  0.00     0.014 A 
ATOM     29  C   UNL A   1      39.127  23.995  25.969  1.00  0.00     0.014 A 
ATOM     30  C   UNL A   1      41.160  23.891  27.878  1.00  0.00     0.010 A 
ATOM     31  C   UNL A   1      39.846  25.149  26.287  1.00  0.00     0.010 A 
ATOM     32  C   UNL A   1      40.873  25.110  27.242  1.00  0.00    -0.014 A 
BRANCH  32  33
ATOM     33  C   UNL A   1      41.642  26.345  27.561  1.00  0.00     0.031 A 
ATOM     34  C   UNL A   1      41.008  27.452  28.361  1.00  0.00     0.074 A 
ATOM     35  C   UNL A   1      42.894  26.495  27.083  1.00  0.00     0.049 A 
ATOM     36  N   UNL A   1      41.488  28.629  28.673  1.00  0.00    -0.248 NA
ATOM     37  C   UNL A   1      39.643  27.212  28.852  1.00  0.00     0.031 C 
ATOM     38  C   UNL A   1      43.609  25.511  26.267  1.00  0.00     0.029 A 
ATOM     39  N   UNL A   1      43.786  27.533  27.202  1.00  0.00    -0.354 N 
ATOM     40  C   UNL A   1      40.485  29.272  29.392  1.00  0.00     0.074 A 
ATOM     41  C   UNL A   1      39.348  28.377  29.408  1.00  0.00     0.031 C 
ATOM     42  C   UNL A   1      44.834  25.981  25.982  1.00  0.00     0.029 A 
ATOM     43  C   UNL A   1      44.976  27.321  26.544  1.00  0.00     0.049 A 
ATOM     44  H   UNL A   1      43.592  28.353  27.713  1.00  0.00     0.167 HD
ATOM     45  C   UNL A   1      40.518  30.485  29.999  1.00  0.00     0.034 A 
ATOM     46  C   UNL A   1      46.053  28.117  26.393  1.00  0.00     0.034 A 
ATOM     47  C   UNL A   1      41.661  31.367  29.975  1.00  0.00     0.049 A 
ATOM     48  C   UNL A   1      46.048  29.482  27.037  1.00  0.00     0.074 A 
ATOM     49  C   UNL A   1      41.813  32.596  30.591  1.00  0.00     0.029 A 
ATOM     50  N   UNL A   1      42.844  31.121  29.287  1.00  0.00    -0.354 N 
ATOM     51  N   UNL A   1      45.107  30.056  27.750  1.00  0.00    -0.248 NA
ATOM     52  C   UNL A   1      47.256  30.301  26.864  1.00  0.00     0.031 C 
ATOM     53  C   UNL A   1      43.051  33.128  30.214  1.00  0.00     0.029 A 
ATOM     54  C   UNL A   1      43.714  32.191  29.438  1.00  0.00     0.049 A 
ATOM     55  H   UNL A   1      43.037  30.307  28.770  1.00  0.00     0.167 HD
ATOM     56  C   UNL A   1      45.625  31.289  28.138  1.00  0.00     0.074 A 
ATOM     57  C   UNL A   1      46.964  31.367  27.594  1.00  0.00     0.031 C 
ATOM     58  C   UNL A   1      45.045  32.267  28.882  1.00  0.00     0.034 A 
BRANCH  45  59
ATOM     59  C   UNL A   1      39.268  30.936  30.720  1.00  0.00     0.023 A 
ATOM     60  C   UNL A   1      38.214  31.574  30.042  1.00  0.00     0.031 A 
ATOM     61  C   UNL A   1      39.132  30.742  32.106  1.00  0.00     0.131 A 
ATOM     62  C   UNL A   1      37.112  32.066  30.759  1.00  0.00     0.055 A 
ATOM     63  C   UNL A   1      37.993  31.155  32.800  1.00  0.00     0.041 A 
ATOM     64  F   UNL A   1      40.112  30.159  32.814  1.00  0.00    -0.206 F 
ATOM     65  C   UNL A   1      36.981  31.836  32.130  1.00  0.00     0.022 A 
BRANCH  62  66
ATOM     66  S   UNL A   1      35.932  33.142  29.901  1.00  0.00     0.124 S 
ATOM     67  O   UNL A   1      35.125  32.169  29.169  1.00  0.00    -0.237 OA
ATOM     68  O   UNL A   1      35.266  33.823  31.005  1.00  0.00    -0.237 OA
ATOM     69  O   UNL A   1      36.783  33.989  29.068  1.00  0.00    -0.744 OA
ENDBRANCH  62  66
ENDBRANCH  45  59
BRANCH  46  70
ATOM     70  C   UNL A   1      47.221  27.664  25.580  1.00  0.00     0.023 A 
ATOM     71  C   UNL A   1      47.334  27.998  24.220  1.00  0.00     0.031 A 
ATOM     72  C   UNL A   1      48.218  26.846  26.141  1.00  0.00     0.131 A 
ATOM     73  C   UNL A   1      48.389  27.474  23.456  1.00  0.00     0.055 A 
ATOM     74  C   UNL A   1      49.300  26.380  25.392  1.00  0.00     0.041 A 
ATOM     75  F   UNL A   1      48.161  26.495  27.436  1.00  0.00    -0.206 F 
ATOM     76  C   UNL A   1      49.382  26.681  24.036  1.00  0.00     0.022 A 
BRANCH  73  77
ATOM     77  S   UNL A   1      48.392  27.764  21.666  1.00  0.00     0.124 S 
ATOM     78  O   UNL A   1      47.034  28.245  21.442  1.00  0.00    -0.237 OA
ATOM     79  O   UNL A   1      49.457  28.751  21.520  1.00  0.00    -0.237 OA
ATOM     80  O   UNL A   1      48.688  26.446  21.109  1.00  0.00    -0.744 OA
ENDBRANCH  73  77
ENDBRANCH  46  70
BRANCH  58  81
ATOM     81  C   UNL A   1      45.883  33.485  29.193  1.00  0.00     0.023 A 
ATOM     82  C   UNL A   1      45.827  34.649  28.407  1.00  0.00     0.031 A 
ATOM     83  C   UNL A   1      46.761  33.476  30.293  1.00  0.00     0.131 A 
ATOM     84  C   UNL A   1      46.674  35.730  28.694  1.00  0.00     0.055 A 
ATOM     85  C   UNL A   1      47.551  34.580  30.615  1.00  0.00     0.041 A 
ATOM     86  F   UNL A   1      46.863  32.391  31.077  1.00  0.00    -0.206 F 
ATOM     87  C   UNL A   1      47.521  35.710  29.805  1.00  0.00     0.022 A 
BRANCH  84  88
ATOM     88  S   UNL A   1      46.729  37.126  27.537  1.00  0.00     0.124 S 
ATOM     89  O   UNL A   1      45.541  37.881  27.916  1.00  0.00    -0.237 OA
ATOM     90  O   UNL A   1      48.010  37.748  27.858  1.00  0.00    -0.237 OA
ATOM     91  O   UNL A   1      46.665  36.487  26.224  1.00  0.00    -0.744 OA
ENDBRANCH  84  88
ENDBRANCH  58  81
ENDBRANCH  32  33
ENDBRANCH  24  27
ENDBRANCH  22  23
ENDBRANCH  21  22
ENDBRANCH  20  21
ENDBRANCH   1  20
TORSDOF 19
ENDMDL
MODEL 3
REMARK VINA RESULT:     -10.0      1.776      8.238
REMARK SMILES O=C(CCCNC(=O)CN1CSCC1=O)NCCCCNC(=O)c1ccc(-c2c3nc(c(-c4cc(S(=O)(=O)[O-])ccc4F)c4ccc([nH]4)c(-c4cc(S(=O)(=O)[O-])ccc4F)c4nc(c(-c5cc(S(=O)(=O)[O-])ccc5F)c5ccc2[nH]5)C=C4)C=C3)cc1
REMARK SMILES IDX 17 1 16 2 1 3 2 4 3 6 4 7 5 8 6 9 7 10 8 12 9 13 10 14 11 15
REMARK SMILES IDX 14 16 12 17 13 18 15 19 18 20 19 21 20 22 21 23 22 24 23 26
REMARK SMILES IDX 24 27 25 28 86 29 26 30 85 31 27 32 28 33 29 34 79 35 30 36
REMARK SMILES IDX 84 37 78 38 80 39 31 40 83 41 77 42 76 43 32 45 64 46 44 47
REMARK SMILES IDX 63 48 45 49 48 50 62 51 81 52 46 53 47 54 61 56 82 57 49 58
REMARK SMILES IDX 33 59 34 60 42 61 35 62 41 63 43 64 40 65 36 66 37 67 38 68
REMARK SMILES IDX 39 69 65 70 66 71 74 72 67 73 73 74 75 75 72 76 68 77 69 78
REMARK SMILES IDX 70 79 71 80 50 81 51 82 59 83 52 84 58 85 60 86 57 87 53 88
REMARK SMILES IDX 54 89 55 90 56 91
REMARK H PARENT 16 5 6 11 21 25 80 44 48 55
REMARK Flexibility Score: inf
ROOT
ATOM      1  C   UNL A   1      38.525  23.723  26.463  1.00  0.00     0.116 C 
ENDROOT
BRANCH   1   2
ATOM      2  N   UNL A   1      37.803  23.230  25.308  1.00  0.00    -0.356 N 
ATOM      3  O   UNL A   1      35.828  24.320  25.750  1.00  0.00    -0.275 OA
ATOM      4  C   UNL A   1      36.512  23.609  25.023  1.00  0.00     0.220 C 
ATOM      5  H   UNL A   1      38.254  22.599  24.703  1.00  0.00     0.163 HD
BRANCH   4   6
ATOM      6  C   UNL A   1      36.005  23.093  23.693  1.00  0.00     0.102 C 
BRANCH   6   7
ATOM      7  C   UNL A   1      34.737  22.249  23.849  1.00  0.00     0.031 C 
BRANCH   7   8
ATOM      8  C   UNL A   1      33.446  22.924  23.379  1.00  0.00     0.116 C 
BRANCH   8   9
ATOM      9  N   UNL A   1      33.710  23.976  22.413  1.00  0.00    -0.355 N 
ATOM     10  C   UNL A   1      32.946  25.055  22.079  1.00  0.00     0.239 C 
ATOM     11  H   UNL A   1      34.565  23.899  21.931  1.00  0.00     0.163 HD
ATOM     12  O   UNL A   1      33.376  25.809  21.205  1.00  0.00    -0.273 OA
BRANCH  10  13
ATOM     13  C   UNL A   1      31.608  25.306  22.772  1.00  0.00     0.220 C 
BRANCH  13  14
ATOM     14  N   UNL A   1      31.576  26.552  23.530  1.00  0.00    -0.323 N 
ATOM     15  C   UNL A   1      32.138  26.606  24.852  1.00  0.00     0.190 C 
ATOM     16  C   UNL A   1      30.965  27.686  23.036  1.00  0.00     0.233 C 
ATOM     17  S   UNL A   1      31.729  28.213  25.545  1.00  0.00    -0.130 SA
ATOM     18  C   UNL A   1      31.010  28.838  24.011  1.00  0.00     0.171 C 
ATOM     19  O   UNL A   1      30.475  27.779  21.917  1.00  0.00    -0.274 OA
ENDBRANCH  13  14
ENDBRANCH  10  13
ENDBRANCH   8   9
ENDBRANCH   7   8
ENDBRANCH   6   7
ENDBRANCH   4   6
ENDBRANCH   1   2
BRANCH   1  20
ATOM     20  C   UNL A   1      39.701  22.822  26.827  1.00  0.00     0.023 C 
BRANCH  20  21
ATOM     21  C   UNL A   1      39.704  21.443  26.156  1.00  0.00     0.023 C 
BRANCH  21  22
ATOM     22  C   UNL A   1      40.346  20.319  26.966  1.00  0.00     0.116 C 
BRANCH  22  23
ATOM     23  N   UNL A   1      41.406  19.647  26.236  1.00  0.00    -0.352 N 
ATOM     24  C   UNL A   1      42.577  20.152  25.723  1.00  0.00     0.251 C 
ATOM     25  H   UNL A   1      41.265  18.684  26.085  1.00  0.00     0.163 HD
ATOM     26  O   UNL A   1      43.250  19.454  24.964  1.00  0.00    -0.269 OA
BRANCH  24  27
ATOM     27  C   UNL A   1      43.016  21.528  26.049  1.00  0.00     0.039 A 
ATOM     28  C   UNL A   1      43.016  22.494  25.039  1.00  0.00     0.014 A 
ATOM     29  C   UNL A   1      43.443  21.870  27.335  1.00  0.00     0.014 A 
ATOM     30  C   UNL A   1      43.374  23.813  25.335  1.00  0.00     0.010 A 
ATOM     31  C   UNL A   1      43.727  23.201  27.646  1.00  0.00     0.010 A 
ATOM     32  C   UNL A   1      43.692  24.189  26.650  1.00  0.00    -0.014 A 
BRANCH  32  33
ATOM     33  C   UNL A   1      43.983  25.608  26.999  1.00  0.00     0.031 A 
ATOM     34  C   UNL A   1      45.376  26.159  26.852  1.00  0.00     0.074 A 
ATOM     35  C   UNL A   1      43.002  26.387  27.500  1.00  0.00     0.049 A 
ATOM     36  N   UNL A   1      45.838  27.341  27.174  1.00  0.00    -0.248 NA
ATOM     37  C   UNL A   1      46.389  25.251  26.293  1.00  0.00     0.031 C 
ATOM     38  C   UNL A   1      41.618  25.962  27.723  1.00  0.00     0.029 A 
ATOM     39  N   UNL A   1      43.018  27.694  27.923  1.00  0.00    -0.354 N 
ATOM     40  C   UNL A   1      47.195  27.317  26.863  1.00  0.00     0.074 A 
ATOM     41  C   UNL A   1      47.489  25.981  26.390  1.00  0.00     0.031 C 
ATOM     42  C   UNL A   1      40.915  26.994  28.216  1.00  0.00     0.029 A 
ATOM     43  C   UNL A   1      41.804  28.137  28.399  1.00  0.00     0.049 A 
ATOM     44  H   UNL A   1      43.822  28.262  27.889  1.00  0.00     0.167 HD
ATOM     45  C   UNL A   1      48.102  28.323  26.942  1.00  0.00     0.034 A 
ATOM     46  C   UNL A   1      41.449  29.321  28.939  1.00  0.00     0.034 A 
ATOM     47  C   UNL A   1      47.793  29.651  27.415  1.00  0.00     0.049 A 
ATOM     48  C   UNL A   1      42.488  30.408  29.062  1.00  0.00     0.074 A 
ATOM     49  C   UNL A   1      48.628  30.752  27.496  1.00  0.00     0.029 A 
ATOM     50  N   UNL A   1      46.556  30.058  27.899  1.00  0.00    -0.354 N 
ATOM     51  N   UNL A   1      43.756  30.382  28.721  1.00  0.00    -0.248 NA
ATOM     52  C   UNL A   1      42.044  31.687  29.632  1.00  0.00     0.031 C 
ATOM     53  C   UNL A   1      47.921  31.797  28.100  1.00  0.00     0.029 A 
ATOM     54  C   UNL A   1      46.616  31.381  28.312  1.00  0.00     0.049 A 
ATOM     55  H   UNL A   1      45.753  29.491  27.943  1.00  0.00     0.167 HD
ATOM     56  C   UNL A   1      44.250  31.653  29.006  1.00  0.00     0.074 A 
ATOM     57  C   UNL A   1      43.141  32.423  29.529  1.00  0.00     0.031 C 
ATOM     58  C   UNL A   1      45.508  32.139  28.844  1.00  0.00     0.034 A 
BRANCH  45  59
ATOM     59  C   UNL A   1      49.523  28.010  26.531  1.00  0.00     0.023 A 
ATOM     60  C   UNL A   1      49.948  28.125  25.194  1.00  0.00     0.031 A 
ATOM     61  C   UNL A   1      50.464  27.575  27.481  1.00  0.00     0.131 A 
ATOM     62  C   UNL A   1      51.246  27.733  24.833  1.00  0.00     0.055 A 
ATOM     63  C   UNL A   1      51.781  27.272  27.129  1.00  0.00     0.041 A 
ATOM     64  F   UNL A   1      50.116  27.425  28.769  1.00  0.00    -0.206 F 
ATOM     65  C   UNL A   1      52.174  27.334  25.796  1.00  0.00     0.022 A 
BRANCH  62  66
ATOM     66  S   UNL A   1      51.652  27.607  23.071  1.00  0.00     0.124 S 
ATOM     67  O   UNL A   1      52.732  26.622  23.087  1.00  0.00    -0.237 OA
ATOM     68  O   UNL A   1      50.391  27.162  22.488  1.00  0.00    -0.237 OA
ATOM     69  O   UNL A   1      52.060  28.964  22.715  1.00  0.00    -0.744 OA
ENDBRANCH  62  66
ENDBRANCH  45  59
BRANCH  46  70
ATOM     70  C   UNL A   1      40.055  29.541  29.428  1.00  0.00     0.023 A 
ATOM     71  C   UNL A   1      39.759  29.549  30.801  1.00  0.00     0.031 A 
ATOM     72  C   UNL A   1      38.989  29.698  28.525  1.00  0.00     0.131 A 
ATOM     73  C   UNL A   1      38.427  29.657  31.229  1.00  0.00     0.055 A 
ATOM     74  C   UNL A   1      37.672  29.869  28.957  1.00  0.00     0.041 A 
ATOM     75  F   UNL A   1      39.213  29.698  27.201  1.00  0.00    -0.206 F 
ATOM     76  C   UNL A   1      37.383  29.833  30.318  1.00  0.00     0.022 A 
BRANCH  73  77
ATOM     77  S   UNL A   1      38.064  29.463  32.996  1.00  0.00     0.124 S 
ATOM     78  O   UNL A   1      37.169  30.588  33.240  1.00  0.00    -0.237 OA
ATOM     79  O   UNL A   1      37.457  28.137  33.037  1.00  0.00    -0.237 OA
ATOM     80  O   UNL A   1      39.379  29.562  33.625  1.00  0.00    -0.744 OA
ENDBRANCH  73  77
ENDBRANCH  46  70
BRANCH  58  81
ATOM     81  C   UNL A   1      45.735  33.593  29.191  1.00  0.00     0.023 A 
ATOM     82  C   UNL A   1      45.598  34.617  28.238  1.00  0.00     0.031 A 
ATOM     83  C   UNL A   1      46.105  33.956  30.499  1.00  0.00     0.131 A 
ATOM     84  C   UNL A   1      45.887  35.944  28.589  1.00  0.00     0.055 A 
ATOM     85  C   UNL A   1      46.323  35.285  30.860  1.00  0.00     0.041 A 
ATOM     86  F   UNL A   1      46.256  33.021  31.451  1.00  0.00    -0.206 F 
ATOM     87  C   UNL A   1      46.229  36.287  29.900  1.00  0.00     0.022 A 
BRANCH  84  88
ATOM     88  S   UNL A   1      45.909  37.207  27.287  1.00  0.00     0.124 S 
ATOM     89  O   UNL A   1      46.560  36.499  26.190  1.00  0.00    -0.237 OA
ATOM     90  O   UNL A   1      44.489  37.495  27.107  1.00  0.00    -0.237 OA
ATOM     91  O   UNL A   1      46.690  38.293  27.875  1.00  0.00    -0.744 OA
ENDBRANCH  84  88
ENDBRANCH  58  81
ENDBRANCH  32  33
ENDBRANCH  24  27
ENDBRANCH  22  23
ENDBRANCH  21  22
ENDBRANCH  20  21
ENDBRANCH   1  20
TORSDOF 19
ENDMDL
