MODEL 1
REMARK VINA RESULT:     -12.4      0.000      0.000
REMARK SMILES C[C@H](C(=O)NCCCCNC(=O)c1ccc(-c2c3nc(c(-c4cc(S(=O)(=O)[O-])ccc4F)c4ccc([nH]4)c(-c4cc(S(=O)(=O)[O-])ccc4F)c4nc(c(-c5cc(S(=O)(=O)[O-])ccc5F)c5ccc2[nH]5)C=C4)C=C3)cc1)[C@H](C)[N@@H+]1CC[C@H]([NH+]2CCCCC2)C1
REMARK SMILES IDX 7 1 6 2 5 3 3 4 4 5 2 7 1 8 76 9 77 10 78 11 79 12 88 13
REMARK SMILES IDX 80 15 81 16 82 17 83 18 87 19 84 21 86 22 85 23 8 24 9 25
REMARK SMILES IDX 10 26 11 27 12 29 13 30 14 31 75 32 15 33 74 34 16 35 17 36
REMARK SMILES IDX 18 37 68 38 19 39 73 40 67 41 69 42 20 43 72 44 66 45 65 46
REMARK SMILES IDX 21 48 53 49 33 50 52 51 34 52 37 53 51 54 70 55 35 56 36 57
REMARK SMILES IDX 50 59 71 60 38 61 22 62 23 63 31 64 24 65 30 66 32 67 29 68
REMARK SMILES IDX 25 69 26 70 27 71 28 72 54 73 55 74 63 75 56 76 62 77 64 78
REMARK SMILES IDX 61 79 57 80 58 81 59 82 60 83 39 84 40 85 48 86 41 87 47 88
REMARK SMILES IDX 49 89 46 90 42 91 43 92 44 93 45 94
REMARK H PARENT 5 6 78 14 82 20 10 28 69 47 37 58
REMARK Flexibility Score: inf
ROOT
ATOM      1  C   UNL A   1      31.299  28.026  26.386  1.00  0.00     0.023 C 
ENDROOT
BRANCH   1   2
ATOM      2  C   UNL A   1      32.116  26.758  26.576  1.00  0.00     0.116 C 
BRANCH   2   3
ATOM      3  N   UNL A   1      31.403  25.569  26.967  1.00  0.00    -0.356 N 
ATOM      4  C   UNL A   1      31.748  24.273  26.693  1.00  0.00     0.228 C 
ATOM      5  O   UNL A   1      31.477  23.436  27.564  1.00  0.00    -0.275 OA
ATOM      6  H   UNL A   1      30.579  25.702  27.488  1.00  0.00     0.163 HD
BRANCH   4   7
ATOM      7  C   UNL A   1      32.273  23.789  25.327  1.00  0.00     0.133 C 
ATOM      8  C   UNL A   1      33.096  22.513  25.505  1.00  0.00     0.024 C 
BRANCH   7   9
ATOM      9  C   UNL A   1      31.404  23.796  24.031  1.00  0.00     0.193 C 
ATOM     10  C   UNL A   1      31.779  22.615  23.119  1.00  0.00     0.076 C 
BRANCH   9  11
ATOM     11  N   UNL A   1      31.222  25.037  23.306  1.00  0.00    -0.327 N 
ATOM     12  C   UNL A   1      32.334  25.791  22.772  1.00  0.00     0.269 C 
ATOM     13  C   UNL A   1      29.969  25.774  23.253  1.00  0.00     0.328 C 
ATOM     14  H   UNL A   1      31.046  24.157  22.822  1.00  0.00     0.348 HD
ATOM     15  C   UNL A   1      31.875  27.235  22.880  1.00  0.00     0.132 C 
ATOM     16  C   UNL A   1      30.345  27.183  22.736  1.00  0.00     0.245 C 
BRANCH  16  17
ATOM     17  N   UNL A   1      29.591  28.326  23.308  1.00  0.00    -0.328 N 
ATOM     18  C   UNL A   1      30.300  29.611  23.210  1.00  0.00     0.262 C 
ATOM     19  C   UNL A   1      28.234  28.408  22.738  1.00  0.00     0.262 C 
ATOM     20  H   UNL A   1      29.508  28.136  24.307  1.00  0.00     0.348 HD
ATOM     21  C   UNL A   1      29.516  30.763  23.834  1.00  0.00     0.062 C 
ATOM     22  C   UNL A   1      27.408  29.546  23.342  1.00  0.00     0.062 C 
ATOM     23  C   UNL A   1      28.134  30.879  23.217  1.00  0.00     0.012 C 
ENDBRANCH  16  17
ENDBRANCH   9  11
ENDBRANCH   7   9
ENDBRANCH   4   7
ENDBRANCH   2   3
ENDBRANCH   1   2
BRANCH   1  24
ATOM     24  C   UNL A   1      31.746  29.234  27.198  1.00  0.00     0.023 C 
BRANCH  24  25
ATOM     25  C   UNL A   1      32.466  30.336  26.426  1.00  0.00     0.116 C 
BRANCH  25  26
ATOM     26  N   UNL A   1      32.169  31.693  26.874  1.00  0.00    -0.352 N 
ATOM     27  C   UNL A   1      33.015  32.576  27.522  1.00  0.00     0.251 C 
ATOM     28  H   UNL A   1      31.259  32.019  26.692  1.00  0.00     0.163 HD
ATOM     29  O   UNL A   1      32.621  33.672  27.888  1.00  0.00    -0.269 OA
BRANCH  27  30
ATOM     30  C   UNL A   1      34.397  32.130  27.811  1.00  0.00     0.039 A 
ATOM     31  C   UNL A   1      35.405  33.088  27.950  1.00  0.00     0.014 A 
ATOM     32  C   UNL A   1      34.645  30.787  28.098  1.00  0.00     0.014 A 
ATOM     33  C   UNL A   1      36.633  32.715  28.502  1.00  0.00     0.010 A 
ATOM     34  C   UNL A   1      35.837  30.437  28.719  1.00  0.00     0.010 A 
ATOM     35  C   UNL A   1      36.833  31.400  28.955  1.00  0.00    -0.014 A 
BRANCH  35  36
ATOM     36  C   UNL A   1      38.048  30.997  29.714  1.00  0.00     0.031 A 
ATOM     37  C   UNL A   1      38.988  29.985  29.122  1.00  0.00     0.074 A 
ATOM     38  C   UNL A   1      38.222  31.419  30.983  1.00  0.00     0.049 A 
ATOM     39  N   UNL A   1      39.964  29.327  29.688  1.00  0.00    -0.248 NA
ATOM     40  C   UNL A   1      38.754  29.635  27.714  1.00  0.00     0.031 C 
ATOM     41  C   UNL A   1      37.349  32.355  31.694  1.00  0.00     0.029 A 
ATOM     42  N   UNL A   1      39.175  31.084  31.913  1.00  0.00    -0.354 N 
ATOM     43  C   UNL A   1      40.434  28.446  28.719  1.00  0.00     0.074 A 
ATOM     44  C   UNL A   1      39.594  28.625  27.553  1.00  0.00     0.031 C 
ATOM     45  C   UNL A   1      37.802  32.516  32.947  1.00  0.00     0.029 A 
ATOM     46  C   UNL A   1      38.967  31.659  33.147  1.00  0.00     0.049 A 
ATOM     47  H   UNL A   1      39.933  30.488  31.718  1.00  0.00     0.167 HD
ATOM     48  C   UNL A   1      41.478  27.581  28.791  1.00  0.00     0.034 A 
ATOM     49  C   UNL A   1      39.619  31.494  34.315  1.00  0.00     0.034 A 
ATOM     50  C   UNL A   1      42.319  27.440  29.954  1.00  0.00     0.049 A 
ATOM     51  C   UNL A   1      40.791  30.551  34.373  1.00  0.00     0.074 A 
ATOM     52  C   UNL A   1      43.451  26.659  30.112  1.00  0.00     0.029 A 
ATOM     53  N   UNL A   1      42.117  28.091  31.165  1.00  0.00    -0.354 N 
ATOM     54  N   UNL A   1      41.259  29.761  33.435  1.00  0.00    -0.248 NA
ATOM     55  C   UNL A   1      41.527  30.484  35.641  1.00  0.00     0.031 C 
ATOM     56  C   UNL A   1      43.899  26.795  31.431  1.00  0.00     0.029 A 
ATOM     57  C   UNL A   1      43.088  27.712  32.080  1.00  0.00     0.049 A 
ATOM     58  H   UNL A   1      41.388  28.729  31.347  1.00  0.00     0.167 HD
ATOM     59  C   UNL A   1      42.361  29.120  33.994  1.00  0.00     0.074 A 
ATOM     60  C   UNL A   1      42.489  29.618  35.348  1.00  0.00     0.031 C 
ATOM     61  C   UNL A   1      43.197  28.211  33.431  1.00  0.00     0.034 A 
BRANCH  48  62
ATOM     62  C   UNL A   1      41.727  26.707  27.584  1.00  0.00     0.023 A 
ATOM     63  C   UNL A   1      41.258  25.382  27.523  1.00  0.00     0.031 A 
ATOM     64  C   UNL A   1      42.511  27.174  26.514  1.00  0.00     0.131 A 
ATOM     65  C   UNL A   1      41.674  24.539  26.483  1.00  0.00     0.055 A 
ATOM     66  C   UNL A   1      42.838  26.357  25.429  1.00  0.00     0.041 A 
ATOM     67  F   UNL A   1      43.002  28.423  26.519  1.00  0.00    -0.206 F 
ATOM     68  C   UNL A   1      42.441  25.023  25.422  1.00  0.00     0.022 A 
BRANCH  65  69
ATOM     69  S   UNL A   1      41.366  22.758  26.647  1.00  0.00     0.124 S 
ATOM     70  O   UNL A   1      42.091  22.226  25.495  1.00  0.00    -0.237 OA
ATOM     71  O   UNL A   1      41.937  22.459  27.955  1.00  0.00    -0.237 OA
ATOM     72  O   UNL A   1      39.911  22.652  26.561  1.00  0.00    -0.744 OA
ENDBRANCH  65  69
ENDBRANCH  48  62
BRANCH  49  73
ATOM     73  C   UNL A   1      39.159  32.219  35.531  1.00  0.00     0.023 A 
ATOM     74  C   UNL A   1      38.444  31.559  36.542  1.00  0.00     0.031 A 
ATOM     75  C   UNL A   1      39.437  33.588  35.700  1.00  0.00     0.131 A 
ATOM     76  C   UNL A   1      38.007  32.275  37.669  1.00  0.00     0.055 A 
ATOM     77  C   UNL A   1      39.032  34.286  36.839  1.00  0.00     0.041 A 
ATOM     78  F   UNL A   1      40.131  34.259  34.767  1.00  0.00    -0.206 F 
ATOM     79  C   UNL A   1      38.307  33.630  37.829  1.00  0.00     0.022 A 
BRANCH  76  80
ATOM     80  S   UNL A   1      37.012  31.412  38.916  1.00  0.00     0.124 S 
ATOM     81  O   UNL A   1      37.880  31.479  40.087  1.00  0.00    -0.237 OA
ATOM     82  O   UNL A   1      35.807  32.234  38.964  1.00  0.00    -0.237 OA
ATOM     83  O   UNL A   1      36.832  30.079  38.345  1.00  0.00    -0.744 OA
ENDBRANCH  76  80
ENDBRANCH  49  73
BRANCH  61  84
ATOM     84  C   UNL A   1      44.359  27.737  34.266  1.00  0.00     0.023 A 
ATOM     85  C   UNL A   1      44.277  26.590  35.073  1.00  0.00     0.031 A 
ATOM     86  C   UNL A   1      45.576  28.443  34.235  1.00  0.00     0.131 A 
ATOM     87  C   UNL A   1      45.383  26.200  35.845  1.00  0.00     0.055 A 
ATOM     88  C   UNL A   1      46.686  28.024  34.969  1.00  0.00     0.041 A 
ATOM     89  F   UNL A   1      45.705  29.546  33.481  1.00  0.00    -0.206 F 
ATOM     90  C   UNL A   1      46.591  26.902  35.785  1.00  0.00     0.022 A 
BRANCH  87  91
ATOM     91  S   UNL A   1      45.210  24.791  36.974  1.00  0.00     0.124 S 
ATOM     92  O   UNL A   1      46.270  25.047  37.943  1.00  0.00    -0.237 OA
ATOM     93  O   UNL A   1      43.844  24.948  37.465  1.00  0.00    -0.237 OA
ATOM     94  O   UNL A   1      45.425  23.631  36.110  1.00  0.00    -0.744 OA
ENDBRANCH  87  91
ENDBRANCH  61  84
ENDBRANCH  35  36
ENDBRANCH  27  30
ENDBRANCH  25  26
ENDBRANCH  24  25
ENDBRANCH   1  24
TORSDOF 17
ENDMDL
MODEL 2
REMARK VINA RESULT:     -12.1      2.175      8.490
REMARK SMILES C[C@H](C(=O)NCCCCNC(=O)c1ccc(-c2c3nc(c(-c4cc(S(=O)(=O)[O-])ccc4F)c4ccc([nH]4)c(-c4cc(S(=O)(=O)[O-])ccc4F)c4nc(c(-c5cc(S(=O)(=O)[O-])ccc5F)c5ccc2[nH]5)C=C4)C=C3)cc1)[C@H](C)[N@@H+]1CC[C@H]([NH+]2CCCCC2)C1
REMARK SMILES IDX 7 1 6 2 5 3 3 4 4 5 2 7 1 8 76 9 77 10 78 11 79 12 88 13
REMARK SMILES IDX 80 15 81 16 82 17 83 18 87 19 84 21 86 22 85 23 8 24 9 25
REMARK SMILES IDX 10 26 11 27 12 29 13 30 14 31 75 32 15 33 74 34 16 35 17 36
REMARK SMILES IDX 18 37 68 38 19 39 73 40 67 41 69 42 20 43 72 44 66 45 65 46
REMARK SMILES IDX 21 48 53 49 33 50 52 51 34 52 37 53 51 54 70 55 35 56 36 57
REMARK SMILES IDX 50 59 71 60 38 61 22 62 23 63 31 64 24 65 30 66 32 67 29 68
REMARK SMILES IDX 25 69 26 70 27 71 28 72 54 73 55 74 63 75 56 76 62 77 64 78
REMARK SMILES IDX 61 79 57 80 58 81 59 82 60 83 39 84 40 85 48 86 41 87 47 88
REMARK SMILES IDX 49 89 46 90 42 91 43 92 44 93 45 94
REMARK H PARENT 5 6 78 14 82 20 10 28 69 47 37 58
REMARK Flexibility Score: inf
ROOT
ATOM      1  C   UNL A   1      31.774  28.224  27.072  1.00  0.00     0.023 C 
ENDROOT
BRANCH   1   2
ATOM      2  C   UNL A   1      31.915  26.811  26.529  1.00  0.00     0.116 C 
BRANCH   2   3
ATOM      3  N   UNL A   1      30.816  25.907  26.752  1.00  0.00    -0.356 N 
ATOM      4  C   UNL A   1      30.673  24.643  26.248  1.00  0.00     0.228 C 
ATOM      5  O   UNL A   1      30.106  23.820  26.979  1.00  0.00    -0.275 OA
ATOM      6  H   UNL A   1      30.090  26.233  27.330  1.00  0.00     0.163 HD
BRANCH   4   7
ATOM      7  C   UNL A   1      31.004  24.250  24.794  1.00  0.00     0.133 C 
ATOM      8  C   UNL A   1      30.279  25.181  23.823  1.00  0.00     0.024 C 
BRANCH   7   9
ATOM      9  C   UNL A   1      32.438  23.852  24.327  1.00  0.00     0.193 C 
ATOM     10  C   UNL A   1      32.534  23.870  22.792  1.00  0.00     0.076 C 
BRANCH   9  11
ATOM     11  N   UNL A   1      33.085  22.701  24.922  1.00  0.00    -0.327 N 
ATOM     12  C   UNL A   1      34.506  22.663  25.184  1.00  0.00     0.269 C 
ATOM     13  C   UNL A   1      32.452  21.402  25.082  1.00  0.00     0.328 C 
ATOM     14  H   UNL A   1      32.568  23.337  25.527  1.00  0.00     0.348 HD
ATOM     15  C   UNL A   1      34.872  21.202  24.982  1.00  0.00     0.132 C 
ATOM     16  C   UNL A   1      33.609  20.414  25.367  1.00  0.00     0.245 C 
BRANCH  16  17
ATOM     17  N   UNL A   1      33.481  19.053  24.790  1.00  0.00    -0.328 N 
ATOM     18  C   UNL A   1      32.699  19.010  23.545  1.00  0.00     0.262 C 
ATOM     19  C   UNL A   1      34.801  18.417  24.626  1.00  0.00     0.262 C 
ATOM     20  H   UNL A   1      32.946  18.509  25.467  1.00  0.00     0.348 HD
ATOM     21  C   UNL A   1      32.557  17.593  22.990  1.00  0.00     0.062 C 
ATOM     22  C   UNL A   1      34.706  16.992  24.079  1.00  0.00     0.062 C 
ATOM     23  C   UNL A   1      33.917  16.953  22.778  1.00  0.00     0.012 C 
ENDBRANCH  16  17
ENDBRANCH   9  11
ENDBRANCH   7   9
ENDBRANCH   4   7
ENDBRANCH   2   3
ENDBRANCH   1   2
BRANCH   1  24
ATOM     24  C   UNL A   1      31.635  29.327  26.032  1.00  0.00     0.023 C 
BRANCH  24  25
ATOM     25  C   UNL A   1      32.807  30.300  25.921  1.00  0.00     0.116 C 
BRANCH  25  26
ATOM     26  N   UNL A   1      32.587  31.598  26.550  1.00  0.00    -0.352 N 
ATOM     27  C   UNL A   1      33.415  32.261  27.438  1.00  0.00     0.251 C 
ATOM     28  H   UNL A   1      31.749  32.058  26.312  1.00  0.00     0.163 HD
ATOM     29  O   UNL A   1      33.085  33.328  27.931  1.00  0.00    -0.269 OA
BRANCH  27  30
ATOM     30  C   UNL A   1      34.689  31.610  27.820  1.00  0.00     0.039 A 
ATOM     31  C   UNL A   1      35.807  32.406  28.083  1.00  0.00     0.014 A 
ATOM     32  C   UNL A   1      34.717  30.237  28.066  1.00  0.00     0.014 A 
ATOM     33  C   UNL A   1      36.916  31.840  28.717  1.00  0.00     0.010 A 
ATOM     34  C   UNL A   1      35.789  29.697  28.767  1.00  0.00     0.010 A 
ATOM     35  C   UNL A   1      36.887  30.497  29.126  1.00  0.00    -0.014 A 
BRANCH  35  36
ATOM     36  C   UNL A   1      37.961  29.898  29.963  1.00  0.00     0.031 A 
ATOM     37  C   UNL A   1      38.162  30.386  31.370  1.00  0.00     0.074 A 
ATOM     38  C   UNL A   1      38.842  29.035  29.416  1.00  0.00     0.049 A 
ATOM     39  N   UNL A   1      39.160  30.177  32.188  1.00  0.00    -0.248 NA
ATOM     40  C   UNL A   1      37.118  31.274  31.899  1.00  0.00     0.031 C 
ATOM     41  C   UNL A   1      38.792  28.528  28.043  1.00  0.00     0.029 A 
ATOM     42  N   UNL A   1      39.974  28.462  29.939  1.00  0.00    -0.354 N 
ATOM     43  C   UNL A   1      38.887  30.947  33.315  1.00  0.00     0.074 A 
ATOM     44  C   UNL A   1      37.659  31.663  33.042  1.00  0.00     0.031 C 
ATOM     45  C   UNL A   1      39.846  27.724  27.832  1.00  0.00     0.029 A 
ATOM     46  C   UNL A   1      40.674  27.696  29.034  1.00  0.00     0.049 A 
ATOM     47  H   UNL A   1      40.260  28.587  30.873  1.00  0.00     0.167 HD
ATOM     48  C   UNL A   1      39.589  31.034  34.473  1.00  0.00     0.034 A 
ATOM     49  C   UNL A   1      41.861  27.068  29.145  1.00  0.00     0.034 A 
ATOM     50  C   UNL A   1      40.796  30.289  34.734  1.00  0.00     0.049 A 
ATOM     51  C   UNL A   1      42.615  27.153  30.445  1.00  0.00     0.074 A 
ATOM     52  C   UNL A   1      41.544  30.234  35.898  1.00  0.00     0.029 A 
ATOM     53  N   UNL A   1      41.439  29.470  33.814  1.00  0.00    -0.354 N 
ATOM     54  N   UNL A   1      42.323  27.842  31.524  1.00  0.00    -0.248 NA
ATOM     55  C   UNL A   1      43.853  26.369  30.547  1.00  0.00     0.031 C 
ATOM     56  C   UNL A   1      42.665  29.430  35.664  1.00  0.00     0.029 A 
ATOM     57  C   UNL A   1      42.585  28.926  34.375  1.00  0.00     0.049 A 
ATOM     58  H   UNL A   1      41.126  29.301  32.895  1.00  0.00     0.167 HD
ATOM     59  C   UNL A   1      43.329  27.555  32.441  1.00  0.00     0.074 A 
ATOM     60  C   UNL A   1      44.233  26.629  31.791  1.00  0.00     0.031 C 
ATOM     61  C   UNL A   1      43.482  28.009  33.711  1.00  0.00     0.034 A 
BRANCH  48  62
ATOM     62  C   UNL A   1      39.073  31.999  35.516  1.00  0.00     0.023 A 
ATOM     63  C   UNL A   1      39.496  33.339  35.554  1.00  0.00     0.031 A 
ATOM     64  C   UNL A   1      38.209  31.555  36.532  1.00  0.00     0.131 A 
ATOM     65  C   UNL A   1      39.155  34.151  36.645  1.00  0.00     0.055 A 
ATOM     66  C   UNL A   1      37.791  32.400  37.564  1.00  0.00     0.041 A 
ATOM     67  F   UNL A   1      37.781  30.283  36.561  1.00  0.00    -0.206 F 
ATOM     68  C   UNL A   1      38.285  33.699  37.638  1.00  0.00     0.022 A 
BRANCH  65  69
ATOM     69  S   UNL A   1      40.028  35.730  36.846  1.00  0.00     0.124 S 
ATOM     70  O   UNL A   1      41.419  35.290  36.925  1.00  0.00    -0.237 OA
ATOM     71  O   UNL A   1      39.653  36.453  35.637  1.00  0.00    -0.237 OA
ATOM     72  O   UNL A   1      39.482  36.267  38.091  1.00  0.00    -0.744 OA
ENDBRANCH  65  69
ENDBRANCH  48  62
BRANCH  49  73
ATOM     73  C   UNL A   1      42.421  26.327  27.982  1.00  0.00     0.023 A 
ATOM     74  C   UNL A   1      42.046  25.001  27.717  1.00  0.00     0.031 A 
ATOM     75  C   UNL A   1      43.340  26.943  27.112  1.00  0.00     0.131 A 
ATOM     76  C   UNL A   1      42.607  24.323  26.623  1.00  0.00     0.055 A 
ATOM     77  C   UNL A   1      43.866  26.276  26.005  1.00  0.00     0.041 A 
ATOM     78  F   UNL A   1      43.717  28.215  27.316  1.00  0.00    -0.206 F 
ATOM     79  C   UNL A   1      43.505  24.955  25.759  1.00  0.00     0.022 A 
BRANCH  76  80
ATOM     80  S   UNL A   1      42.167  22.583  26.358  1.00  0.00     0.124 S 
ATOM     81  O   UNL A   1      42.654  22.356  25.002  1.00  0.00    -0.237 OA
ATOM     82  O   UNL A   1      42.907  21.917  27.425  1.00  0.00    -0.237 OA
ATOM     83  O   UNL A   1      40.714  22.572  26.511  1.00  0.00    -0.744 OA
ENDBRANCH  76  80
ENDBRANCH  49  73
BRANCH  61  84
ATOM     84  C   UNL A   1      44.646  27.466  34.500  1.00  0.00     0.023 A 
ATOM     85  C   UNL A   1      44.616  26.190  35.088  1.00  0.00     0.031 A 
ATOM     86  C   UNL A   1      45.812  28.239  34.648  1.00  0.00     0.131 A 
ATOM     87  C   UNL A   1      45.720  25.737  35.827  1.00  0.00     0.055 A 
ATOM     88  C   UNL A   1      46.924  27.765  35.345  1.00  0.00     0.041 A 
ATOM     89  F   UNL A   1      45.890  29.465  34.107  1.00  0.00    -0.206 F 
ATOM     90  C   UNL A   1      46.879  26.511  35.945  1.00  0.00     0.022 A 
BRANCH  87  91
ATOM     91  S   UNL A   1      45.607  24.141  36.682  1.00  0.00     0.124 S 
ATOM     92  O   UNL A   1      44.915  24.506  37.913  1.00  0.00    -0.237 OA
ATOM     93  O   UNL A   1      44.844  23.332  35.736  1.00  0.00    -0.237 OA
ATOM     94  O   UNL A   1      47.004  23.743  36.850  1.00  0.00    -0.744 OA
ENDBRANCH  87  91
ENDBRANCH  61  84
ENDBRANCH  35  36
ENDBRANCH  27  30
ENDBRANCH  25  26
ENDBRANCH  24  25
ENDBRANCH   1  24
TORSDOF 17
ENDMDL
MODEL 3
REMARK VINA RESULT:     -12.1      1.162      3.085
REMARK SMILES C[C@H](C(=O)NCCCCNC(=O)c1ccc(-c2c3nc(c(-c4cc(S(=O)(=O)[O-])ccc4F)c4ccc([nH]4)c(-c4cc(S(=O)(=O)[O-])ccc4F)c4nc(c(-c5cc(S(=O)(=O)[O-])ccc5F)c5ccc2[nH]5)C=C4)C=C3)cc1)[C@H](C)[N@@H+]1CC[C@H]([NH+]2CCCCC2)C1
REMARK SMILES IDX 7 1 6 2 5 3 3 4 4 5 2 7 1 8 76 9 77 10 78 11 79 12 88 13
REMARK SMILES IDX 80 15 81 16 82 17 83 18 87 19 84 21 86 22 85 23 8 24 9 25
REMARK SMILES IDX 10 26 11 27 12 29 13 30 14 31 75 32 15 33 74 34 16 35 17 36
REMARK SMILES IDX 18 37 68 38 19 39 73 40 67 41 69 42 20 43 72 44 66 45 65 46
REMARK SMILES IDX 21 48 53 49 33 50 52 51 34 52 37 53 51 54 70 55 35 56 36 57
REMARK SMILES IDX 50 59 71 60 38 61 22 62 23 63 31 64 24 65 30 66 32 67 29 68
REMARK SMILES IDX 25 69 26 70 27 71 28 72 54 73 55 74 63 75 56 76 62 77 64 78
REMARK SMILES IDX 61 79 57 80 58 81 59 82 60 83 39 84 40 85 48 86 41 87 47 88
REMARK SMILES IDX 49 89 46 90 42 91 43 92 44 93 45 94
REMARK H PARENT 5 6 78 14 82 20 10 28 69 47 37 58
REMARK Flexibility Score: inf
ROOT
ATOM      1  C   UNL A   1      31.841  28.365  27.452  1.00  0.00     0.023 C 
ENDROOT
BRANCH   1   2
ATOM      2  C   UNL A   1      31.426  27.036  26.842  1.00  0.00     0.116 C 
BRANCH   2   3
ATOM      3  N   UNL A   1      32.449  26.268  26.180  1.00  0.00    -0.356 N 
ATOM      4  C   UNL A   1      33.229  26.666  25.128  1.00  0.00     0.228 C 
ATOM      5  O   UNL A   1      34.390  26.236  25.110  1.00  0.00    -0.275 OA
ATOM      6  H   UNL A   1      32.605  25.358  26.521  1.00  0.00     0.163 HD
BRANCH   4   7
ATOM      7  C   UNL A   1      32.701  27.447  23.908  1.00  0.00     0.133 C 
ATOM      8  C   UNL A   1      33.754  28.445  23.431  1.00  0.00     0.024 C 
BRANCH   7   9
ATOM      9  C   UNL A   1      31.906  26.774  22.747  1.00  0.00     0.193 C 
ATOM     10  C   UNL A   1      30.650  27.592  22.401  1.00  0.00     0.076 C 
BRANCH   9  11
ATOM     11  N   UNL A   1      31.659  25.347  22.790  1.00  0.00    -0.327 N 
ATOM     12  C   UNL A   1      30.542  24.777  23.510  1.00  0.00     0.269 C 
ATOM     13  C   UNL A   1      32.610  24.341  22.346  1.00  0.00     0.328 C 
ATOM     14  H   UNL A   1      31.393  25.864  21.952  1.00  0.00     0.348 HD
ATOM     15  C   UNL A   1      31.073  23.440  23.998  1.00  0.00     0.132 C 
ATOM     16  C   UNL A   1      32.103  23.006  22.943  1.00  0.00     0.245 C 
BRANCH  16  17
ATOM     17  N   UNL A   1      33.136  22.041  23.392  1.00  0.00    -0.328 N 
ATOM     18  C   UNL A   1      34.196  22.646  24.212  1.00  0.00     0.262 C 
ATOM     19  C   UNL A   1      32.526  20.879  24.062  1.00  0.00     0.262 C 
ATOM     20  H   UNL A   1      33.601  21.713  22.545  1.00  0.00     0.348 HD
ATOM     21  C   UNL A   1      35.263  21.637  24.633  1.00  0.00     0.062 C 
ATOM     22  C   UNL A   1      33.558  19.836  24.495  1.00  0.00     0.062 C 
ATOM     23  C   UNL A   1      34.641  20.461  25.365  1.00  0.00     0.012 C 
ENDBRANCH  16  17
ENDBRANCH   9  11
ENDBRANCH   7   9
ENDBRANCH   4   7
ENDBRANCH   2   3
ENDBRANCH   1   2
BRANCH   1  24
ATOM     24  C   UNL A   1      31.402  29.612  26.696  1.00  0.00     0.023 C 
BRANCH  24  25
ATOM     25  C   UNL A   1      32.493  30.638  26.398  1.00  0.00     0.116 C 
BRANCH  25  26
ATOM     26  N   UNL A   1      32.241  31.973  26.933  1.00  0.00    -0.352 N 
ATOM     27  C   UNL A   1      33.110  32.777  27.649  1.00  0.00     0.251 C 
ATOM     28  H   UNL A   1      31.346  32.345  26.762  1.00  0.00     0.163 HD
ATOM     29  O   UNL A   1      32.752  33.860  28.084  1.00  0.00    -0.269 OA
BRANCH  27  30
ATOM     30  C   UNL A   1      34.469  32.259  27.925  1.00  0.00     0.039 A 
ATOM     31  C   UNL A   1      35.548  33.147  27.926  1.00  0.00     0.014 A 
ATOM     32  C   UNL A   1      34.636  30.935  28.333  1.00  0.00     0.014 A 
ATOM     33  C   UNL A   1      36.771  32.738  28.461  1.00  0.00     0.010 A 
ATOM     34  C   UNL A   1      35.829  30.558  28.937  1.00  0.00     0.010 A 
ATOM     35  C   UNL A   1      36.900  31.463  29.035  1.00  0.00    -0.014 A 
BRANCH  35  36
ATOM     36  C   UNL A   1      38.118  31.045  29.780  1.00  0.00     0.031 A 
ATOM     37  C   UNL A   1      39.042  30.025  29.176  1.00  0.00     0.074 A 
ATOM     38  C   UNL A   1      38.311  31.462  31.048  1.00  0.00     0.049 A 
ATOM     39  N   UNL A   1      40.017  29.354  29.731  1.00  0.00    -0.248 NA
ATOM     40  C   UNL A   1      38.789  29.679  27.770  1.00  0.00     0.031 C 
ATOM     41  C   UNL A   1      37.455  32.406  31.770  1.00  0.00     0.029 A 
ATOM     42  N   UNL A   1      39.270  31.115  31.967  1.00  0.00    -0.354 N 
ATOM     43  C   UNL A   1      40.467  28.471  28.754  1.00  0.00     0.074 A 
ATOM     44  C   UNL A   1      39.616  28.661  27.598  1.00  0.00     0.031 C 
ATOM     45  C   UNL A   1      37.924  32.559  33.018  1.00  0.00     0.029 A 
ATOM     46  C   UNL A   1      39.082  31.690  33.204  1.00  0.00     0.049 A 
ATOM     47  H   UNL A   1      40.020  30.512  31.763  1.00  0.00     0.167 HD
ATOM     48  C   UNL A   1      41.502  27.595  28.813  1.00  0.00     0.034 A 
ATOM     49  C   UNL A   1      39.744  31.516  34.364  1.00  0.00     0.034 A 
ATOM     50  C   UNL A   1      42.354  27.442  29.967  1.00  0.00     0.049 A 
ATOM     51  C   UNL A   1      40.907  30.560  34.408  1.00  0.00     0.074 A 
ATOM     52  C   UNL A   1      43.480  26.649  30.111  1.00  0.00     0.029 A 
ATOM     53  N   UNL A   1      42.172  28.093  31.181  1.00  0.00    -0.354 N 
ATOM     54  N   UNL A   1      41.357  29.767  33.464  1.00  0.00    -0.248 NA
ATOM     55  C   UNL A   1      41.656  30.482  35.669  1.00  0.00     0.031 C 
ATOM     56  C   UNL A   1      43.943  26.777  31.426  1.00  0.00     0.029 A 
ATOM     57  C   UNL A   1      43.148  27.702  32.085  1.00  0.00     0.049 A 
ATOM     58  H   UNL A   1      41.452  28.738  31.372  1.00  0.00     0.167 HD
ATOM     59  C   UNL A   1      42.458  29.114  34.009  1.00  0.00     0.074 A 
ATOM     60  C   UNL A   1      42.605  29.607  35.363  1.00  0.00     0.031 C 
ATOM     61  C   UNL A   1      43.278  28.197  33.436  1.00  0.00     0.034 A 
BRANCH  48  62
ATOM     62  C   UNL A   1      41.729  26.720  27.602  1.00  0.00     0.023 A 
ATOM     63  C   UNL A   1      41.345  25.367  27.586  1.00  0.00     0.031 A 
ATOM     64  C   UNL A   1      42.409  27.221  26.478  1.00  0.00     0.131 A 
ATOM     65  C   UNL A   1      41.746  24.537  26.531  1.00  0.00     0.055 A 
ATOM     66  C   UNL A   1      42.718  26.410  25.382  1.00  0.00     0.041 A 
ATOM     67  F   UNL A   1      42.816  28.500  26.437  1.00  0.00    -0.206 F 
ATOM     68  C   UNL A   1      42.409  25.053  25.416  1.00  0.00     0.022 A 
BRANCH  65  69
ATOM     69  S   UNL A   1      41.568  22.742  26.734  1.00  0.00     0.124 S 
ATOM     70  O   UNL A   1      40.157  22.625  27.097  1.00  0.00    -0.237 OA
ATOM     71  O   UNL A   1      41.933  22.238  25.416  1.00  0.00    -0.237 OA
ATOM     72  O   UNL A   1      42.507  22.424  27.807  1.00  0.00    -0.744 OA
ENDBRANCH  65  69
ENDBRANCH  48  62
BRANCH  49  73
ATOM     73  C   UNL A   1      39.305  32.243  35.587  1.00  0.00     0.023 A 
ATOM     74  C   UNL A   1      38.523  31.611  36.566  1.00  0.00     0.031 A 
ATOM     75  C   UNL A   1      39.671  33.586  35.795  1.00  0.00     0.131 A 
ATOM     76  C   UNL A   1      38.109  32.329  37.699  1.00  0.00     0.055 A 
ATOM     77  C   UNL A   1      39.287  34.284  36.941  1.00  0.00     0.041 A 
ATOM     78  F   UNL A   1      40.431  34.228  34.895  1.00  0.00    -0.206 F 
ATOM     79  C   UNL A   1      38.495  33.658  37.898  1.00  0.00     0.022 A 
BRANCH  76  80
ATOM     80  S   UNL A   1      37.027  31.510  38.902  1.00  0.00     0.124 S 
ATOM     81  O   UNL A   1      36.891  30.178  38.321  1.00  0.00    -0.237 OA
ATOM     82  O   UNL A   1      37.814  31.597  40.128  1.00  0.00    -0.237 OA
ATOM     83  O   UNL A   1      35.816  32.327  38.883  1.00  0.00    -0.744 OA
ENDBRANCH  76  80
ENDBRANCH  49  73
BRANCH  61  84
ATOM     84  C   UNL A   1      44.443  27.708  34.257  1.00  0.00     0.023 A 
ATOM     85  C   UNL A   1      44.351  26.574  35.080  1.00  0.00     0.031 A 
ATOM     86  C   UNL A   1      45.674  28.388  34.197  1.00  0.00     0.131 A 
ATOM     87  C   UNL A   1      45.461  26.170  35.839  1.00  0.00     0.055 A 
ATOM     88  C   UNL A   1      46.788  27.955  34.918  1.00  0.00     0.041 A 
ATOM     89  F   UNL A   1      45.814  29.479  33.427  1.00  0.00    -0.206 F 
ATOM     90  C   UNL A   1      46.683  26.845  35.750  1.00  0.00     0.022 A 
BRANCH  87  91
ATOM     91  S   UNL A   1      45.278  24.780  36.989  1.00  0.00     0.124 S 
ATOM     92  O   UNL A   1      45.902  23.689  36.247  1.00  0.00    -0.237 OA
ATOM     93  O   UNL A   1      46.002  25.248  38.166  1.00  0.00    -0.237 OA
ATOM     94  O   UNL A   1      43.830  24.665  37.160  1.00  0.00    -0.744 OA
ENDBRANCH  87  91
ENDBRANCH  61  84
ENDBRANCH  35  36
ENDBRANCH  27  30
ENDBRANCH  25  26
ENDBRANCH  24  25
ENDBRANCH   1  24
TORSDOF 17
ENDMDL
