MODEL 1
REMARK VINA RESULT:     -12.0      0.000      0.000
REMARK SMILES Cn1cc(C[C@H](C(=O)NCCCCNC(=O)c2ccc(-c3c4nc(c(-c5cc(S(=O)(=O)[O-])ccc5F)c5ccc([nH]5)c(-c5cc(S(=O)(=O)[O-])ccc5F)c5nc(c(-c6cc(S(=O)(=O)[O-])ccc6F)c6ccc3[nH]6)C=C5)C=C4)cc2)c2ccc(F)cc2)cn1
REMARK SMILES IDX 12 1 11 2 10 3 9 4 7 5 8 6 6 8 5 9 4 10 1 11 2 12 3 13 88 14
REMARK SMILES IDX 87 15 80 16 81 17 86 18 82 19 85 20 83 21 84 22 13 23 14 24
REMARK SMILES IDX 15 25 16 27 17 28 18 29 79 30 19 31 78 32 20 33 21 34 22 35
REMARK SMILES IDX 72 36 23 37 77 38 71 39 73 40 24 41 76 42 70 43 69 44 25 46
REMARK SMILES IDX 57 47 37 48 56 49 38 50 41 51 55 52 74 53 39 54 40 55 54 57
REMARK SMILES IDX 75 58 42 59 26 60 27 61 35 62 28 63 34 64 36 65 33 66 29 67
REMARK SMILES IDX 30 68 31 69 32 70 58 71 59 72 67 73 60 74 66 75 68 76 65 77
REMARK SMILES IDX 61 78 62 79 63 80 64 81 43 82 44 83 52 84 45 85 51 86 53 87
REMARK SMILES IDX 50 88 46 89 47 90 48 91 49 92
REMARK H PARENT 9 7 14 26 73 45 41 56
REMARK Flexibility Score: inf
ROOT
ATOM      1  C   UNL A   1      31.478  32.084  26.549  1.00  0.00     0.023 C 
ENDROOT
BRANCH   1   2
ATOM      2  C   UNL A   1      31.496  30.570  26.335  1.00  0.00     0.023 C 
BRANCH   2   3
ATOM      3  C   UNL A   1      32.877  29.995  26.016  1.00  0.00     0.116 C 
BRANCH   3   4
ATOM      4  N   UNL A   1      32.995  29.709  24.602  1.00  0.00    -0.356 N 
ATOM      5  C   UNL A   1      32.343  28.777  23.850  1.00  0.00     0.227 C 
ATOM      6  O   UNL A   1      32.779  28.581  22.711  1.00  0.00    -0.274 OA
ATOM      7  H   UNL A   1      33.641  30.268  24.112  1.00  0.00     0.163 HD
BRANCH   5   8
ATOM      8  C   UNL A   1      31.088  28.047  24.381  1.00  0.00     0.113 C 
BRANCH   8   9
ATOM      9  C   UNL A   1      30.129  27.898  23.179  1.00  0.00     0.057 C 
BRANCH   9  10
ATOM     10  C   UNL A   1      29.172  29.004  22.879  1.00  0.00    -0.009 A 
ATOM     11  C   UNL A   1      28.285  32.368  21.927  1.00  0.00     0.173 C 
ATOM     12  N   UNL A   1      28.393  30.984  22.319  1.00  0.00    -0.276 N 
ATOM     13  C   UNL A   1      29.538  30.260  22.431  1.00  0.00     0.112 A 
ATOM     14  N   UNL A   1      27.291  30.290  22.648  1.00  0.00    -0.182 NA
ATOM     15  C   UNL A   1      27.766  29.086  22.984  1.00  0.00     0.138 A 
ENDBRANCH   9  10
ENDBRANCH   8   9
BRANCH   8  16
ATOM     16  C   UNL A   1      31.434  26.721  25.057  1.00  0.00    -0.035 A 
ATOM     17  C   UNL A   1      30.410  25.814  25.397  1.00  0.00     0.007 A 
ATOM     18  C   UNL A   1      32.755  26.398  25.410  1.00  0.00     0.007 A 
ATOM     19  C   UNL A   1      30.691  24.654  26.121  1.00  0.00     0.039 A 
ATOM     20  C   UNL A   1      33.037  25.221  26.109  1.00  0.00     0.039 A 
ATOM     21  C   UNL A   1      32.002  24.368  26.472  1.00  0.00     0.123 A 
ATOM     22  F   UNL A   1      32.272  23.262  27.177  1.00  0.00    -0.207 F 
ENDBRANCH   8  16
ENDBRANCH   5   8
ENDBRANCH   3   4
ENDBRANCH   2   3
ENDBRANCH   1   2
BRANCH   1  23
ATOM     23  C   UNL A   1      32.773  32.663  27.104  1.00  0.00     0.116 C 
BRANCH  23  24
ATOM     24  N   UNL A   1      32.602  33.974  27.711  1.00  0.00    -0.352 N 
ATOM     25  C   UNL A   1      33.335  34.550  28.723  1.00  0.00     0.251 C 
ATOM     26  H   UNL A   1      31.866  34.521  27.350  1.00  0.00     0.163 HD
ATOM     27  O   UNL A   1      32.998  35.628  29.191  1.00  0.00    -0.269 OA
BRANCH  25  28
ATOM     28  C   UNL A   1      34.500  33.819  29.265  1.00  0.00     0.039 A 
ATOM     29  C   UNL A   1      35.783  34.279  28.961  1.00  0.00     0.014 A 
ATOM     30  C   UNL A   1      34.322  32.725  30.115  1.00  0.00     0.014 A 
ATOM     31  C   UNL A   1      36.889  33.688  29.573  1.00  0.00     0.010 A 
ATOM     32  C   UNL A   1      35.420  32.183  30.776  1.00  0.00     0.010 A 
ATOM     33  C   UNL A   1      36.713  32.662  30.516  1.00  0.00    -0.014 A 
BRANCH  33  34
ATOM     34  C   UNL A   1      37.867  32.077  31.243  1.00  0.00     0.031 A 
ATOM     35  C   UNL A   1      38.671  30.976  30.610  1.00  0.00     0.074 A 
ATOM     36  C   UNL A   1      38.141  32.486  32.498  1.00  0.00     0.049 A 
ATOM     37  N   UNL A   1      39.653  30.273  31.112  1.00  0.00    -0.248 NA
ATOM     38  C   UNL A   1      38.294  30.591  29.242  1.00  0.00     0.031 C 
ATOM     39  C   UNL A   1      37.399  33.513  33.234  1.00  0.00     0.029 A 
ATOM     40  N   UNL A   1      39.109  32.082  33.382  1.00  0.00    -0.354 N 
ATOM     41  C   UNL A   1      40.001  29.354  30.129  1.00  0.00     0.074 A 
ATOM     42  C   UNL A   1      39.082  29.550  29.028  1.00  0.00     0.031 C 
ATOM     43  C   UNL A   1      37.952  33.671  34.448  1.00  0.00     0.029 A 
ATOM     44  C   UNL A   1      39.059  32.732  34.594  1.00  0.00     0.049 A 
ATOM     45  H   UNL A   1      39.777  31.390  33.170  1.00  0.00     0.167 HD
ATOM     46  C   UNL A   1      41.010  28.447  30.134  1.00  0.00     0.034 A 
ATOM     47  C   UNL A   1      39.814  32.579  35.701  1.00  0.00     0.034 A 
ATOM     48  C   UNL A   1      41.929  28.279  31.234  1.00  0.00     0.049 A 
ATOM     49  C   UNL A   1      40.925  31.561  35.686  1.00  0.00     0.074 A 
ATOM     50  C   UNL A   1      43.023  27.438  31.324  1.00  0.00     0.029 A 
ATOM     51  N   UNL A   1      41.858  28.966  32.440  1.00  0.00    -0.354 N 
ATOM     52  N   UNL A   1      41.276  30.735  34.727  1.00  0.00    -0.248 NA
ATOM     53  C   UNL A   1      41.747  31.462  36.898  1.00  0.00     0.031 C 
ATOM     54  C   UNL A   1      43.578  27.573  32.601  1.00  0.00     0.029 A 
ATOM     55  C   UNL A   1      42.871  28.548  33.287  1.00  0.00     0.049 A 
ATOM     56  H   UNL A   1      41.185  29.651  32.660  1.00  0.00     0.167 HD
ATOM     57  C   UNL A   1      42.378  30.037  35.212  1.00  0.00     0.074 A 
ATOM     58  C   UNL A   1      42.641  30.551  36.541  1.00  0.00     0.031 C 
ATOM     59  C   UNL A   1      43.110  29.062  34.615  1.00  0.00     0.034 A 
BRANCH  46  60
ATOM     60  C   UNL A   1      41.149  27.559  28.922  1.00  0.00     0.023 A 
ATOM     61  C   UNL A   1      42.163  27.767  27.970  1.00  0.00     0.031 A 
ATOM     62  C   UNL A   1      40.236  26.515  28.693  1.00  0.00     0.131 A 
ATOM     63  C   UNL A   1      42.192  26.998  26.796  1.00  0.00     0.055 A 
ATOM     64  C   UNL A   1      40.321  25.699  27.563  1.00  0.00     0.041 A 
ATOM     65  F   UNL A   1      39.235  26.281  29.555  1.00  0.00    -0.206 F 
ATOM     66  C   UNL A   1      41.292  25.949  26.598  1.00  0.00     0.022 A 
BRANCH  63  67
ATOM     67  S   UNL A   1      43.328  27.487  25.471  1.00  0.00     0.124 S 
ATOM     68  O   UNL A   1      44.077  26.251  25.255  1.00  0.00    -0.237 OA
ATOM     69  O   UNL A   1      42.418  27.878  24.401  1.00  0.00    -0.237 OA
ATOM     70  O   UNL A   1      44.099  28.578  26.065  1.00  0.00    -0.744 OA
ENDBRANCH  63  67
ENDBRANCH  46  60
BRANCH  47  71
ATOM     71  C   UNL A   1      39.548  33.397  36.917  1.00  0.00     0.023 A 
ATOM     72  C   UNL A   1      38.832  32.866  38.001  1.00  0.00     0.031 A 
ATOM     73  C   UNL A   1      39.967  34.737  36.995  1.00  0.00     0.131 A 
ATOM     74  C   UNL A   1      38.514  33.683  39.098  1.00  0.00     0.055 A 
ATOM     75  C   UNL A   1      39.692  35.531  38.109  1.00  0.00     0.041 A 
ATOM     76  F   UNL A   1      40.662  35.290  35.988  1.00  0.00    -0.206 F 
ATOM     77  C   UNL A   1      38.949  35.009  39.164  1.00  0.00     0.022 A 
BRANCH  74  78
ATOM     78  S   UNL A   1      37.451  33.010  40.403  1.00  0.00     0.124 S 
ATOM     79  O   UNL A   1      37.416  34.111  41.358  1.00  0.00    -0.237 OA
ATOM     80  O   UNL A   1      36.212  32.749  39.678  1.00  0.00    -0.237 OA
ATOM     81  O   UNL A   1      38.172  31.819  40.849  1.00  0.00    -0.744 OA
ENDBRANCH  74  78
ENDBRANCH  47  71
BRANCH  59  82
ATOM     82  C   UNL A   1      44.286  28.523  35.389  1.00  0.00     0.023 A 
ATOM     83  C   UNL A   1      44.137  27.498  36.339  1.00  0.00     0.031 A 
ATOM     84  C   UNL A   1      45.572  29.053  35.179  1.00  0.00     0.131 A 
ATOM     85  C   UNL A   1      45.246  27.071  37.084  1.00  0.00     0.055 A 
ATOM     86  C   UNL A   1      46.681  28.584  35.884  1.00  0.00     0.041 A 
ATOM     87  F   UNL A   1      45.769  30.033  34.283  1.00  0.00    -0.206 F 
ATOM     88  C   UNL A   1      46.520  27.596  36.851  1.00  0.00     0.022 A 
BRANCH  85  89
ATOM     89  S   UNL A   1      44.987  25.872  38.421  1.00  0.00     0.124 S 
ATOM     90  O   UNL A   1      44.050  24.935  37.810  1.00  0.00    -0.237 OA
ATOM     91  O   UNL A   1      46.335  25.366  38.653  1.00  0.00    -0.237 OA
ATOM     92  O   UNL A   1      44.435  26.683  39.506  1.00  0.00    -0.744 OA
ENDBRANCH  85  89
ENDBRANCH  59  82
ENDBRANCH  33  34
ENDBRANCH  25  28
ENDBRANCH  23  24
ENDBRANCH   1  23
TORSDOF 17
ENDMDL
MODEL 2
REMARK VINA RESULT:     -12.0      4.134      9.250
REMARK SMILES Cn1cc(C[C@H](C(=O)NCCCCNC(=O)c2ccc(-c3c4nc(c(-c5cc(S(=O)(=O)[O-])ccc5F)c5ccc([nH]5)c(-c5cc(S(=O)(=O)[O-])ccc5F)c5nc(c(-c6cc(S(=O)(=O)[O-])ccc6F)c6ccc3[nH]6)C=C5)C=C4)cc2)c2ccc(F)cc2)cn1
REMARK SMILES IDX 12 1 11 2 10 3 9 4 7 5 8 6 6 8 5 9 4 10 1 11 2 12 3 13 88 14
REMARK SMILES IDX 87 15 80 16 81 17 86 18 82 19 85 20 83 21 84 22 13 23 14 24
REMARK SMILES IDX 15 25 16 27 17 28 18 29 79 30 19 31 78 32 20 33 21 34 22 35
REMARK SMILES IDX 72 36 23 37 77 38 71 39 73 40 24 41 76 42 70 43 69 44 25 46
REMARK SMILES IDX 57 47 37 48 56 49 38 50 41 51 55 52 74 53 39 54 40 55 54 57
REMARK SMILES IDX 75 58 42 59 26 60 27 61 35 62 28 63 34 64 36 65 33 66 29 67
REMARK SMILES IDX 30 68 31 69 32 70 58 71 59 72 67 73 60 74 66 75 68 76 65 77
REMARK SMILES IDX 61 78 62 79 63 80 64 81 43 82 44 83 52 84 45 85 51 86 53 87
REMARK SMILES IDX 50 88 46 89 47 90 48 91 49 92
REMARK H PARENT 9 7 14 26 73 45 41 56
REMARK Flexibility Score: inf
ROOT
ATOM      1  C   UNL A   1      33.198  27.881  25.669  1.00  0.00     0.023 C 
ENDROOT
BRANCH   1   2
ATOM      2  C   UNL A   1      33.393  27.229  24.299  1.00  0.00     0.023 C 
BRANCH   2   3
ATOM      3  C   UNL A   1      32.104  26.705  23.662  1.00  0.00     0.116 C 
BRANCH   3   4
ATOM      4  N   UNL A   1      32.392  26.012  22.425  1.00  0.00    -0.356 N 
ATOM      5  C   UNL A   1      32.892  24.758  22.231  1.00  0.00     0.227 C 
ATOM      6  O   UNL A   1      33.257  24.479  21.084  1.00  0.00    -0.274 OA
ATOM      7  H   UNL A   1      32.201  26.521  21.604  1.00  0.00     0.163 HD
BRANCH   5   8
ATOM      8  C   UNL A   1      32.944  23.725  23.379  1.00  0.00     0.113 C 
BRANCH   8   9
ATOM      9  C   UNL A   1      32.411  22.397  22.795  1.00  0.00     0.057 C 
BRANCH   9  10
ATOM     10  C   UNL A   1      32.391  21.184  23.666  1.00  0.00    -0.009 A 
ATOM     11  C   UNL A   1      32.537  17.637  24.305  1.00  0.00     0.173 C 
ATOM     12  N   UNL A   1      32.456  19.077  24.298  1.00  0.00    -0.276 N 
ATOM     13  C   UNL A   1      32.594  19.892  23.218  1.00  0.00     0.112 A 
ATOM     14  N   UNL A   1      32.189  19.742  25.434  1.00  0.00    -0.182 NA
ATOM     15  C   UNL A   1      32.155  21.022  25.049  1.00  0.00     0.138 A 
ENDBRANCH   9  10
ENDBRANCH   8   9
BRANCH   8  16
ATOM     16  C   UNL A   1      34.341  23.609  23.989  1.00  0.00    -0.035 A 
ATOM     17  C   UNL A   1      34.573  24.047  25.309  1.00  0.00     0.007 A 
ATOM     18  C   UNL A   1      35.430  23.128  23.244  1.00  0.00     0.007 A 
ATOM     19  C   UNL A   1      35.863  24.062  25.842  1.00  0.00     0.039 A 
ATOM     20  C   UNL A   1      36.716  23.116  23.792  1.00  0.00     0.039 A 
ATOM     21  C   UNL A   1      36.924  23.597  25.078  1.00  0.00     0.123 A 
ATOM     22  F   UNL A   1      38.164  23.622  25.584  1.00  0.00    -0.207 F 
ENDBRANCH   8  16
ENDBRANCH   5   8
ENDBRANCH   3   4
ENDBRANCH   2   3
ENDBRANCH   1   2
BRANCH   1  23
ATOM     23  C   UNL A   1      34.318  28.825  26.088  1.00  0.00     0.116 C 
BRANCH  23  24
ATOM     24  N   UNL A   1      33.838  30.125  26.529  1.00  0.00    -0.352 N 
ATOM     25  C   UNL A   1      34.371  30.952  27.491  1.00  0.00     0.251 C 
ATOM     26  H   UNL A   1      33.025  30.457  26.081  1.00  0.00     0.163 HD
ATOM     27  O   UNL A   1      33.785  31.976  27.817  1.00  0.00    -0.269 OA
BRANCH  25  28
ATOM     28  C   UNL A   1      35.630  30.554  28.156  1.00  0.00     0.039 A 
ATOM     29  C   UNL A   1      35.563  29.735  29.286  1.00  0.00     0.014 A 
ATOM     30  C   UNL A   1      36.866  30.938  27.631  1.00  0.00     0.014 A 
ATOM     31  C   UNL A   1      36.740  29.237  29.845  1.00  0.00     0.010 A 
ATOM     32  C   UNL A   1      38.033  30.385  28.147  1.00  0.00     0.010 A 
ATOM     33  C   UNL A   1      37.982  29.526  29.255  1.00  0.00    -0.014 A 
BRANCH  33  34
ATOM     34  C   UNL A   1      39.240  28.938  29.781  1.00  0.00     0.031 A 
ATOM     35  C   UNL A   1      39.920  29.562  30.967  1.00  0.00     0.074 A 
ATOM     36  C   UNL A   1      39.803  27.892  29.144  1.00  0.00     0.049 A 
ATOM     37  N   UNL A   1      41.066  29.258  31.519  1.00  0.00    -0.248 NA
ATOM     38  C   UNL A   1      39.234  30.703  31.592  1.00  0.00     0.031 C 
ATOM     39  C   UNL A   1      39.260  27.234  27.953  1.00  0.00     0.029 A 
ATOM     40  N   UNL A   1      40.963  27.205  29.400  1.00  0.00    -0.354 N 
ATOM     41  C   UNL A   1      41.246  30.179  32.545  1.00  0.00     0.074 A 
ATOM     42  C   UNL A   1      40.120  31.088  32.496  1.00  0.00     0.031 C 
ATOM     43  C   UNL A   1      40.075  26.228  27.595  1.00  0.00     0.029 A 
ATOM     44  C   UNL A   1      41.217  26.193  28.503  1.00  0.00     0.049 A 
ATOM     45  H   UNL A   1      41.559  27.417  30.154  1.00  0.00     0.167 HD
ATOM     46  C   UNL A   1      42.245  30.245  33.460  1.00  0.00     0.034 A 
ATOM     47  C   UNL A   1      42.258  25.341  28.416  1.00  0.00     0.034 A 
ATOM     48  C   UNL A   1      43.350  29.318  33.506  1.00  0.00     0.049 A 
ATOM     49  C   UNL A   1      43.360  25.437  29.440  1.00  0.00     0.074 A 
ATOM     50  C   UNL A   1      44.383  29.250  34.424  1.00  0.00     0.029 A 
ATOM     51  N   UNL A   1      43.567  28.294  32.591  1.00  0.00    -0.354 N 
ATOM     52  N   UNL A   1      43.490  26.280  30.438  1.00  0.00    -0.248 NA
ATOM     53  C   UNL A   1      44.451  24.460  29.331  1.00  0.00     0.031 C 
ATOM     54  C   UNL A   1      45.254  28.228  34.031  1.00  0.00     0.029 A 
ATOM     55  C   UNL A   1      44.730  27.611  32.907  1.00  0.00     0.049 A 
ATOM     56  H   UNL A   1      42.979  28.086  31.829  1.00  0.00     0.167 HD
ATOM     57  C   UNL A   1      44.664  25.917  31.092  1.00  0.00     0.074 A 
ATOM     58  C   UNL A   1      45.194  24.769  30.384  1.00  0.00     0.031 C 
ATOM     59  C   UNL A   1      45.250  26.477  32.181  1.00  0.00     0.034 A 
BRANCH  46  60
ATOM     60  C   UNL A   1      42.192  31.371  34.464  1.00  0.00     0.023 A 
ATOM     61  C   UNL A   1      41.247  31.385  35.504  1.00  0.00     0.031 A 
ATOM     62  C   UNL A   1      43.073  32.462  34.360  1.00  0.00     0.131 A 
ATOM     63  C   UNL A   1      41.148  32.503  36.347  1.00  0.00     0.055 A 
ATOM     64  C   UNL A   1      43.024  33.534  35.254  1.00  0.00     0.041 A 
ATOM     65  F   UNL A   1      43.984  32.515  33.376  1.00  0.00    -0.206 F 
ATOM     66  C   UNL A   1      42.047  33.566  36.245  1.00  0.00     0.022 A 
BRANCH  63  67
ATOM     67  S   UNL A   1      39.736  32.609  37.480  1.00  0.00     0.124 S 
ATOM     68  O   UNL A   1      38.915  31.486  37.032  1.00  0.00    -0.237 OA
ATOM     69  O   UNL A   1      40.366  32.459  38.786  1.00  0.00    -0.237 OA
ATOM     70  O   UNL A   1      39.174  33.930  37.205  1.00  0.00    -0.744 OA
ENDBRANCH  63  67
ENDBRANCH  46  60
BRANCH  47  71
ATOM     71  C   UNL A   1      42.320  24.330  27.324  1.00  0.00     0.023 A 
ATOM     72  C   UNL A   1      41.526  23.173  27.366  1.00  0.00     0.031 A 
ATOM     73  C   UNL A   1      43.207  24.482  26.244  1.00  0.00     0.131 A 
ATOM     74  C   UNL A   1      41.667  22.190  26.373  1.00  0.00     0.055 A 
ATOM     75  C   UNL A   1      43.309  23.526  25.233  1.00  0.00     0.041 A 
ATOM     76  F   UNL A   1      43.984  25.574  26.153  1.00  0.00    -0.206 F 
ATOM     77  C   UNL A   1      42.545  22.364  25.301  1.00  0.00     0.022 A 
BRANCH  74  78
ATOM     78  S   UNL A   1      40.743  20.640  26.550  1.00  0.00     0.124 S 
ATOM     79  O   UNL A   1      40.896  20.363  27.973  1.00  0.00    -0.237 OA
ATOM     80  O   UNL A   1      39.408  21.033  26.112  1.00  0.00    -0.237 OA
ATOM     81  O   UNL A   1      41.445  19.722  25.655  1.00  0.00    -0.744 OA
ENDBRANCH  74  78
ENDBRANCH  47  71
BRANCH  59  82
ATOM     82  C   UNL A   1      46.511  25.822  32.687  1.00  0.00     0.023 A 
ATOM     83  C   UNL A   1      47.766  26.102  32.119  1.00  0.00     0.031 A 
ATOM     84  C   UNL A   1      46.451  24.897  33.743  1.00  0.00     0.131 A 
ATOM     85  C   UNL A   1      48.905  25.422  32.575  1.00  0.00     0.055 A 
ATOM     86  C   UNL A   1      47.597  24.267  34.231  1.00  0.00     0.041 A 
ATOM     87  F   UNL A   1      45.277  24.595  34.321  1.00  0.00    -0.206 F 
ATOM     88  C   UNL A   1      48.831  24.519  33.638  1.00  0.00     0.022 A 
BRANCH  85  89
ATOM     89  S   UNL A   1      50.477  25.676  31.706  1.00  0.00     0.124 S 
ATOM     90  O   UNL A   1      51.410  25.857  32.814  1.00  0.00    -0.237 OA
ATOM     91  O   UNL A   1      50.619  24.439  30.947  1.00  0.00    -0.237 OA
ATOM     92  O   UNL A   1      50.233  26.872  30.900  1.00  0.00    -0.744 OA
ENDBRANCH  85  89
ENDBRANCH  59  82
ENDBRANCH  33  34
ENDBRANCH  25  28
ENDBRANCH  23  24
ENDBRANCH   1  23
TORSDOF 17
ENDMDL
MODEL 3
REMARK VINA RESULT:     -11.9      6.282     11.761
REMARK SMILES Cn1cc(C[C@H](C(=O)NCCCCNC(=O)c2ccc(-c3c4nc(c(-c5cc(S(=O)(=O)[O-])ccc5F)c5ccc([nH]5)c(-c5cc(S(=O)(=O)[O-])ccc5F)c5nc(c(-c6cc(S(=O)(=O)[O-])ccc6F)c6ccc3[nH]6)C=C5)C=C4)cc2)c2ccc(F)cc2)cn1
REMARK SMILES IDX 12 1 11 2 10 3 9 4 7 5 8 6 6 8 5 9 4 10 1 11 2 12 3 13 88 14
REMARK SMILES IDX 87 15 80 16 81 17 86 18 82 19 85 20 83 21 84 22 13 23 14 24
REMARK SMILES IDX 15 25 16 27 17 28 18 29 79 30 19 31 78 32 20 33 21 34 22 35
REMARK SMILES IDX 72 36 23 37 77 38 71 39 73 40 24 41 76 42 70 43 69 44 25 46
REMARK SMILES IDX 57 47 37 48 56 49 38 50 41 51 55 52 74 53 39 54 40 55 54 57
REMARK SMILES IDX 75 58 42 59 26 60 27 61 35 62 28 63 34 64 36 65 33 66 29 67
REMARK SMILES IDX 30 68 31 69 32 70 58 71 59 72 67 73 60 74 66 75 68 76 65 77
REMARK SMILES IDX 61 78 62 79 63 80 64 81 43 82 44 83 52 84 45 85 51 86 53 87
REMARK SMILES IDX 50 88 46 89 47 90 48 91 49 92
REMARK H PARENT 9 7 14 26 73 45 41 56
REMARK Flexibility Score: inf
ROOT
ATOM      1  C   UNL A   1      38.165  20.645  25.174  1.00  0.00     0.023 C 
ENDROOT
BRANCH   1   2
ATOM      2  C   UNL A   1      37.535  21.984  24.786  1.00  0.00     0.023 C 
BRANCH   2   3
ATOM      3  C   UNL A   1      36.157  22.234  25.402  1.00  0.00     0.116 C 
BRANCH   3   4
ATOM      4  N   UNL A   1      35.216  22.660  24.389  1.00  0.00    -0.356 N 
ATOM      5  C   UNL A   1      34.017  22.113  24.037  1.00  0.00     0.227 C 
ATOM      6  O   UNL A   1      33.505  22.529  22.993  1.00  0.00    -0.274 OA
ATOM      7  H   UNL A   1      35.481  23.460  23.878  1.00  0.00     0.163 HD
BRANCH   5   8
ATOM      8  C   UNL A   1      33.314  21.068  24.932  1.00  0.00     0.113 C 
BRANCH   8   9
ATOM      9  C   UNL A   1      31.828  21.485  25.004  1.00  0.00     0.057 C 
BRANCH   9  10
ATOM     10  C   UNL A   1      31.474  22.780  25.658  1.00  0.00    -0.009 A 
ATOM     11  C   UNL A   1      30.155  26.137  25.723  1.00  0.00     0.173 C 
ATOM     12  N   UNL A   1      30.723  24.829  25.942  1.00  0.00    -0.276 N 
ATOM     13  C   UNL A   1      30.820  23.825  25.030  1.00  0.00     0.112 A 
ATOM     14  N   UNL A   1      31.255  24.517  27.135  1.00  0.00    -0.182 NA
ATOM     15  C   UNL A   1      31.707  23.270  26.962  1.00  0.00     0.138 A 
ENDBRANCH   9  10
ENDBRANCH   8   9
BRANCH   8  16
ATOM     16  C   UNL A   1      33.526  19.641  24.429  1.00  0.00    -0.035 A 
ATOM     17  C   UNL A   1      34.687  18.929  24.793  1.00  0.00     0.007 A 
ATOM     18  C   UNL A   1      32.615  19.028  23.553  1.00  0.00     0.007 A 
ATOM     19  C   UNL A   1      34.957  17.672  24.249  1.00  0.00     0.039 A 
ATOM     20  C   UNL A   1      32.875  17.756  23.033  1.00  0.00     0.039 A 
ATOM     21  C   UNL A   1      34.049  17.097  23.373  1.00  0.00     0.123 A 
ATOM     22  F   UNL A   1      34.313  15.897  22.840  1.00  0.00    -0.207 F 
ENDBRANCH   8  16
ENDBRANCH   5   8
ENDBRANCH   3   4
ENDBRANCH   2   3
ENDBRANCH   1   2
BRANCH   1  23
ATOM     23  C   UNL A   1      39.355  20.752  26.119  1.00  0.00     0.116 C 
BRANCH  23  24
ATOM     24  N   UNL A   1      40.265  19.622  26.026  1.00  0.00    -0.352 N 
ATOM     25  C   UNL A   1      41.639  19.622  26.100  1.00  0.00     0.251 C 
ATOM     26  H   UNL A   1      39.844  18.741  25.892  1.00  0.00     0.163 HD
ATOM     27  O   UNL A   1      42.267  18.591  25.902  1.00  0.00    -0.269 OA
BRANCH  25  28
ATOM     28  C   UNL A   1      42.339  20.896  26.371  1.00  0.00     0.039 A 
ATOM     29  C   UNL A   1      42.642  21.737  25.297  1.00  0.00     0.014 A 
ATOM     30  C   UNL A   1      42.637  21.281  27.680  1.00  0.00     0.014 A 
ATOM     31  C   UNL A   1      43.177  23.002  25.545  1.00  0.00     0.010 A 
ATOM     32  C   UNL A   1      43.104  22.568  27.927  1.00  0.00     0.010 A 
ATOM     33  C   UNL A   1      43.374  23.442  26.864  1.00  0.00    -0.014 A 
BRANCH  33  34
ATOM     34  C   UNL A   1      43.860  24.815  27.153  1.00  0.00     0.031 A 
ATOM     35  C   UNL A   1      42.915  25.841  27.714  1.00  0.00     0.074 A 
ATOM     36  C   UNL A   1      45.126  25.153  26.840  1.00  0.00     0.049 A 
ATOM     37  N   UNL A   1      43.116  27.112  27.947  1.00  0.00    -0.248 NA
ATOM     38  C   UNL A   1      41.552  25.382  28.017  1.00  0.00     0.031 C 
ATOM     39  C   UNL A   1      46.120  24.255  26.246  1.00  0.00     0.029 A 
ATOM     40  N   UNL A   1      45.794  26.346  26.966  1.00  0.00    -0.354 N 
ATOM     41  C   UNL A   1      41.902  27.607  28.411  1.00  0.00     0.074 A 
ATOM     42  C   UNL A   1      40.957  26.512  28.363  1.00  0.00     0.031 C 
ATOM     43  C   UNL A   1      47.273  24.923  26.078  1.00  0.00     0.029 A 
ATOM     44  C   UNL A   1      47.092  26.304  26.514  1.00  0.00     0.049 A 
ATOM     45  H   UNL A   1      45.381  27.156  27.344  1.00  0.00     0.167 HD
ATOM     46  C   UNL A   1      41.611  28.854  28.857  1.00  0.00     0.034 A 
ATOM     47  C   UNL A   1      48.027  27.273  26.448  1.00  0.00     0.034 A 
ATOM     48  C   UNL A   1      42.571  29.929  28.916  1.00  0.00     0.049 A 
ATOM     49  C   UNL A   1      47.678  28.652  26.944  1.00  0.00     0.074 A 
ATOM     50  C   UNL A   1      42.404  31.211  29.407  1.00  0.00     0.029 A 
ATOM     51  N   UNL A   1      43.883  29.847  28.463  1.00  0.00    -0.354 N 
ATOM     52  N   UNL A   1      46.540  29.092  27.430  1.00  0.00    -0.248 NA
ATOM     53  C   UNL A   1      48.742  29.663  26.893  1.00  0.00     0.031 C 
ATOM     54  C   UNL A   1      43.592  31.920  29.198  1.00  0.00     0.029 A 
ATOM     55  C   UNL A   1      44.525  31.062  28.639  1.00  0.00     0.049 A 
ATOM     56  H   UNL A   1      44.296  29.042  28.075  1.00  0.00     0.167 HD
ATOM     57  C   UNL A   1      46.761  30.425  27.766  1.00  0.00     0.074 A 
ATOM     58  C   UNL A   1      48.144  30.709  27.443  1.00  0.00     0.031 C 
ATOM     59  C   UNL A   1      45.901  31.331  28.298  1.00  0.00     0.034 A 
BRANCH  46  60
ATOM     60  C   UNL A   1      40.190  29.118  29.293  1.00  0.00     0.023 A 
ATOM     61  C   UNL A   1      39.815  29.074  30.648  1.00  0.00     0.031 A 
ATOM     62  C   UNL A   1      39.188  29.381  28.342  1.00  0.00     0.131 A 
ATOM     63  C   UNL A   1      38.465  29.207  31.008  1.00  0.00     0.055 A 
ATOM     64  C   UNL A   1      37.859  29.596  28.715  1.00  0.00     0.041 A 
ATOM     65  F   UNL A   1      39.480  29.417  27.033  1.00  0.00    -0.206 F 
ATOM     66  C   UNL A   1      37.488  29.493  30.052  1.00  0.00     0.022 A 
BRANCH  63  67
ATOM     67  S   UNL A   1      37.989  28.854  32.721  1.00  0.00     0.124 S 
ATOM     68  O   UNL A   1      39.063  29.509  33.465  1.00  0.00    -0.237 OA
ATOM     69  O   UNL A   1      36.674  29.475  32.818  1.00  0.00    -0.237 OA
ATOM     70  O   UNL A   1      37.997  27.394  32.786  1.00  0.00    -0.744 OA
ENDBRANCH  63  67
ENDBRANCH  46  60
BRANCH  47  71
ATOM     71  C   UNL A   1      49.378  26.985  25.888  1.00  0.00     0.023 A 
ATOM     72  C   UNL A   1      50.466  26.717  26.732  1.00  0.00     0.031 A 
ATOM     73  C   UNL A   1      49.609  27.019  24.501  1.00  0.00     0.131 A 
ATOM     74  C   UNL A   1      51.748  26.538  26.186  1.00  0.00     0.055 A 
ATOM     75  C   UNL A   1      50.876  26.792  23.960  1.00  0.00     0.041 A 
ATOM     76  F   UNL A   1      48.600  27.263  23.650  1.00  0.00    -0.206 F 
ATOM     77  C   UNL A   1      51.957  26.563  24.805  1.00  0.00     0.022 A 
BRANCH  74  78
ATOM     78  S   UNL A   1      53.154  26.355  27.316  1.00  0.00     0.124 S 
ATOM     79  O   UNL A   1      52.484  26.150  28.595  1.00  0.00    -0.237 OA
ATOM     80  O   UNL A   1      53.841  25.195  26.758  1.00  0.00    -0.237 OA
ATOM     81  O   UNL A   1      53.867  27.624  27.180  1.00  0.00    -0.744 OA
ENDBRANCH  74  78
ENDBRANCH  47  71
BRANCH  59  82
ATOM     82  C   UNL A   1      46.456  32.702  28.595  1.00  0.00     0.023 A 
ATOM     83  C   UNL A   1      46.471  33.717  27.623  1.00  0.00     0.031 A 
ATOM     84  C   UNL A   1      46.986  32.989  29.865  1.00  0.00     0.131 A 
ATOM     85  C   UNL A   1      47.056  34.958  27.920  1.00  0.00     0.055 A 
ATOM     86  C   UNL A   1      47.515  34.244  30.172  1.00  0.00     0.041 A 
ATOM     87  F   UNL A   1      46.995  32.054  30.829  1.00  0.00    -0.206 F 
ATOM     88  C   UNL A   1      47.562  35.232  29.193  1.00  0.00     0.022 A 
BRANCH  85  89
ATOM     89  S   UNL A   1      47.216  36.184  26.594  1.00  0.00     0.124 S 
ATOM     90  O   UNL A   1      45.873  36.753  26.542  1.00  0.00    -0.237 OA
ATOM     91  O   UNL A   1      48.262  37.063  27.104  1.00  0.00    -0.237 OA
ATOM     92  O   UNL A   1      47.595  35.382  25.430  1.00  0.00    -0.744 OA
ENDBRANCH  85  89
ENDBRANCH  59  82
ENDBRANCH  33  34
ENDBRANCH  25  28
ENDBRANCH  23  24
ENDBRANCH   1  23
TORSDOF 17
ENDMDL
