MODEL 1
REMARK VINA RESULT:     -11.6      0.000      0.000
REMARK SMILES COc1ccc(C(=O)C2=C(NCCCCNC(=O)c3ccc(-c4c5nc(c(-c6cc(S(=O)(=O)[O-])ccc6F)c6ccc([nH]6)c(-c6cc(S(=O)(=O)[O-])ccc6F)c6nc(c(-c7cc(S(=O)(=O)[O-])ccc7F)c7ccc4[nH]7)C=C6)C=C5)cc3)C(=O)N(CC(=O)[O-])[C@H]2c2ccccc2)cc1
REMARK SMILES IDX 13 1 12 2 11 3 10 5 9 6 89 7 82 8 84 9 83 10 7 11 8 12 6 13
REMARK SMILES IDX 3 14 4 15 97 16 5 17 96 18 2 19 1 20 90 21 91 22 95 23 92 24
REMARK SMILES IDX 94 25 93 26 85 27 86 28 87 29 88 30 14 31 15 32 16 33 17 34
REMARK SMILES IDX 18 36 19 37 20 38 81 39 21 40 80 41 22 42 23 43 24 44 74 45
REMARK SMILES IDX 25 46 79 47 73 48 75 49 26 50 78 51 72 52 71 53 27 55 59 56
REMARK SMILES IDX 39 57 58 58 40 59 43 60 57 61 76 62 41 63 42 64 56 66 77 67
REMARK SMILES IDX 44 68 28 69 29 70 37 71 30 72 36 73 38 74 35 75 31 76 32 77
REMARK SMILES IDX 33 78 34 79 60 80 61 81 69 82 62 83 68 84 70 85 67 86 63 87
REMARK SMILES IDX 64 88 65 89 66 90 45 91 46 92 54 93 47 94 53 95 55 96 52 97
REMARK SMILES IDX 48 98 49 99 50 100 51 101
REMARK H PARENT 11 4 16 35 75 54 43 65
REMARK Flexibility Score: inf
ROOT
ATOM      1  C   UNL A   1      32.737  27.338  23.336  1.00  0.00     0.023 C 
ENDROOT
BRANCH   1   2
ATOM      2  C   UNL A   1      33.645  26.412  22.530  1.00  0.00     0.113 C 
BRANCH   2   3
ATOM      3  N   UNL A   1      33.047  25.107  22.388  1.00  0.00    -0.380 N 
ATOM      4  H   UNL A   1      32.568  24.963  21.540  1.00  0.00     0.160 HD
BRANCH   3   5
ATOM      5  C   UNL A   1      33.040  24.038  23.243  1.00  0.00     0.110 C 
ATOM      6  C   UNL A   1      33.870  23.037  23.581  1.00  0.00     0.056 C 
ATOM      7  C   UNL A   1      33.319  22.137  24.646  1.00  0.00     0.153 C 
ATOM      8  C   UNL A   1      31.862  23.874  24.167  1.00  0.00     0.271 C 
ATOM      9  N   UNL A   1      32.165  22.894  25.085  1.00  0.00    -0.320 N 
ATOM     10  O   UNL A   1      30.823  24.514  24.084  1.00  0.00    -0.267 OA
BRANCH   6  11
ATOM     11  C   UNL A   1      35.307  23.057  23.240  1.00  0.00     0.193 C 
ATOM     12  O   UNL A   1      35.647  23.201  22.066  1.00  0.00    -0.289 OA
BRANCH  11  13
ATOM     13  C   UNL A   1      36.358  22.892  24.281  1.00  0.00     0.023 A 
ATOM     14  C   UNL A   1      38.448  22.539  26.145  1.00  0.00     0.118 A 
ATOM     15  C   UNL A   1      38.157  21.542  25.214  1.00  0.00     0.047 A 
ATOM     16  C   UNL A   1      37.706  23.716  26.129  1.00  0.00     0.047 A 
ATOM     17  C   UNL A   1      37.118  21.713  24.288  1.00  0.00     0.016 A 
ATOM     18  C   UNL A   1      36.670  23.887  25.205  1.00  0.00     0.016 A 
BRANCH  14  19
ATOM     19  O   UNL A   1      39.500  22.288  26.982  1.00  0.00    -0.497 OA
ATOM     20  C   UNL A   1      40.241  21.103  26.708  1.00  0.00     0.278 C 
ENDBRANCH  14  19
ENDBRANCH  11  13
ENDBRANCH   6  11
BRANCH   7  21
ATOM     21  C   UNL A   1      32.798  20.775  24.177  1.00  0.00    -0.021 A 
ATOM     22  C   UNL A   1      33.092  19.598  24.898  1.00  0.00     0.006 A 
ATOM     23  C   UNL A   1      32.271  20.653  22.881  1.00  0.00     0.006 A 
ATOM     24  C   UNL A   1      32.934  18.344  24.312  1.00  0.00     0.000 A 
ATOM     25  C   UNL A   1      32.141  19.394  22.290  1.00  0.00     0.000 A 
ATOM     26  C   UNL A   1      32.489  18.246  22.998  1.00  0.00     0.000 A 
ENDBRANCH   7  21
BRANCH   9  27
ATOM     27  C   UNL A   1      31.143  22.340  25.972  1.00  0.00     0.173 C 
BRANCH  27  28
ATOM     28  C   UNL A   1      30.667  23.218  27.111  1.00  0.00     0.061 C 
ATOM     29  O   UNL A   1      31.135  24.315  27.385  1.00  0.00    -0.548 OA
ATOM     30  O   UNL A   1      29.542  22.797  27.717  1.00  0.00    -0.548 OA
ENDBRANCH  27  28
ENDBRANCH   9  27
ENDBRANCH   3   5
ENDBRANCH   2   3
ENDBRANCH   1   2
BRANCH   1  31
ATOM     31  C   UNL A   1      33.185  27.599  24.777  1.00  0.00     0.023 C 
BRANCH  31  32
ATOM     32  C   UNL A   1      33.957  28.896  24.997  1.00  0.00     0.116 C 
BRANCH  32  33
ATOM     33  N   UNL A   1      33.176  29.905  25.694  1.00  0.00    -0.352 N 
ATOM     34  C   UNL A   1      33.457  30.585  26.853  1.00  0.00     0.251 C 
ATOM     35  H   UNL A   1      32.316  30.135  25.271  1.00  0.00     0.163 HD
ATOM     36  O   UNL A   1      32.585  31.281  27.367  1.00  0.00    -0.269 OA
BRANCH  34  37
ATOM     37  C   UNL A   1      34.786  30.457  27.494  1.00  0.00     0.039 A 
ATOM     38  C   UNL A   1      35.588  31.594  27.606  1.00  0.00     0.014 A 
ATOM     39  C   UNL A   1      35.254  29.226  27.961  1.00  0.00     0.014 A 
ATOM     40  C   UNL A   1      36.840  31.503  28.221  1.00  0.00     0.010 A 
ATOM     41  C   UNL A   1      36.460  29.155  28.655  1.00  0.00     0.010 A 
ATOM     42  C   UNL A   1      37.278  30.288  28.773  1.00  0.00    -0.014 A 
BRANCH  42  43
ATOM     43  C   UNL A   1      38.614  30.186  29.421  1.00  0.00     0.031 A 
ATOM     44  C   UNL A   1      38.857  30.845  30.755  1.00  0.00     0.074 A 
ATOM     45  C   UNL A   1      39.606  29.504  28.812  1.00  0.00     0.049 A 
ATOM     46  N   UNL A   1      39.949  30.879  31.476  1.00  0.00    -0.248 NA
ATOM     47  C   UNL A   1      37.731  31.587  31.345  1.00  0.00     0.031 C 
ATOM     48  C   UNL A   1      39.507  28.859  27.501  1.00  0.00     0.029 A 
ATOM     49  N   UNL A   1      40.890  29.234  29.214  1.00  0.00    -0.354 N 
ATOM     50  C   UNL A   1      39.637  31.633  32.602  1.00  0.00     0.074 A 
ATOM     51  C   UNL A   1      38.285  32.114  32.425  1.00  0.00     0.031 C 
ATOM     52  C   UNL A   1      40.666  28.240  27.225  1.00  0.00     0.029 A 
ATOM     53  C   UNL A   1      41.608  28.479  28.314  1.00  0.00     0.049 A 
ATOM     54  H   UNL A   1      41.264  29.552  30.068  1.00  0.00     0.167 HD
ATOM     55  C   UNL A   1      40.391  31.870  33.705  1.00  0.00     0.034 A 
ATOM     56  C   UNL A   1      42.880  28.036  28.358  1.00  0.00     0.034 A 
ATOM     57  C   UNL A   1      41.738  31.383  33.873  1.00  0.00     0.049 A 
ATOM     58  C   UNL A   1      43.712  28.350  29.580  1.00  0.00     0.074 A 
ATOM     59  C   UNL A   1      42.588  31.555  34.952  1.00  0.00     0.029 A 
ATOM     60  N   UNL A   1      42.432  30.627  32.938  1.00  0.00    -0.354 N 
ATOM     61  N   UNL A   1      43.382  29.028  30.657  1.00  0.00    -0.248 NA
ATOM     62  C   UNL A   1      45.081  27.820  29.602  1.00  0.00     0.031 C 
ATOM     63  C   UNL A   1      43.814  30.957  34.645  1.00  0.00     0.029 A 
ATOM     64  C   UNL A   1      43.704  30.340  33.409  1.00  0.00     0.049 A 
ATOM     65  H   UNL A   1      42.073  30.336  32.069  1.00  0.00     0.167 HD
ATOM     66  C   UNL A   1      44.492  28.971  31.496  1.00  0.00     0.074 A 
ATOM     67  C   UNL A   1      45.482  28.164  30.815  1.00  0.00     0.031 C 
ATOM     68  C   UNL A   1      44.683  29.537  32.717  1.00  0.00     0.034 A 
BRANCH  55  69
ATOM     69  C   UNL A   1      39.769  32.691  34.808  1.00  0.00     0.023 A 
ATOM     70  C   UNL A   1      39.162  32.081  35.921  1.00  0.00     0.031 A 
ATOM     71  C   UNL A   1      39.774  34.095  34.753  1.00  0.00     0.131 A 
ATOM     72  C   UNL A   1      38.531  32.866  36.896  1.00  0.00     0.055 A 
ATOM     73  C   UNL A   1      39.215  34.874  35.768  1.00  0.00     0.041 A 
ATOM     74  F   UNL A   1      40.317  34.736  33.705  1.00  0.00    -0.206 F 
ATOM     75  C   UNL A   1      38.578  34.260  36.842  1.00  0.00     0.022 A 
BRANCH  72  76
ATOM     76  S   UNL A   1      37.537  32.036  38.166  1.00  0.00     0.124 S 
ATOM     77  O   UNL A   1      36.338  32.872  38.194  1.00  0.00    -0.237 OA
ATOM     78  O   UNL A   1      37.369  30.698  37.612  1.00  0.00    -0.237 OA
ATOM     79  O   UNL A   1      38.373  32.117  39.361  1.00  0.00    -0.744 OA
ENDBRANCH  72  76
ENDBRANCH  55  69
BRANCH  56  80
ATOM     80  C   UNL A   1      43.470  27.268  27.220  1.00  0.00     0.023 A 
ATOM     81  C   UNL A   1      43.313  25.876  27.122  1.00  0.00     0.031 A 
ATOM     82  C   UNL A   1      44.283  27.903  26.264  1.00  0.00     0.131 A 
ATOM     83  C   UNL A   1      44.023  25.156  26.147  1.00  0.00     0.055 A 
ATOM     84  C   UNL A   1      44.927  27.192  25.250  1.00  0.00     0.041 A 
ATOM     85  F   UNL A   1      44.471  29.232  26.306  1.00  0.00    -0.206 F 
ATOM     86  C   UNL A   1      44.817  25.806  25.202  1.00  0.00     0.022 A 
BRANCH  83  87
ATOM     87  S   UNL A   1      44.010  23.343  26.227  1.00  0.00     0.124 S 
ATOM     88  O   UNL A   1      43.098  23.103  27.340  1.00  0.00    -0.237 OA
ATOM     89  O   UNL A   1      43.514  22.985  24.904  1.00  0.00    -0.237 OA
ATOM     90  O   UNL A   1      45.409  23.004  26.481  1.00  0.00    -0.744 OA
ENDBRANCH  83  87
ENDBRANCH  56  80
BRANCH  68  91
ATOM     91  C   UNL A   1      45.998  29.252  33.403  1.00  0.00     0.023 A 
ATOM     92  C   UNL A   1      47.119  30.083  33.228  1.00  0.00     0.031 A 
ATOM     93  C   UNL A   1      46.145  28.110  34.211  1.00  0.00     0.131 A 
ATOM     94  C   UNL A   1      48.356  29.714  33.777  1.00  0.00     0.055 A 
ATOM     95  C   UNL A   1      47.359  27.791  34.821  1.00  0.00     0.041 A 
ATOM     96  F   UNL A   1      45.110  27.278  34.415  1.00  0.00    -0.206 F 
ATOM     97  C   UNL A   1      48.479  28.584  34.588  1.00  0.00     0.022 A 
BRANCH  94  98
ATOM     98  S   UNL A   1      49.832  30.653  33.296  1.00  0.00     0.124 S 
ATOM     99  O   UNL A   1      49.428  31.216  32.012  1.00  0.00    -0.237 OA
ATOM    100  O   UNL A   1      49.966  31.605  34.395  1.00  0.00    -0.237 OA
ATOM    101  O   UNL A   1      50.878  29.635  33.226  1.00  0.00    -0.744 OA
ENDBRANCH  94  98
ENDBRANCH  68  91
ENDBRANCH  42  43
ENDBRANCH  34  37
ENDBRANCH  32  33
ENDBRANCH  31  32
ENDBRANCH   1  31
TORSDOF 20
ENDMDL
MODEL 2
REMARK VINA RESULT:     -11.5      2.448      2.839
REMARK SMILES COc1ccc(C(=O)C2=C(NCCCCNC(=O)c3ccc(-c4c5nc(c(-c6cc(S(=O)(=O)[O-])ccc6F)c6ccc([nH]6)c(-c6cc(S(=O)(=O)[O-])ccc6F)c6nc(c(-c7cc(S(=O)(=O)[O-])ccc7F)c7ccc4[nH]7)C=C6)C=C5)cc3)C(=O)N(CC(=O)[O-])[C@H]2c2ccccc2)cc1
REMARK SMILES IDX 13 1 12 2 11 3 10 5 9 6 89 7 82 8 84 9 83 10 7 11 8 12 6 13
REMARK SMILES IDX 3 14 4 15 97 16 5 17 96 18 2 19 1 20 90 21 91 22 95 23 92 24
REMARK SMILES IDX 94 25 93 26 85 27 86 28 87 29 88 30 14 31 15 32 16 33 17 34
REMARK SMILES IDX 18 36 19 37 20 38 81 39 21 40 80 41 22 42 23 43 24 44 74 45
REMARK SMILES IDX 25 46 79 47 73 48 75 49 26 50 78 51 72 52 71 53 27 55 59 56
REMARK SMILES IDX 39 57 58 58 40 59 43 60 57 61 76 62 41 63 42 64 56 66 77 67
REMARK SMILES IDX 44 68 28 69 29 70 37 71 30 72 36 73 38 74 35 75 31 76 32 77
REMARK SMILES IDX 33 78 34 79 60 80 61 81 69 82 62 83 68 84 70 85 67 86 63 87
REMARK SMILES IDX 64 88 65 89 66 90 45 91 46 92 54 93 47 94 53 95 55 96 52 97
REMARK SMILES IDX 48 98 49 99 50 100 51 101
REMARK H PARENT 11 4 16 35 75 54 43 65
REMARK Flexibility Score: inf
ROOT
ATOM      1  C   UNL A   1      32.805  27.834  24.048  1.00  0.00     0.023 C 
ENDROOT
BRANCH   1   2
ATOM      2  C   UNL A   1      33.679  26.827  23.303  1.00  0.00     0.113 C 
BRANCH   2   3
ATOM      3  N   UNL A   1      33.055  25.527  23.282  1.00  0.00    -0.380 N 
ATOM      4  H   UNL A   1      32.444  25.375  22.526  1.00  0.00     0.160 HD
BRANCH   3   5
ATOM      5  C   UNL A   1      33.178  24.471  24.145  1.00  0.00     0.110 C 
ATOM      6  C   UNL A   1      34.034  23.456  24.349  1.00  0.00     0.056 C 
ATOM      7  C   UNL A   1      33.663  22.586  25.513  1.00  0.00     0.153 C 
ATOM      8  C   UNL A   1      32.180  24.349  25.266  1.00  0.00     0.271 C 
ATOM      9  N   UNL A   1      32.620  23.376  26.135  1.00  0.00    -0.320 N 
ATOM     10  O   UNL A   1      31.156  25.012  25.356  1.00  0.00    -0.267 OA
BRANCH   6  11
ATOM     11  C   UNL A   1      35.388  23.438  23.759  1.00  0.00     0.193 C 
ATOM     12  O   UNL A   1      35.551  23.843  22.609  1.00  0.00    -0.289 OA
BRANCH  11  13
ATOM     13  C   UNL A   1      36.562  22.925  24.517  1.00  0.00     0.023 A 
ATOM     14  C   UNL A   1      38.729  22.014  26.079  1.00  0.00     0.118 A 
ATOM     15  C   UNL A   1      38.328  23.348  26.140  1.00  0.00     0.047 A 
ATOM     16  C   UNL A   1      38.036  21.136  25.251  1.00  0.00     0.047 A 
ATOM     17  C   UNL A   1      37.253  23.804  25.364  1.00  0.00     0.016 A 
ATOM     18  C   UNL A   1      36.963  21.592  24.478  1.00  0.00     0.016 A 
BRANCH  14  19
ATOM     19  O   UNL A   1      39.766  21.662  26.898  1.00  0.00    -0.497 OA
ATOM     20  C   UNL A   1      40.500  20.505  26.507  1.00  0.00     0.278 C 
ENDBRANCH  14  19
ENDBRANCH  11  13
ENDBRANCH   6  11
BRANCH   7  21
ATOM     21  C   UNL A   1      33.039  21.229  25.169  1.00  0.00    -0.021 A 
ATOM     22  C   UNL A   1      33.270  20.098  25.980  1.00  0.00     0.006 A 
ATOM     23  C   UNL A   1      32.473  21.038  23.898  1.00  0.00     0.006 A 
ATOM     24  C   UNL A   1      33.013  18.815  25.506  1.00  0.00     0.000 A 
ATOM     25  C   UNL A   1      32.244  19.747  23.417  1.00  0.00     0.000 A 
ATOM     26  C   UNL A   1      32.530  18.639  24.213  1.00  0.00     0.000 A 
ENDBRANCH   7  21
BRANCH   9  27
ATOM     27  C   UNL A   1      31.761  22.860  27.199  1.00  0.00     0.173 C 
BRANCH  27  28
ATOM     28  C   UNL A   1      30.293  22.682  26.875  1.00  0.00     0.061 C 
ATOM     29  O   UNL A   1      29.845  21.829  26.120  1.00  0.00    -0.548 OA
ATOM     30  O   UNL A   1      29.455  23.418  27.628  1.00  0.00    -0.548 OA
ENDBRANCH  27  28
ENDBRANCH   9  27
ENDBRANCH   3   5
ENDBRANCH   2   3
ENDBRANCH   1   2
BRANCH   1  31
ATOM     31  C   UNL A   1      33.065  27.935  25.554  1.00  0.00     0.023 C 
BRANCH  31  32
ATOM     32  C   UNL A   1      34.185  28.887  25.962  1.00  0.00     0.116 C 
BRANCH  32  33
ATOM     33  N   UNL A   1      33.701  30.218  26.285  1.00  0.00    -0.352 N 
ATOM     34  C   UNL A   1      34.115  31.087  27.265  1.00  0.00     0.251 C 
ATOM     35  H   UNL A   1      32.967  30.547  25.717  1.00  0.00     0.163 HD
ATOM     36  O   UNL A   1      33.462  32.105  27.479  1.00  0.00    -0.269 OA
BRANCH  34  37
ATOM     37  C   UNL A   1      35.318  30.786  28.075  1.00  0.00     0.039 A 
ATOM     38  C   UNL A   1      35.311  29.651  28.889  1.00  0.00     0.014 A 
ATOM     39  C   UNL A   1      36.436  31.623  28.057  1.00  0.00     0.014 A 
ATOM     40  C   UNL A   1      36.439  29.337  29.651  1.00  0.00     0.010 A 
ATOM     41  C   UNL A   1      37.592  31.259  28.745  1.00  0.00     0.010 A 
ATOM     42  C   UNL A   1      37.600  30.124  29.569  1.00  0.00    -0.014 A 
BRANCH  42  43
ATOM     43  C   UNL A   1      38.800  29.797  30.385  1.00  0.00     0.031 A 
ATOM     44  C   UNL A   1      38.958  30.388  31.763  1.00  0.00     0.074 A 
ATOM     45  C   UNL A   1      39.746  28.973  29.889  1.00  0.00     0.049 A 
ATOM     46  N   UNL A   1      39.931  30.233  32.625  1.00  0.00    -0.248 NA
ATOM     47  C   UNL A   1      37.893  31.294  32.224  1.00  0.00     0.031 C 
ATOM     48  C   UNL A   1      39.727  28.372  28.553  1.00  0.00     0.029 A 
ATOM     49  N   UNL A   1      40.904  28.492  30.449  1.00  0.00    -0.354 N 
ATOM     50  C   UNL A   1      39.591  31.011  33.726  1.00  0.00     0.074 A 
ATOM     51  C   UNL A   1      38.369  31.707  33.387  1.00  0.00     0.031 C 
ATOM     52  C   UNL A   1      40.801  27.578  28.412  1.00  0.00     0.029 A 
ATOM     53  C   UNL A   1      41.610  27.645  29.625  1.00  0.00     0.049 A 
ATOM     54  H   UNL A   1      41.202  28.732  31.356  1.00  0.00     0.167 HD
ATOM     55  C   UNL A   1      40.214  31.106  34.927  1.00  0.00     0.034 A 
ATOM     56  C   UNL A   1      42.777  27.001  29.823  1.00  0.00     0.034 A 
ATOM     57  C   UNL A   1      41.430  30.405  35.257  1.00  0.00     0.049 A 
ATOM     58  C   UNL A   1      43.472  27.158  31.156  1.00  0.00     0.074 A 
ATOM     59  C   UNL A   1      42.139  30.420  36.445  1.00  0.00     0.029 A 
ATOM     60  N   UNL A   1      42.117  29.561  34.395  1.00  0.00    -0.354 N 
ATOM     61  N   UNL A   1      43.108  27.864  32.204  1.00  0.00    -0.248 NA
ATOM     62  C   UNL A   1      44.724  26.413  31.341  1.00  0.00     0.031 C 
ATOM     63  C   UNL A   1      43.286  29.637  36.282  1.00  0.00     0.029 A 
ATOM     64  C   UNL A   1      43.251  29.065  35.021  1.00  0.00     0.049 A 
ATOM     65  H   UNL A   1      41.840  29.345  33.476  1.00  0.00     0.167 HD
ATOM     66  C   UNL A   1      44.069  27.615  33.181  1.00  0.00     0.074 A 
ATOM     67  C   UNL A   1      45.003  26.669  32.608  1.00  0.00     0.031 C 
ATOM     68  C   UNL A   1      44.176  28.124  34.436  1.00  0.00     0.034 A 
BRANCH  55  69
ATOM     69  C   UNL A   1      39.583  32.000  35.968  1.00  0.00     0.023 A 
ATOM     70  C   UNL A   1      38.780  31.473  36.996  1.00  0.00     0.031 A 
ATOM     71  C   UNL A   1      39.777  33.392  35.936  1.00  0.00     0.131 A 
ATOM     72  C   UNL A   1      38.150  32.333  37.907  1.00  0.00     0.055 A 
ATOM     73  C   UNL A   1      39.213  34.236  36.895  1.00  0.00     0.041 A 
ATOM     74  F   UNL A   1      40.515  33.957  34.966  1.00  0.00    -0.206 F 
ATOM     75  C   UNL A   1      38.384  33.709  37.881  1.00  0.00     0.022 A 
BRANCH  72  76
ATOM     76  S   UNL A   1      36.919  31.639  39.043  1.00  0.00     0.124 S 
ATOM     77  O   UNL A   1      36.743  30.294  38.500  1.00  0.00    -0.237 OA
ATOM     78  O   UNL A   1      37.595  31.724  40.332  1.00  0.00    -0.237 OA
ATOM     79  O   UNL A   1      35.767  32.524  38.882  1.00  0.00    -0.744 OA
ENDBRANCH  72  76
ENDBRANCH  55  69
BRANCH  56  80
ATOM     80  C   UNL A   1      43.389  26.165  28.746  1.00  0.00     0.023 A 
ATOM     81  C   UNL A   1      44.350  26.695  27.870  1.00  0.00     0.031 A 
ATOM     82  C   UNL A   1      42.948  24.850  28.514  1.00  0.00     0.131 A 
ATOM     83  C   UNL A   1      44.775  25.948  26.759  1.00  0.00     0.055 A 
ATOM     84  C   UNL A   1      43.431  24.083  27.453  1.00  0.00     0.041 A 
ATOM     85  F   UNL A   1      42.031  24.288  29.319  1.00  0.00    -0.206 F 
ATOM     86  C   UNL A   1      44.334  24.641  26.553  1.00  0.00     0.022 A 
BRANCH  83  87
ATOM     87  S   UNL A   1      45.802  26.766  25.506  1.00  0.00     0.124 S 
ATOM     88  O   UNL A   1      46.937  27.218  26.302  1.00  0.00    -0.237 OA
ATOM     89  O   UNL A   1      46.066  25.677  24.572  1.00  0.00    -0.237 OA
ATOM     90  O   UNL A   1      44.934  27.827  24.996  1.00  0.00    -0.744 OA
ENDBRANCH  83  87
ENDBRANCH  56  80
BRANCH  68  91
ATOM     91  C   UNL A   1      45.323  27.620  35.281  1.00  0.00     0.023 A 
ATOM     92  C   UNL A   1      45.187  26.499  36.120  1.00  0.00     0.031 A 
ATOM     93  C   UNL A   1      46.557  28.295  35.279  1.00  0.00     0.131 A 
ATOM     94  C   UNL A   1      46.231  26.142  36.985  1.00  0.00     0.055 A 
ATOM     95  C   UNL A   1      47.621  27.885  36.083  1.00  0.00     0.041 A 
ATOM     96  F   UNL A   1      46.747  29.371  34.499  1.00  0.00    -0.206 F 
ATOM     97  C   UNL A   1      47.455  26.815  36.958  1.00  0.00     0.022 A 
BRANCH  94  98
ATOM     98  S   UNL A   1      45.917  24.876  38.246  1.00  0.00     0.124 S 
ATOM     99  O   UNL A   1      45.254  23.833  37.470  1.00  0.00    -0.237 OA
ATOM    100  O   UNL A   1      47.264  24.563  38.714  1.00  0.00    -0.237 OA
ATOM    101  O   UNL A   1      45.067  25.563  39.217  1.00  0.00    -0.744 OA
ENDBRANCH  94  98
ENDBRANCH  68  91
ENDBRANCH  42  43
ENDBRANCH  34  37
ENDBRANCH  32  33
ENDBRANCH  31  32
ENDBRANCH   1  31
TORSDOF 20
ENDMDL
MODEL 3
REMARK VINA RESULT:     -11.3      4.549      9.539
REMARK SMILES COc1ccc(C(=O)C2=C(NCCCCNC(=O)c3ccc(-c4c5nc(c(-c6cc(S(=O)(=O)[O-])ccc6F)c6ccc([nH]6)c(-c6cc(S(=O)(=O)[O-])ccc6F)c6nc(c(-c7cc(S(=O)(=O)[O-])ccc7F)c7ccc4[nH]7)C=C6)C=C5)cc3)C(=O)N(CC(=O)[O-])[C@H]2c2ccccc2)cc1
REMARK SMILES IDX 13 1 12 2 11 3 10 5 9 6 89 7 82 8 84 9 83 10 7 11 8 12 6 13
REMARK SMILES IDX 3 14 4 15 97 16 5 17 96 18 2 19 1 20 90 21 91 22 95 23 92 24
REMARK SMILES IDX 94 25 93 26 85 27 86 28 87 29 88 30 14 31 15 32 16 33 17 34
REMARK SMILES IDX 18 36 19 37 20 38 81 39 21 40 80 41 22 42 23 43 24 44 74 45
REMARK SMILES IDX 25 46 79 47 73 48 75 49 26 50 78 51 72 52 71 53 27 55 59 56
REMARK SMILES IDX 39 57 58 58 40 59 43 60 57 61 76 62 41 63 42 64 56 66 77 67
REMARK SMILES IDX 44 68 28 69 29 70 37 71 30 72 36 73 38 74 35 75 31 76 32 77
REMARK SMILES IDX 33 78 34 79 60 80 61 81 69 82 62 83 68 84 70 85 67 86 63 87
REMARK SMILES IDX 64 88 65 89 66 90 45 91 46 92 54 93 47 94 53 95 55 96 52 97
REMARK SMILES IDX 48 98 49 99 50 100 51 101
REMARK H PARENT 11 4 16 35 75 54 43 65
REMARK Flexibility Score: inf
ROOT
ATOM      1  C   UNL A   1      39.384  21.925  26.317  1.00  0.00     0.023 C 
ENDROOT
BRANCH   1   2
ATOM      2  C   UNL A   1      38.162  22.654  25.762  1.00  0.00     0.113 C 
BRANCH   2   3
ATOM      3  N   UNL A   1      37.424  21.800  24.863  1.00  0.00    -0.380 N 
ATOM      4  H   UNL A   1      37.980  21.227  24.288  1.00  0.00     0.160 HD
BRANCH   3   5
ATOM      5  C   UNL A   1      36.074  21.660  24.681  1.00  0.00     0.110 C 
ATOM      6  C   UNL A   1      35.039  22.439  24.322  1.00  0.00     0.056 C 
ATOM      7  C   UNL A   1      33.733  21.705  24.261  1.00  0.00     0.153 C 
ATOM      8  C   UNL A   1      35.476  20.284  24.819  1.00  0.00     0.271 C 
ATOM      9  N   UNL A   1      34.175  20.330  24.370  1.00  0.00    -0.320 N 
ATOM     10  O   UNL A   1      36.071  19.314  25.266  1.00  0.00    -0.267 OA
BRANCH   6  11
ATOM     11  C   UNL A   1      35.230  23.753  23.676  1.00  0.00     0.193 C 
ATOM     12  O   UNL A   1      36.118  23.889  22.836  1.00  0.00    -0.289 OA
BRANCH  11  13
ATOM     13  C   UNL A   1      34.383  24.925  24.028  1.00  0.00     0.023 A 
ATOM     14  C   UNL A   1      32.660  27.080  24.624  1.00  0.00     0.118 A 
ATOM     15  C   UNL A   1      32.752  26.591  23.321  1.00  0.00     0.047 A 
ATOM     16  C   UNL A   1      33.415  26.479  25.627  1.00  0.00     0.047 A 
ATOM     17  C   UNL A   1      33.609  25.522  23.021  1.00  0.00     0.016 A 
ATOM     18  C   UNL A   1      34.268  25.413  25.327  1.00  0.00     0.016 A 
BRANCH  14  19
ATOM     19  O   UNL A   1      31.773  28.102  24.819  1.00  0.00    -0.497 OA
ATOM     20  C   UNL A   1      32.285  29.246  25.497  1.00  0.00     0.278 C 
ENDBRANCH  14  19
ENDBRANCH  11  13
ENDBRANCH   6  11
BRANCH   7  21
ATOM     21  C   UNL A   1      32.766  21.949  25.424  1.00  0.00    -0.021 A 
ATOM     22  C   UNL A   1      31.411  22.264  25.188  1.00  0.00     0.006 A 
ATOM     23  C   UNL A   1      33.283  22.141  26.716  1.00  0.00     0.006 A 
ATOM     24  C   UNL A   1      30.623  22.823  26.191  1.00  0.00     0.000 A 
ATOM     25  C   UNL A   1      32.496  22.727  27.709  1.00  0.00     0.000 A 
ATOM     26  C   UNL A   1      31.176  23.083  27.441  1.00  0.00     0.000 A 
ENDBRANCH   7  21
BRANCH   9  27
ATOM     27  C   UNL A   1      33.256  19.215  24.588  1.00  0.00     0.173 C 
BRANCH  27  28
ATOM     28  C   UNL A   1      33.088  18.227  23.452  1.00  0.00     0.061 C 
ATOM     29  O   UNL A   1      32.204  18.281  22.608  1.00  0.00    -0.548 OA
ATOM     30  O   UNL A   1      34.105  17.359  23.305  1.00  0.00    -0.548 OA
ENDBRANCH  27  28
ENDBRANCH   9  27
ENDBRANCH   3   5
ENDBRANCH   2   3
ENDBRANCH   1   2
BRANCH   1  31
ATOM     31  C   UNL A   1      39.612  20.517  25.760  1.00  0.00     0.023 C 
BRANCH  31  32
ATOM     32  C   UNL A   1      40.428  19.585  26.650  1.00  0.00     0.116 C 
BRANCH  32  33
ATOM     33  N   UNL A   1      41.642  19.112  26.006  1.00  0.00    -0.352 N 
ATOM     34  C   UNL A   1      42.793  19.794  25.698  1.00  0.00     0.251 C 
ATOM     35  H   UNL A   1      41.638  18.160  25.753  1.00  0.00     0.163 HD
ATOM     36  O   UNL A   1      43.644  19.249  25.000  1.00  0.00    -0.269 OA
BRANCH  34  37
ATOM     37  C   UNL A   1      42.993  21.182  26.174  1.00  0.00     0.039 A 
ATOM     38  C   UNL A   1      42.998  22.218  25.238  1.00  0.00     0.014 A 
ATOM     39  C   UNL A   1      43.198  21.466  27.527  1.00  0.00     0.014 A 
ATOM     40  C   UNL A   1      43.170  23.537  25.663  1.00  0.00     0.010 A 
ATOM     41  C   UNL A   1      43.276  22.787  27.959  1.00  0.00     0.010 A 
ATOM     42  C   UNL A   1      43.286  23.838  27.030  1.00  0.00    -0.014 A 
BRANCH  42  43
ATOM     43  C   UNL A   1      43.477  25.242  27.487  1.00  0.00     0.031 A 
ATOM     44  C   UNL A   1      44.834  25.891  27.382  1.00  0.00     0.074 A 
ATOM     45  C   UNL A   1      42.435  25.931  27.995  1.00  0.00     0.049 A 
ATOM     46  N   UNL A   1      45.206  27.096  27.732  1.00  0.00    -0.248 NA
ATOM     47  C   UNL A   1      45.924  25.066  26.836  1.00  0.00     0.031 C 
ATOM     48  C   UNL A   1      41.083  25.399  28.187  1.00  0.00     0.029 A 
ATOM     49  N   UNL A   1      42.344  27.227  28.439  1.00  0.00    -0.354 N 
ATOM     50  C   UNL A   1      46.563  27.175  27.440  1.00  0.00     0.074 A 
ATOM     51  C   UNL A   1      46.968  25.868  26.970  1.00  0.00     0.031 C 
ATOM     52  C   UNL A   1      40.294  26.369  28.675  1.00  0.00     0.029 A 
ATOM     53  C   UNL A   1      41.086  27.578  28.875  1.00  0.00     0.049 A 
ATOM     54  H   UNL A   1      43.108  27.847  28.446  1.00  0.00     0.167 HD
ATOM     55  C   UNL A   1      47.390  28.248  27.513  1.00  0.00     0.034 A 
ATOM     56  C   UNL A   1      40.627  28.739  29.382  1.00  0.00     0.034 A 
ATOM     57  C   UNL A   1      46.975  29.547  27.979  1.00  0.00     0.049 A 
ATOM     58  C   UNL A   1      41.580  29.907  29.492  1.00  0.00     0.074 A 
ATOM     59  C   UNL A   1      47.726  30.705  28.085  1.00  0.00     0.029 A 
ATOM     60  N   UNL A   1      45.695  29.863  28.416  1.00  0.00    -0.354 N 
ATOM     61  N   UNL A   1      42.851  29.974  29.166  1.00  0.00    -0.248 NA
ATOM     62  C   UNL A   1      41.030  31.163  30.019  1.00  0.00     0.031 C 
ATOM     63  C   UNL A   1      46.919  31.702  28.643  1.00  0.00     0.029 A 
ATOM     64  C   UNL A   1      45.642  31.192  28.809  1.00  0.00     0.049 A 
ATOM     65  H   UNL A   1      44.937  29.236  28.443  1.00  0.00     0.167 HD
ATOM     66  C   UNL A   1      43.238  31.289  29.415  1.00  0.00     0.074 A 
ATOM     67  C   UNL A   1      42.057  31.984  29.882  1.00  0.00     0.031 C 
ATOM     68  C   UNL A   1      44.458  31.871  29.276  1.00  0.00     0.034 A 
BRANCH  55  69
ATOM     69  C   UNL A   1      48.822  28.052  27.078  1.00  0.00     0.023 A 
ATOM     70  C   UNL A   1      49.220  28.284  25.748  1.00  0.00     0.031 A 
ATOM     71  C   UNL A   1      49.802  27.626  27.990  1.00  0.00     0.131 A 
ATOM     72  C   UNL A   1      50.542  28.027  25.355  1.00  0.00     0.055 A 
ATOM     73  C   UNL A   1      51.134  27.450  27.611  1.00  0.00     0.041 A 
ATOM     74  F   UNL A   1      49.479  27.366  29.268  1.00  0.00    -0.206 F 
ATOM     75  C   UNL A   1      51.509  27.639  26.284  1.00  0.00     0.022 A 
BRANCH  72  76
ATOM     76  S   UNL A   1      50.946  28.083  23.588  1.00  0.00     0.124 S 
ATOM     77  O   UNL A   1      51.573  29.397  23.472  1.00  0.00    -0.237 OA
ATOM     78  O   UNL A   1      51.833  26.936  23.430  1.00  0.00    -0.237 OA
ATOM     79  O   UNL A   1      49.644  27.960  22.936  1.00  0.00    -0.744 OA
ENDBRANCH  72  76
ENDBRANCH  55  69
BRANCH  56  80
ATOM     80  C   UNL A   1      39.212  28.872  29.846  1.00  0.00     0.023 A 
ATOM     81  C   UNL A   1      38.192  29.276  28.969  1.00  0.00     0.031 A 
ATOM     82  C   UNL A   1      38.876  28.692  31.200  1.00  0.00     0.131 A 
ATOM     83  C   UNL A   1      36.912  29.566  29.467  1.00  0.00     0.055 A 
ATOM     84  C   UNL A   1      37.583  28.908  31.677  1.00  0.00     0.041 A 
ATOM     85  F   UNL A   1      39.809  28.306  32.087  1.00  0.00    -0.206 F 
ATOM     86  C   UNL A   1      36.596  29.370  30.812  1.00  0.00     0.022 A 
BRANCH  83  87
ATOM     87  S   UNL A   1      35.706  30.344  28.357  1.00  0.00     0.124 S 
ATOM     88  O   UNL A   1      35.156  31.394  29.208  1.00  0.00    -0.237 OA
ATOM     89  O   UNL A   1      36.551  30.789  27.255  1.00  0.00    -0.237 OA
ATOM     90  O   UNL A   1      34.786  29.254  28.037  1.00  0.00    -0.744 OA
ENDBRANCH  83  87
ENDBRANCH  56  80
BRANCH  68  91
ATOM     91  C   UNL A   1      44.549  33.346  29.591  1.00  0.00     0.023 A 
ATOM     92  C   UNL A   1      44.219  34.328  28.639  1.00  0.00     0.031 A 
ATOM     93  C   UNL A   1      45.012  33.777  30.847  1.00  0.00     0.131 A 
ATOM     94  C   UNL A   1      44.442  35.683  28.925  1.00  0.00     0.055 A 
ATOM     95  C   UNL A   1      45.155  35.131  31.154  1.00  0.00     0.041 A 
ATOM     96  F   UNL A   1      45.343  32.887  31.797  1.00  0.00    -0.206 F 
ATOM     97  C   UNL A   1      44.888  36.091  30.184  1.00  0.00     0.022 A 
BRANCH  94  98
ATOM     98  S   UNL A   1      44.275  36.890  27.581  1.00  0.00     0.124 S 
ATOM     99  O   UNL A   1      43.629  38.009  28.258  1.00  0.00    -0.237 OA
ATOM    100  O   UNL A   1      45.663  37.103  27.182  1.00  0.00    -0.237 OA
ATOM    101  O   UNL A   1      43.446  36.196  26.598  1.00  0.00    -0.744 OA
ENDBRANCH  94  98
ENDBRANCH  68  91
ENDBRANCH  42  43
ENDBRANCH  34  37
ENDBRANCH  32  33
ENDBRANCH  31  32
ENDBRANCH   1  31
TORSDOF 20
ENDMDL
