MODEL 1
REMARK VINA RESULT:     -13.3      0.000      0.000
REMARK SMILES CCc1nn(-c2cc(F)c(F)c(F)c2)c(Cl)c1C(=O)NCCCCNC(=O)c1ccc(-c2c3nc(c(-c4cc(S(=O)(=O)[O-])ccc4F)c4ccc([nH]4)c(-c4cc(S(=O)(=O)[O-])ccc4F)c4nc(c(-c5cc(S(=O)(=O)[O-])ccc5F)c5ccc2[nH]5)C=C4)C=C3)cc1
REMARK SMILES IDX 23 1 22 2 21 3 20 4 18 5 19 6 17 8 3 9 4 10 5 11 15 12 16 13
REMARK SMILES IDX 2 14 1 15 6 16 7 17 14 18 8 19 12 20 9 21 10 22 13 23 11 24
REMARK SMILES IDX 24 25 25 26 26 27 27 29 28 30 29 31 90 32 30 33 89 34 31 35
REMARK SMILES IDX 32 36 33 37 83 38 34 39 88 40 82 41 84 42 35 43 87 44 81 45
REMARK SMILES IDX 80 46 36 48 68 49 48 50 67 51 49 52 52 53 66 54 85 55 50 56
REMARK SMILES IDX 51 57 65 59 86 60 53 61 37 62 38 63 46 64 39 65 45 66 47 67
REMARK SMILES IDX 44 68 40 69 41 70 42 71 43 72 69 73 70 74 78 75 71 76 77 77
REMARK SMILES IDX 79 78 76 79 72 80 73 81 74 82 75 83 54 84 55 85 63 86 56 87
REMARK SMILES IDX 62 88 64 89 61 90 57 91 58 92 59 93 60 94
REMARK H PARENT 20 7 25 28 84 47 52 58
REMARK Flexibility Score: inf
ROOT
ATOM      1  C   UNL A   1      33.579  29.677  26.937  1.00  0.00     0.023 C 
ENDROOT
BRANCH   1   2
ATOM      2  C   UNL A   1      32.521  28.663  27.392  1.00  0.00     0.023 C 
BRANCH   2   3
ATOM      3  C   UNL A   1      32.632  27.272  26.752  1.00  0.00     0.116 C 
BRANCH   3   4
ATOM      4  N   UNL A   1      31.349  26.610  26.748  1.00  0.00    -0.352 N 
ATOM      5  C   UNL A   1      30.784  25.552  26.094  1.00  0.00     0.256 C 
ATOM      6  O   UNL A   1      29.577  25.439  26.335  1.00  0.00    -0.269 OA
ATOM      7  H   UNL A   1      30.720  27.029  27.377  1.00  0.00     0.163 HD
BRANCH   5   8
ATOM      8  C   UNL A   1      31.455  24.598  25.205  1.00  0.00     0.100 A 
ATOM      9  C   UNL A   1      31.733  24.461  23.797  1.00  0.00     0.077 A 
ATOM     10  N   UNL A   1      32.486  23.378  23.523  1.00  0.00    -0.171 NA
ATOM     11  N   UNL A   1      32.556  22.702  24.688  1.00  0.00    -0.221 N 
ATOM     12  C   UNL A   1      32.025  23.436  25.713  1.00  0.00     0.145 A 
ATOM     13  Cl  UNL A   1      32.283  22.928  27.337  1.00  0.00    -0.061 Cl
BRANCH   9  14
ATOM     14  C   UNL A   1      31.339  25.328  22.642  1.00  0.00     0.056 C 
ATOM     15  C   UNL A   1      30.787  26.707  22.973  1.00  0.00     0.011 C 
ENDBRANCH   9  14
BRANCH  11  16
ATOM     16  C   UNL A   1      33.105  21.394  24.721  1.00  0.00     0.072 A 
ATOM     17  C   UNL A   1      34.490  21.215  24.853  1.00  0.00     0.071 A 
ATOM     18  C   UNL A   1      32.259  20.286  24.584  1.00  0.00     0.071 A 
ATOM     19  C   UNL A   1      35.023  19.929  24.797  1.00  0.00     0.164 A 
ATOM     20  C   UNL A   1      32.824  19.013  24.491  1.00  0.00     0.164 A 
ATOM     21  F   UNL A   1      36.345  19.764  24.935  1.00  0.00    -0.204 F 
ATOM     22  C   UNL A   1      34.199  18.832  24.593  1.00  0.00     0.194 A 
ATOM     23  F   UNL A   1      32.027  17.958  24.276  1.00  0.00    -0.204 F 
ATOM     24  F   UNL A   1      34.728  17.603  24.497  1.00  0.00    -0.200 F 
ENDBRANCH  11  16
ENDBRANCH   5   8
ENDBRANCH   3   4
ENDBRANCH   2   3
ENDBRANCH   1   2
BRANCH   1  25
ATOM     25  C   UNL A   1      34.970  29.434  27.514  1.00  0.00     0.116 C 
BRANCH  25  26
ATOM     26  N   UNL A   1      35.263  30.295  28.656  1.00  0.00    -0.352 N 
ATOM     27  C   UNL A   1      36.273  30.136  29.589  1.00  0.00     0.251 C 
ATOM     28  H   UNL A   1      34.675  31.076  28.776  1.00  0.00     0.163 HD
ATOM     29  O   UNL A   1      36.192  30.638  30.694  1.00  0.00    -0.269 OA
BRANCH  27  30
ATOM     30  C   UNL A   1      37.454  29.350  29.191  1.00  0.00     0.039 A 
ATOM     31  C   UNL A   1      38.142  29.633  28.009  1.00  0.00     0.014 A 
ATOM     32  C   UNL A   1      37.903  28.366  30.073  1.00  0.00     0.014 A 
ATOM     33  C   UNL A   1      39.351  28.984  27.763  1.00  0.00     0.010 A 
ATOM     34  C   UNL A   1      39.137  27.787  29.867  1.00  0.00     0.010 A 
ATOM     35  C   UNL A   1      39.862  28.081  28.708  1.00  0.00    -0.014 A 
BRANCH  35  36
ATOM     36  C   UNL A   1      41.243  27.595  28.600  1.00  0.00     0.031 A 
ATOM     37  C   UNL A   1      41.391  26.298  27.871  1.00  0.00     0.074 A 
ATOM     38  C   UNL A   1      42.315  28.376  28.867  1.00  0.00     0.049 A 
ATOM     39  N   UNL A   1      41.897  25.188  28.299  1.00  0.00    -0.248 NA
ATOM     40  C   UNL A   1      40.784  26.183  26.532  1.00  0.00     0.031 C 
ATOM     41  C   UNL A   1      42.303  29.778  29.301  1.00  0.00     0.029 A 
ATOM     42  N   UNL A   1      43.645  28.137  28.670  1.00  0.00    -0.354 N 
ATOM     43  C   UNL A   1      41.893  24.312  27.213  1.00  0.00     0.074 A 
ATOM     44  C   UNL A   1      41.023  24.904  26.236  1.00  0.00     0.031 C 
ATOM     45  C   UNL A   1      43.518  30.329  29.090  1.00  0.00     0.029 A 
ATOM     46  C   UNL A   1      44.437  29.288  28.666  1.00  0.00     0.049 A 
ATOM     47  H   UNL A   1      44.013  27.233  28.542  1.00  0.00     0.167 HD
ATOM     48  C   UNL A   1      42.803  23.301  27.112  1.00  0.00     0.034 A 
ATOM     49  C   UNL A   1      45.744  29.401  28.311  1.00  0.00     0.034 A 
ATOM     50  C   UNL A   1      43.423  23.041  28.392  1.00  0.00     0.049 A 
ATOM     51  C   UNL A   1      46.336  28.047  28.415  1.00  0.00     0.074 A 
ATOM     52  C   UNL A   1      42.963  22.668  29.640  1.00  0.00     0.029 A 
ATOM     53  N   UNL A   1      44.696  23.522  28.597  1.00  0.00    -0.354 N 
ATOM     54  N   UNL A   1      46.446  27.401  29.542  1.00  0.00    -0.248 NA
ATOM     55  C   UNL A   1      46.379  27.219  27.221  1.00  0.00     0.031 C 
ATOM     56  C   UNL A   1      43.766  23.405  30.561  1.00  0.00     0.029 A 
ATOM     57  C   UNL A   1      44.722  24.117  29.833  1.00  0.00     0.049 A 
ATOM     58  H   UNL A   1      45.452  23.452  27.970  1.00  0.00     0.167 HD
ATOM     59  C   UNL A   1      46.119  26.090  29.233  1.00  0.00     0.074 A 
ATOM     60  C   UNL A   1      46.208  26.016  27.776  1.00  0.00     0.031 C 
ATOM     61  C   UNL A   1      45.531  25.276  30.160  1.00  0.00     0.034 A 
BRANCH  48  62
ATOM     62  C   UNL A   1      43.429  22.811  25.816  1.00  0.00     0.023 A 
ATOM     63  C   UNL A   1      43.569  21.415  25.660  1.00  0.00     0.031 A 
ATOM     64  C   UNL A   1      44.155  23.599  24.895  1.00  0.00     0.131 A 
ATOM     65  C   UNL A   1      44.487  20.875  24.742  1.00  0.00     0.055 A 
ATOM     66  C   UNL A   1      45.012  23.053  23.934  1.00  0.00     0.041 A 
ATOM     67  F   UNL A   1      44.154  24.936  24.921  1.00  0.00    -0.206 F 
ATOM     68  C   UNL A   1      45.214  21.685  23.879  1.00  0.00     0.022 A 
BRANCH  65  69
ATOM     69  S   UNL A   1      44.858  19.103  24.843  1.00  0.00     0.124 S 
ATOM     70  O   UNL A   1      43.676  18.599  25.533  1.00  0.00    -0.237 OA
ATOM     71  O   UNL A   1      44.987  18.745  23.435  1.00  0.00    -0.237 OA
ATOM     72  O   UNL A   1      46.098  19.062  25.614  1.00  0.00    -0.744 OA
ENDBRANCH  65  69
ENDBRANCH  48  62
BRANCH  49  73
ATOM     73  C   UNL A   1      46.407  30.539  27.610  1.00  0.00     0.023 A 
ATOM     74  C   UNL A   1      45.700  31.501  26.855  1.00  0.00     0.031 A 
ATOM     75  C   UNL A   1      47.762  30.828  27.888  1.00  0.00     0.131 A 
ATOM     76  C   UNL A   1      46.349  32.682  26.416  1.00  0.00     0.055 A 
ATOM     77  C   UNL A   1      48.397  31.994  27.452  1.00  0.00     0.041 A 
ATOM     78  F   UNL A   1      48.497  30.022  28.673  1.00  0.00    -0.206 F 
ATOM     79  C   UNL A   1      47.689  32.932  26.719  1.00  0.00     0.022 A 
BRANCH  76  80
ATOM     80  S   UNL A   1      45.425  33.968  25.509  1.00  0.00     0.124 S 
ATOM     81  O   UNL A   1      44.725  34.664  26.581  1.00  0.00    -0.237 OA
ATOM     82  O   UNL A   1      46.490  34.706  24.840  1.00  0.00    -0.237 OA
ATOM     83  O   UNL A   1      44.560  33.199  24.612  1.00  0.00    -0.744 OA
ENDBRANCH  76  80
ENDBRANCH  49  73
BRANCH  61  84
ATOM     84  C   UNL A   1      45.548  25.710  31.612  1.00  0.00     0.023 A 
ATOM     85  C   UNL A   1      46.644  25.565  32.495  1.00  0.00     0.031 A 
ATOM     86  C   UNL A   1      44.425  26.416  32.080  1.00  0.00     0.131 A 
ATOM     87  C   UNL A   1      46.579  26.108  33.795  1.00  0.00     0.055 A 
ATOM     88  C   UNL A   1      44.374  26.971  33.357  1.00  0.00     0.041 A 
ATOM     89  F   UNL A   1      43.364  26.611  31.280  1.00  0.00    -0.206 F 
ATOM     90  C   UNL A   1      45.450  26.814  34.222  1.00  0.00     0.022 A 
BRANCH  87  91
ATOM     91  S   UNL A   1      47.961  25.897  34.964  1.00  0.00     0.124 S 
ATOM     92  O   UNL A   1      48.536  27.234  35.061  1.00  0.00    -0.237 OA
ATOM     93  O   UNL A   1      47.291  25.401  36.164  1.00  0.00    -0.237 OA
ATOM     94  O   UNL A   1      48.820  24.913  34.302  1.00  0.00    -0.744 OA
ENDBRANCH  87  91
ENDBRANCH  61  84
ENDBRANCH  35  36
ENDBRANCH  27  30
ENDBRANCH  25  26
ENDBRANCH   1  25
TORSDOF 16
ENDMDL
MODEL 2
REMARK VINA RESULT:     -13.1      4.780     10.452
REMARK SMILES CCc1nn(-c2cc(F)c(F)c(F)c2)c(Cl)c1C(=O)NCCCCNC(=O)c1ccc(-c2c3nc(c(-c4cc(S(=O)(=O)[O-])ccc4F)c4ccc([nH]4)c(-c4cc(S(=O)(=O)[O-])ccc4F)c4nc(c(-c5cc(S(=O)(=O)[O-])ccc5F)c5ccc2[nH]5)C=C4)C=C3)cc1
REMARK SMILES IDX 23 1 22 2 21 3 20 4 18 5 19 6 17 8 3 9 4 10 5 11 15 12 16 13
REMARK SMILES IDX 2 14 1 15 6 16 7 17 14 18 8 19 12 20 9 21 10 22 13 23 11 24
REMARK SMILES IDX 24 25 25 26 26 27 27 29 28 30 29 31 90 32 30 33 89 34 31 35
REMARK SMILES IDX 32 36 33 37 83 38 34 39 88 40 82 41 84 42 35 43 87 44 81 45
REMARK SMILES IDX 80 46 36 48 68 49 48 50 67 51 49 52 52 53 66 54 85 55 50 56
REMARK SMILES IDX 51 57 65 59 86 60 53 61 37 62 38 63 46 64 39 65 45 66 47 67
REMARK SMILES IDX 44 68 40 69 41 70 42 71 43 72 69 73 70 74 78 75 71 76 77 77
REMARK SMILES IDX 79 78 76 79 72 80 73 81 74 82 75 83 54 84 55 85 63 86 56 87
REMARK SMILES IDX 62 88 64 89 61 90 57 91 58 92 59 93 60 94
REMARK H PARENT 20 7 25 28 84 47 52 58
REMARK Flexibility Score: inf
ROOT
ATOM      1  C   UNL A   1      36.898  23.680  24.950  1.00  0.00     0.023 C 
ENDROOT
BRANCH   1   2
ATOM      2  C   UNL A   1      36.963  22.179  24.640  1.00  0.00     0.023 C 
BRANCH   2   3
ATOM      3  C   UNL A   1      35.974  21.306  25.425  1.00  0.00     0.116 C 
BRANCH   3   4
ATOM      4  N   UNL A   1      34.824  20.985  24.613  1.00  0.00    -0.352 N 
ATOM      5  C   UNL A   1      33.604  21.545  24.361  1.00  0.00     0.256 C 
ATOM      6  O   UNL A   1      32.882  20.813  23.674  1.00  0.00    -0.269 OA
ATOM      7  H   UNL A   1      34.951  20.147  24.114  1.00  0.00     0.163 HD
BRANCH   5   8
ATOM      8  C   UNL A   1      33.125  22.861  24.797  1.00  0.00     0.100 A 
ATOM      9  C   UNL A   1      32.680  23.487  26.017  1.00  0.00     0.077 A 
ATOM     10  N   UNL A   1      32.417  24.798  25.857  1.00  0.00    -0.171 NA
ATOM     11  N   UNL A   1      32.501  25.009  24.528  1.00  0.00    -0.221 N 
ATOM     12  C   UNL A   1      32.994  23.904  23.888  1.00  0.00     0.145 A 
ATOM     13  Cl  UNL A   1      33.489  24.033  22.245  1.00  0.00    -0.061 Cl
BRANCH   9  14
ATOM     14  C   UNL A   1      32.497  22.916  27.389  1.00  0.00     0.056 C 
ATOM     15  C   UNL A   1      33.692  22.203  28.004  1.00  0.00     0.011 C 
ENDBRANCH   9  14
BRANCH  11  16
ATOM     16  C   UNL A   1      32.080  26.245  23.974  1.00  0.00     0.072 A 
ATOM     17  C   UNL A   1      30.728  26.455  23.665  1.00  0.00     0.071 A 
ATOM     18  C   UNL A   1      33.029  27.240  23.703  1.00  0.00     0.071 A 
ATOM     19  C   UNL A   1      30.343  27.638  23.041  1.00  0.00     0.164 A 
ATOM     20  C   UNL A   1      32.622  28.398  23.042  1.00  0.00     0.164 A 
ATOM     21  F   UNL A   1      29.048  27.837  22.759  1.00  0.00    -0.204 F 
ATOM     22  C   UNL A   1      31.287  28.600  22.708  1.00  0.00     0.194 A 
ATOM     23  F   UNL A   1      33.538  29.316  22.705  1.00  0.00    -0.204 F 
ATOM     24  F   UNL A   1      30.910  29.717  22.068  1.00  0.00    -0.200 F 
ENDBRANCH  11  16
ENDBRANCH   5   8
ENDBRANCH   3   4
ENDBRANCH   2   3
ENDBRANCH   1   2
BRANCH   1  25
ATOM     25  C   UNL A   1      37.584  24.082  26.252  1.00  0.00     0.116 C 
BRANCH  25  26
ATOM     26  N   UNL A   1      39.000  23.729  26.273  1.00  0.00    -0.352 N 
ATOM     27  C   UNL A   1      40.066  24.558  26.577  1.00  0.00     0.251 C 
ATOM     28  H   UNL A   1      39.222  22.797  26.045  1.00  0.00     0.163 HD
ATOM     29  O   UNL A   1      41.189  24.308  26.182  1.00  0.00    -0.269 OA
BRANCH  27  30
ATOM     30  C   UNL A   1      39.794  25.746  27.407  1.00  0.00     0.039 A 
ATOM     31  C   UNL A   1      39.342  25.616  28.722  1.00  0.00     0.014 A 
ATOM     32  C   UNL A   1      40.077  26.997  26.858  1.00  0.00     0.014 A 
ATOM     33  C   UNL A   1      39.269  26.755  29.522  1.00  0.00     0.010 A 
ATOM     34  C   UNL A   1      40.082  28.107  27.674  1.00  0.00     0.010 A 
ATOM     35  C   UNL A   1      39.667  27.997  29.004  1.00  0.00    -0.014 A 
BRANCH  35  36
ATOM     36  C   UNL A   1      39.853  29.149  29.896  1.00  0.00     0.031 A 
ATOM     37  C   UNL A   1      38.622  29.968  30.120  1.00  0.00     0.074 A 
ATOM     38  C   UNL A   1      40.945  29.298  30.680  1.00  0.00     0.049 A 
ATOM     39  N   UNL A   1      38.435  31.223  29.874  1.00  0.00    -0.248 NA
ATOM     40  C   UNL A   1      37.398  29.272  30.558  1.00  0.00     0.031 C 
ATOM     41  C   UNL A   1      42.095  28.390  30.777  1.00  0.00     0.029 A 
ATOM     42  N   UNL A   1      41.202  30.208  31.665  1.00  0.00    -0.354 N 
ATOM     43  C   UNL A   1      37.159  31.529  30.348  1.00  0.00     0.074 A 
ATOM     44  C   UNL A   1      36.508  30.266  30.561  1.00  0.00     0.031 C 
ATOM     45  C   UNL A   1      42.780  28.645  31.912  1.00  0.00     0.029 A 
ATOM     46  C   UNL A   1      42.224  29.831  32.538  1.00  0.00     0.049 A 
ATOM     47  H   UNL A   1      40.709  31.056  31.751  1.00  0.00     0.167 HD
ATOM     48  C   UNL A   1      36.837  32.788  30.762  1.00  0.00     0.034 A 
ATOM     49  C   UNL A   1      42.580  30.419  33.712  1.00  0.00     0.034 A 
ATOM     50  C   UNL A   1      37.796  33.750  30.267  1.00  0.00     0.049 A 
ATOM     51  C   UNL A   1      42.058  31.805  33.672  1.00  0.00     0.074 A 
ATOM     52  C   UNL A   1      38.229  34.139  29.014  1.00  0.00     0.029 A 
ATOM     53  N   UNL A   1      38.744  34.221  31.147  1.00  0.00    -0.354 N 
ATOM     54  N   UNL A   1      42.472  32.700  32.818  1.00  0.00    -0.248 NA
ATOM     55  C   UNL A   1      40.757  32.070  34.264  1.00  0.00     0.031 C 
ATOM     56  C   UNL A   1      39.630  34.363  29.164  1.00  0.00     0.029 A 
ATOM     57  C   UNL A   1      39.958  34.182  30.510  1.00  0.00     0.049 A 
ATOM     58  H   UNL A   1      38.580  34.529  32.067  1.00  0.00     0.167 HD
ATOM     59  C   UNL A   1      41.325  33.375  32.429  1.00  0.00     0.074 A 
ATOM     60  C   UNL A   1      40.326  33.029  33.438  1.00  0.00     0.031 C 
ATOM     61  C   UNL A   1      41.218  33.913  31.177  1.00  0.00     0.034 A 
BRANCH  48  62
ATOM     62  C   UNL A   1      35.909  33.120  31.919  1.00  0.00     0.023 A 
ATOM     63  C   UNL A   1      34.816  33.969  31.640  1.00  0.00     0.031 A 
ATOM     64  C   UNL A   1      36.188  32.923  33.290  1.00  0.00     0.131 A 
ATOM     65  C   UNL A   1      34.162  34.673  32.667  1.00  0.00     0.055 A 
ATOM     66  C   UNL A   1      35.486  33.571  34.312  1.00  0.00     0.041 A 
ATOM     67  F   UNL A   1      37.205  32.172  33.725  1.00  0.00    -0.206 F 
ATOM     68  C   UNL A   1      34.493  34.483  34.003  1.00  0.00     0.022 A 
BRANCH  65  69
ATOM     69  S   UNL A   1      33.010  35.993  32.202  1.00  0.00     0.124 S 
ATOM     70  O   UNL A   1      33.255  36.974  33.254  1.00  0.00    -0.237 OA
ATOM     71  O   UNL A   1      33.482  36.346  30.868  1.00  0.00    -0.237 OA
ATOM     72  O   UNL A   1      31.706  35.337  32.251  1.00  0.00    -0.744 OA
ENDBRANCH  65  69
ENDBRANCH  48  62
BRANCH  49  73
ATOM     73  C   UNL A   1      43.070  29.757  34.955  1.00  0.00     0.023 A 
ATOM     74  C   UNL A   1      42.460  28.614  35.516  1.00  0.00     0.031 A 
ATOM     75  C   UNL A   1      44.330  30.123  35.484  1.00  0.00     0.131 A 
ATOM     76  C   UNL A   1      43.106  27.895  36.552  1.00  0.00     0.055 A 
ATOM     77  C   UNL A   1      44.961  29.412  36.507  1.00  0.00     0.041 A 
ATOM     78  F   UNL A   1      45.032  31.141  34.960  1.00  0.00    -0.206 F 
ATOM     79  C   UNL A   1      44.355  28.287  37.040  1.00  0.00     0.022 A 
BRANCH  76  80
ATOM     80  S   UNL A   1      42.366  26.370  37.229  1.00  0.00     0.124 S 
ATOM     81  O   UNL A   1      40.956  26.729  37.334  1.00  0.00    -0.237 OA
ATOM     82  O   UNL A   1      42.711  25.378  36.217  1.00  0.00    -0.237 OA
ATOM     83  O   UNL A   1      43.051  26.198  38.511  1.00  0.00    -0.744 OA
ENDBRANCH  76  80
ENDBRANCH  49  73
BRANCH  61  84
ATOM     84  C   UNL A   1      42.477  34.055  30.346  1.00  0.00     0.023 A 
ATOM     85  C   UNL A   1      42.905  33.146  29.351  1.00  0.00     0.031 A 
ATOM     86  C   UNL A   1      43.213  35.244  30.500  1.00  0.00     0.131 A 
ATOM     87  C   UNL A   1      44.039  33.441  28.565  1.00  0.00     0.055 A 
ATOM     88  C   UNL A   1      44.319  35.543  29.707  1.00  0.00     0.041 A 
ATOM     89  F   UNL A   1      42.841  36.160  31.410  1.00  0.00    -0.206 F 
ATOM     90  C   UNL A   1      44.740  34.640  28.739  1.00  0.00     0.022 A 
BRANCH  87  91
ATOM     91  S   UNL A   1      44.634  32.266  27.307  1.00  0.00     0.124 S 
ATOM     92  O   UNL A   1      44.401  32.964  26.048  1.00  0.00    -0.237 OA
ATOM     93  O   UNL A   1      46.033  32.077  27.683  1.00  0.00    -0.237 OA
ATOM     94  O   UNL A   1      43.788  31.088  27.513  1.00  0.00    -0.744 OA
ENDBRANCH  87  91
ENDBRANCH  61  84
ENDBRANCH  35  36
ENDBRANCH  27  30
ENDBRANCH  25  26
ENDBRANCH   1  25
TORSDOF 16
ENDMDL
MODEL 3
REMARK VINA RESULT:     -13.1      2.257      7.118
REMARK SMILES CCc1nn(-c2cc(F)c(F)c(F)c2)c(Cl)c1C(=O)NCCCCNC(=O)c1ccc(-c2c3nc(c(-c4cc(S(=O)(=O)[O-])ccc4F)c4ccc([nH]4)c(-c4cc(S(=O)(=O)[O-])ccc4F)c4nc(c(-c5cc(S(=O)(=O)[O-])ccc5F)c5ccc2[nH]5)C=C4)C=C3)cc1
REMARK SMILES IDX 23 1 22 2 21 3 20 4 18 5 19 6 17 8 3 9 4 10 5 11 15 12 16 13
REMARK SMILES IDX 2 14 1 15 6 16 7 17 14 18 8 19 12 20 9 21 10 22 13 23 11 24
REMARK SMILES IDX 24 25 25 26 26 27 27 29 28 30 29 31 90 32 30 33 89 34 31 35
REMARK SMILES IDX 32 36 33 37 83 38 34 39 88 40 82 41 84 42 35 43 87 44 81 45
REMARK SMILES IDX 80 46 36 48 68 49 48 50 67 51 49 52 52 53 66 54 85 55 50 56
REMARK SMILES IDX 51 57 65 59 86 60 53 61 37 62 38 63 46 64 39 65 45 66 47 67
REMARK SMILES IDX 44 68 40 69 41 70 42 71 43 72 69 73 70 74 78 75 71 76 77 77
REMARK SMILES IDX 79 78 76 79 72 80 73 81 74 82 75 83 54 84 55 85 63 86 56 87
REMARK SMILES IDX 62 88 64 89 61 90 57 91 58 92 59 93 60 94
REMARK H PARENT 20 7 25 28 84 47 52 58
REMARK Flexibility Score: inf
ROOT
ATOM      1  C   UNL A   1      33.033  30.107  26.314  1.00  0.00     0.023 C 
ENDROOT
BRANCH   1   2
ATOM      2  C   UNL A   1      31.858  29.121  26.341  1.00  0.00     0.023 C 
BRANCH   2   3
ATOM      3  C   UNL A   1      31.907  28.078  27.466  1.00  0.00     0.116 C 
BRANCH   3   4
ATOM      4  N   UNL A   1      31.134  26.911  27.113  1.00  0.00    -0.352 N 
ATOM      5  C   UNL A   1      31.329  25.784  26.366  1.00  0.00     0.256 C 
ATOM      6  O   UNL A   1      30.298  25.113  26.247  1.00  0.00    -0.269 OA
ATOM      7  H   UNL A   1      30.236  26.932  27.513  1.00  0.00     0.163 HD
BRANCH   5   8
ATOM      8  C   UNL A   1      32.582  25.333  25.752  1.00  0.00     0.100 A 
ATOM      9  C   UNL A   1      33.492  25.779  24.725  1.00  0.00     0.077 A 
ATOM     10  N   UNL A   1      34.575  24.986  24.617  1.00  0.00    -0.171 NA
ATOM     11  N   UNL A   1      34.314  23.932  25.417  1.00  0.00    -0.221 N 
ATOM     12  C   UNL A   1      33.184  24.148  26.158  1.00  0.00     0.145 A 
ATOM     13  Cl  UNL A   1      32.823  23.096  27.471  1.00  0.00    -0.061 Cl
BRANCH   9  14
ATOM     14  C   UNL A   1      33.418  26.963  23.813  1.00  0.00     0.056 C 
ATOM     15  C   UNL A   1      32.322  26.952  22.757  1.00  0.00     0.011 C 
ENDBRANCH   9  14
BRANCH  11  16
ATOM     16  C   UNL A   1      35.157  22.791  25.390  1.00  0.00     0.072 A 
ATOM     17  C   UNL A   1      36.530  22.923  25.643  1.00  0.00     0.071 A 
ATOM     18  C   UNL A   1      34.614  21.539  25.074  1.00  0.00     0.071 A 
ATOM     19  C   UNL A   1      37.358  21.809  25.527  1.00  0.00     0.164 A 
ATOM     20  C   UNL A   1      35.472  20.449  24.926  1.00  0.00     0.164 A 
ATOM     21  F   UNL A   1      38.667  21.939  25.782  1.00  0.00    -0.204 F 
ATOM     22  C   UNL A   1      36.838  20.580  25.148  1.00  0.00     0.194 A 
ATOM     23  F   UNL A   1      34.970  19.268  24.542  1.00  0.00    -0.204 F 
ATOM     24  F   UNL A   1      37.652  19.524  24.998  1.00  0.00    -0.200 F 
ENDBRANCH  11  16
ENDBRANCH   5   8
ENDBRANCH   3   4
ENDBRANCH   2   3
ENDBRANCH   1   2
BRANCH   1  25
ATOM     25  C   UNL A   1      34.043  29.912  27.441  1.00  0.00     0.116 C 
BRANCH  25  26
ATOM     26  N   UNL A   1      34.366  31.158  28.129  1.00  0.00    -0.352 N 
ATOM     27  C   UNL A   1      35.389  31.374  29.036  1.00  0.00     0.251 C 
ATOM     28  H   UNL A   1      33.791  31.931  27.925  1.00  0.00     0.163 HD
ATOM     29  O   UNL A   1      35.332  32.285  29.840  1.00  0.00    -0.269 OA
BRANCH  27  30
ATOM     30  C   UNL A   1      36.552  30.471  28.983  1.00  0.00     0.039 A 
ATOM     31  C   UNL A   1      37.584  30.680  28.065  1.00  0.00     0.014 A 
ATOM     32  C   UNL A   1      36.621  29.449  29.930  1.00  0.00     0.014 A 
ATOM     33  C   UNL A   1      38.742  29.911  28.170  1.00  0.00     0.010 A 
ATOM     34  C   UNL A   1      37.797  28.747  30.082  1.00  0.00     0.010 A 
ATOM     35  C   UNL A   1      38.858  28.963  29.198  1.00  0.00    -0.014 A 
BRANCH  35  36
ATOM     36  C   UNL A   1      40.155  28.339  29.490  1.00  0.00     0.031 A 
ATOM     37  C   UNL A   1      40.506  28.284  30.943  1.00  0.00     0.074 A 
ATOM     38  C   UNL A   1      40.840  27.615  28.576  1.00  0.00     0.049 A 
ATOM     39  N   UNL A   1      41.534  28.790  31.541  1.00  0.00    -0.248 NA
ATOM     40  C   UNL A   1      39.522  27.697  31.871  1.00  0.00     0.031 C 
ATOM     41  C   UNL A   1      40.444  27.338  27.190  1.00  0.00     0.029 A 
ATOM     42  N   UNL A   1      41.961  26.849  28.724  1.00  0.00    -0.354 N 
ATOM     43  C   UNL A   1      41.452  28.381  32.873  1.00  0.00     0.074 A 
ATOM     44  C   UNL A   1      40.111  27.898  33.052  1.00  0.00     0.031 C 
ATOM     45  C   UNL A   1      41.151  26.288  26.717  1.00  0.00     0.029 A 
ATOM     46  C   UNL A   1      42.160  25.925  27.696  1.00  0.00     0.049 A 
ATOM     47  H   UNL A   1      42.575  26.941  29.488  1.00  0.00     0.167 HD
ATOM     48  C   UNL A   1      42.568  28.243  33.645  1.00  0.00     0.034 A 
ATOM     49  C   UNL A   1      43.061  24.907  27.650  1.00  0.00     0.034 A 
ATOM     50  C   UNL A   1      43.688  28.940  33.053  1.00  0.00     0.049 A 
ATOM     51  C   UNL A   1      44.129  25.236  28.622  1.00  0.00     0.074 A 
ATOM     52  C   UNL A   1      43.945  30.251  32.700  1.00  0.00     0.029 A 
ATOM     53  N   UNL A   1      44.634  28.189  32.393  1.00  0.00    -0.354 N 
ATOM     54  N   UNL A   1      44.920  26.266  28.492  1.00  0.00    -0.248 NA
ATOM     55  C   UNL A   1      44.025  24.703  29.970  1.00  0.00     0.031 C 
ATOM     56  C   UNL A   1      44.680  30.164  31.481  1.00  0.00     0.029 A 
ATOM     57  C   UNL A   1      44.905  28.814  31.203  1.00  0.00     0.049 A 
ATOM     58  H   UNL A   1      45.043  27.354  32.718  1.00  0.00     0.167 HD
ATOM     59  C   UNL A   1      45.046  26.779  29.773  1.00  0.00     0.074 A 
ATOM     60  C   UNL A   1      44.578  25.710  30.653  1.00  0.00     0.031 C 
ATOM     61  C   UNL A   1      45.246  28.116  29.977  1.00  0.00     0.034 A 
BRANCH  48  62
ATOM     62  C   UNL A   1      42.773  27.175  34.707  1.00  0.00     0.023 A 
ATOM     63  C   UNL A   1      43.536  26.046  34.341  1.00  0.00     0.031 A 
ATOM     64  C   UNL A   1      42.037  27.046  35.907  1.00  0.00     0.131 A 
ATOM     65  C   UNL A   1      43.439  24.839  35.057  1.00  0.00     0.055 A 
ATOM     66  C   UNL A   1      42.001  25.864  36.655  1.00  0.00     0.041 A 
ATOM     67  F   UNL A   1      41.242  28.011  36.380  1.00  0.00    -0.206 F 
ATOM     68  C   UNL A   1      42.672  24.739  36.212  1.00  0.00     0.022 A 
BRANCH  65  69
ATOM     69  S   UNL A   1      44.174  23.349  34.332  1.00  0.00     0.124 S 
ATOM     70  O   UNL A   1      44.209  22.454  35.483  1.00  0.00    -0.237 OA
ATOM     71  O   UNL A   1      43.211  23.021  33.286  1.00  0.00    -0.237 OA
ATOM     72  O   UNL A   1      45.476  23.812  33.859  1.00  0.00    -0.744 OA
ENDBRANCH  65  69
ENDBRANCH  48  62
BRANCH  49  73
ATOM     73  C   UNL A   1      42.884  23.556  27.044  1.00  0.00     0.023 A 
ATOM     74  C   UNL A   1      43.844  22.954  26.201  1.00  0.00     0.031 A 
ATOM     75  C   UNL A   1      41.836  22.724  27.501  1.00  0.00     0.131 A 
ATOM     76  C   UNL A   1      43.730  21.585  25.852  1.00  0.00     0.055 A 
ATOM     77  C   UNL A   1      41.728  21.376  27.152  1.00  0.00     0.041 A 
ATOM     78  F   UNL A   1      40.923  23.176  28.377  1.00  0.00    -0.206 F 
ATOM     79  C   UNL A   1      42.681  20.797  26.331  1.00  0.00     0.022 A 
BRANCH  76  80
ATOM     80  S   UNL A   1      45.006  20.776  24.829  1.00  0.00     0.124 S 
ATOM     81  O   UNL A   1      46.225  21.451  25.259  1.00  0.00    -0.237 OA
ATOM     82  O   UNL A   1      44.870  19.374  25.208  1.00  0.00    -0.237 OA
ATOM     83  O   UNL A   1      44.590  21.080  23.459  1.00  0.00    -0.744 OA
ENDBRANCH  76  80
ENDBRANCH  49  73
BRANCH  61  84
ATOM     84  C   UNL A   1      45.658  28.970  28.795  1.00  0.00     0.023 A 
ATOM     85  C   UNL A   1      44.857  29.965  28.189  1.00  0.00     0.031 A 
ATOM     86  C   UNL A   1      46.983  28.837  28.343  1.00  0.00     0.131 A 
ATOM     87  C   UNL A   1      45.390  30.772  27.162  1.00  0.00     0.055 A 
ATOM     88  C   UNL A   1      47.514  29.651  27.345  1.00  0.00     0.041 A 
ATOM     89  F   UNL A   1      47.802  27.928  28.898  1.00  0.00    -0.206 F 
ATOM     90  C   UNL A   1      46.717  30.619  26.746  1.00  0.00     0.022 A 
BRANCH  87  91
ATOM     91  S   UNL A   1      44.364  32.032  26.337  1.00  0.00     0.124 S 
ATOM     92  O   UNL A   1      43.219  31.273  25.846  1.00  0.00    -0.237 OA
ATOM     93  O   UNL A   1      44.090  32.978  27.415  1.00  0.00    -0.237 OA
ATOM     94  O   UNL A   1      45.243  32.551  25.286  1.00  0.00    -0.744 OA
ENDBRANCH  87  91
ENDBRANCH  61  84
ENDBRANCH  35  36
ENDBRANCH  27  30
ENDBRANCH  25  26
ENDBRANCH   1  25
TORSDOF 16
ENDMDL
