MODEL 1
REMARK VINA RESULT:     -12.0      0.000      0.000
REMARK SMILES CO[C@@H]1C[C@H](C(=O)NCCCCNC(=O)c2ccc(-c3c4nc(c(-c5cc(S(=O)(=O)[O-])ccc5F)c5ccc([nH]5)c(-c5cc(S(=O)(=O)[O-])ccc5F)c5nc(c(-c6cc(S(=O)(=O)[O-])ccc6F)c6ccc3[nH]6)C=C5)C=C4)cc2)N(C(=O)c2ccc([N+](=O)[O-])s2)C1
REMARK SMILES IDX 10 1 9 2 8 3 6 4 7 5 5 7 3 8 4 9 90 10 79 11 2 12 1 13 80 14
REMARK SMILES IDX 81 15 82 16 83 17 89 18 84 19 85 20 86 21 87 22 88 23 11 24
REMARK SMILES IDX 12 25 13 26 14 27 15 29 16 30 17 31 78 32 18 33 77 34 19 35
REMARK SMILES IDX 20 36 21 37 71 38 22 39 76 40 70 41 72 42 23 43 75 44 69 45
REMARK SMILES IDX 68 46 24 48 56 49 36 50 55 51 37 52 40 53 54 54 73 55 38 56
REMARK SMILES IDX 39 57 53 59 74 60 41 61 25 62 26 63 34 64 27 65 33 66 35 67
REMARK SMILES IDX 32 68 28 69 29 70 30 71 31 72 57 73 58 74 66 75 59 76 65 77
REMARK SMILES IDX 67 78 64 79 60 80 61 81 62 82 63 83 42 84 43 85 51 86 44 87
REMARK SMILES IDX 50 88 52 89 49 90 45 91 46 92 47 93 48 94
REMARK H PARENT 8 6 13 28 72 47 40 58
REMARK Flexibility Score: inf
ROOT
ATOM      1  C   UNL A   1      35.320  22.869  26.150  1.00  0.00     0.023 C 
ENDROOT
BRANCH   1   2
ATOM      2  C   UNL A   1      34.070  23.408  25.453  1.00  0.00     0.116 C 
BRANCH   2   3
ATOM      3  N   UNL A   1      34.289  23.609  24.035  1.00  0.00    -0.354 N 
ATOM      4  C   UNL A   1      33.474  24.093  23.062  1.00  0.00     0.242 C 
ATOM      5  O   UNL A   1      33.934  24.122  21.913  1.00  0.00    -0.273 OA
ATOM      6  H   UNL A   1      35.185  23.349  23.721  1.00  0.00     0.163 HD
BRANCH   4   7
ATOM      7  C   UNL A   1      32.020  24.574  23.298  1.00  0.00     0.177 C 
ATOM      8  C   UNL A   1      30.494  23.867  25.098  1.00  0.00     0.139 C 
ATOM      9  C   UNL A   1      31.038  23.482  23.716  1.00  0.00     0.069 C 
ATOM     10  C   UNL A   1      31.007  25.283  25.373  1.00  0.00     0.152 C 
ATOM     11  N   UNL A   1      31.855  25.657  24.258  1.00  0.00    -0.323 N 
BRANCH   8  12
ATOM     12  O   UNL A   1      30.960  22.899  26.034  1.00  0.00    -0.380 OA
ATOM     13  C   UNL A   1      30.014  22.541  27.032  1.00  0.00     0.195 C 
ENDBRANCH   8  12
BRANCH  11  14
ATOM     14  C   UNL A   1      32.283  26.974  24.140  1.00  0.00     0.264 C 
ATOM     15  O   UNL A   1      33.478  27.246  24.261  1.00  0.00    -0.268 OA
BRANCH  14  16
ATOM     16  C   UNL A   1      31.285  28.009  23.930  1.00  0.00     0.099 A 
ATOM     17  C   UNL A   1      31.276  29.319  24.380  1.00  0.00     0.033 A 
ATOM     18  S   UNL A   1      29.955  27.696  22.893  1.00  0.00    -0.058 S 
ATOM     19  C   UNL A   1      30.145  30.049  23.906  1.00  0.00     0.099 A 
ATOM     20  C   UNL A   1      29.359  29.276  23.082  1.00  0.00     0.324 A 
BRANCH  20  21
ATOM     21  N   UNL A   1      28.167  29.703  22.397  1.00  0.00     0.074 N 
ATOM     22  O   UNL A   1      28.305  30.025  21.207  1.00  0.00    -0.258 OA
ATOM     23  O   UNL A   1      27.095  29.700  23.014  1.00  0.00    -0.258 OA
ENDBRANCH  20  21
ENDBRANCH  14  16
ENDBRANCH  11  14
ENDBRANCH   4   7
ENDBRANCH   2   3
ENDBRANCH   1   2
BRANCH   1  24
ATOM     24  C   UNL A   1      35.913  21.607  25.529  1.00  0.00     0.023 C 
BRANCH  24  25
ATOM     25  C   UNL A   1      37.303  21.777  24.921  1.00  0.00     0.116 C 
BRANCH  25  26
ATOM     26  N   UNL A   1      38.220  20.674  25.177  1.00  0.00    -0.352 N 
ATOM     27  C   UNL A   1      39.364  20.680  25.955  1.00  0.00     0.251 C 
ATOM     28  H   UNL A   1      37.999  19.819  24.743  1.00  0.00     0.163 HD
ATOM     29  O   UNL A   1      40.066  19.687  26.043  1.00  0.00    -0.269 OA
BRANCH  27  30
ATOM     30  C   UNL A   1      39.737  21.946  26.624  1.00  0.00     0.039 A 
ATOM     31  C   UNL A   1      40.746  21.928  27.589  1.00  0.00     0.014 A 
ATOM     32  C   UNL A   1      39.197  23.153  26.179  1.00  0.00     0.014 A 
ATOM     33  C   UNL A   1      41.298  23.135  28.023  1.00  0.00     0.010 A 
ATOM     34  C   UNL A   1      39.810  24.345  26.543  1.00  0.00     0.010 A 
ATOM     35  C   UNL A   1      40.882  24.350  27.452  1.00  0.00    -0.014 A 
BRANCH  35  36
ATOM     36  C   UNL A   1      41.560  25.637  27.759  1.00  0.00     0.031 A 
ATOM     37  C   UNL A   1      40.823  26.704  28.522  1.00  0.00     0.074 A 
ATOM     38  C   UNL A   1      42.789  25.889  27.261  1.00  0.00     0.049 A 
ATOM     39  N   UNL A   1      41.165  27.944  28.754  1.00  0.00    -0.248 NA
ATOM     40  C   UNL A   1      39.504  26.333  29.054  1.00  0.00     0.031 C 
ATOM     41  C   UNL A   1      43.588  24.957  26.460  1.00  0.00     0.029 A 
ATOM     42  N   UNL A   1      43.576  27.011  27.339  1.00  0.00    -0.354 N 
ATOM     43  C   UNL A   1      40.091  28.511  29.431  1.00  0.00     0.074 A 
ATOM     44  C   UNL A   1      39.063  27.494  29.512  1.00  0.00     0.031 C 
ATOM     45  C   UNL A   1      44.757  25.537  26.144  1.00  0.00     0.029 A 
ATOM     46  C   UNL A   1      44.774  26.898  26.670  1.00  0.00     0.049 A 
ATOM     47  H   UNL A   1      43.309  27.822  27.827  1.00  0.00     0.167 HD
ATOM     48  C   UNL A   1      39.981  29.755  29.961  1.00  0.00     0.034 A 
ATOM     49  C   UNL A   1      45.766  27.792  26.486  1.00  0.00     0.034 A 
ATOM     50  C   UNL A   1      41.026  30.746  29.898  1.00  0.00     0.049 A 
ATOM     51  C   UNL A   1      45.622  29.170  27.081  1.00  0.00     0.074 A 
ATOM     52  C   UNL A   1      41.049  32.012  30.456  1.00  0.00     0.029 A 
ATOM     53  N   UNL A   1      42.237  30.583  29.236  1.00  0.00    -0.354 N 
ATOM     54  N   UNL A   1      44.619  29.676  27.761  1.00  0.00    -0.248 NA
ATOM     55  C   UNL A   1      46.748  30.096  26.892  1.00  0.00     0.031 C 
ATOM     56  C   UNL A   1      42.245  32.635  30.083  1.00  0.00     0.029 A 
ATOM     57  C   UNL A   1      43.002  31.734  29.353  1.00  0.00     0.049 A 
ATOM     58  H   UNL A   1      42.511  29.769  28.755  1.00  0.00     0.167 HD
ATOM     59  C   UNL A   1      45.008  30.967  28.107  1.00  0.00     0.074 A 
ATOM     60  C   UNL A   1      46.340  31.158  27.570  1.00  0.00     0.031 C 
ATOM     61  C   UNL A   1      44.328  31.908  28.809  1.00  0.00     0.034 A 
BRANCH  48  62
ATOM     62  C   UNL A   1      38.676  30.107  30.633  1.00  0.00     0.023 A 
ATOM     63  C   UNL A   1      37.641  30.758  29.938  1.00  0.00     0.031 A 
ATOM     64  C   UNL A   1      38.475  29.827  31.996  1.00  0.00     0.131 A 
ATOM     65  C   UNL A   1      36.497  31.189  30.624  1.00  0.00     0.055 A 
ATOM     66  C   UNL A   1      37.295  30.178  32.654  1.00  0.00     0.041 A 
ATOM     67  F   UNL A   1      39.432  29.224  32.718  1.00  0.00    -0.206 F 
ATOM     68  C   UNL A   1      36.304  30.880  31.973  1.00  0.00     0.022 A 
BRANCH  65  69
ATOM     69  S   UNL A   1      35.342  32.293  29.768  1.00  0.00     0.124 S 
ATOM     70  O   UNL A   1      34.830  31.422  28.713  1.00  0.00    -0.237 OA
ATOM     71  O   UNL A   1      34.396  32.641  30.823  1.00  0.00    -0.237 OA
ATOM     72  O   UNL A   1      36.192  33.388  29.306  1.00  0.00    -0.744 OA
ENDBRANCH  65  69
ENDBRANCH  48  62
BRANCH  49  73
ATOM     73  C   UNL A   1      46.980  27.429  25.699  1.00  0.00     0.023 A 
ATOM     74  C   UNL A   1      47.105  27.803  24.352  1.00  0.00     0.031 A 
ATOM     75  C   UNL A   1      48.013  26.663  26.268  1.00  0.00     0.131 A 
ATOM     76  C   UNL A   1      48.212  27.372  23.604  1.00  0.00     0.055 A 
ATOM     77  C   UNL A   1      49.138  26.280  25.534  1.00  0.00     0.041 A 
ATOM     78  F   UNL A   1      47.948  26.285  27.555  1.00  0.00    -0.206 F 
ATOM     79  C   UNL A   1      49.235  26.624  24.190  1.00  0.00     0.022 A 
BRANCH  76  80
ATOM     80  S   UNL A   1      48.256  27.737  21.828  1.00  0.00     0.124 S 
ATOM     81  O   UNL A   1      46.975  28.408  21.631  1.00  0.00    -0.237 OA
ATOM     82  O   UNL A   1      49.444  28.578  21.721  1.00  0.00    -0.237 OA
ATOM     83  O   UNL A   1      48.371  26.418  21.212  1.00  0.00    -0.744 OA
ENDBRANCH  76  80
ENDBRANCH  49  73
BRANCH  61  84
ATOM     84  C   UNL A   1      45.041  33.209  29.084  1.00  0.00     0.023 A 
ATOM     85  C   UNL A   1      44.876  34.333  28.257  1.00  0.00     0.031 A 
ATOM     86  C   UNL A   1      45.895  33.320  30.196  1.00  0.00     0.131 A 
ATOM     87  C   UNL A   1      45.594  35.508  28.529  1.00  0.00     0.055 A 
ATOM     88  C   UNL A   1      46.562  34.508  30.492  1.00  0.00     0.041 A 
ATOM     89  F   UNL A   1      46.087  32.275  31.016  1.00  0.00    -0.206 F 
ATOM     90  C   UNL A   1      46.422  35.608  29.651  1.00  0.00     0.022 A 
BRANCH  87  91
ATOM     91  S   UNL A   1      45.487  36.886  27.355  1.00  0.00     0.124 S 
ATOM     92  O   UNL A   1      44.083  36.841  26.961  1.00  0.00    -0.237 OA
ATOM     93  O   UNL A   1      45.882  38.027  28.175  1.00  0.00    -0.237 OA
ATOM     94  O   UNL A   1      46.438  36.519  26.307  1.00  0.00    -0.744 OA
ENDBRANCH  87  91
ENDBRANCH  61  84
ENDBRANCH  35  36
ENDBRANCH  27  30
ENDBRANCH  25  26
ENDBRANCH  24  25
ENDBRANCH   1  24
TORSDOF 18
ENDMDL
MODEL 2
REMARK VINA RESULT:     -12.0      1.651      3.427
REMARK SMILES CO[C@@H]1C[C@H](C(=O)NCCCCNC(=O)c2ccc(-c3c4nc(c(-c5cc(S(=O)(=O)[O-])ccc5F)c5ccc([nH]5)c(-c5cc(S(=O)(=O)[O-])ccc5F)c5nc(c(-c6cc(S(=O)(=O)[O-])ccc6F)c6ccc3[nH]6)C=C5)C=C4)cc2)N(C(=O)c2ccc([N+](=O)[O-])s2)C1
REMARK SMILES IDX 10 1 9 2 8 3 6 4 7 5 5 7 3 8 4 9 90 10 79 11 2 12 1 13 80 14
REMARK SMILES IDX 81 15 82 16 83 17 89 18 84 19 85 20 86 21 87 22 88 23 11 24
REMARK SMILES IDX 12 25 13 26 14 27 15 29 16 30 17 31 78 32 18 33 77 34 19 35
REMARK SMILES IDX 20 36 21 37 71 38 22 39 76 40 70 41 72 42 23 43 75 44 69 45
REMARK SMILES IDX 68 46 24 48 56 49 36 50 55 51 37 52 40 53 54 54 73 55 38 56
REMARK SMILES IDX 39 57 53 59 74 60 41 61 25 62 26 63 34 64 27 65 33 66 35 67
REMARK SMILES IDX 32 68 28 69 29 70 30 71 31 72 57 73 58 74 66 75 59 76 65 77
REMARK SMILES IDX 67 78 64 79 60 80 61 81 62 82 63 83 42 84 43 85 51 86 44 87
REMARK SMILES IDX 50 88 52 89 49 90 45 91 46 92 47 93 48 94
REMARK H PARENT 8 6 13 28 72 47 40 58
REMARK Flexibility Score: inf
ROOT
ATOM      1  C   UNL A   1      35.758  22.259  24.059  1.00  0.00     0.023 C 
ENDROOT
BRANCH   1   2
ATOM      2  C   UNL A   1      35.648  23.736  24.442  1.00  0.00     0.116 C 
BRANCH   2   3
ATOM      3  N   UNL A   1      34.579  24.400  23.725  1.00  0.00    -0.354 N 
ATOM      4  C   UNL A   1      33.610  25.252  24.149  1.00  0.00     0.242 C 
ATOM      5  O   UNL A   1      32.801  25.644  23.298  1.00  0.00    -0.273 OA
ATOM      6  H   UNL A   1      34.550  24.200  22.762  1.00  0.00     0.163 HD
BRANCH   4   7
ATOM      7  C   UNL A   1      33.443  25.727  25.614  1.00  0.00     0.177 C 
ATOM      8  C   UNL A   1      32.599  27.911  26.382  1.00  0.00     0.139 C 
ATOM      9  C   UNL A   1      33.847  27.177  25.873  1.00  0.00     0.069 C 
ATOM     10  C   UNL A   1      31.540  26.829  26.612  1.00  0.00     0.152 C 
ATOM     11  N   UNL A   1      32.115  25.567  26.189  1.00  0.00    -0.323 N 
BRANCH   8  12
ATOM     12  O   UNL A   1      32.228  28.872  25.399  1.00  0.00    -0.380 OA
ATOM     13  C   UNL A   1      30.950  28.660  24.818  1.00  0.00     0.195 C 
ENDBRANCH   8  12
BRANCH  11  14
ATOM     14  C   UNL A   1      31.451  24.383  26.487  1.00  0.00     0.264 C 
ATOM     15  O   UNL A   1      30.267  24.408  26.823  1.00  0.00    -0.268 OA
BRANCH  14  16
ATOM     16  C   UNL A   1      32.203  23.140  26.445  1.00  0.00     0.099 A 
ATOM     17  C   UNL A   1      33.161  22.666  27.326  1.00  0.00     0.033 A 
ATOM     18  S   UNL A   1      31.836  21.976  25.239  1.00  0.00    -0.058 S 
ATOM     19  C   UNL A   1      33.625  21.363  26.978  1.00  0.00     0.099 A 
ATOM     20  C   UNL A   1      32.972  20.880  25.866  1.00  0.00     0.324 A 
BRANCH  20  21
ATOM     21  N   UNL A   1      33.159  19.584  25.266  1.00  0.00     0.074 N 
ATOM     22  O   UNL A   1      32.180  18.824  25.289  1.00  0.00    -0.258 OA
ATOM     23  O   UNL A   1      34.253  19.322  24.751  1.00  0.00    -0.258 OA
ENDBRANCH  20  21
ENDBRANCH  14  16
ENDBRANCH  11  14
ENDBRANCH   4   7
ENDBRANCH   2   3
ENDBRANCH   1   2
BRANCH   1  24
ATOM     24  C   UNL A   1      37.158  21.664  24.173  1.00  0.00     0.023 C 
BRANCH  24  25
ATOM     25  C   UNL A   1      37.650  21.436  25.600  1.00  0.00     0.116 C 
BRANCH  25  26
ATOM     26  N   UNL A   1      38.742  20.479  25.724  1.00  0.00    -0.352 N 
ATOM     27  C   UNL A   1      39.980  20.670  26.312  1.00  0.00     0.251 C 
ATOM     28  H   UNL A   1      38.580  19.587  25.342  1.00  0.00     0.163 HD
ATOM     29  O   UNL A   1      40.820  19.787  26.302  1.00  0.00    -0.269 OA
BRANCH  27  30
ATOM     30  C   UNL A   1      40.269  21.999  26.896  1.00  0.00     0.039 A 
ATOM     31  C   UNL A   1      41.113  22.080  28.006  1.00  0.00     0.014 A 
ATOM     32  C   UNL A   1      39.830  23.154  26.248  1.00  0.00     0.014 A 
ATOM     33  C   UNL A   1      41.614  23.324  28.393  1.00  0.00     0.010 A 
ATOM     34  C   UNL A   1      40.402  24.375  26.578  1.00  0.00     0.010 A 
ATOM     35  C   UNL A   1      41.317  24.473  27.640  1.00  0.00    -0.014 A 
BRANCH  35  36
ATOM     36  C   UNL A   1      41.965  25.783  27.915  1.00  0.00     0.031 A 
ATOM     37  C   UNL A   1      41.193  26.861  28.626  1.00  0.00     0.074 A 
ATOM     38  C   UNL A   1      43.199  26.041  27.433  1.00  0.00     0.049 A 
ATOM     39  N   UNL A   1      41.506  28.115  28.821  1.00  0.00    -0.248 NA
ATOM     40  C   UNL A   1      39.870  26.483  29.144  1.00  0.00     0.031 C 
ATOM     41  C   UNL A   1      44.031  25.098  26.680  1.00  0.00     0.029 A 
ATOM     42  N   UNL A   1      43.963  27.180  27.486  1.00  0.00    -0.354 N 
ATOM     43  C   UNL A   1      40.409  28.684  29.457  1.00  0.00     0.074 A 
ATOM     44  C   UNL A   1      39.399  27.650  29.553  1.00  0.00     0.031 C 
ATOM     45  C   UNL A   1      45.195  25.689  26.367  1.00  0.00     0.029 A 
ATOM     46  C   UNL A   1      45.176  27.068  26.845  1.00  0.00     0.049 A 
ATOM     47  H   UNL A   1      43.670  28.003  27.940  1.00  0.00     0.167 HD
ATOM     48  C   UNL A   1      40.264  29.943  29.940  1.00  0.00     0.034 A 
ATOM     49  C   UNL A   1      46.155  27.974  26.649  1.00  0.00     0.034 A 
ATOM     50  C   UNL A   1      41.291  30.951  29.863  1.00  0.00     0.049 A 
ATOM     51  C   UNL A   1      45.973  29.369  27.193  1.00  0.00     0.074 A 
ATOM     52  C   UNL A   1      41.279  32.236  30.377  1.00  0.00     0.029 A 
ATOM     53  N   UNL A   1      42.519  30.789  29.231  1.00  0.00    -0.354 N 
ATOM     54  N   UNL A   1      44.946  29.879  27.835  1.00  0.00    -0.248 NA
ATOM     55  C   UNL A   1      47.084  30.309  26.993  1.00  0.00     0.031 C 
ATOM     56  C   UNL A   1      42.471  32.869  30.006  1.00  0.00     0.029 A 
ATOM     57  C   UNL A   1      43.259  31.958  29.322  1.00  0.00     0.049 A 
ATOM     58  H   UNL A   1      42.818  29.965  28.784  1.00  0.00     0.167 HD
ATOM     59  C   UNL A   1      45.304  31.188  28.143  1.00  0.00     0.074 A 
ATOM     60  C   UNL A   1      46.642  31.386  27.626  1.00  0.00     0.031 C 
ATOM     61  C   UNL A   1      44.592  32.139  28.799  1.00  0.00     0.034 A 
BRANCH  48  62
ATOM     62  C   UNL A   1      38.939  30.292  30.574  1.00  0.00     0.023 A 
ATOM     63  C   UNL A   1      37.983  31.072  29.900  1.00  0.00     0.031 A 
ATOM     64  C   UNL A   1      38.643  29.877  31.884  1.00  0.00     0.131 A 
ATOM     65  C   UNL A   1      36.822  31.489  30.566  1.00  0.00     0.055 A 
ATOM     66  C   UNL A   1      37.443  30.221  32.511  1.00  0.00     0.041 A 
ATOM     67  F   UNL A   1      39.523  29.147  32.586  1.00  0.00    -0.206 F 
ATOM     68  C   UNL A   1      36.532  31.047  31.859  1.00  0.00     0.022 A 
BRANCH  65  69
ATOM     69  S   UNL A   1      35.777  32.743  29.776  1.00  0.00     0.124 S 
ATOM     70  O   UNL A   1      36.167  33.949  30.502  1.00  0.00    -0.237 OA
ATOM     71  O   UNL A   1      36.200  32.673  28.381  1.00  0.00    -0.237 OA
ATOM     72  O   UNL A   1      34.419  32.275  30.041  1.00  0.00    -0.744 OA
ENDBRANCH  65  69
ENDBRANCH  48  62
BRANCH  49  73
ATOM     73  C   UNL A   1      47.391  27.608  25.899  1.00  0.00     0.023 A 
ATOM     74  C   UNL A   1      47.487  27.829  24.516  1.00  0.00     0.031 A 
ATOM     75  C   UNL A   1      48.476  26.989  26.544  1.00  0.00     0.131 A 
ATOM     76  C   UNL A   1      48.622  27.393  23.815  1.00  0.00     0.055 A 
ATOM     77  C   UNL A   1      49.625  26.603  25.851  1.00  0.00     0.041 A 
ATOM     78  F   UNL A   1      48.439  26.761  27.867  1.00  0.00    -0.206 F 
ATOM     79  C   UNL A   1      49.696  26.793  24.474  1.00  0.00     0.022 A 
BRANCH  76  80
ATOM     80  S   UNL A   1      48.638  27.549  22.007  1.00  0.00     0.124 S 
ATOM     81  O   UNL A   1      49.830  28.364  21.790  1.00  0.00    -0.237 OA
ATOM     82  O   UNL A   1      48.727  26.156  21.583  1.00  0.00    -0.237 OA
ATOM     83  O   UNL A   1      47.369  28.209  21.712  1.00  0.00    -0.744 OA
ENDBRANCH  76  80
ENDBRANCH  49  73
BRANCH  61  84
ATOM     84  C   UNL A   1      45.275  33.462  29.041  1.00  0.00     0.023 A 
ATOM     85  C   UNL A   1      45.178  34.526  28.128  1.00  0.00     0.031 A 
ATOM     86  C   UNL A   1      46.031  33.658  30.212  1.00  0.00     0.131 A 
ATOM     87  C   UNL A   1      45.866  35.723  28.376  1.00  0.00     0.055 A 
ATOM     88  C   UNL A   1      46.666  34.871  30.479  1.00  0.00     0.041 A 
ATOM     89  F   UNL A   1      46.156  32.674  31.115  1.00  0.00    -0.206 F 
ATOM     90  C   UNL A   1      46.595  35.908  29.555  1.00  0.00     0.022 A 
BRANCH  87  91
ATOM     91  S   UNL A   1      45.855  37.016  27.105  1.00  0.00     0.124 S 
ATOM     92  O   UNL A   1      46.696  38.043  27.709  1.00  0.00    -0.237 OA
ATOM     93  O   UNL A   1      46.421  36.326  25.951  1.00  0.00    -0.237 OA
ATOM     94  O   UNL A   1      44.440  37.365  26.983  1.00  0.00    -0.744 OA
ENDBRANCH  87  91
ENDBRANCH  61  84
ENDBRANCH  35  36
ENDBRANCH  27  30
ENDBRANCH  25  26
ENDBRANCH  24  25
ENDBRANCH   1  24
TORSDOF 18
ENDMDL
MODEL 3
REMARK VINA RESULT:     -11.9      2.203      3.834
REMARK SMILES CO[C@@H]1C[C@H](C(=O)NCCCCNC(=O)c2ccc(-c3c4nc(c(-c5cc(S(=O)(=O)[O-])ccc5F)c5ccc([nH]5)c(-c5cc(S(=O)(=O)[O-])ccc5F)c5nc(c(-c6cc(S(=O)(=O)[O-])ccc6F)c6ccc3[nH]6)C=C5)C=C4)cc2)N(C(=O)c2ccc([N+](=O)[O-])s2)C1
REMARK SMILES IDX 10 1 9 2 8 3 6 4 7 5 5 7 3 8 4 9 90 10 79 11 2 12 1 13 80 14
REMARK SMILES IDX 81 15 82 16 83 17 89 18 84 19 85 20 86 21 87 22 88 23 11 24
REMARK SMILES IDX 12 25 13 26 14 27 15 29 16 30 17 31 78 32 18 33 77 34 19 35
REMARK SMILES IDX 20 36 21 37 71 38 22 39 76 40 70 41 72 42 23 43 75 44 69 45
REMARK SMILES IDX 68 46 24 48 56 49 36 50 55 51 37 52 40 53 54 54 73 55 38 56
REMARK SMILES IDX 39 57 53 59 74 60 41 61 25 62 26 63 34 64 27 65 33 66 35 67
REMARK SMILES IDX 32 68 28 69 29 70 30 71 31 72 57 73 58 74 66 75 59 76 65 77
REMARK SMILES IDX 67 78 64 79 60 80 61 81 62 82 63 83 42 84 43 85 51 86 44 87
REMARK SMILES IDX 50 88 52 89 49 90 45 91 46 92 47 93 48 94
REMARK H PARENT 8 6 13 28 72 47 40 58
REMARK Flexibility Score: inf
ROOT
ATOM      1  C   UNL A   1      35.051  24.474  25.225  1.00  0.00     0.023 C 
ENDROOT
BRANCH   1   2
ATOM      2  C   UNL A   1      33.933  25.442  24.832  1.00  0.00     0.116 C 
BRANCH   2   3
ATOM      3  N   UNL A   1      33.588  26.336  25.918  1.00  0.00    -0.354 N 
ATOM      4  C   UNL A   1      32.384  26.758  26.382  1.00  0.00     0.242 C 
ATOM      5  O   UNL A   1      32.400  27.560  27.325  1.00  0.00    -0.273 OA
ATOM      6  H   UNL A   1      34.361  26.701  26.404  1.00  0.00     0.163 HD
BRANCH   4   7
ATOM      7  C   UNL A   1      31.018  26.325  25.793  1.00  0.00     0.177 C 
ATOM      8  C   UNL A   1      30.469  25.970  23.417  1.00  0.00     0.139 C 
ATOM      9  C   UNL A   1      30.613  27.041  24.507  1.00  0.00     0.069 C 
ATOM     10  C   UNL A   1      30.587  24.623  24.135  1.00  0.00     0.152 C 
ATOM     11  N   UNL A   1      30.859  24.901  25.531  1.00  0.00    -0.323 N 
BRANCH   8  12
ATOM     12  O   UNL A   1      31.491  26.194  22.450  1.00  0.00    -0.380 OA
ATOM     13  C   UNL A   1      32.019  27.512  22.444  1.00  0.00     0.195 C 
ENDBRANCH   8  12
BRANCH  11  14
ATOM     14  C   UNL A   1      30.801  23.865  26.456  1.00  0.00     0.264 C 
ATOM     15  O   UNL A   1      29.879  23.819  27.270  1.00  0.00    -0.268 OA
BRANCH  14  16
ATOM     16  C   UNL A   1      31.876  22.887  26.468  1.00  0.00     0.099 A 
ATOM     17  C   UNL A   1      32.808  22.625  27.458  1.00  0.00     0.033 A 
ATOM     18  S   UNL A   1      32.014  21.774  25.170  1.00  0.00    -0.058 S 
ATOM     19  C   UNL A   1      33.667  21.536  27.122  1.00  0.00     0.099 A 
ATOM     20  C   UNL A   1      33.327  20.987  25.905  1.00  0.00     0.324 A 
BRANCH  20  21
ATOM     21  N   UNL A   1      33.953  19.850  25.281  1.00  0.00     0.074 N 
ATOM     22  O   UNL A   1      33.287  18.805  25.255  1.00  0.00    -0.258 OA
ATOM     23  O   UNL A   1      35.082  19.988  24.795  1.00  0.00    -0.258 OA
ENDBRANCH  20  21
ENDBRANCH  14  16
ENDBRANCH  11  14
ENDBRANCH   4   7
ENDBRANCH   2   3
ENDBRANCH   1   2
BRANCH   1  24
ATOM     24  C   UNL A   1      35.453  23.477  24.142  1.00  0.00     0.023 C 
BRANCH  24  25
ATOM     25  C   UNL A   1      36.951  23.208  24.033  1.00  0.00     0.116 C 
BRANCH  25  26
ATOM     26  N   UNL A   1      37.351  21.842  24.347  1.00  0.00    -0.352 N 
ATOM     27  C   UNL A   1      38.260  21.417  25.299  1.00  0.00     0.251 C 
ATOM     28  H   UNL A   1      36.922  21.134  23.815  1.00  0.00     0.163 HD
ATOM     29  O   UNL A   1      38.533  20.236  25.420  1.00  0.00    -0.269 OA
BRANCH  27  30
ATOM     30  C   UNL A   1      38.933  22.449  26.119  1.00  0.00     0.039 A 
ATOM     31  C   UNL A   1      40.264  22.253  26.493  1.00  0.00     0.014 A 
ATOM     32  C   UNL A   1      38.291  23.662  26.376  1.00  0.00     0.014 A 
ATOM     33  C   UNL A   1      40.991  23.323  27.019  1.00  0.00     0.010 A 
ATOM     34  C   UNL A   1      39.042  24.746  26.812  1.00  0.00     0.010 A 
ATOM     35  C   UNL A   1      40.404  24.596  27.119  1.00  0.00    -0.014 A 
BRANCH  35  36
ATOM     36  C   UNL A   1      41.191  25.796  27.511  1.00  0.00     0.031 A 
ATOM     37  C   UNL A   1      40.550  26.863  28.358  1.00  0.00     0.074 A 
ATOM     38  C   UNL A   1      42.434  25.979  27.020  1.00  0.00     0.049 A 
ATOM     39  N   UNL A   1      40.997  28.049  28.675  1.00  0.00    -0.248 NA
ATOM     40  C   UNL A   1      39.207  26.566  28.875  1.00  0.00     0.031 C 
ATOM     41  C   UNL A   1      43.147  25.045  26.144  1.00  0.00     0.029 A 
ATOM     42  N   UNL A   1      43.314  27.022  27.169  1.00  0.00    -0.354 N 
ATOM     43  C   UNL A   1      39.978  28.653  29.403  1.00  0.00     0.074 A 
ATOM     44  C   UNL A   1      38.868  27.723  29.421  1.00  0.00     0.031 C 
ATOM     45  C   UNL A   1      44.360  25.546  25.858  1.00  0.00     0.029 A 
ATOM     46  C   UNL A   1      44.495  26.859  26.481  1.00  0.00     0.049 A 
ATOM     47  H   UNL A   1      43.118  27.816  27.718  1.00  0.00     0.167 HD
ATOM     48  C   UNL A   1      39.976  29.860  30.023  1.00  0.00     0.034 A 
ATOM     49  C   UNL A   1      45.558  27.677  26.351  1.00  0.00     0.034 A 
ATOM     50  C   UNL A   1      41.100  30.761  30.020  1.00  0.00     0.049 A 
ATOM     51  C   UNL A   1      45.534  29.016  27.047  1.00  0.00     0.074 A 
ATOM     52  C   UNL A   1      41.233  31.977  30.668  1.00  0.00     0.029 A 
ATOM     53  N   UNL A   1      42.290  30.546  29.336  1.00  0.00    -0.354 N 
ATOM     54  N   UNL A   1      44.580  29.553  27.772  1.00  0.00    -0.248 NA
ATOM     55  C   UNL A   1      46.732  29.855  26.913  1.00  0.00     0.031 C 
ATOM     56  C   UNL A   1      42.476  32.523  30.329  1.00  0.00     0.029 A 
ATOM     57  C   UNL A   1      43.150  31.617  29.527  1.00  0.00     0.049 A 
ATOM     58  H   UNL A   1      42.493  29.750  28.793  1.00  0.00     0.167 HD
ATOM     59  C   UNL A   1      45.078  30.778  28.207  1.00  0.00     0.074 A 
ATOM     60  C   UNL A   1      46.419  30.895  27.671  1.00  0.00     0.031 C 
ATOM     61  C   UNL A   1      44.484  31.719  28.983  1.00  0.00     0.034 A 
BRANCH  48  62
ATOM     62  C   UNL A   1      38.708  30.270  30.733  1.00  0.00     0.023 A 
ATOM     63  C   UNL A   1      37.660  30.917  30.054  1.00  0.00     0.031 A 
ATOM     64  C   UNL A   1      38.559  30.050  32.113  1.00  0.00     0.131 A 
ATOM     65  C   UNL A   1      36.556  31.403  30.768  1.00  0.00     0.055 A 
ATOM     66  C   UNL A   1      37.415  30.457  32.804  1.00  0.00     0.041 A 
ATOM     67  F   UNL A   1      39.532  29.455  32.820  1.00  0.00    -0.206 F 
ATOM     68  C   UNL A   1      36.413  31.154  32.136  1.00  0.00     0.022 A 
BRANCH  65  69
ATOM     69  S   UNL A   1      35.391  32.499  29.915  1.00  0.00     0.124 S 
ATOM     70  O   UNL A   1      34.361  32.683  30.936  1.00  0.00    -0.237 OA
ATOM     71  O   UNL A   1      36.214  33.667  29.621  1.00  0.00    -0.237 OA
ATOM     72  O   UNL A   1      34.973  31.719  28.752  1.00  0.00    -0.744 OA
ENDBRANCH  65  69
ENDBRANCH  48  62
BRANCH  49  73
ATOM     73  C   UNL A   1      46.733  27.272  25.527  1.00  0.00     0.023 A 
ATOM     74  C   UNL A   1      46.915  27.781  24.232  1.00  0.00     0.031 A 
ATOM     75  C   UNL A   1      47.667  26.335  26.004  1.00  0.00     0.131 A 
ATOM     76  C   UNL A   1      47.976  27.317  23.439  1.00  0.00     0.055 A 
ATOM     77  C   UNL A   1      48.751  25.914  25.230  1.00  0.00     0.041 A 
ATOM     78  F   UNL A   1      47.545  25.822  27.239  1.00  0.00    -0.206 F 
ATOM     79  C   UNL A   1      48.902  26.397  23.934  1.00  0.00     0.022 A 
BRANCH  76  80
ATOM     80  S   UNL A   1      48.082  27.875  21.716  1.00  0.00     0.124 S 
ATOM     81  O   UNL A   1      49.232  28.773  21.765  1.00  0.00    -0.237 OA
ATOM     82  O   UNL A   1      48.279  26.618  21.002  1.00  0.00    -0.237 OA
ATOM     83  O   UNL A   1      46.793  28.524  21.489  1.00  0.00    -0.744 OA
ENDBRANCH  76  80
ENDBRANCH  49  73
BRANCH  61  84
ATOM     84  C   UNL A   1      45.305  32.931  29.343  1.00  0.00     0.023 A 
ATOM     85  C   UNL A   1      46.110  32.966  30.494  1.00  0.00     0.031 A 
ATOM     86  C   UNL A   1      45.281  34.068  28.513  1.00  0.00     0.131 A 
ATOM     87  C   UNL A   1      46.823  34.133  30.811  1.00  0.00     0.055 A 
ATOM     88  C   UNL A   1      46.036  35.203  28.804  1.00  0.00     0.041 A 
ATOM     89  F   UNL A   1      44.528  34.086  27.403  1.00  0.00    -0.206 F 
ATOM     90  C   UNL A   1      46.805  35.245  29.963  1.00  0.00     0.022 A 
BRANCH  87  91
ATOM     91  S   UNL A   1      47.723  34.206  32.384  1.00  0.00     0.124 S 
ATOM     92  O   UNL A   1      49.071  34.552  31.946  1.00  0.00    -0.237 OA
ATOM     93  O   UNL A   1      47.001  35.246  33.109  1.00  0.00    -0.237 OA
ATOM     94  O   UNL A   1      47.574  32.856  32.927  1.00  0.00    -0.744 OA
ENDBRANCH  87  91
ENDBRANCH  61  84
ENDBRANCH  35  36
ENDBRANCH  27  30
ENDBRANCH  25  26
ENDBRANCH  24  25
ENDBRANCH   1  24
TORSDOF 18
ENDMDL
