MODEL 1
REMARK VINA RESULT:     -11.7      0.000      0.000
REMARK SMILES CC[C@H](C)[C@@H](Nc1ncnc2ccccc12)C(=O)NCCCCNC(=O)c1ccc(-c2c3nc(c(-c4cc(S(=O)(=O)[O-])ccc4F)c4ccc([nH]4)c(-c4cc(S(=O)(=O)[O-])ccc4F)c4nc(c(-c5cc(S(=O)(=O)[O-])ccc5F)c5ccc2[nH]5)C=C4)C=C3)cc1
REMARK SMILES IDX 22 1 21 2 20 3 19 4 17 5 18 6 5 8 3 9 4 10 2 11 1 12 6 13
REMARK SMILES IDX 7 15 8 16 16 17 9 18 11 19 15 20 10 21 12 22 14 23 13 24
REMARK SMILES IDX 23 25 24 26 25 27 26 29 27 30 28 31 89 32 29 33 88 34 30 35
REMARK SMILES IDX 31 36 32 37 82 38 33 39 87 40 81 41 83 42 34 43 86 44 80 45
REMARK SMILES IDX 79 46 35 48 67 49 47 50 66 51 48 52 51 53 65 54 84 55 49 56
REMARK SMILES IDX 50 57 64 59 85 60 52 61 36 62 37 63 45 64 38 65 44 66 46 67
REMARK SMILES IDX 43 68 39 69 40 70 41 71 42 72 68 73 69 74 77 75 70 76 76 77
REMARK SMILES IDX 78 78 75 79 71 80 72 81 73 82 74 83 53 84 54 85 62 86 55 87
REMARK SMILES IDX 61 88 63 89 60 90 56 91 57 92 58 93 59 94
REMARK H PARENT 19 7 6 14 24 28 83 47 51 58
REMARK Flexibility Score: inf
ROOT
ATOM      1  C   UNL A   1      35.273  21.608  25.147  1.00  0.00     0.023 C 
ENDROOT
BRANCH   1   2
ATOM      2  C   UNL A   1      34.218  21.159  26.158  1.00  0.00     0.023 C 
BRANCH   2   3
ATOM      3  C   UNL A   1      33.896  22.205  27.219  1.00  0.00     0.116 C 
BRANCH   3   4
ATOM      4  N   UNL A   1      32.478  22.212  27.522  1.00  0.00    -0.354 N 
ATOM      5  C   UNL A   1      31.515  23.115  27.178  1.00  0.00     0.242 C 
ATOM      6  O   UNL A   1      30.376  22.938  27.626  1.00  0.00    -0.273 OA
ATOM      7  H   UNL A   1      32.161  21.449  28.057  1.00  0.00     0.163 HD
BRANCH   5   8
ATOM      8  C   UNL A   1      31.826  24.354  26.296  1.00  0.00     0.173 C 
BRANCH   8   9
ATOM      9  C   UNL A   1      32.137  23.896  24.836  1.00  0.00     0.018 C 
ATOM     10  C   UNL A   1      30.877  23.692  23.985  1.00  0.00     0.010 C 
BRANCH   9  11
ATOM     11  C   UNL A   1      33.132  24.838  24.109  1.00  0.00     0.002 C 
ATOM     12  C   UNL A   1      33.675  24.311  22.788  1.00  0.00     0.004 C 
ENDBRANCH   9  11
ENDBRANCH   8   9
BRANCH   8  13
ATOM     13  N   UNL A   1      30.784  25.408  26.341  1.00  0.00    -0.358 N 
ATOM     14  H   UNL A   1      29.856  25.116  26.498  1.00  0.00     0.162 HD
BRANCH  13  15
ATOM     15  C   UNL A   1      30.999  26.763  26.179  1.00  0.00     0.137 A 
ATOM     16  N   UNL A   1      31.566  27.304  27.273  1.00  0.00    -0.219 NA
ATOM     17  C   UNL A   1      30.781  27.506  25.006  1.00  0.00     0.043 A 
ATOM     18  C   UNL A   1      32.027  28.554  27.155  1.00  0.00     0.224 A 
ATOM     19  C   UNL A   1      31.373  28.778  24.992  1.00  0.00     0.076 A 
ATOM     20  C   UNL A   1      30.049  27.079  23.869  1.00  0.00     0.014 A 
ATOM     21  N   UNL A   1      31.996  29.302  26.050  1.00  0.00    -0.236 NA
ATOM     22  C   UNL A   1      31.330  29.524  23.820  1.00  0.00     0.029 A 
ATOM     23  C   UNL A   1      30.006  27.851  22.710  1.00  0.00     0.001 A 
ATOM     24  C   UNL A   1      30.671  29.068  22.677  1.00  0.00     0.002 A 
ENDBRANCH  13  15
ENDBRANCH   8  13
ENDBRANCH   5   8
ENDBRANCH   3   4
ENDBRANCH   2   3
ENDBRANCH   1   2
BRANCH   1  25
ATOM     25  C   UNL A   1      36.607  22.032  25.755  1.00  0.00     0.116 C 
BRANCH  25  26
ATOM     26  N   UNL A   1      37.588  20.956  25.766  1.00  0.00    -0.352 N 
ATOM     27  C   UNL A   1      38.933  21.031  26.036  1.00  0.00     0.251 C 
ATOM     28  H   UNL A   1      37.244  20.059  25.553  1.00  0.00     0.163 HD
ATOM     29  O   UNL A   1      39.654  20.053  25.863  1.00  0.00    -0.269 OA
BRANCH  27  30
ATOM     30  C   UNL A   1      39.500  22.314  26.499  1.00  0.00     0.039 A 
ATOM     31  C   UNL A   1      40.484  22.302  27.489  1.00  0.00     0.014 A 
ATOM     32  C   UNL A   1      39.093  23.517  25.915  1.00  0.00     0.014 A 
ATOM     33  C   UNL A   1      41.112  23.496  27.846  1.00  0.00     0.010 A 
ATOM     34  C   UNL A   1      39.768  24.694  26.224  1.00  0.00     0.010 A 
ATOM     35  C   UNL A   1      40.786  24.694  27.191  1.00  0.00    -0.014 A 
BRANCH  35  36
ATOM     36  C   UNL A   1      41.496  25.962  27.502  1.00  0.00     0.031 A 
ATOM     37  C   UNL A   1      40.800  27.034  28.294  1.00  0.00     0.074 A 
ATOM     38  C   UNL A   1      42.733  26.171  27.012  1.00  0.00     0.049 A 
ATOM     39  N   UNL A   1      41.210  28.239  28.595  1.00  0.00    -0.248 NA
ATOM     40  C   UNL A   1      39.451  26.717  28.784  1.00  0.00     0.031 C 
ATOM     41  C   UNL A   1      43.491  25.222  26.193  1.00  0.00     0.029 A 
ATOM     42  N   UNL A   1      43.568  27.255  27.119  1.00  0.00    -0.354 N 
ATOM     43  C   UNL A   1      40.164  28.829  29.297  1.00  0.00     0.074 A 
ATOM     44  C   UNL A   1      39.081  27.869  29.321  1.00  0.00     0.031 C 
ATOM     45  C   UNL A   1      44.685  25.758  25.890  1.00  0.00     0.029 A 
ATOM     46  C   UNL A   1      44.763  27.101  26.454  1.00  0.00     0.049 A 
ATOM     47  H   UNL A   1      43.334  28.066  27.625  1.00  0.00     0.167 HD
ATOM     48  C   UNL A   1      40.121  30.050  29.886  1.00  0.00     0.034 A 
ATOM     49  C   UNL A   1      45.798  27.953  26.306  1.00  0.00     0.034 A 
ATOM     50  C   UNL A   1      41.217  30.989  29.864  1.00  0.00     0.049 A 
ATOM     51  C   UNL A   1      45.721  29.310  26.956  1.00  0.00     0.074 A 
ATOM     52  C   UNL A   1      41.304  32.229  30.473  1.00  0.00     0.029 A 
ATOM     53  N   UNL A   1      42.415  30.795  29.189  1.00  0.00    -0.354 N 
ATOM     54  N   UNL A   1      44.745  29.835  27.660  1.00  0.00    -0.248 NA
ATOM     55  C   UNL A   1      46.891  30.184  26.802  1.00  0.00     0.031 C 
ATOM     56  C   UNL A   1      42.527  32.808  30.117  1.00  0.00     0.029 A 
ATOM     57  C   UNL A   1      43.235  31.903  29.345  1.00  0.00     0.049 A 
ATOM     58  H   UNL A   1      42.650  29.988  28.675  1.00  0.00     0.167 HD
ATOM     59  C   UNL A   1      45.197  31.091  28.057  1.00  0.00     0.074 A 
ATOM     60  C   UNL A   1      46.537  31.236  27.527  1.00  0.00     0.031 C 
ATOM     61  C   UNL A   1      44.566  32.036  28.800  1.00  0.00     0.034 A 
BRANCH  48  62
ATOM     62  C   UNL A   1      38.837  30.439  30.578  1.00  0.00     0.023 A 
ATOM     63  C   UNL A   1      37.795  31.088  29.891  1.00  0.00     0.031 A 
ATOM     64  C   UNL A   1      38.662  30.191  31.951  1.00  0.00     0.131 A 
ATOM     65  C   UNL A   1      36.667  31.539  30.592  1.00  0.00     0.055 A 
ATOM     66  C   UNL A   1      37.499  30.567  32.625  1.00  0.00     0.041 A 
ATOM     67  F   UNL A   1      39.628  29.592  32.666  1.00  0.00    -0.206 F 
ATOM     68  C   UNL A   1      36.499  31.260  31.950  1.00  0.00     0.022 A 
BRANCH  65  69
ATOM     69  S   UNL A   1      35.492  32.622  29.733  1.00  0.00     0.124 S 
ATOM     70  O   UNL A   1      35.198  31.844  28.532  1.00  0.00    -0.237 OA
ATOM     71  O   UNL A   1      34.407  32.741  30.700  1.00  0.00    -0.237 OA
ATOM     72  O   UNL A   1      36.259  33.845  29.503  1.00  0.00    -0.744 OA
ENDBRANCH  65  69
ENDBRANCH  48  62
BRANCH  49  73
ATOM     73  C   UNL A   1      46.990  27.558  25.504  1.00  0.00     0.023 A 
ATOM     74  C   UNL A   1      47.104  27.919  24.152  1.00  0.00     0.031 A 
ATOM     75  C   UNL A   1      48.017  26.780  26.067  1.00  0.00     0.131 A 
ATOM     76  C   UNL A   1      48.195  27.463  23.395  1.00  0.00     0.055 A 
ATOM     77  C   UNL A   1      49.126  26.370  25.323  1.00  0.00     0.041 A 
ATOM     78  F   UNL A   1      47.961  26.412  27.358  1.00  0.00    -0.206 F 
ATOM     79  C   UNL A   1      49.212  26.702  23.974  1.00  0.00     0.022 A 
BRANCH  76  80
ATOM     80  S   UNL A   1      48.224  27.817  21.616  1.00  0.00     0.124 S 
ATOM     81  O   UNL A   1      49.284  28.814  21.528  1.00  0.00    -0.237 OA
ATOM     82  O   UNL A   1      48.525  26.506  21.052  1.00  0.00    -0.237 OA
ATOM     83  O   UNL A   1      46.876  28.313  21.347  1.00  0.00    -0.744 OA
ENDBRANCH  76  80
ENDBRANCH  49  73
BRANCH  61  84
ATOM     84  C   UNL A   1      45.343  33.290  29.114  1.00  0.00     0.023 A 
ATOM     85  C   UNL A   1      45.282  34.427  28.289  1.00  0.00     0.031 A 
ATOM     86  C   UNL A   1      46.167  33.341  30.253  1.00  0.00     0.131 A 
ATOM     87  C   UNL A   1      46.072  35.548  28.587  1.00  0.00     0.055 A 
ATOM     88  C   UNL A   1      46.907  34.479  30.574  1.00  0.00     0.041 A 
ATOM     89  F   UNL A   1      46.265  32.282  31.073  1.00  0.00    -0.206 F 
ATOM     90  C   UNL A   1      46.871  35.587  29.732  1.00  0.00     0.022 A 
BRANCH  87  91
ATOM     91  S   UNL A   1      46.108  36.925  27.408  1.00  0.00     0.124 S 
ATOM     92  O   UNL A   1      44.688  37.142  27.150  1.00  0.00    -0.237 OA
ATOM     93  O   UNL A   1      46.784  37.971  28.169  1.00  0.00    -0.237 OA
ATOM     94  O   UNL A   1      46.868  36.392  26.279  1.00  0.00    -0.744 OA
ENDBRANCH  87  91
ENDBRANCH  61  84
ENDBRANCH  35  36
ENDBRANCH  27  30
ENDBRANCH  25  26
ENDBRANCH   1  25
TORSDOF 18
ENDMDL
MODEL 2
REMARK VINA RESULT:     -11.7      5.117     10.407
REMARK SMILES CC[C@H](C)[C@@H](Nc1ncnc2ccccc12)C(=O)NCCCCNC(=O)c1ccc(-c2c3nc(c(-c4cc(S(=O)(=O)[O-])ccc4F)c4ccc([nH]4)c(-c4cc(S(=O)(=O)[O-])ccc4F)c4nc(c(-c5cc(S(=O)(=O)[O-])ccc5F)c5ccc2[nH]5)C=C4)C=C3)cc1
REMARK SMILES IDX 22 1 21 2 20 3 19 4 17 5 18 6 5 8 3 9 4 10 2 11 1 12 6 13
REMARK SMILES IDX 7 15 8 16 16 17 9 18 11 19 15 20 10 21 12 22 14 23 13 24
REMARK SMILES IDX 23 25 24 26 25 27 26 29 27 30 28 31 89 32 29 33 88 34 30 35
REMARK SMILES IDX 31 36 32 37 82 38 33 39 87 40 81 41 83 42 34 43 86 44 80 45
REMARK SMILES IDX 79 46 35 48 67 49 47 50 66 51 48 52 51 53 65 54 84 55 49 56
REMARK SMILES IDX 50 57 64 59 85 60 52 61 36 62 37 63 45 64 38 65 44 66 46 67
REMARK SMILES IDX 43 68 39 69 40 70 41 71 42 72 68 73 69 74 77 75 70 76 76 77
REMARK SMILES IDX 78 78 75 79 71 80 72 81 73 82 74 83 53 84 54 85 62 86 55 87
REMARK SMILES IDX 61 88 63 89 60 90 56 91 57 92 58 93 59 94
REMARK H PARENT 19 7 6 14 24 28 83 47 51 58
REMARK Flexibility Score: inf
ROOT
ATOM      1  C   UNL A   1      31.730  28.308  26.204  1.00  0.00     0.023 C 
ENDROOT
BRANCH   1   2
ATOM      2  C   UNL A   1      32.201  26.855  26.257  1.00  0.00     0.023 C 
BRANCH   2   3
ATOM      3  C   UNL A   1      31.237  25.868  25.608  1.00  0.00     0.116 C 
BRANCH   3   4
ATOM      4  N   UNL A   1      30.771  24.891  26.572  1.00  0.00    -0.354 N 
ATOM      5  C   UNL A   1      31.206  23.621  26.809  1.00  0.00     0.242 C 
ATOM      6  O   UNL A   1      30.591  22.950  27.646  1.00  0.00    -0.273 OA
ATOM      7  H   UNL A   1      30.028  25.190  27.144  1.00  0.00     0.163 HD
BRANCH   5   8
ATOM      8  C   UNL A   1      32.401  23.001  26.034  1.00  0.00     0.173 C 
BRANCH   8   9
ATOM      9  C   UNL A   1      33.745  23.511  26.645  1.00  0.00     0.018 C 
ATOM     10  C   UNL A   1      34.287  22.604  27.757  1.00  0.00     0.010 C 
BRANCH   9  11
ATOM     11  C   UNL A   1      34.837  23.760  25.571  1.00  0.00     0.002 C 
ATOM     12  C   UNL A   1      34.327  24.311  24.246  1.00  0.00     0.004 C 
ENDBRANCH   9  11
ENDBRANCH   8   9
BRANCH   8  13
ATOM     13  N   UNL A   1      32.358  21.523  25.935  1.00  0.00    -0.358 N 
ATOM     14  H   UNL A   1      32.443  21.013  26.773  1.00  0.00     0.162 HD
BRANCH  13  15
ATOM     15  C   UNL A   1      32.212  20.797  24.768  1.00  0.00     0.137 A 
ATOM     16  N   UNL A   1      31.891  21.593  23.732  1.00  0.00    -0.219 NA
ATOM     17  C   UNL A   1      32.466  19.424  24.605  1.00  0.00     0.043 A 
ATOM     18  C   UNL A   1      31.944  21.043  22.513  1.00  0.00     0.224 A 
ATOM     19  C   UNL A   1      32.558  18.993  23.273  1.00  0.00     0.076 A 
ATOM     20  C   UNL A   1      32.648  18.477  25.645  1.00  0.00     0.014 A 
ATOM     21  N   UNL A   1      32.306  19.790  22.232  1.00  0.00    -0.236 NA
ATOM     22  C   UNL A   1      32.947  17.683  23.018  1.00  0.00     0.029 A 
ATOM     23  C   UNL A   1      33.023  17.165  25.364  1.00  0.00     0.001 A 
ATOM     24  C   UNL A   1      33.197  16.773  24.046  1.00  0.00     0.002 A 
ENDBRANCH  13  15
ENDBRANCH   8  13
ENDBRANCH   5   8
ENDBRANCH   3   4
ENDBRANCH   2   3
ENDBRANCH   1   2
BRANCH   1  25
ATOM     25  C   UNL A   1      32.817  29.325  25.869  1.00  0.00     0.116 C 
BRANCH  25  26
ATOM     26  N   UNL A   1      32.428  30.690  26.190  1.00  0.00    -0.352 N 
ATOM     27  C   UNL A   1      33.046  31.575  27.041  1.00  0.00     0.251 C 
ATOM     28  H   UNL A   1      31.619  31.024  25.740  1.00  0.00     0.163 HD
ATOM     29  O   UNL A   1      32.511  32.645  27.314  1.00  0.00    -0.269 OA
BRANCH  27  30
ATOM     30  C   UNL A   1      34.341  31.201  27.647  1.00  0.00     0.039 A 
ATOM     31  C   UNL A   1      35.333  32.173  27.778  1.00  0.00     0.014 A 
ATOM     32  C   UNL A   1      34.545  29.905  28.129  1.00  0.00     0.014 A 
ATOM     33  C   UNL A   1      36.512  31.862  28.458  1.00  0.00     0.010 A 
ATOM     34  C   UNL A   1      35.691  29.618  28.865  1.00  0.00     0.010 A 
ATOM     35  C   UNL A   1      36.684  30.595  29.039  1.00  0.00    -0.014 A 
BRANCH  35  36
ATOM     36  C   UNL A   1      37.897  30.268  29.832  1.00  0.00     0.031 A 
ATOM     37  C   UNL A   1      38.940  29.350  29.259  1.00  0.00     0.074 A 
ATOM     38  C   UNL A   1      38.021  30.741  31.087  1.00  0.00     0.049 A 
ATOM     39  N   UNL A   1      40.022  28.873  29.819  1.00  0.00    -0.248 NA
ATOM     40  C   UNL A   1      38.718  28.881  27.884  1.00  0.00     0.031 C 
ATOM     41  C   UNL A   1      37.052  31.605  31.766  1.00  0.00     0.029 A 
ATOM     42  N   UNL A   1      39.007  30.552  32.023  1.00  0.00    -0.354 N 
ATOM     43  C   UNL A   1      40.601  28.037  28.871  1.00  0.00     0.074 A 
ATOM     44  C   UNL A   1      39.717  28.026  27.725  1.00  0.00     0.031 C 
ATOM     45  C   UNL A   1      37.501  31.887  33.000  1.00  0.00     0.029 A 
ATOM     46  C   UNL A   1      38.766  31.192  33.217  1.00  0.00     0.049 A 
ATOM     47  H   UNL A   1      39.812  30.011  31.855  1.00  0.00     0.167 HD
ATOM     48  C   UNL A   1      41.774  27.359  28.942  1.00  0.00     0.034 A 
ATOM     49  C   UNL A   1      39.478  31.205  34.362  1.00  0.00     0.034 A 
ATOM     50  C   UNL A   1      42.650  27.393  30.088  1.00  0.00     0.049 A 
ATOM     51  C   UNL A   1      40.771  30.432  34.423  1.00  0.00     0.074 A 
ATOM     52  C   UNL A   1      43.887  26.792  30.247  1.00  0.00     0.029 A 
ATOM     53  N   UNL A   1      42.379  28.059  31.276  1.00  0.00    -0.354 N 
ATOM     54  N   UNL A   1      41.332  29.687  33.499  1.00  0.00    -0.248 NA
ATOM     55  C   UNL A   1      41.532  30.514  35.676  1.00  0.00     0.031 C 
ATOM     56  C   UNL A   1      44.333  27.043  31.549  1.00  0.00     0.029 A 
ATOM     57  C   UNL A   1      43.411  27.861  32.181  1.00  0.00     0.049 A 
ATOM     58  H   UNL A   1      41.571  28.595  31.451  1.00  0.00     0.167 HD
ATOM     59  C   UNL A   1      42.527  29.234  34.052  1.00  0.00     0.074 A 
ATOM     60  C   UNL A   1      42.611  29.803  35.381  1.00  0.00     0.031 C 
ATOM     61  C   UNL A   1      43.474  28.427  33.508  1.00  0.00     0.034 A 
BRANCH  48  62
ATOM     62  C   UNL A   1      42.154  26.509  27.754  1.00  0.00     0.023 A 
ATOM     63  C   UNL A   1      41.715  25.178  27.628  1.00  0.00     0.031 A 
ATOM     64  C   UNL A   1      42.995  27.021  26.749  1.00  0.00     0.131 A 
ATOM     65  C   UNL A   1      42.184  24.383  26.571  1.00  0.00     0.055 A 
ATOM     66  C   UNL A   1      43.389  26.249  25.655  1.00  0.00     0.041 A 
ATOM     67  F   UNL A   1      43.462  28.277  26.823  1.00  0.00    -0.206 F 
ATOM     68  C   UNL A   1      42.997  24.916  25.569  1.00  0.00     0.022 A 
BRANCH  65  69
ATOM     69  S   UNL A   1      41.832  22.603  26.608  1.00  0.00     0.124 S 
ATOM     70  O   UNL A   1      42.582  22.180  27.788  1.00  0.00    -0.237 OA
ATOM     71  O   UNL A   1      40.379  22.570  26.728  1.00  0.00    -0.237 OA
ATOM     72  O   UNL A   1      42.364  22.123  25.333  1.00  0.00    -0.744 OA
ENDBRANCH  65  69
ENDBRANCH  48  62
BRANCH  49  73
ATOM     73  C   UNL A   1      38.989  31.964  35.547  1.00  0.00     0.023 A 
ATOM     74  C   UNL A   1      38.368  31.307  36.621  1.00  0.00     0.031 A 
ATOM     75  C   UNL A   1      39.098  33.365  35.606  1.00  0.00     0.131 A 
ATOM     76  C   UNL A   1      37.837  32.051  37.686  1.00  0.00     0.055 A 
ATOM     77  C   UNL A   1      38.614  34.098  36.692  1.00  0.00     0.041 A 
ATOM     78  F   UNL A   1      39.689  34.043  34.609  1.00  0.00    -0.206 F 
ATOM     79  C   UNL A   1      37.966  33.440  37.735  1.00  0.00     0.022 A 
BRANCH  76  80
ATOM     80  S   UNL A   1      36.903  31.179  38.973  1.00  0.00     0.124 S 
ATOM     81  O   UNL A   1      36.731  29.861  38.375  1.00  0.00    -0.237 OA
ATOM     82  O   UNL A   1      37.813  31.256  40.111  1.00  0.00    -0.237 OA
ATOM     83  O   UNL A   1      35.682  31.971  39.101  1.00  0.00    -0.744 OA
ENDBRANCH  76  80
ENDBRANCH  49  73
BRANCH  61  84
ATOM     84  C   UNL A   1      44.700  28.154  34.343  1.00  0.00     0.023 A 
ATOM     85  C   UNL A   1      44.788  27.033  35.187  1.00  0.00     0.031 A 
ATOM     86  C   UNL A   1      45.793  29.038  34.299  1.00  0.00     0.131 A 
ATOM     87  C   UNL A   1      45.923  26.854  35.993  1.00  0.00     0.055 A 
ATOM     88  C   UNL A   1      46.942  28.824  35.060  1.00  0.00     0.041 A 
ATOM     89  F   UNL A   1      45.761  30.126  33.512  1.00  0.00    -0.206 F 
ATOM     90  C   UNL A   1      47.007  27.733  35.923  1.00  0.00     0.022 A 
BRANCH  87  91
ATOM     91  S   UNL A   1      45.928  25.501  37.200  1.00  0.00     0.124 S 
ATOM     92  O   UNL A   1      46.233  24.346  36.361  1.00  0.00    -0.237 OA
ATOM     93  O   UNL A   1      46.980  25.912  38.125  1.00  0.00    -0.237 OA
ATOM     94  O   UNL A   1      44.575  25.527  37.752  1.00  0.00    -0.744 OA
ENDBRANCH  87  91
ENDBRANCH  61  84
ENDBRANCH  35  36
ENDBRANCH  27  30
ENDBRANCH  25  26
ENDBRANCH   1  25
TORSDOF 18
ENDMDL
MODEL 3
REMARK VINA RESULT:     -11.6      4.832      7.877
REMARK SMILES CC[C@H](C)[C@@H](Nc1ncnc2ccccc12)C(=O)NCCCCNC(=O)c1ccc(-c2c3nc(c(-c4cc(S(=O)(=O)[O-])ccc4F)c4ccc([nH]4)c(-c4cc(S(=O)(=O)[O-])ccc4F)c4nc(c(-c5cc(S(=O)(=O)[O-])ccc5F)c5ccc2[nH]5)C=C4)C=C3)cc1
REMARK SMILES IDX 22 1 21 2 20 3 19 4 17 5 18 6 5 8 3 9 4 10 2 11 1 12 6 13
REMARK SMILES IDX 7 15 8 16 16 17 9 18 11 19 15 20 10 21 12 22 14 23 13 24
REMARK SMILES IDX 23 25 24 26 25 27 26 29 27 30 28 31 89 32 29 33 88 34 30 35
REMARK SMILES IDX 31 36 32 37 82 38 33 39 87 40 81 41 83 42 34 43 86 44 80 45
REMARK SMILES IDX 79 46 35 48 67 49 47 50 66 51 48 52 51 53 65 54 84 55 49 56
REMARK SMILES IDX 50 57 64 59 85 60 52 61 36 62 37 63 45 64 38 65 44 66 46 67
REMARK SMILES IDX 43 68 39 69 40 70 41 71 42 72 68 73 69 74 77 75 70 76 76 77
REMARK SMILES IDX 78 78 75 79 71 80 72 81 73 82 74 83 53 84 54 85 62 86 55 87
REMARK SMILES IDX 61 88 63 89 60 90 56 91 57 92 58 93 59 94
REMARK H PARENT 19 7 6 14 24 28 83 47 51 58
REMARK Flexibility Score: inf
ROOT
ATOM      1  C   UNL A   1      33.162  28.056  26.220  1.00  0.00     0.023 C 
ENDROOT
BRANCH   1   2
ATOM      2  C   UNL A   1      33.497  26.691  25.619  1.00  0.00     0.023 C 
BRANCH   2   3
ATOM      3  C   UNL A   1      32.297  25.970  25.016  1.00  0.00     0.116 C 
BRANCH   3   4
ATOM      4  N   UNL A   1      31.543  25.275  26.040  1.00  0.00    -0.354 N 
ATOM      5  C   UNL A   1      31.661  23.995  26.496  1.00  0.00     0.242 C 
ATOM      6  O   UNL A   1      30.841  23.607  27.336  1.00  0.00    -0.273 OA
ATOM      7  H   UNL A   1      30.839  25.808  26.475  1.00  0.00     0.163 HD
BRANCH   5   8
ATOM      8  C   UNL A   1      32.750  23.027  25.958  1.00  0.00     0.173 C 
BRANCH   8   9
ATOM      9  C   UNL A   1      34.069  23.212  26.774  1.00  0.00     0.018 C 
ATOM     10  C   UNL A   1      34.331  22.073  27.768  1.00  0.00     0.010 C 
BRANCH   9  11
ATOM     11  C   UNL A   1      35.308  23.436  25.869  1.00  0.00     0.002 C 
ATOM     12  C   UNL A   1      35.026  23.435  24.373  1.00  0.00     0.004 C 
ENDBRANCH   9  11
ENDBRANCH   8   9
BRANCH   8  13
ATOM     13  N   UNL A   1      32.324  21.607  25.901  1.00  0.00    -0.358 N 
ATOM     14  H   UNL A   1      32.128  21.162  26.757  1.00  0.00     0.162 HD
BRANCH  13  15
ATOM     15  C   UNL A   1      32.181  20.854  24.751  1.00  0.00     0.137 A 
ATOM     16  N   UNL A   1      31.859  21.625  23.696  1.00  0.00    -0.219 NA
ATOM     17  C   UNL A   1      32.438  19.479  24.620  1.00  0.00     0.043 A 
ATOM     18  C   UNL A   1      31.915  21.048  22.491  1.00  0.00     0.224 A 
ATOM     19  C   UNL A   1      32.532  19.017  23.299  1.00  0.00     0.076 A 
ATOM     20  C   UNL A   1      32.621  18.556  25.682  1.00  0.00     0.014 A 
ATOM     21  N   UNL A   1      32.280  19.789  22.239  1.00  0.00    -0.236 NA
ATOM     22  C   UNL A   1      32.924  17.703  23.074  1.00  0.00     0.029 A 
ATOM     23  C   UNL A   1      32.999  17.239  25.432  1.00  0.00     0.001 A 
ATOM     24  C   UNL A   1      33.175  16.817  24.124  1.00  0.00     0.002 A 
ENDBRANCH  13  15
ENDBRANCH   8  13
ENDBRANCH   5   8
ENDBRANCH   3   4
ENDBRANCH   2   3
ENDBRANCH   1   2
BRANCH   1  25
ATOM     25  C   UNL A   1      34.306  29.065  26.202  1.00  0.00     0.116 C 
BRANCH  25  26
ATOM     26  N   UNL A   1      33.894  30.391  26.639  1.00  0.00    -0.352 N 
ATOM     27  C   UNL A   1      34.448  31.175  27.622  1.00  0.00     0.251 C 
ATOM     28  H   UNL A   1      33.119  30.776  26.170  1.00  0.00     0.163 HD
ATOM     29  O   UNL A   1      33.893  32.214  27.970  1.00  0.00    -0.269 OA
BRANCH  27  30
ATOM     30  C   UNL A   1      35.695  30.729  28.276  1.00  0.00     0.039 A 
ATOM     31  C   UNL A   1      35.617  29.840  29.348  1.00  0.00     0.014 A 
ATOM     32  C   UNL A   1      36.936  31.153  27.791  1.00  0.00     0.014 A 
ATOM     33  C   UNL A   1      36.792  29.318  29.893  1.00  0.00     0.010 A 
ATOM     34  C   UNL A   1      38.101  30.580  28.290  1.00  0.00     0.010 A 
ATOM     35  C   UNL A   1      38.040  29.655  29.344  1.00  0.00    -0.014 A 
BRANCH  35  36
ATOM     36  C   UNL A   1      39.297  29.052  29.859  1.00  0.00     0.031 A 
ATOM     37  C   UNL A   1      39.991  29.666  31.043  1.00  0.00     0.074 A 
ATOM     38  C   UNL A   1      39.845  28.001  29.218  1.00  0.00     0.049 A 
ATOM     39  N   UNL A   1      41.136  29.347  31.589  1.00  0.00    -0.248 NA
ATOM     40  C   UNL A   1      39.320  30.812  31.675  1.00  0.00     0.031 C 
ATOM     41  C   UNL A   1      39.286  27.348  28.032  1.00  0.00     0.029 A 
ATOM     42  N   UNL A   1      41.001  27.304  29.465  1.00  0.00    -0.354 N 
ATOM     43  C   UNL A   1      41.331  30.261  32.619  1.00  0.00     0.074 A 
ATOM     44  C   UNL A   1      40.214  31.182  32.579  1.00  0.00     0.031 C 
ATOM     45  C   UNL A   1      40.088  26.335  27.668  1.00  0.00     0.029 A 
ATOM     46  C   UNL A   1      41.239  26.291  28.565  1.00  0.00     0.049 A 
ATOM     47  H   UNL A   1      41.602  27.509  30.217  1.00  0.00     0.167 HD
ATOM     48  C   UNL A   1      42.336  30.313  33.528  1.00  0.00     0.034 A 
ATOM     49  C   UNL A   1      42.274  25.433  28.466  1.00  0.00     0.034 A 
ATOM     50  C   UNL A   1      43.435  29.378  33.561  1.00  0.00     0.049 A 
ATOM     51  C   UNL A   1      43.388  25.519  29.478  1.00  0.00     0.074 A 
ATOM     52  C   UNL A   1      44.476  29.301  34.469  1.00  0.00     0.029 A 
ATOM     53  N   UNL A   1      43.637  28.358  32.640  1.00  0.00    -0.354 N 
ATOM     54  N   UNL A   1      43.533  26.357  30.478  1.00  0.00    -0.248 NA
ATOM     55  C   UNL A   1      44.471  24.535  29.355  1.00  0.00     0.031 C 
ATOM     56  C   UNL A   1      45.339  28.278  34.062  1.00  0.00     0.029 A 
ATOM     57  C   UNL A   1      44.801  27.667  32.942  1.00  0.00     0.049 A 
ATOM     58  H   UNL A   1      43.042  28.155  31.882  1.00  0.00     0.167 HD
ATOM     59  C   UNL A   1      44.709  25.981  31.121  1.00  0.00     0.074 A 
ATOM     60  C   UNL A   1      45.225  24.833  30.403  1.00  0.00     0.031 C 
ATOM     61  C   UNL A   1      45.307  26.530  32.209  1.00  0.00     0.034 A 
BRANCH  48  62
ATOM     62  C   UNL A   1      42.298  31.435  34.538  1.00  0.00     0.023 A 
ATOM     63  C   UNL A   1      41.358  31.453  35.584  1.00  0.00     0.031 A 
ATOM     64  C   UNL A   1      43.190  32.518  34.437  1.00  0.00     0.131 A 
ATOM     65  C   UNL A   1      41.276  32.567  36.433  1.00  0.00     0.055 A 
ATOM     66  C   UNL A   1      43.158  33.583  35.338  1.00  0.00     0.041 A 
ATOM     67  F   UNL A   1      44.097  32.566  33.449  1.00  0.00    -0.206 F 
ATOM     68  C   UNL A   1      42.186  33.622  36.334  1.00  0.00     0.022 A 
BRANCH  65  69
ATOM     69  S   UNL A   1      39.870  32.683  37.573  1.00  0.00     0.124 S 
ATOM     70  O   UNL A   1      39.026  31.584  37.112  1.00  0.00    -0.237 OA
ATOM     71  O   UNL A   1      40.501  32.502  38.875  1.00  0.00    -0.237 OA
ATOM     72  O   UNL A   1      39.333  34.020  37.320  1.00  0.00    -0.744 OA
ENDBRANCH  65  69
ENDBRANCH  48  62
BRANCH  49  73
ATOM     73  C   UNL A   1      42.318  24.425  27.370  1.00  0.00     0.023 A 
ATOM     74  C   UNL A   1      41.593  23.226  27.461  1.00  0.00     0.031 A 
ATOM     75  C   UNL A   1      43.117  24.627  26.231  1.00  0.00     0.131 A 
ATOM     76  C   UNL A   1      41.717  22.254  26.456  1.00  0.00     0.055 A 
ATOM     77  C   UNL A   1      43.199  23.679  25.209  1.00  0.00     0.041 A 
ATOM     78  F   UNL A   1      43.826  25.759  26.090  1.00  0.00    -0.206 F 
ATOM     79  C   UNL A   1      42.505  22.477  25.325  1.00  0.00     0.022 A 
BRANCH  76  80
ATOM     80  S   UNL A   1      40.891  20.656  26.687  1.00  0.00     0.124 S 
ATOM     81  O   UNL A   1      41.827  19.741  26.044  1.00  0.00    -0.237 OA
ATOM     82  O   UNL A   1      40.803  20.569  28.141  1.00  0.00    -0.237 OA
ATOM     83  O   UNL A   1      39.614  20.831  25.998  1.00  0.00    -0.744 OA
ENDBRANCH  76  80
ENDBRANCH  49  73
BRANCH  61  84
ATOM     84  C   UNL A   1      46.562  25.860  32.710  1.00  0.00     0.023 A 
ATOM     85  C   UNL A   1      47.815  26.094  32.116  1.00  0.00     0.031 A 
ATOM     86  C   UNL A   1      46.499  24.964  33.792  1.00  0.00     0.131 A 
ATOM     87  C   UNL A   1      48.945  25.399  32.575  1.00  0.00     0.055 A 
ATOM     88  C   UNL A   1      47.635  24.319  34.280  1.00  0.00     0.041 A 
ATOM     89  F   UNL A   1      45.327  24.702  34.394  1.00  0.00    -0.206 F 
ATOM     90  C   UNL A   1      48.866  24.526  33.663  1.00  0.00     0.022 A 
BRANCH  87  91
ATOM     91  S   UNL A   1      50.508  25.587  31.674  1.00  0.00     0.124 S 
ATOM     92  O   UNL A   1      50.115  26.444  30.560  1.00  0.00    -0.237 OA
ATOM     93  O   UNL A   1      51.374  26.201  32.675  1.00  0.00    -0.237 OA
ATOM     94  O   UNL A   1      50.860  24.217  31.308  1.00  0.00    -0.744 OA
ENDBRANCH  87  91
ENDBRANCH  61  84
ENDBRANCH  35  36
ENDBRANCH  27  30
ENDBRANCH  25  26
ENDBRANCH   1  25
TORSDOF 18
ENDMDL
