MODEL 1
REMARK VINA RESULT:     -10.7      0.000      0.000
REMARK SMILES CNC(=O)CC[NH+]1CCC(CC(=O)NCCCCNC(=O)c2ccc(-c3c4nc(c(-c5cc(S(=O)(=O)[O-])ccc5F)c5ccc([nH]5)c(-c5cc(S(=O)(=O)[O-])ccc5F)c5nc(c(-c6cc(S(=O)(=O)[O-])ccc6F)c6ccc3[nH]6)C=C5)C=C4)cc2)CC1
REMARK SMILES IDX 16 1 15 2 14 3 12 4 13 5 11 7 10 8 7 9 8 10 86 11 9 13 85 14
REMARK SMILES IDX 6 15 5 16 3 17 1 18 2 19 4 21 17 22 18 23 19 24 20 25 21 27
REMARK SMILES IDX 22 28 23 29 84 30 24 31 83 32 25 33 26 34 27 35 77 36 28 37
REMARK SMILES IDX 82 38 76 39 78 40 29 41 81 42 75 43 74 44 30 46 62 47 42 48
REMARK SMILES IDX 61 49 43 50 46 51 60 52 79 53 44 54 45 55 59 57 80 58 47 59
REMARK SMILES IDX 31 60 32 61 40 62 33 63 39 64 41 65 38 66 34 67 35 68 36 69
REMARK SMILES IDX 37 70 63 71 64 72 72 73 65 74 71 75 73 76 70 77 66 78 67 79
REMARK SMILES IDX 68 80 69 81 48 82 49 83 57 84 50 85 56 86 58 87 55 88 51 89
REMARK SMILES IDX 52 90 53 91 54 92
REMARK H PARENT 14 6 7 12 2 20 19 26 78 45 46 56
REMARK Flexibility Score: inf
ROOT
ATOM      1  C   UNL A   1      36.722  21.212  25.526  1.00  0.00     0.023 C 
ENDROOT
BRANCH   1   2
ATOM      2  C   UNL A   1      35.614  21.739  24.607  1.00  0.00     0.116 C 
BRANCH   2   3
ATOM      3  N   UNL A   1      34.416  20.917  24.699  1.00  0.00    -0.356 N 
ATOM      4  C   UNL A   1      33.302  21.076  25.472  1.00  0.00     0.220 C 
ATOM      5  O   UNL A   1      32.449  20.187  25.478  1.00  0.00    -0.275 OA
ATOM      6  H   UNL A   1      34.408  20.126  24.112  1.00  0.00     0.163 HD
BRANCH   4   7
ATOM      7  C   UNL A   1      33.126  22.328  26.318  1.00  0.00     0.104 C 
BRANCH   7   8
ATOM      8  C   UNL A   1      32.707  23.580  25.526  1.00  0.00     0.009 C 
ATOM      9  N   UNL A   1      31.580  26.308  25.396  1.00  0.00    -0.334 N 
ATOM     10  C   UNL A   1      30.798  25.157  24.954  1.00  0.00     0.262 C 
ATOM     11  C   UNL A   1      33.025  26.099  25.321  1.00  0.00     0.262 C 
ATOM     12  H   UNL A   1      31.409  26.421  26.395  1.00  0.00     0.348 HD
ATOM     13  C   UNL A   1      31.225  23.890  25.666  1.00  0.00     0.066 C 
ATOM     14  C   UNL A   1      33.496  24.807  26.001  1.00  0.00     0.066 C 
BRANCH   9  15
ATOM     15  C   UNL A   1      31.114  27.549  24.750  1.00  0.00     0.272 C 
BRANCH  15  16
ATOM     16  C   UNL A   1      31.052  27.607  23.217  1.00  0.00     0.161 C 
BRANCH  16  17
ATOM     17  C   UNL A   1      31.798  28.783  22.626  1.00  0.00     0.225 C 
ATOM     18  C   UNL A   1      29.705  30.017  21.865  1.00  0.00     0.142 C 
ATOM     19  N   UNL A   1      31.124  29.798  22.014  1.00  0.00    -0.359 N 
ATOM     20  H   UNL A   1      31.694  30.492  21.611  1.00  0.00     0.163 HD
ATOM     21  O   UNL A   1      33.027  28.853  22.688  1.00  0.00    -0.275 OA
ENDBRANCH  16  17
ENDBRANCH  15  16
ENDBRANCH   9  15
ENDBRANCH   7   8
ENDBRANCH   4   7
ENDBRANCH   2   3
ENDBRANCH   1   2
BRANCH   1  22
ATOM     22  C   UNL A   1      38.138  21.427  25.031  1.00  0.00     0.023 C 
BRANCH  22  23
ATOM     23  C   UNL A   1      39.197  21.247  26.099  1.00  0.00     0.116 C 
BRANCH  23  24
ATOM     24  N   UNL A   1      39.916  19.981  26.019  1.00  0.00    -0.352 N 
ATOM     25  C   UNL A   1      41.281  19.780  26.086  1.00  0.00     0.251 C 
ATOM     26  H   UNL A   1      39.364  19.174  25.904  1.00  0.00     0.163 HD
ATOM     27  O   UNL A   1      41.763  18.670  25.935  1.00  0.00    -0.269 OA
BRANCH  25  28
ATOM     28  C   UNL A   1      42.135  20.968  26.289  1.00  0.00     0.039 A 
ATOM     29  C   UNL A   1      42.377  21.822  25.213  1.00  0.00     0.014 A 
ATOM     30  C   UNL A   1      42.540  21.309  27.582  1.00  0.00     0.014 A 
ATOM     31  C   UNL A   1      42.951  23.071  25.454  1.00  0.00     0.010 A 
ATOM     32  C   UNL A   1      42.990  22.596  27.831  1.00  0.00     0.010 A 
ATOM     33  C   UNL A   1      43.211  23.488  26.770  1.00  0.00    -0.014 A 
BRANCH  33  34
ATOM     34  C   UNL A   1      43.751  24.838  27.071  1.00  0.00     0.031 A 
ATOM     35  C   UNL A   1      42.838  25.873  27.673  1.00  0.00     0.074 A 
ATOM     36  C   UNL A   1      45.013  25.158  26.726  1.00  0.00     0.049 A 
ATOM     37  N   UNL A   1      43.053  27.142  27.899  1.00  0.00    -0.248 NA
ATOM     38  C   UNL A   1      41.476  25.426  28.010  1.00  0.00     0.031 C 
ATOM     39  C   UNL A   1      45.971  24.261  26.073  1.00  0.00     0.029 A 
ATOM     40  N   UNL A   1      45.709  26.333  26.867  1.00  0.00    -0.354 N 
ATOM     41  C   UNL A   1      41.846  27.649  28.370  1.00  0.00     0.074 A 
ATOM     42  C   UNL A   1      40.885  26.570  28.311  1.00  0.00     0.031 C 
ATOM     43  C   UNL A   1      47.137  24.906  25.905  1.00  0.00     0.029 A 
ATOM     44  C   UNL A   1      47.000  26.273  26.397  1.00  0.00     0.049 A 
ATOM     45  H   UNL A   1      45.320  27.142  27.268  1.00  0.00     0.167 HD
ATOM     46  C   UNL A   1      41.575  28.889  28.844  1.00  0.00     0.034 A 
ATOM     47  C   UNL A   1      47.962  27.217  26.364  1.00  0.00     0.034 A 
ATOM     48  C   UNL A   1      42.562  29.934  28.935  1.00  0.00     0.049 A 
ATOM     49  C   UNL A   1      47.650  28.582  26.925  1.00  0.00     0.074 A 
ATOM     50  C   UNL A   1      42.429  31.204  29.466  1.00  0.00     0.029 A 
ATOM     51  N   UNL A   1      43.873  29.824  28.487  1.00  0.00    -0.354 N 
ATOM     52  N   UNL A   1      46.521  29.033  27.422  1.00  0.00    -0.248 NA
ATOM     53  C   UNL A   1      48.745  29.559  26.932  1.00  0.00     0.031 C 
ATOM     54  C   UNL A   1      43.642  31.881  29.288  1.00  0.00     0.029 A 
ATOM     55  C   UNL A   1      44.553  31.010  28.709  1.00  0.00     0.049 A 
ATOM     56  H   UNL A   1      44.261  29.021  28.072  1.00  0.00     0.167 HD
ATOM     57  C   UNL A   1      46.779  30.339  27.826  1.00  0.00     0.074 A 
ATOM     58  C   UNL A   1      48.173  30.596  27.527  1.00  0.00     0.031 C 
ATOM     59  C   UNL A   1      45.943  31.245  28.395  1.00  0.00     0.034 A 
BRANCH  46  60
ATOM     60  C   UNL A   1      40.154  29.164  29.281  1.00  0.00     0.023 A 
ATOM     61  C   UNL A   1      39.784  29.148  30.638  1.00  0.00     0.031 A 
ATOM     62  C   UNL A   1      39.143  29.378  28.328  1.00  0.00     0.131 A 
ATOM     63  C   UNL A   1      38.431  29.236  30.997  1.00  0.00     0.055 A 
ATOM     64  C   UNL A   1      37.809  29.561  28.700  1.00  0.00     0.041 A 
ATOM     65  F   UNL A   1      39.428  29.383  27.016  1.00  0.00    -0.206 F 
ATOM     66  C   UNL A   1      37.443  29.469  30.039  1.00  0.00     0.022 A 
BRANCH  63  67
ATOM     67  S   UNL A   1      37.968  28.862  32.711  1.00  0.00     0.124 S 
ATOM     68  O   UNL A   1      39.053  29.498  33.453  1.00  0.00    -0.237 OA
ATOM     69  O   UNL A   1      36.659  29.492  32.829  1.00  0.00    -0.237 OA
ATOM     70  O   UNL A   1      37.964  27.401  32.755  1.00  0.00    -0.744 OA
ENDBRANCH  63  67
ENDBRANCH  46  60
BRANCH  47  71
ATOM     71  C   UNL A   1      49.305  26.911  25.796  1.00  0.00     0.023 A 
ATOM     72  C   UNL A   1      49.691  27.413  24.543  1.00  0.00     0.031 A 
ATOM     73  C   UNL A   1      50.216  26.091  26.485  1.00  0.00     0.131 A 
ATOM     74  C   UNL A   1      50.934  27.058  23.997  1.00  0.00     0.055 A 
ATOM     75  C   UNL A   1      51.471  25.777  25.959  1.00  0.00     0.041 A 
ATOM     76  F   UNL A   1      49.902  25.592  27.691  1.00  0.00    -0.206 F 
ATOM     77  C   UNL A   1      51.831  26.252  24.701  1.00  0.00     0.022 A 
BRANCH  74  78
ATOM     78  S   UNL A   1      51.337  27.611  22.317  1.00  0.00     0.124 S 
ATOM     79  O   UNL A   1      50.682  28.913  22.266  1.00  0.00    -0.237 OA
ATOM     80  O   UNL A   1      52.796  27.627  22.345  1.00  0.00    -0.237 OA
ATOM     81  O   UNL A   1      50.744  26.580  21.467  1.00  0.00    -0.744 OA
ENDBRANCH  74  78
ENDBRANCH  47  71
BRANCH  59  82
ATOM     82  C   UNL A   1      46.536  32.580  28.768  1.00  0.00     0.023 A 
ATOM     83  C   UNL A   1      46.496  33.675  27.890  1.00  0.00     0.031 A 
ATOM     84  C   UNL A   1      47.150  32.751  30.021  1.00  0.00     0.131 A 
ATOM     85  C   UNL A   1      47.108  34.883  28.256  1.00  0.00     0.055 A 
ATOM     86  C   UNL A   1      47.707  33.973  30.402  1.00  0.00     0.041 A 
ATOM     87  F   UNL A   1      47.214  31.736  30.896  1.00  0.00    -0.206 F 
ATOM     88  C   UNL A   1      47.699  35.044  29.513  1.00  0.00     0.022 A 
BRANCH  85  89
ATOM     89  S   UNL A   1      47.196  36.219  27.034  1.00  0.00     0.124 S 
ATOM     90  O   UNL A   1      45.797  36.371  26.647  1.00  0.00    -0.237 OA
ATOM     91  O   UNL A   1      47.764  37.316  27.811  1.00  0.00    -0.237 OA
ATOM     92  O   UNL A   1      48.072  35.678  25.996  1.00  0.00    -0.744 OA
ENDBRANCH  85  89
ENDBRANCH  59  82
ENDBRANCH  33  34
ENDBRANCH  25  28
ENDBRANCH  23  24
ENDBRANCH  22  23
ENDBRANCH   1  22
TORSDOF 18
ENDMDL
MODEL 2
REMARK VINA RESULT:     -10.6      6.140     11.478
REMARK SMILES CNC(=O)CC[NH+]1CCC(CC(=O)NCCCCNC(=O)c2ccc(-c3c4nc(c(-c5cc(S(=O)(=O)[O-])ccc5F)c5ccc([nH]5)c(-c5cc(S(=O)(=O)[O-])ccc5F)c5nc(c(-c6cc(S(=O)(=O)[O-])ccc6F)c6ccc3[nH]6)C=C5)C=C4)cc2)CC1
REMARK SMILES IDX 16 1 15 2 14 3 12 4 13 5 11 7 10 8 7 9 8 10 86 11 9 13 85 14
REMARK SMILES IDX 6 15 5 16 3 17 1 18 2 19 4 21 17 22 18 23 19 24 20 25 21 27
REMARK SMILES IDX 22 28 23 29 84 30 24 31 83 32 25 33 26 34 27 35 77 36 28 37
REMARK SMILES IDX 82 38 76 39 78 40 29 41 81 42 75 43 74 44 30 46 62 47 42 48
REMARK SMILES IDX 61 49 43 50 46 51 60 52 79 53 44 54 45 55 59 57 80 58 47 59
REMARK SMILES IDX 31 60 32 61 40 62 33 63 39 64 41 65 38 66 34 67 35 68 36 69
REMARK SMILES IDX 37 70 63 71 64 72 72 73 65 74 71 75 73 76 70 77 66 78 67 79
REMARK SMILES IDX 68 80 69 81 48 82 49 83 57 84 50 85 56 86 58 87 55 88 51 89
REMARK SMILES IDX 52 90 53 91 54 92
REMARK H PARENT 14 6 7 12 2 20 19 26 78 45 46 56
REMARK Flexibility Score: inf
ROOT
ATOM      1  C   UNL A   1      31.763  30.456  25.940  1.00  0.00     0.023 C 
ENDROOT
BRANCH   1   2
ATOM      2  C   UNL A   1      31.412  29.069  25.390  1.00  0.00     0.116 C 
BRANCH   2   3
ATOM      3  N   UNL A   1      31.066  29.133  23.977  1.00  0.00    -0.356 N 
ATOM      4  C   UNL A   1      30.329  28.271  23.216  1.00  0.00     0.220 C 
ATOM      5  O   UNL A   1      30.259  28.460  22.001  1.00  0.00    -0.275 OA
ATOM      6  H   UNL A   1      31.418  29.918  23.497  1.00  0.00     0.163 HD
BRANCH   4   7
ATOM      7  C   UNL A   1      29.614  27.094  23.863  1.00  0.00     0.104 C 
BRANCH   7   8
ATOM      8  C   UNL A   1      30.535  25.927  24.259  1.00  0.00     0.009 C 
ATOM      9  N   UNL A   1      30.953  23.129  25.111  1.00  0.00    -0.334 N 
ATOM     10  C   UNL A   1      31.111  24.227  26.059  1.00  0.00     0.262 C 
ATOM     11  C   UNL A   1      31.170  23.519  23.719  1.00  0.00     0.262 C 
ATOM     12  H   UNL A   1      29.971  22.855  25.130  1.00  0.00     0.348 HD
ATOM     13  C   UNL A   1      30.267  25.422  25.668  1.00  0.00     0.066 C 
ATOM     14  C   UNL A   1      30.357  24.748  23.292  1.00  0.00     0.066 C 
BRANCH   9  15
ATOM     15  C   UNL A   1      31.723  21.944  25.534  1.00  0.00     0.272 C 
BRANCH  15  16
ATOM     16  C   UNL A   1      32.159  20.927  24.470  1.00  0.00     0.161 C 
BRANCH  16  17
ATOM     17  C   UNL A   1      32.819  19.694  25.047  1.00  0.00     0.225 C 
ATOM     18  C   UNL A   1      35.175  20.659  25.001  1.00  0.00     0.142 C 
ATOM     19  N   UNL A   1      34.171  19.645  25.221  1.00  0.00    -0.359 N 
ATOM     20  H   UNL A   1      34.517  18.784  25.550  1.00  0.00     0.163 HD
ATOM     21  O   UNL A   1      32.153  18.710  25.375  1.00  0.00    -0.275 OA
ENDBRANCH  16  17
ENDBRANCH  15  16
ENDBRANCH   9  15
ENDBRANCH   7   8
ENDBRANCH   4   7
ENDBRANCH   2   3
ENDBRANCH   1   2
BRANCH   1  22
ATOM     22  C   UNL A   1      32.602  30.465  27.202  1.00  0.00     0.023 C 
BRANCH  22  23
ATOM     23  C   UNL A   1      33.628  31.578  27.251  1.00  0.00     0.116 C 
BRANCH  23  24
ATOM     24  N   UNL A   1      33.060  32.904  27.462  1.00  0.00    -0.352 N 
ATOM     25  C   UNL A   1      33.453  33.855  28.384  1.00  0.00     0.251 C 
ATOM     26  H   UNL A   1      32.307  33.153  26.877  1.00  0.00     0.163 HD
ATOM     27  O   UNL A   1      32.845  34.904  28.506  1.00  0.00    -0.269 OA
BRANCH  25  28
ATOM     28  C   UNL A   1      34.599  33.523  29.255  1.00  0.00     0.039 A 
ATOM     29  C   UNL A   1      34.403  32.669  30.340  1.00  0.00     0.014 A 
ATOM     30  C   UNL A   1      35.883  33.928  28.883  1.00  0.00     0.014 A 
ATOM     31  C   UNL A   1      35.515  32.143  31.000  1.00  0.00     0.010 A 
ATOM     32  C   UNL A   1      36.980  33.306  29.458  1.00  0.00     0.010 A 
ATOM     33  C   UNL A   1      36.810  32.416  30.529  1.00  0.00    -0.014 A 
BRANCH  33  34
ATOM     34  C   UNL A   1      38.014  31.815  31.159  1.00  0.00     0.031 A 
ATOM     35  C   UNL A   1      38.793  30.774  30.400  1.00  0.00     0.074 A 
ATOM     36  C   UNL A   1      38.349  32.132  32.424  1.00  0.00     0.049 A 
ATOM     37  N   UNL A   1      39.791  30.029  30.796  1.00  0.00    -0.248 NA
ATOM     38  C   UNL A   1      38.344  30.494  29.026  1.00  0.00     0.031 C 
ATOM     39  C   UNL A   1      37.629  33.076  33.285  1.00  0.00     0.029 A 
ATOM     40  N   UNL A   1      39.379  31.688  33.216  1.00  0.00    -0.354 N 
ATOM     41  C   UNL A   1      40.063  29.172  29.735  1.00  0.00     0.074 A 
ATOM     42  C   UNL A   1      39.069  29.432  28.718  1.00  0.00     0.031 C 
ATOM     43  C   UNL A   1      38.261  33.165  34.467  1.00  0.00     0.029 A 
ATOM     44  C   UNL A   1      39.402  32.256  34.468  1.00  0.00     0.049 A 
ATOM     45  H   UNL A   1      40.038  31.023  32.915  1.00  0.00     0.167 HD
ATOM     46  C   UNL A   1      41.073  28.277  29.605  1.00  0.00     0.034 A 
ATOM     47  C   UNL A   1      40.248  32.063  35.499  1.00  0.00     0.034 A 
ATOM     48  C   UNL A   1      42.079  28.069  30.614  1.00  0.00     0.049 A 
ATOM     49  C   UNL A   1      41.384  31.086  35.324  1.00  0.00     0.074 A 
ATOM     50  C   UNL A   1      43.192  27.249  30.569  1.00  0.00     0.029 A 
ATOM     51  N   UNL A   1      42.095  28.694  31.856  1.00  0.00    -0.354 N 
ATOM     52  N   UNL A   1      41.666  30.323  34.293  1.00  0.00    -0.248 NA
ATOM     53  C   UNL A   1      42.322  30.955  36.445  1.00  0.00     0.031 C 
ATOM     54  C   UNL A   1      43.850  27.337  31.802  1.00  0.00     0.029 A 
ATOM     55  C   UNL A   1      43.186  28.263  32.592  1.00  0.00     0.049 A 
ATOM     56  H   UNL A   1      41.428  29.349  32.166  1.00  0.00     0.167 HD
ATOM     57  C   UNL A   1      42.831  29.641  34.632  1.00  0.00     0.074 A 
ATOM     58  C   UNL A   1      43.204  30.095  35.957  1.00  0.00     0.031 C 
ATOM     59  C   UNL A   1      43.532  28.726  33.916  1.00  0.00     0.034 A 
BRANCH  46  60
ATOM     60  C   UNL A   1      41.114  27.464  28.331  1.00  0.00     0.023 A 
ATOM     61  C   UNL A   1      40.771  26.101  28.316  1.00  0.00     0.031 A 
ATOM     62  C   UNL A   1      41.567  28.039  27.132  1.00  0.00     0.131 A 
ATOM     63  C   UNL A   1      40.984  25.336  27.160  1.00  0.00     0.055 A 
ATOM     64  C   UNL A   1      41.686  27.293  25.956  1.00  0.00     0.041 A 
ATOM     65  F   UNL A   1      41.931  29.331  27.086  1.00  0.00    -0.206 F 
ATOM     66  C   UNL A   1      41.414  25.929  25.971  1.00  0.00     0.022 A 
BRANCH  63  67
ATOM     67  S   UNL A   1      40.861  23.530  27.285  1.00  0.00     0.124 S 
ATOM     68  O   UNL A   1      41.588  23.104  26.091  1.00  0.00    -0.237 OA
ATOM     69  O   UNL A   1      41.512  23.258  28.560  1.00  0.00    -0.237 OA
ATOM     70  O   UNL A   1      39.422  23.281  27.252  1.00  0.00    -0.744 OA
ENDBRANCH  63  67
ENDBRANCH  46  60
BRANCH  47  71
ATOM     71  C   UNL A   1      40.068  32.806  36.777  1.00  0.00     0.023 A 
ATOM     72  C   UNL A   1      39.206  32.327  37.777  1.00  0.00     0.031 A 
ATOM     73  C   UNL A   1      40.735  34.022  37.011  1.00  0.00     0.131 A 
ATOM     74  C   UNL A   1      39.000  33.078  38.945  1.00  0.00     0.055 A 
ATOM     75  C   UNL A   1      40.563  34.743  38.194  1.00  0.00     0.041 A 
ATOM     76  F   UNL A   1      41.579  34.520  36.093  1.00  0.00    -0.206 F 
ATOM     77  C   UNL A   1      39.681  34.277  39.165  1.00  0.00     0.022 A 
BRANCH  74  78
ATOM     78  S   UNL A   1      37.773  32.497  40.148  1.00  0.00     0.124 S 
ATOM     79  O   UNL A   1      37.379  33.741  40.798  1.00  0.00    -0.237 OA
ATOM     80  O   UNL A   1      36.772  31.879  39.284  1.00  0.00    -0.237 OA
ATOM     81  O   UNL A   1      38.529  31.567  40.985  1.00  0.00    -0.744 OA
ENDBRANCH  74  78
ENDBRANCH  47  71
BRANCH  59  82
ATOM     82  C   UNL A   1      44.796  28.193  34.542  1.00  0.00     0.023 A 
ATOM     83  C   UNL A   1      44.797  27.027  35.324  1.00  0.00     0.031 A 
ATOM     84  C   UNL A   1      46.015  28.868  34.351  1.00  0.00     0.131 A 
ATOM     85  C   UNL A   1      45.985  26.597  35.932  1.00  0.00     0.055 A 
ATOM     86  C   UNL A   1      47.205  28.403  34.911  1.00  0.00     0.041 A 
ATOM     87  F   UNL A   1      46.068  29.988  33.612  1.00  0.00    -0.206 F 
ATOM     88  C   UNL A   1      47.193  27.269  35.718  1.00  0.00     0.022 A 
BRANCH  85  89
ATOM     89  S   UNL A   1      45.918  25.194  37.078  1.00  0.00     0.124 S 
ATOM     90  O   UNL A   1      44.898  24.349  36.465  1.00  0.00    -0.237 OA
ATOM     91  O   UNL A   1      47.284  24.682  37.025  1.00  0.00    -0.237 OA
ATOM     92  O   UNL A   1      45.536  25.805  38.349  1.00  0.00    -0.744 OA
ENDBRANCH  85  89
ENDBRANCH  59  82
ENDBRANCH  33  34
ENDBRANCH  25  28
ENDBRANCH  23  24
ENDBRANCH  22  23
ENDBRANCH   1  22
TORSDOF 18
ENDMDL
MODEL 3
REMARK VINA RESULT:     -10.5      3.151      8.558
REMARK SMILES CNC(=O)CC[NH+]1CCC(CC(=O)NCCCCNC(=O)c2ccc(-c3c4nc(c(-c5cc(S(=O)(=O)[O-])ccc5F)c5ccc([nH]5)c(-c5cc(S(=O)(=O)[O-])ccc5F)c5nc(c(-c6cc(S(=O)(=O)[O-])ccc6F)c6ccc3[nH]6)C=C5)C=C4)cc2)CC1
REMARK SMILES IDX 16 1 15 2 14 3 12 4 13 5 11 7 10 8 7 9 8 10 86 11 9 13 85 14
REMARK SMILES IDX 6 15 5 16 3 17 1 18 2 19 4 21 17 22 18 23 19 24 20 25 21 27
REMARK SMILES IDX 22 28 23 29 84 30 24 31 83 32 25 33 26 34 27 35 77 36 28 37
REMARK SMILES IDX 82 38 76 39 78 40 29 41 81 42 75 43 74 44 30 46 62 47 42 48
REMARK SMILES IDX 61 49 43 50 46 51 60 52 79 53 44 54 45 55 59 57 80 58 47 59
REMARK SMILES IDX 31 60 32 61 40 62 33 63 39 64 41 65 38 66 34 67 35 68 36 69
REMARK SMILES IDX 37 70 63 71 64 72 72 73 65 74 71 75 73 76 70 77 66 78 67 79
REMARK SMILES IDX 68 80 69 81 48 82 49 83 57 84 50 85 56 86 58 87 55 88 51 89
REMARK SMILES IDX 52 90 53 91 54 92
REMARK H PARENT 14 6 7 12 2 20 19 26 78 45 46 56
REMARK Flexibility Score: inf
ROOT
ATOM      1  C   UNL A   1      35.069  22.043  26.377  1.00  0.00     0.023 C 
ENDROOT
BRANCH   1   2
ATOM      2  C   UNL A   1      34.090  21.347  25.426  1.00  0.00     0.116 C 
BRANCH   2   3
ATOM      3  N   UNL A   1      32.718  21.469  25.898  1.00  0.00    -0.356 N 
ATOM      4  C   UNL A   1      31.741  22.351  25.533  1.00  0.00     0.220 C 
ATOM      5  O   UNL A   1      30.676  22.350  26.152  1.00  0.00    -0.275 OA
ATOM      6  H   UNL A   1      32.453  20.814  26.584  1.00  0.00     0.163 HD
BRANCH   4   7
ATOM      7  C   UNL A   1      31.974  23.324  24.387  1.00  0.00     0.104 C 
BRANCH   7   8
ATOM      8  C   UNL A   1      31.581  24.780  24.695  1.00  0.00     0.009 C 
ATOM      9  N   UNL A   1      31.047  27.557  23.840  1.00  0.00    -0.334 N 
ATOM     10  C   UNL A   1      32.281  27.218  24.541  1.00  0.00     0.262 C 
ATOM     11  C   UNL A   1      29.941  26.644  24.124  1.00  0.00     0.262 C 
ATOM     12  H   UNL A   1      31.219  27.418  22.844  1.00  0.00     0.348 HD
ATOM     13  C   UNL A   1      32.669  25.772  24.314  1.00  0.00     0.066 C 
ATOM     14  C   UNL A   1      30.302  25.165  23.939  1.00  0.00     0.066 C 
BRANCH   9  15
ATOM     15  C   UNL A   1      30.712  28.984  24.009  1.00  0.00     0.272 C 
BRANCH  15  16
ATOM     16  C   UNL A   1      30.011  29.720  22.858  1.00  0.00     0.161 C 
BRANCH  16  17
ATOM     17  C   UNL A   1      28.872  30.606  23.311  1.00  0.00     0.225 C 
ATOM     18  C   UNL A   1      27.078  28.820  23.046  1.00  0.00     0.142 C 
ATOM     19  N   UNL A   1      27.592  30.137  23.336  1.00  0.00    -0.359 N 
ATOM     20  H   UNL A   1      26.911  30.800  23.591  1.00  0.00     0.163 HD
ATOM     21  O   UNL A   1      29.075  31.767  23.673  1.00  0.00    -0.275 OA
ENDBRANCH  16  17
ENDBRANCH  15  16
ENDBRANCH   9  15
ENDBRANCH   7   8
ENDBRANCH   4   7
ENDBRANCH   2   3
ENDBRANCH   1   2
BRANCH   1  22
ATOM     22  C   UNL A   1      35.515  23.429  25.958  1.00  0.00     0.023 C 
BRANCH  22  23
ATOM     23  C   UNL A   1      36.992  23.691  26.166  1.00  0.00     0.116 C 
BRANCH  23  24
ATOM     24  N   UNL A   1      37.822  22.493  26.127  1.00  0.00    -0.352 N 
ATOM     25  C   UNL A   1      39.177  22.396  26.378  1.00  0.00     0.251 C 
ATOM     26  H   UNL A   1      37.363  21.653  25.895  1.00  0.00     0.163 HD
ATOM     27  O   UNL A   1      39.769  21.340  26.242  1.00  0.00    -0.269 OA
BRANCH  25  28
ATOM     28  C   UNL A   1      39.888  23.634  26.758  1.00  0.00     0.039 A 
ATOM     29  C   UNL A   1      40.089  24.625  25.797  1.00  0.00     0.014 A 
ATOM     30  C   UNL A   1      40.192  23.865  28.102  1.00  0.00     0.014 A 
ATOM     31  C   UNL A   1      40.514  25.890  26.205  1.00  0.00     0.010 A 
ATOM     32  C   UNL A   1      40.490  25.154  28.515  1.00  0.00     0.010 A 
ATOM     33  C   UNL A   1      40.665  26.178  27.571  1.00  0.00    -0.014 A 
BRANCH  33  34
ATOM     34  C   UNL A   1      41.043  27.533  28.048  1.00  0.00     0.031 A 
ATOM     35  C   UNL A   1      42.499  27.917  28.080  1.00  0.00     0.074 A 
ATOM     36  C   UNL A   1      40.104  28.371  28.529  1.00  0.00     0.049 A 
ATOM     37  N   UNL A   1      43.066  28.987  28.572  1.00  0.00    -0.248 NA
ATOM     38  C   UNL A   1      43.447  26.931  27.537  1.00  0.00     0.031 C 
ATOM     39  C   UNL A   1      38.669  28.083  28.614  1.00  0.00     0.029 A 
ATOM     40  N   UNL A   1      40.215  29.637  29.048  1.00  0.00    -0.354 N 
ATOM     41  C   UNL A   1      44.435  28.784  28.428  1.00  0.00     0.074 A 
ATOM     42  C   UNL A   1      44.609  27.455  27.886  1.00  0.00     0.031 C 
ATOM     43  C   UNL A   1      38.033  29.154  29.118  1.00  0.00     0.029 A 
ATOM     44  C   UNL A   1      39.015  30.187  29.432  1.00  0.00     0.049 A 
ATOM     45  H   UNL A   1      41.075  30.106  29.138  1.00  0.00     0.167 HD
ATOM     46  C   UNL A   1      45.451  29.643  28.688  1.00  0.00     0.034 A 
ATOM     47  C   UNL A   1      38.740  31.388  29.979  1.00  0.00     0.034 A 
ATOM     48  C   UNL A   1      45.248  30.980  29.184  1.00  0.00     0.049 A 
ATOM     49  C   UNL A   1      39.881  32.342  30.232  1.00  0.00     0.074 A 
ATOM     50  C   UNL A   1      46.189  31.967  29.414  1.00  0.00     0.029 A 
ATOM     51  N   UNL A   1      44.013  31.519  29.523  1.00  0.00    -0.354 N 
ATOM     52  N   UNL A   1      41.167  32.161  30.037  1.00  0.00    -0.248 NA
ATOM     53  C   UNL A   1      39.531  33.664  30.765  1.00  0.00     0.031 C 
ATOM     54  C   UNL A   1      45.529  33.083  29.944  1.00  0.00     0.029 A 
ATOM     55  C   UNL A   1      44.169  32.817  29.980  1.00  0.00     0.049 A 
ATOM     56  H   UNL A   1      43.153  31.047  29.449  1.00  0.00     0.167 HD
ATOM     57  C   UNL A   1      41.778  33.358  30.399  1.00  0.00     0.074 A 
ATOM     58  C   UNL A   1      40.716  34.255  30.809  1.00  0.00     0.031 C 
ATOM     59  C   UNL A   1      43.094  33.689  30.391  1.00  0.00     0.034 A 
BRANCH  46  60
ATOM     60  C   UNL A   1      46.856  29.142  28.445  1.00  0.00     0.023 A 
ATOM     61  C   UNL A   1      47.356  28.948  27.145  1.00  0.00     0.031 A 
ATOM     62  C   UNL A   1      47.684  28.788  29.525  1.00  0.00     0.131 A 
ATOM     63  C   UNL A   1      48.596  28.321  26.956  1.00  0.00     0.055 A 
ATOM     64  C   UNL A   1      48.959  28.252  29.330  1.00  0.00     0.041 A 
ATOM     65  F   UNL A   1      47.256  28.928  30.790  1.00  0.00    -0.206 F 
ATOM     66  C   UNL A   1      49.414  27.995  28.040  1.00  0.00     0.022 A 
BRANCH  63  67
ATOM     67  S   UNL A   1      49.041  27.777  25.283  1.00  0.00     0.124 S 
ATOM     68  O   UNL A   1      49.213  26.340  25.479  1.00  0.00    -0.237 OA
ATOM     69  O   UNL A   1      47.880  28.181  24.501  1.00  0.00    -0.237 OA
ATOM     70  O   UNL A   1      50.272  28.512  25.000  1.00  0.00    -0.744 OA
ENDBRANCH  63  67
ENDBRANCH  46  60
BRANCH  47  71
ATOM     71  C   UNL A   1      37.338  31.765  30.315  1.00  0.00     0.023 A 
ATOM     72  C   UNL A   1      36.457  32.227  29.324  1.00  0.00     0.031 A 
ATOM     73  C   UNL A   1      36.864  31.696  31.637  1.00  0.00     0.131 A 
ATOM     74  C   UNL A   1      35.162  32.640  29.673  1.00  0.00     0.055 A 
ATOM     75  C   UNL A   1      35.560  32.065  31.974  1.00  0.00     0.041 A 
ATOM     76  F   UNL A   1      37.662  31.253  32.621  1.00  0.00    -0.206 F 
ATOM     77  C   UNL A   1      34.704  32.552  30.990  1.00  0.00     0.022 A 
BRANCH  74  78
ATOM     78  S   UNL A   1      34.102  33.361  28.390  1.00  0.00     0.124 S 
ATOM     79  O   UNL A   1      33.215  34.210  29.177  1.00  0.00    -0.237 OA
ATOM     80  O   UNL A   1      35.074  34.054  27.550  1.00  0.00    -0.237 OA
ATOM     81  O   UNL A   1      33.469  32.196  27.775  1.00  0.00    -0.744 OA
ENDBRANCH  74  78
ENDBRANCH  47  71
BRANCH  59  82
ATOM     82  C   UNL A   1      43.445  35.098  30.799  1.00  0.00     0.023 A 
ATOM     83  C   UNL A   1      43.488  36.147  29.867  1.00  0.00     0.031 A 
ATOM     84  C   UNL A   1      43.742  35.387  32.143  1.00  0.00     0.131 A 
ATOM     85  C   UNL A   1      43.872  37.431  30.281  1.00  0.00     0.055 A 
ATOM     86  C   UNL A   1      44.067  36.679  32.559  1.00  0.00     0.041 A 
ATOM     87  F   UNL A   1      43.715  34.420  33.074  1.00  0.00    -0.206 F 
ATOM     88  C   UNL A   1      44.147  37.707  31.624  1.00  0.00     0.022 A 
BRANCH  85  89
ATOM     89  S   UNL A   1      44.091  38.720  29.026  1.00  0.00     0.124 S 
ATOM     90  O   UNL A   1      45.091  39.584  29.647  1.00  0.00    -0.237 OA
ATOM     91  O   UNL A   1      44.543  37.956  27.868  1.00  0.00    -0.237 OA
ATOM     92  O   UNL A   1      42.759  39.307  28.899  1.00  0.00    -0.744 OA
ENDBRANCH  85  89
ENDBRANCH  59  82
ENDBRANCH  33  34
ENDBRANCH  25  28
ENDBRANCH  23  24
ENDBRANCH  22  23
ENDBRANCH   1  22
TORSDOF 18
ENDMDL
