MODEL 1
REMARK VINA RESULT:     -10.5      0.000      0.000
REMARK SMILES O=C(NCCCCNC(=O)[C@H]1CC[C@H](CNS(=O)(=O)C[C@H]2CCCO2)O1)c1ccc(-c2c3nc(c(-c4cc(S(=O)(=O)[O-])ccc4F)c4ccc([nH]4)c(-c4cc(S(=O)(=O)[O-])ccc4F)c4nc(c(-c5cc(S(=O)(=O)[O-])ccc5F)c5ccc2[nH]5)C=C4)C=C3)cc1
REMARK SMILES IDX 6 1 5 2 4 3 3 4 1 5 2 6 27 8 28 9 89 10 29 11 88 12 30 13
REMARK SMILES IDX 31 14 32 15 82 16 33 17 87 18 81 19 83 20 34 21 86 22 80 23
REMARK SMILES IDX 79 24 35 26 67 27 47 28 66 29 48 30 51 31 65 32 84 33 49 34
REMARK SMILES IDX 50 35 64 37 85 38 52 39 36 40 37 41 45 42 38 43 44 44 46 45
REMARK SMILES IDX 43 46 39 47 40 48 41 49 42 50 68 51 69 52 77 53 70 54 76 55
REMARK SMILES IDX 78 56 75 57 71 58 72 59 73 60 74 61 53 62 54 63 62 64 55 65
REMARK SMILES IDX 61 66 63 67 60 68 56 69 57 70 58 71 59 72 7 73 8 74 9 75
REMARK SMILES IDX 10 77 11 78 12 79 26 80 13 81 14 82 15 83 16 84 17 86 18 87
REMARK SMILES IDX 19 88 20 89 21 90 22 91 25 92 23 93 24 94
REMARK H PARENT 3 7 83 25 51 36 8 76 16 85
REMARK Flexibility Score: inf
ROOT
ATOM      1  C   UNL A   1      39.310  22.618  26.497  1.00  0.00     0.023 C 
ENDROOT
BRANCH   1   2
ATOM      2  C   UNL A   1      39.582  21.214  25.969  1.00  0.00     0.023 C 
BRANCH   2   3
ATOM      3  C   UNL A   1      40.329  20.315  26.937  1.00  0.00     0.116 C 
BRANCH   3   4
ATOM      4  N   UNL A   1      41.250  19.386  26.290  1.00  0.00    -0.352 N 
ATOM      5  O   UNL A   1      43.136  18.827  25.160  1.00  0.00    -0.269 OA
ATOM      6  C   UNL A   1      42.497  19.672  25.775  1.00  0.00     0.251 C 
ATOM      7  H   UNL A   1      40.948  18.452  26.214  1.00  0.00     0.163 HD
BRANCH   6   8
ATOM      8  C   UNL A   1      43.017  21.041  25.963  1.00  0.00     0.039 A 
ATOM      9  C   UNL A   1      43.333  21.467  27.253  1.00  0.00     0.014 A 
ATOM     10  C   UNL A   1      43.061  21.929  24.887  1.00  0.00     0.014 A 
ATOM     11  C   UNL A   1      43.494  22.819  27.497  1.00  0.00     0.010 A 
ATOM     12  C   UNL A   1      43.365  23.276  25.122  1.00  0.00     0.010 A 
ATOM     13  C   UNL A   1      43.550  23.738  26.434  1.00  0.00    -0.014 A 
BRANCH  13  14
ATOM     14  C   UNL A   1      43.895  25.149  26.752  1.00  0.00     0.031 A 
ATOM     15  C   UNL A   1      42.896  26.099  27.353  1.00  0.00     0.074 A 
ATOM     16  C   UNL A   1      45.173  25.535  26.559  1.00  0.00     0.049 A 
ATOM     17  N   UNL A   1      43.072  27.340  27.729  1.00  0.00    -0.248 NA
ATOM     18  C   UNL A   1      41.527  25.603  27.547  1.00  0.00     0.031 C 
ATOM     19  C   UNL A   1      46.221  24.691  25.971  1.00  0.00     0.029 A 
ATOM     20  N   UNL A   1      45.825  26.699  26.865  1.00  0.00    -0.354 N 
ATOM     21  C   UNL A   1      41.839  27.779  28.200  1.00  0.00     0.074 A 
ATOM     22  C   UNL A   1      40.912  26.680  28.021  1.00  0.00     0.031 C 
ATOM     23  C   UNL A   1      47.394  25.333  26.036  1.00  0.00     0.029 A 
ATOM     24  C   UNL A   1      47.167  26.670  26.563  1.00  0.00     0.049 A 
ATOM     25  H   UNL A   1      45.378  27.480  27.263  1.00  0.00     0.167 HD
ATOM     26  C   UNL A   1      41.518  28.984  28.737  1.00  0.00     0.034 A 
ATOM     27  C   UNL A   1      48.112  27.623  26.664  1.00  0.00     0.034 A 
ATOM     28  C   UNL A   1      42.461  30.069  28.897  1.00  0.00     0.049 A 
ATOM     29  C   UNL A   1      47.714  28.960  27.222  1.00  0.00     0.074 A 
ATOM     30  C   UNL A   1      42.243  31.330  29.426  1.00  0.00     0.029 A 
ATOM     31  N   UNL A   1      43.802  30.026  28.529  1.00  0.00    -0.354 N 
ATOM     32  N   UNL A   1      46.540  29.354  27.660  1.00  0.00    -0.248 NA
ATOM     33  C   UNL A   1      48.766  29.976  27.304  1.00  0.00     0.031 C 
ATOM     34  C   UNL A   1      43.427  32.068  29.314  1.00  0.00     0.029 A 
ATOM     35  C   UNL A   1      44.411  31.244  28.795  1.00  0.00     0.049 A 
ATOM     36  H   UNL A   1      44.252  29.244  28.136  1.00  0.00     0.167 HD
ATOM     37  C   UNL A   1      46.719  30.668  28.081  1.00  0.00     0.074 A 
ATOM     38  C   UNL A   1      48.123  30.976  27.886  1.00  0.00     0.031 C 
ATOM     39  C   UNL A   1      45.806  31.544  28.572  1.00  0.00     0.034 A 
BRANCH  26  40
ATOM     40  C   UNL A   1      40.083  29.208  29.157  1.00  0.00     0.023 A 
ATOM     41  C   UNL A   1      39.700  29.203  30.510  1.00  0.00     0.031 A 
ATOM     42  C   UNL A   1      39.086  29.444  28.194  1.00  0.00     0.131 A 
ATOM     43  C   UNL A   1      38.350  29.375  30.857  1.00  0.00     0.055 A 
ATOM     44  C   UNL A   1      37.758  29.690  28.551  1.00  0.00     0.041 A 
ATOM     45  F   UNL A   1      39.385  29.440  26.885  1.00  0.00    -0.206 F 
ATOM     46  C   UNL A   1      37.380  29.646  29.889  1.00  0.00     0.022 A 
BRANCH  43  47
ATOM     47  S   UNL A   1      37.859  29.121  32.586  1.00  0.00     0.124 S 
ATOM     48  O   UNL A   1      38.927  29.814  33.301  1.00  0.00    -0.237 OA
ATOM     49  O   UNL A   1      36.544  29.751  32.636  1.00  0.00    -0.237 OA
ATOM     50  O   UNL A   1      37.861  27.667  32.733  1.00  0.00    -0.744 OA
ENDBRANCH  43  47
ENDBRANCH  26  40
BRANCH  27  51
ATOM     51  C   UNL A   1      49.495  27.366  26.169  1.00  0.00     0.023 A 
ATOM     52  C   UNL A   1      49.855  27.625  24.839  1.00  0.00     0.031 A 
ATOM     53  C   UNL A   1      50.470  26.806  27.019  1.00  0.00     0.131 A 
ATOM     54  C   UNL A   1      51.134  27.273  24.382  1.00  0.00     0.055 A 
ATOM     55  C   UNL A   1      51.763  26.529  26.579  1.00  0.00     0.041 A 
ATOM     56  F   UNL A   1      50.181  26.537  28.302  1.00  0.00    -0.206 F 
ATOM     57  C   UNL A   1      52.096  26.745  25.246  1.00  0.00     0.022 A 
BRANCH  54  58
ATOM     58  S   UNL A   1      51.483  27.399  22.607  1.00  0.00     0.124 S 
ATOM     59  O   UNL A   1      50.226  26.946  22.025  1.00  0.00    -0.237 OA
ATOM     60  O   UNL A   1      51.784  28.820  22.460  1.00  0.00    -0.237 OA
ATOM     61  O   UNL A   1      52.619  26.500  22.420  1.00  0.00    -0.744 OA
ENDBRANCH  54  58
ENDBRANCH  27  51
BRANCH  39  62
ATOM     62  C   UNL A   1      46.327  32.909  28.953  1.00  0.00     0.023 A 
ATOM     63  C   UNL A   1      46.365  33.967  28.027  1.00  0.00     0.031 A 
ATOM     64  C   UNL A   1      46.850  33.138  30.238  1.00  0.00     0.131 A 
ATOM     65  C   UNL A   1      46.991  35.173  28.367  1.00  0.00     0.055 A 
ATOM     66  C   UNL A   1      47.403  34.369  30.597  1.00  0.00     0.041 A 
ATOM     67  F   UNL A   1      46.847  32.165  31.162  1.00  0.00    -0.206 F 
ATOM     68  C   UNL A   1      47.494  35.388  29.653  1.00  0.00     0.022 A 
BRANCH  65  69
ATOM     69  S   UNL A   1      47.267  36.405  27.064  1.00  0.00     0.124 S 
ATOM     70  O   UNL A   1      46.928  37.649  27.748  1.00  0.00    -0.237 OA
ATOM     71  O   UNL A   1      48.679  36.215  26.750  1.00  0.00    -0.237 OA
ATOM     72  O   UNL A   1      46.337  36.002  26.010  1.00  0.00    -0.744 OA
ENDBRANCH  65  69
ENDBRANCH  39  62
ENDBRANCH  13  14
ENDBRANCH   6   8
ENDBRANCH   3   4
ENDBRANCH   2   3
ENDBRANCH   1   2
BRANCH   1  73
ATOM     73  C   UNL A   1      37.964  23.201  26.066  1.00  0.00     0.116 C 
BRANCH  73  74
ATOM     74  N   UNL A   1      37.753  23.057  24.639  1.00  0.00    -0.354 N 
ATOM     75  C   UNL A   1      36.611  23.034  23.900  1.00  0.00     0.249 C 
ATOM     76  H   UNL A   1      38.580  22.958  24.114  1.00  0.00     0.163 HD
ATOM     77  O   UNL A   1      36.731  22.887  22.679  1.00  0.00    -0.272 OA
BRANCH  75  78
ATOM     78  C   UNL A   1      35.199  23.164  24.525  1.00  0.00     0.207 C 
ATOM     79  C   UNL A   1      34.657  24.573  24.341  1.00  0.00     0.045 C 
ATOM     80  O   UNL A   1      34.155  22.292  24.113  1.00  0.00    -0.364 OA
ATOM     81  C   UNL A   1      33.744  24.428  23.151  1.00  0.00     0.037 C 
ATOM     82  C   UNL A   1      33.224  23.004  23.280  1.00  0.00     0.134 C 
BRANCH  82  83
ATOM     83  C   UNL A   1      31.829  22.892  23.906  1.00  0.00     0.130 C 
BRANCH  83  84
ATOM     84  N   UNL A   1      31.928  22.403  25.292  1.00  0.00    -0.213 NA
ATOM     85  H   UNL A   1      32.909  22.459  25.567  1.00  0.00     0.141 HD
BRANCH  84  86
ATOM     86  S   UNL A   1      31.039  23.194  26.460  1.00  0.00     0.214 S 
ATOM     87  O   UNL A   1      29.784  22.484  26.592  1.00  0.00    -0.212 OA
ATOM     88  O   UNL A   1      31.918  23.320  27.600  1.00  0.00    -0.212 OA
BRANCH  86  89
ATOM     89  C   UNL A   1      30.698  24.817  25.805  1.00  0.00     0.185 C 
BRANCH  89  90
ATOM     90  C   UNL A   1      31.691  25.932  26.085  1.00  0.00     0.134 C 
ATOM     91  C   UNL A   1      31.969  26.987  25.022  1.00  0.00     0.035 C 
ATOM     92  O   UNL A   1      31.343  26.623  27.300  1.00  0.00    -0.377 OA
ATOM     93  C   UNL A   1      31.429  28.261  25.626  1.00  0.00     0.031 C 
ATOM     94  C   UNL A   1      31.611  28.016  27.106  1.00  0.00     0.160 C 
ENDBRANCH  89  90
ENDBRANCH  86  89
ENDBRANCH  84  86
ENDBRANCH  83  84
ENDBRANCH  82  83
ENDBRANCH  75  78
ENDBRANCH  73  74
ENDBRANCH   1  73
TORSDOF 19
ENDMDL
MODEL 2
REMARK VINA RESULT:     -10.3      5.916     10.190
REMARK SMILES O=C(NCCCCNC(=O)[C@H]1CC[C@H](CNS(=O)(=O)C[C@H]2CCCO2)O1)c1ccc(-c2c3nc(c(-c4cc(S(=O)(=O)[O-])ccc4F)c4ccc([nH]4)c(-c4cc(S(=O)(=O)[O-])ccc4F)c4nc(c(-c5cc(S(=O)(=O)[O-])ccc5F)c5ccc2[nH]5)C=C4)C=C3)cc1
REMARK SMILES IDX 6 1 5 2 4 3 3 4 1 5 2 6 27 8 28 9 89 10 29 11 88 12 30 13
REMARK SMILES IDX 31 14 32 15 82 16 33 17 87 18 81 19 83 20 34 21 86 22 80 23
REMARK SMILES IDX 79 24 35 26 67 27 47 28 66 29 48 30 51 31 65 32 84 33 49 34
REMARK SMILES IDX 50 35 64 37 85 38 52 39 36 40 37 41 45 42 38 43 44 44 46 45
REMARK SMILES IDX 43 46 39 47 40 48 41 49 42 50 68 51 69 52 77 53 70 54 76 55
REMARK SMILES IDX 78 56 75 57 71 58 72 59 73 60 74 61 53 62 54 63 62 64 55 65
REMARK SMILES IDX 61 66 63 67 60 68 56 69 57 70 58 71 59 72 7 73 8 74 9 75
REMARK SMILES IDX 10 77 11 78 12 79 26 80 13 81 14 82 15 83 16 84 17 86 18 87
REMARK SMILES IDX 19 88 20 89 21 90 22 91 25 92 23 93 24 94
REMARK H PARENT 3 7 83 25 51 36 8 76 16 85
REMARK Flexibility Score: inf
ROOT
ATOM      1  C   UNL A   1      32.313  30.397  26.917  1.00  0.00     0.023 C 
ENDROOT
BRANCH   1   2
ATOM      2  C   UNL A   1      32.048  31.898  26.883  1.00  0.00     0.023 C 
BRANCH   2   3
ATOM      3  C   UNL A   1      33.082  32.733  27.615  1.00  0.00     0.116 C 
BRANCH   3   4
ATOM      4  N   UNL A   1      32.689  34.126  27.808  1.00  0.00    -0.352 N 
ATOM      5  O   UNL A   1      32.711  36.130  28.869  1.00  0.00    -0.269 OA
ATOM      6  C   UNL A   1      33.196  35.014  28.732  1.00  0.00     0.251 C 
ATOM      7  H   UNL A   1      31.984  34.467  27.212  1.00  0.00     0.163 HD
BRANCH   6   8
ATOM      8  C   UNL A   1      34.322  34.559  29.572  1.00  0.00     0.039 A 
ATOM      9  C   UNL A   1      35.621  34.698  29.085  1.00  0.00     0.014 A 
ATOM     10  C   UNL A   1      34.077  33.882  30.769  1.00  0.00     0.014 A 
ATOM     11  C   UNL A   1      36.647  33.988  29.683  1.00  0.00     0.010 A 
ATOM     12  C   UNL A   1      35.145  33.283  31.448  1.00  0.00     0.010 A 
ATOM     13  C   UNL A   1      36.434  33.303  30.893  1.00  0.00    -0.014 A 
BRANCH  13  14
ATOM     14  C   UNL A   1      37.615  32.705  31.571  1.00  0.00     0.031 A 
ATOM     15  C   UNL A   1      38.041  33.125  32.950  1.00  0.00     0.074 A 
ATOM     16  C   UNL A   1      38.255  31.703  30.934  1.00  0.00     0.049 A 
ATOM     17  N   UNL A   1      39.019  32.655  33.682  1.00  0.00    -0.248 NA
ATOM     18  C   UNL A   1      37.288  34.214  33.587  1.00  0.00     0.031 C 
ATOM     19  C   UNL A   1      37.926  31.225  29.585  1.00  0.00     0.029 A 
ATOM     20  N   UNL A   1      39.272  30.879  31.333  1.00  0.00    -0.354 N 
ATOM     21  C   UNL A   1      39.005  33.390  34.863  1.00  0.00     0.074 A 
ATOM     22  C   UNL A   1      37.945  34.368  34.730  1.00  0.00     0.031 C 
ATOM     23  C   UNL A   1      38.667  30.147  29.305  1.00  0.00     0.029 A 
ATOM     24  C   UNL A   1      39.599  29.922  30.400  1.00  0.00     0.049 A 
ATOM     25  H   UNL A   1      39.727  30.963  32.202  1.00  0.00     0.167 HD
ATOM     26  C   UNL A   1      39.799  33.251  35.955  1.00  0.00     0.034 A 
ATOM     27  C   UNL A   1      40.565  28.984  30.402  1.00  0.00     0.034 A 
ATOM     28  C   UNL A   1      40.857  32.270  36.061  1.00  0.00     0.049 A 
ATOM     29  C   UNL A   1      41.454  28.886  31.608  1.00  0.00     0.074 A 
ATOM     30  C   UNL A   1      41.722  32.045  37.118  1.00  0.00     0.029 A 
ATOM     31  N   UNL A   1      41.198  31.351  35.074  1.00  0.00    -0.354 N 
ATOM     32  N   UNL A   1      41.425  29.594  32.715  1.00  0.00    -0.248 NA
ATOM     33  C   UNL A   1      42.502  27.863  31.570  1.00  0.00     0.031 C 
ATOM     34  C   UNL A   1      42.625  31.044  36.746  1.00  0.00     0.029 A 
ATOM     35  C   UNL A   1      42.275  30.580  35.489  1.00  0.00     0.049 A 
ATOM     36  H   UNL A   1      40.742  31.262  34.206  1.00  0.00     0.167 HD
ATOM     37  C   UNL A   1      42.449  29.090  33.510  1.00  0.00     0.074 A 
ATOM     38  C   UNL A   1      43.040  27.991  32.772  1.00  0.00     0.031 C 
ATOM     39  C   UNL A   1      42.870  29.503  34.732  1.00  0.00     0.034 A 
BRANCH  26  40
ATOM     40  C   UNL A   1      39.581  34.203  37.110  1.00  0.00     0.023 A 
ATOM     41  C   UNL A   1      39.092  33.761  38.351  1.00  0.00     0.031 A 
ATOM     42  C   UNL A   1      39.881  35.571  36.973  1.00  0.00     0.131 A 
ATOM     43  C   UNL A   1      38.865  34.683  39.385  1.00  0.00     0.055 A 
ATOM     44  C   UNL A   1      39.725  36.470  38.030  1.00  0.00     0.041 A 
ATOM     45  F   UNL A   1      40.331  36.059  35.806  1.00  0.00    -0.206 F 
ATOM     46  C   UNL A   1      39.204  36.030  39.243  1.00  0.00     0.022 A 
BRANCH  43  47
ATOM     47  S   UNL A   1      38.008  34.117  40.881  1.00  0.00     0.124 S 
ATOM     48  O   UNL A   1      36.906  33.343  40.315  1.00  0.00    -0.237 OA
ATOM     49  O   UNL A   1      39.042  33.349  41.566  1.00  0.00    -0.237 OA
ATOM     50  O   UNL A   1      37.613  35.360  41.541  1.00  0.00    -0.744 OA
ENDBRANCH  43  47
ENDBRANCH  26  40
BRANCH  27  51
ATOM     51  C   UNL A   1      40.775  28.119  29.206  1.00  0.00     0.023 A 
ATOM     52  C   UNL A   1      41.804  28.378  28.290  1.00  0.00     0.031 A 
ATOM     53  C   UNL A   1      39.911  27.039  28.939  1.00  0.00     0.131 A 
ATOM     54  C   UNL A   1      41.907  27.607  27.122  1.00  0.00     0.055 A 
ATOM     55  C   UNL A   1      40.065  26.229  27.816  1.00  0.00     0.041 A 
ATOM     56  F   UNL A   1      38.908  26.745  29.782  1.00  0.00    -0.206 F 
ATOM     57  C   UNL A   1      41.058  26.523  26.888  1.00  0.00     0.022 A 
BRANCH  54  58
ATOM     58  S   UNL A   1      43.093  28.119  25.849  1.00  0.00     0.124 S 
ATOM     59  O   UNL A   1      42.278  28.052  24.642  1.00  0.00    -0.237 OA
ATOM     60  O   UNL A   1      43.461  29.456  26.302  1.00  0.00    -0.237 OA
ATOM     61  O   UNL A   1      44.150  27.115  25.947  1.00  0.00    -0.744 OA
ENDBRANCH  54  58
ENDBRANCH  27  51
BRANCH  39  62
ATOM     62  C   UNL A   1      44.014  28.729  35.343  1.00  0.00     0.023 A 
ATOM     63  C   UNL A   1      43.788  27.609  36.163  1.00  0.00     0.031 A 
ATOM     64  C   UNL A   1      45.341  29.154  35.155  1.00  0.00     0.131 A 
ATOM     65  C   UNL A   1      44.861  27.007  36.834  1.00  0.00     0.055 A 
ATOM     66  C   UNL A   1      46.414  28.501  35.764  1.00  0.00     0.041 A 
ATOM     67  F   UNL A   1      45.617  30.220  34.388  1.00  0.00    -0.206 F 
ATOM     68  C   UNL A   1      46.175  27.433  36.626  1.00  0.00     0.022 A 
BRANCH  65  69
ATOM     69  S   UNL A   1      44.500  25.751  38.092  1.00  0.00     0.124 S 
ATOM     70  O   UNL A   1      45.796  25.099  38.248  1.00  0.00    -0.237 OA
ATOM     71  O   UNL A   1      44.054  26.561  39.221  1.00  0.00    -0.237 OA
ATOM     72  O   UNL A   1      43.462  24.930  37.469  1.00  0.00    -0.744 OA
ENDBRANCH  65  69
ENDBRANCH  39  62
ENDBRANCH  13  14
ENDBRANCH   6   8
ENDBRANCH   3   4
ENDBRANCH   2   3
ENDBRANCH   1   2
BRANCH   1  73
ATOM     73  C   UNL A   1      32.862  29.827  25.610  1.00  0.00     0.116 C 
BRANCH  73  74
ATOM     74  N   UNL A   1      31.816  29.654  24.623  1.00  0.00    -0.354 N 
ATOM     75  C   UNL A   1      31.264  28.531  24.089  1.00  0.00     0.249 C 
ATOM     76  H   UNL A   1      31.438  30.496  24.279  1.00  0.00     0.163 HD
ATOM     77  O   UNL A   1      30.376  28.684  23.243  1.00  0.00    -0.272 OA
BRANCH  75  78
ATOM     78  C   UNL A   1      31.716  27.101  24.481  1.00  0.00     0.207 C 
ATOM     79  C   UNL A   1      30.991  26.634  25.734  1.00  0.00     0.045 C 
ATOM     80  O   UNL A   1      31.598  26.036  23.547  1.00  0.00    -0.364 OA
ATOM     81  C   UNL A   1      29.890  25.766  25.180  1.00  0.00     0.037 C 
ATOM     82  C   UNL A   1      30.509  25.174  23.922  1.00  0.00     0.134 C 
BRANCH  82  83
ATOM     83  C   UNL A   1      31.052  23.751  24.090  1.00  0.00     0.130 C 
BRANCH  83  84
ATOM     84  N   UNL A   1      32.524  23.768  24.151  1.00  0.00    -0.213 NA
ATOM     85  H   UNL A   1      32.788  23.708  25.135  1.00  0.00     0.141 HD
BRANCH  84  86
ATOM     86  S   UNL A   1      33.348  22.567  23.340  1.00  0.00     0.214 S 
ATOM     87  O   UNL A   1      32.693  22.394  22.060  1.00  0.00    -0.212 OA
ATOM     88  O   UNL A   1      34.741  22.949  23.389  1.00  0.00    -0.212 OA
BRANCH  86  89
ATOM     89  C   UNL A   1      33.117  21.079  24.293  1.00  0.00     0.185 C 
BRANCH  89  90
ATOM     90  C   UNL A   1      33.519  21.089  25.758  1.00  0.00     0.134 C 
ATOM     91  C   UNL A   1      34.915  21.547  26.159  1.00  0.00     0.035 C 
ATOM     92  O   UNL A   1      32.574  21.850  26.534  1.00  0.00    -0.377 OA
ATOM     93  C   UNL A   1      34.671  22.818  26.937  1.00  0.00     0.031 C 
ATOM     94  C   UNL A   1      33.305  22.570  27.534  1.00  0.00     0.160 C 
ENDBRANCH  89  90
ENDBRANCH  86  89
ENDBRANCH  84  86
ENDBRANCH  83  84
ENDBRANCH  82  83
ENDBRANCH  75  78
ENDBRANCH  73  74
ENDBRANCH   1  73
TORSDOF 19
ENDMDL
MODEL 3
REMARK VINA RESULT:     -10.3      5.938     11.693
REMARK SMILES O=C(NCCCCNC(=O)[C@H]1CC[C@H](CNS(=O)(=O)C[C@H]2CCCO2)O1)c1ccc(-c2c3nc(c(-c4cc(S(=O)(=O)[O-])ccc4F)c4ccc([nH]4)c(-c4cc(S(=O)(=O)[O-])ccc4F)c4nc(c(-c5cc(S(=O)(=O)[O-])ccc5F)c5ccc2[nH]5)C=C4)C=C3)cc1
REMARK SMILES IDX 6 1 5 2 4 3 3 4 1 5 2 6 27 8 28 9 89 10 29 11 88 12 30 13
REMARK SMILES IDX 31 14 32 15 82 16 33 17 87 18 81 19 83 20 34 21 86 22 80 23
REMARK SMILES IDX 79 24 35 26 67 27 47 28 66 29 48 30 51 31 65 32 84 33 49 34
REMARK SMILES IDX 50 35 64 37 85 38 52 39 36 40 37 41 45 42 38 43 44 44 46 45
REMARK SMILES IDX 43 46 39 47 40 48 41 49 42 50 68 51 69 52 77 53 70 54 76 55
REMARK SMILES IDX 78 56 75 57 71 58 72 59 73 60 74 61 53 62 54 63 62 64 55 65
REMARK SMILES IDX 61 66 63 67 60 68 56 69 57 70 58 71 59 72 7 73 8 74 9 75
REMARK SMILES IDX 10 77 11 78 12 79 26 80 13 81 14 82 15 83 16 84 17 86 18 87
REMARK SMILES IDX 19 88 20 89 21 90 22 91 25 92 23 93 24 94
REMARK H PARENT 3 7 83 25 51 36 8 76 16 85
REMARK Flexibility Score: inf
ROOT
ATOM      1  C   UNL A   1      34.666  31.003  27.734  1.00  0.00     0.023 C 
ENDROOT
BRANCH   1   2
ATOM      2  C   UNL A   1      33.513  31.996  27.840  1.00  0.00     0.023 C 
BRANCH   2   3
ATOM      3  C   UNL A   1      33.870  33.414  27.434  1.00  0.00     0.116 C 
BRANCH   3   4
ATOM      4  N   UNL A   1      33.115  34.441  28.148  1.00  0.00    -0.352 N 
ATOM      5  O   UNL A   1      32.497  35.623  29.982  1.00  0.00    -0.269 OA
ATOM      6  C   UNL A   1      33.263  34.818  29.465  1.00  0.00     0.251 C 
ATOM      7  H   UNL A   1      32.426  34.915  27.630  1.00  0.00     0.163 HD
BRANCH   6   8
ATOM      8  C   UNL A   1      34.354  34.193  30.238  1.00  0.00     0.039 A 
ATOM      9  C   UNL A   1      35.674  34.468  29.877  1.00  0.00     0.014 A 
ATOM     10  C   UNL A   1      34.066  33.243  31.220  1.00  0.00     0.014 A 
ATOM     11  C   UNL A   1      36.687  33.653  30.349  1.00  0.00     0.010 A 
ATOM     12  C   UNL A   1      35.113  32.517  31.799  1.00  0.00     0.010 A 
ATOM     13  C   UNL A   1      36.429  32.692  31.344  1.00  0.00    -0.014 A 
BRANCH  13  14
ATOM     14  C   UNL A   1      37.590  31.969  31.928  1.00  0.00     0.031 A 
ATOM     15  C   UNL A   1      38.329  30.901  31.171  1.00  0.00     0.074 A 
ATOM     16  C   UNL A   1      38.017  32.361  33.146  1.00  0.00     0.049 A 
ATOM     17  N   UNL A   1      39.388  30.224  31.535  1.00  0.00    -0.248 NA
ATOM     18  C   UNL A   1      37.814  30.537  29.843  1.00  0.00     0.031 C 
ATOM     19  C   UNL A   1      37.362  33.384  33.972  1.00  0.00     0.029 A 
ATOM     20  N   UNL A   1      39.108  31.994  33.886  1.00  0.00    -0.354 N 
ATOM     21  C   UNL A   1      39.667  29.350  30.490  1.00  0.00     0.074 A 
ATOM     22  C   UNL A   1      38.636  29.555  29.493  1.00  0.00     0.031 C 
ATOM     23  C   UNL A   1      38.107  33.618  35.059  1.00  0.00     0.029 A 
ATOM     24  C   UNL A   1      39.228  32.690  35.067  1.00  0.00     0.049 A 
ATOM     25  H   UNL A   1      39.745  31.300  33.602  1.00  0.00     0.167 HD
ATOM     26  C   UNL A   1      40.692  28.468  30.375  1.00  0.00     0.034 A 
ATOM     27  C   UNL A   1      40.119  32.575  36.070  1.00  0.00     0.034 A 
ATOM     28  C   UNL A   1      41.705  28.276  31.389  1.00  0.00     0.049 A 
ATOM     29  C   UNL A   1      41.215  31.559  35.930  1.00  0.00     0.074 A 
ATOM     30  C   UNL A   1      42.784  27.409  31.377  1.00  0.00     0.029 A 
ATOM     31  N   UNL A   1      41.765  28.959  32.600  1.00  0.00    -0.354 N 
ATOM     32  N   UNL A   1      41.459  30.740  34.932  1.00  0.00    -0.248 NA
ATOM     33  C   UNL A   1      42.159  31.453  37.046  1.00  0.00     0.031 C 
ATOM     34  C   UNL A   1      43.453  27.517  32.602  1.00  0.00     0.029 A 
ATOM     35  C   UNL A   1      42.845  28.512  33.349  1.00  0.00     0.049 A 
ATOM     36  H   UNL A   1      41.132  29.657  32.884  1.00  0.00     0.167 HD
ATOM     37  C   UNL A   1      42.595  30.027  35.301  1.00  0.00     0.074 A 
ATOM     38  C   UNL A   1      43.010  30.549  36.588  1.00  0.00     0.031 C 
ATOM     39  C   UNL A   1      43.232  29.025  34.642  1.00  0.00     0.034 A 
BRANCH  26  40
ATOM     40  C   UNL A   1      40.751  27.616  29.127  1.00  0.00     0.023 A 
ATOM     41  C   UNL A   1      41.675  27.874  28.099  1.00  0.00     0.031 A 
ATOM     42  C   UNL A   1      39.882  26.521  28.968  1.00  0.00     0.131 A 
ATOM     43  C   UNL A   1      41.671  27.084  26.938  1.00  0.00     0.055 A 
ATOM     44  C   UNL A   1      39.935  25.693  27.844  1.00  0.00     0.041 A 
ATOM     45  F   UNL A   1      38.963  26.236  29.905  1.00  0.00    -0.206 F 
ATOM     46  C   UNL A   1      40.827  25.978  26.815  1.00  0.00     0.022 A 
BRANCH  43  47
ATOM     47  S   UNL A   1      42.705  27.594  25.537  1.00  0.00     0.124 S 
ATOM     48  O   UNL A   1      43.980  27.869  26.196  1.00  0.00    -0.237 OA
ATOM     49  O   UNL A   1      42.673  26.417  24.675  1.00  0.00    -0.237 OA
ATOM     50  O   UNL A   1      42.016  28.771  25.013  1.00  0.00    -0.744 OA
ENDBRANCH  43  47
ENDBRANCH  26  40
BRANCH  27  51
ATOM     51  C   UNL A   1      39.969  33.395  37.306  1.00  0.00     0.023 A 
ATOM     52  C   UNL A   1      39.371  32.872  38.461  1.00  0.00     0.031 A 
ATOM     53  C   UNL A   1      40.384  34.741  37.330  1.00  0.00     0.131 A 
ATOM     54  C   UNL A   1      39.152  33.704  39.570  1.00  0.00     0.055 A 
ATOM     55  C   UNL A   1      40.233  35.541  38.462  1.00  0.00     0.041 A 
ATOM     56  F   UNL A   1      40.962  35.295  36.253  1.00  0.00    -0.206 F 
ATOM     57  C   UNL A   1      39.595  35.028  39.586  1.00  0.00     0.022 A 
BRANCH  54  58
ATOM     58  S   UNL A   1      38.165  33.063  40.949  1.00  0.00     0.124 S 
ATOM     59  O   UNL A   1      36.807  33.225  40.442  1.00  0.00    -0.237 OA
ATOM     60  O   UNL A   1      38.651  31.692  41.057  1.00  0.00    -0.237 OA
ATOM     61  O   UNL A   1      38.526  33.941  42.061  1.00  0.00    -0.744 OA
ENDBRANCH  54  58
ENDBRANCH  27  51
BRANCH  39  62
ATOM     62  C   UNL A   1      44.462  28.460  35.312  1.00  0.00     0.023 A 
ATOM     63  C   UNL A   1      44.368  27.466  36.302  1.00  0.00     0.031 A 
ATOM     64  C   UNL A   1      45.736  28.965  35.001  1.00  0.00     0.131 A 
ATOM     65  C   UNL A   1      45.513  27.073  37.009  1.00  0.00     0.055 A 
ATOM     66  C   UNL A   1      46.884  28.512  35.654  1.00  0.00     0.041 A 
ATOM     67  F   UNL A   1      45.887  29.919  34.069  1.00  0.00    -0.206 F 
ATOM     68  C   UNL A   1      46.773  27.576  36.678  1.00  0.00     0.022 A 
BRANCH  65  69
ATOM     69  S   UNL A   1      45.311  26.002  38.459  1.00  0.00     0.124 S 
ATOM     70  O   UNL A   1      46.542  26.260  39.199  1.00  0.00    -0.237 OA
ATOM     71  O   UNL A   1      44.086  26.519  39.059  1.00  0.00    -0.237 OA
ATOM     72  O   UNL A   1      45.202  24.662  37.882  1.00  0.00    -0.744 OA
ENDBRANCH  65  69
ENDBRANCH  39  62
ENDBRANCH  13  14
ENDBRANCH   6   8
ENDBRANCH   3   4
ENDBRANCH   2   3
ENDBRANCH   1   2
BRANCH   1  73
ATOM     73  C   UNL A   1      34.297  29.683  27.059  1.00  0.00     0.116 C 
BRANCH  73  74
ATOM     74  N   UNL A   1      33.122  29.086  27.662  1.00  0.00    -0.354 N 
ATOM     75  C   UNL A   1      32.231  28.178  27.180  1.00  0.00     0.249 C 
ATOM     76  H   UNL A   1      32.938  29.390  28.580  1.00  0.00     0.163 HD
ATOM     77  O   UNL A   1      31.302  27.847  27.926  1.00  0.00    -0.272 OA
BRANCH  75  78
ATOM     78  C   UNL A   1      32.327  27.575  25.756  1.00  0.00     0.207 C 
ATOM     79  C   UNL A   1      31.051  27.843  24.972  1.00  0.00     0.045 C 
ATOM     80  O   UNL A   1      33.394  27.947  24.896  1.00  0.00    -0.364 OA
ATOM     81  C   UNL A   1      31.423  29.032  24.124  1.00  0.00     0.037 C 
ATOM     82  C   UNL A   1      32.909  28.829  23.867  1.00  0.00     0.134 C 
BRANCH  82  83
ATOM     83  C   UNL A   1      33.239  28.211  22.504  1.00  0.00     0.130 C 
BRANCH  83  84
ATOM     84  N   UNL A   1      33.563  26.781  22.654  1.00  0.00    -0.213 NA
ATOM     85  H   UNL A   1      33.415  26.536  23.634  1.00  0.00     0.141 HD
BRANCH  84  86
ATOM     86  S   UNL A   1      32.702  25.690  21.733  1.00  0.00     0.214 S 
ATOM     87  O   UNL A   1      31.299  25.911  22.016  1.00  0.00    -0.212 OA
ATOM     88  O   UNL A   1      33.197  25.842  20.385  1.00  0.00    -0.212 OA
BRANCH  86  89
ATOM     89  C   UNL A   1      33.147  24.074  22.339  1.00  0.00     0.185 C 
BRANCH  89  90
ATOM     90  C   UNL A   1      32.178  23.358  23.265  1.00  0.00     0.134 C 
ATOM     91  C   UNL A   1      32.271  21.848  23.441  1.00  0.00     0.035 C 
ATOM     92  O   UNL A   1      32.206  23.950  24.578  1.00  0.00    -0.377 OA
ATOM     93  C   UNL A   1      32.687  21.677  24.883  1.00  0.00     0.031 C 
ATOM     94  C   UNL A   1      32.081  22.895  25.538  1.00  0.00     0.160 C 
ENDBRANCH  89  90
ENDBRANCH  86  89
ENDBRANCH  84  86
ENDBRANCH  83  84
ENDBRANCH  82  83
ENDBRANCH  75  78
ENDBRANCH  73  74
ENDBRANCH   1  73
TORSDOF 19
ENDMDL
