MODEL 1
REMARK VINA RESULT:     -11.0      0.000      0.000
REMARK SMILES CCNS(=O)(=O)c1ccc(CC(=O)NCCCCNC(=O)c2ccc(-c3c4nc(c(-c5cc(S(=O)(=O)[O-])ccc5F)c5ccc([nH]5)c(-c5cc(S(=O)(=O)[O-])ccc5F)c5nc(c(-c6cc(S(=O)(=O)[O-])ccc6F)c6ccc3[nH]6)C=C5)C=C4)cc2)cc1
REMARK SMILES IDX 16 1 15 2 14 3 12 4 13 5 11 7 10 8 7 9 8 10 86 11 9 12 85 13
REMARK SMILES IDX 4 14 5 15 6 16 3 17 2 19 1 20 17 21 18 22 19 23 20 24 21 26
REMARK SMILES IDX 22 27 23 28 84 29 24 30 83 31 25 32 26 33 27 34 77 35 28 36
REMARK SMILES IDX 82 37 76 38 78 39 29 40 81 41 75 42 74 43 30 45 62 46 42 47
REMARK SMILES IDX 61 48 43 49 46 50 60 51 79 52 44 53 45 54 59 56 80 57 47 58
REMARK SMILES IDX 31 59 32 60 40 61 33 62 39 63 41 64 38 65 34 66 35 67 36 68
REMARK SMILES IDX 37 69 63 70 64 71 72 72 65 73 71 74 73 75 70 76 66 77 67 78
REMARK SMILES IDX 68 79 69 80 48 81 49 82 57 83 50 84 56 85 58 86 55 87 51 88
REMARK SMILES IDX 52 89 53 90 54 91
REMARK H PARENT 14 6 3 18 19 25 78 44 46 55
REMARK Flexibility Score: inf
ROOT
ATOM      1  C   UNL A   1      31.481  28.438  23.570  1.00  0.00     0.023 C 
ENDROOT
BRANCH   1   2
ATOM      2  C   UNL A   1      30.990  27.056  23.136  1.00  0.00     0.116 C 
BRANCH   2   3
ATOM      3  N   UNL A   1      31.618  26.633  21.899  1.00  0.00    -0.356 N 
ATOM      4  C   UNL A   1      32.911  26.248  21.685  1.00  0.00     0.224 C 
ATOM      5  O   UNL A   1      33.276  26.013  20.531  1.00  0.00    -0.275 OA
ATOM      6  H   UNL A   1      31.034  26.621  21.107  1.00  0.00     0.163 HD
BRANCH   4   7
ATOM      7  C   UNL A   1      33.859  26.076  22.862  1.00  0.00     0.135 C 
BRANCH   7   8
ATOM      8  C   UNL A   1      33.680  24.776  23.611  1.00  0.00    -0.039 A 
ATOM      9  C   UNL A   1      33.498  22.351  24.983  1.00  0.00     0.082 A 
ATOM     10  C   UNL A   1      33.280  22.385  23.602  1.00  0.00     0.022 A 
ATOM     11  C   UNL A   1      33.749  23.522  25.695  1.00  0.00     0.022 A 
ATOM     12  C   UNL A   1      33.379  23.595  22.918  1.00  0.00     0.005 A 
ATOM     13  C   UNL A   1      33.827  24.734  25.008  1.00  0.00     0.005 A 
BRANCH   9  14
ATOM     14  S   UNL A   1      33.432  20.795  25.830  1.00  0.00     0.240 S 
ATOM     15  O   UNL A   1      32.277  20.060  25.369  1.00  0.00    -0.207 OA
ATOM     16  O   UNL A   1      33.653  21.042  27.241  1.00  0.00    -0.207 OA
BRANCH  14  17
ATOM     17  N   UNL A   1      34.813  20.019  25.266  1.00  0.00    -0.211 NA
ATOM     18  H   UNL A   1      35.061  19.309  25.955  1.00  0.00     0.141 HD
BRANCH  17  19
ATOM     19  C   UNL A   1      36.014  20.820  25.019  1.00  0.00     0.095 C 
ATOM     20  C   UNL A   1      37.234  19.917  25.002  1.00  0.00     0.022 C 
ENDBRANCH  17  19
ENDBRANCH  14  17
ENDBRANCH   9  14
ENDBRANCH   7   8
ENDBRANCH   4   7
ENDBRANCH   2   3
ENDBRANCH   1   2
BRANCH   1  21
ATOM     21  C   UNL A   1      31.797  28.553  25.065  1.00  0.00     0.023 C 
BRANCH  21  22
ATOM     22  C   UNL A   1      32.985  29.444  25.411  1.00  0.00     0.116 C 
BRANCH  22  23
ATOM     23  N   UNL A   1      32.582  30.737  25.938  1.00  0.00    -0.352 N 
ATOM     24  C   UNL A   1      33.122  31.461  26.973  1.00  0.00     0.251 C 
ATOM     25  H   UNL A   1      31.812  31.154  25.489  1.00  0.00     0.163 HD
ATOM     26  O   UNL A   1      32.536  32.463  27.373  1.00  0.00    -0.269 OA
BRANCH  24  27
ATOM     27  C   UNL A   1      34.376  31.017  27.622  1.00  0.00     0.039 A 
ATOM     28  C   UNL A   1      35.394  31.954  27.817  1.00  0.00     0.014 A 
ATOM     29  C   UNL A   1      34.561  29.693  28.028  1.00  0.00     0.014 A 
ATOM     30  C   UNL A   1      36.570  31.573  28.467  1.00  0.00     0.010 A 
ATOM     31  C   UNL A   1      35.699  29.336  28.751  1.00  0.00     0.010 A 
ATOM     32  C   UNL A   1      36.720  30.270  28.973  1.00  0.00    -0.014 A 
BRANCH  32  33
ATOM     33  C   UNL A   1      37.944  29.889  29.729  1.00  0.00     0.031 A 
ATOM     34  C   UNL A   1      38.195  30.439  31.108  1.00  0.00     0.074 A 
ATOM     35  C   UNL A   1      38.840  29.057  29.160  1.00  0.00     0.049 A 
ATOM     36  N   UNL A   1      39.194  30.207  31.922  1.00  0.00    -0.248 NA
ATOM     37  C   UNL A   1      37.206  31.393  31.631  1.00  0.00     0.031 C 
ATOM     38  C   UNL A   1      38.732  28.497  27.811  1.00  0.00     0.029 A 
ATOM     39  N   UNL A   1      40.011  28.529  29.642  1.00  0.00    -0.354 N 
ATOM     40  C   UNL A   1      38.955  30.985  33.050  1.00  0.00     0.074 A 
ATOM     41  C   UNL A   1      37.756  31.750  32.783  1.00  0.00     0.031 C 
ATOM     42  C   UNL A   1      39.765  27.668  27.594  1.00  0.00     0.029 A 
ATOM     43  C   UNL A   1      40.638  27.675  28.763  1.00  0.00     0.049 A 
ATOM     44  H   UNL A   1      40.370  28.741  30.534  1.00  0.00     0.167 HD
ATOM     45  C   UNL A   1      39.655  31.035  34.211  1.00  0.00     0.034 A 
ATOM     46  C   UNL A   1      41.786  26.979  28.882  1.00  0.00     0.034 A 
ATOM     47  C   UNL A   1      40.851  30.266  34.461  1.00  0.00     0.049 A 
ATOM     48  C   UNL A   1      42.562  27.076  30.171  1.00  0.00     0.074 A 
ATOM     49  C   UNL A   1      41.613  30.208  35.615  1.00  0.00     0.029 A 
ATOM     50  N   UNL A   1      41.468  29.428  33.539  1.00  0.00    -0.354 N 
ATOM     51  N   UNL A   1      42.289  27.772  31.252  1.00  0.00    -0.248 NA
ATOM     52  C   UNL A   1      43.791  26.280  30.261  1.00  0.00     0.031 C 
ATOM     53  C   UNL A   1      42.731  29.405  35.364  1.00  0.00     0.029 A 
ATOM     54  C   UNL A   1      42.619  28.880  34.087  1.00  0.00     0.049 A 
ATOM     55  H   UNL A   1      41.137  29.250  32.630  1.00  0.00     0.167 HD
ATOM     56  C   UNL A   1      43.299  27.468  32.162  1.00  0.00     0.074 A 
ATOM     57  C   UNL A   1      44.166  26.508  31.510  1.00  0.00     0.031 C 
ATOM     58  C   UNL A   1      43.491  27.937  33.423  1.00  0.00     0.034 A 
BRANCH  45  59
ATOM     59  C   UNL A   1      39.154  31.973  35.286  1.00  0.00     0.023 A 
ATOM     60  C   UNL A   1      39.600  33.305  35.375  1.00  0.00     0.031 A 
ATOM     61  C   UNL A   1      38.234  31.528  36.251  1.00  0.00     0.131 A 
ATOM     62  C   UNL A   1      39.188  34.116  36.443  1.00  0.00     0.055 A 
ATOM     63  C   UNL A   1      37.757  32.368  37.260  1.00  0.00     0.041 A 
ATOM     64  F   UNL A   1      37.787  30.262  36.237  1.00  0.00    -0.206 F 
ATOM     65  C   UNL A   1      38.246  33.665  37.370  1.00  0.00     0.022 A 
BRANCH  62  66
ATOM     66  S   UNL A   1      40.018  35.709  36.692  1.00  0.00     0.124 S 
ATOM     67  O   UNL A   1      39.403  36.171  37.935  1.00  0.00    -0.237 OA
ATOM     68  O   UNL A   1      41.422  35.324  36.779  1.00  0.00    -0.237 OA
ATOM     69  O   UNL A   1      39.653  36.476  35.503  1.00  0.00    -0.744 OA
ENDBRANCH  62  66
ENDBRANCH  45  59
BRANCH  46  70
ATOM     70  C   UNL A   1      42.278  26.129  27.758  1.00  0.00     0.023 A 
ATOM     71  C   UNL A   1      41.839  24.806  27.600  1.00  0.00     0.031 A 
ATOM     72  C   UNL A   1      43.239  26.616  26.852  1.00  0.00     0.131 A 
ATOM     73  C   UNL A   1      42.398  23.996  26.597  1.00  0.00     0.055 A 
ATOM     74  C   UNL A   1      43.744  25.827  25.818  1.00  0.00     0.041 A 
ATOM     75  F   UNL A   1      43.693  27.875  26.954  1.00  0.00    -0.206 F 
ATOM     76  C   UNL A   1      43.335  24.503  25.695  1.00  0.00     0.022 A 
BRANCH  73  77
ATOM     77  S   UNL A   1      41.956  22.237  26.554  1.00  0.00     0.124 S 
ATOM     78  O   UNL A   1      42.486  21.767  27.829  1.00  0.00    -0.237 OA
ATOM     79  O   UNL A   1      40.503  22.293  26.444  1.00  0.00    -0.237 OA
ATOM     80  O   UNL A   1      42.651  21.743  25.368  1.00  0.00    -0.744 OA
ENDBRANCH  73  77
ENDBRANCH  46  70
BRANCH  58  81
ATOM     81  C   UNL A   1      44.665  27.375  34.191  1.00  0.00     0.023 A 
ATOM     82  C   UNL A   1      44.549  26.220  34.984  1.00  0.00     0.031 A 
ATOM     83  C   UNL A   1      45.910  28.029  34.161  1.00  0.00     0.131 A 
ATOM     84  C   UNL A   1      45.628  25.805  35.778  1.00  0.00     0.055 A 
ATOM     85  C   UNL A   1      47.005  27.564  34.890  1.00  0.00     0.041 A 
ATOM     86  F   UNL A   1      46.082  29.139  33.426  1.00  0.00    -0.206 F 
ATOM     87  C   UNL A   1      46.863  26.457  35.721  1.00  0.00     0.022 A 
BRANCH  84  88
ATOM     88  S   UNL A   1      45.354  24.487  36.995  1.00  0.00     0.124 S 
ATOM     89  O   UNL A   1      44.216  25.002  37.748  1.00  0.00    -0.237 OA
ATOM     90  O   UNL A   1      45.085  23.330  36.146  1.00  0.00    -0.237 OA
ATOM     91  O   UNL A   1      46.615  24.434  37.734  1.00  0.00    -0.744 OA
ENDBRANCH  84  88
ENDBRANCH  58  81
ENDBRANCH  32  33
ENDBRANCH  24  27
ENDBRANCH  22  23
ENDBRANCH  21  22
ENDBRANCH   1  21
TORSDOF 18
ENDMDL
MODEL 2
REMARK VINA RESULT:     -10.8      2.315      3.190
REMARK SMILES CCNS(=O)(=O)c1ccc(CC(=O)NCCCCNC(=O)c2ccc(-c3c4nc(c(-c5cc(S(=O)(=O)[O-])ccc5F)c5ccc([nH]5)c(-c5cc(S(=O)(=O)[O-])ccc5F)c5nc(c(-c6cc(S(=O)(=O)[O-])ccc6F)c6ccc3[nH]6)C=C5)C=C4)cc2)cc1
REMARK SMILES IDX 16 1 15 2 14 3 12 4 13 5 11 7 10 8 7 9 8 10 86 11 9 12 85 13
REMARK SMILES IDX 4 14 5 15 6 16 3 17 2 19 1 20 17 21 18 22 19 23 20 24 21 26
REMARK SMILES IDX 22 27 23 28 84 29 24 30 83 31 25 32 26 33 27 34 77 35 28 36
REMARK SMILES IDX 82 37 76 38 78 39 29 40 81 41 75 42 74 43 30 45 62 46 42 47
REMARK SMILES IDX 61 48 43 49 46 50 60 51 79 52 44 53 45 54 59 56 80 57 47 58
REMARK SMILES IDX 31 59 32 60 40 61 33 62 39 63 41 64 38 65 34 66 35 67 36 68
REMARK SMILES IDX 37 69 63 70 64 71 72 72 65 73 71 74 73 75 70 76 66 77 67 78
REMARK SMILES IDX 68 79 69 80 48 81 49 82 57 83 50 84 56 85 58 86 55 87 51 88
REMARK SMILES IDX 52 89 53 90 54 91
REMARK H PARENT 14 6 3 18 19 25 78 44 46 55
REMARK Flexibility Score: inf
ROOT
ATOM      1  C   UNL A   1      32.488  29.299  24.736  1.00  0.00     0.023 C 
ENDROOT
BRANCH   1   2
ATOM      2  C   UNL A   1      31.038  29.783  24.743  1.00  0.00     0.116 C 
BRANCH   2   3
ATOM      3  N   UNL A   1      30.533  29.969  23.396  1.00  0.00    -0.356 N 
ATOM      4  C   UNL A   1      29.803  29.106  22.629  1.00  0.00     0.224 C 
ATOM      5  O   UNL A   1      29.549  29.418  21.464  1.00  0.00    -0.275 OA
ATOM      6  H   UNL A   1      30.744  30.835  22.978  1.00  0.00     0.163 HD
BRANCH   4   7
ATOM      7  C   UNL A   1      29.285  27.808  23.229  1.00  0.00     0.135 C 
BRANCH   7   8
ATOM      8  C   UNL A   1      30.273  26.665  23.168  1.00  0.00    -0.039 A 
ATOM      9  C   UNL A   1      32.007  24.487  22.957  1.00  0.00     0.082 A 
ATOM     10  C   UNL A   1      31.047  24.513  23.973  1.00  0.00     0.022 A 
ATOM     11  C   UNL A   1      32.148  25.562  22.081  1.00  0.00     0.022 A 
ATOM     12  C   UNL A   1      30.176  25.598  24.072  1.00  0.00     0.005 A 
ATOM     13  C   UNL A   1      31.288  26.654  22.197  1.00  0.00     0.005 A 
BRANCH   9  14
ATOM     14  S   UNL A   1      33.064  23.073  22.803  1.00  0.00     0.240 S 
ATOM     15  O   UNL A   1      34.289  23.474  22.150  1.00  0.00    -0.207 OA
ATOM     16  O   UNL A   1      32.270  21.970  22.302  1.00  0.00    -0.207 OA
BRANCH  14  17
ATOM     17  N   UNL A   1      33.415  22.710  24.408  1.00  0.00    -0.211 NA
ATOM     18  H   UNL A   1      34.343  23.085  24.604  1.00  0.00     0.141 HD
BRANCH  17  19
ATOM     19  C   UNL A   1      33.419  21.306  24.822  1.00  0.00     0.095 C 
ATOM     20  C   UNL A   1      34.849  20.831  24.999  1.00  0.00     0.022 C 
ENDBRANCH  17  19
ENDBRANCH  14  17
ENDBRANCH   9  14
ENDBRANCH   7   8
ENDBRANCH   4   7
ENDBRANCH   2   3
ENDBRANCH   1   2
BRANCH   1  21
ATOM     21  C   UNL A   1      32.896  28.514  25.987  1.00  0.00     0.023 C 
BRANCH  21  22
ATOM     22  C   UNL A   1      34.049  29.116  26.783  1.00  0.00     0.116 C 
BRANCH  22  23
ATOM     23  N   UNL A   1      33.771  30.467  27.241  1.00  0.00    -0.352 N 
ATOM     24  C   UNL A   1      34.479  31.250  28.120  1.00  0.00     0.251 C 
ATOM     25  H   UNL A   1      32.959  30.880  26.869  1.00  0.00     0.163 HD
ATOM     26  O   UNL A   1      33.992  32.309  28.506  1.00  0.00    -0.269 OA
BRANCH  24  27
ATOM     27  C   UNL A   1      35.798  30.804  28.624  1.00  0.00     0.039 A 
ATOM     28  C   UNL A   1      35.838  29.783  29.577  1.00  0.00     0.014 A 
ATOM     29  C   UNL A   1      36.987  31.385  28.175  1.00  0.00     0.014 A 
ATOM     30  C   UNL A   1      37.071  29.312  30.035  1.00  0.00     0.010 A 
ATOM     31  C   UNL A   1      38.215  30.857  28.570  1.00  0.00     0.010 A 
ATOM     32  C   UNL A   1      38.272  29.819  29.511  1.00  0.00    -0.014 A 
BRANCH  32  33
ATOM     33  C   UNL A   1      39.582  29.264  29.947  1.00  0.00     0.031 A 
ATOM     34  C   UNL A   1      40.317  29.865  31.116  1.00  0.00     0.074 A 
ATOM     35  C   UNL A   1      40.116  28.225  29.274  1.00  0.00     0.049 A 
ATOM     36  N   UNL A   1      41.458  29.505  31.648  1.00  0.00    -0.248 NA
ATOM     37  C   UNL A   1      39.702  31.037  31.754  1.00  0.00     0.031 C 
ATOM     38  C   UNL A   1      39.522  27.588  28.096  1.00  0.00     0.029 A 
ATOM     39  N   UNL A   1      41.271  27.515  29.484  1.00  0.00    -0.354 N 
ATOM     40  C   UNL A   1      41.697  30.405  32.681  1.00  0.00     0.074 A 
ATOM     41  C   UNL A   1      40.619  31.370  32.651  1.00  0.00     0.031 C 
ATOM     42  C   UNL A   1      40.290  26.554  27.720  1.00  0.00     0.029 A 
ATOM     43  C   UNL A   1      41.458  26.482  28.593  1.00  0.00     0.049 A 
ATOM     44  H   UNL A   1      41.908  27.723  30.205  1.00  0.00     0.167 HD
ATOM     45  C   UNL A   1      42.706  30.410  33.588  1.00  0.00     0.034 A 
ATOM     46  C   UNL A   1      42.455  25.582  28.486  1.00  0.00     0.034 A 
ATOM     47  C   UNL A   1      43.776  29.440  33.602  1.00  0.00     0.049 A 
ATOM     48  C   UNL A   1      43.582  25.628  29.487  1.00  0.00     0.074 A 
ATOM     49  C   UNL A   1      44.824  29.325  34.500  1.00  0.00     0.029 A 
ATOM     50  N   UNL A   1      43.943  28.422  32.671  1.00  0.00    -0.354 N 
ATOM     51  N   UNL A   1      43.762  26.451  30.495  1.00  0.00    -0.248 NA
ATOM     52  C   UNL A   1      44.631  24.612  29.345  1.00  0.00     0.031 C 
ATOM     53  C   UNL A   1      45.666  28.297  34.065  1.00  0.00     0.029 A 
ATOM     54  C   UNL A   1      45.095  27.701  32.952  1.00  0.00     0.049 A 
ATOM     55  H   UNL A   1      43.333  28.239  31.920  1.00  0.00     0.167 HD
ATOM     56  C   UNL A   1      44.929  26.027  31.126  1.00  0.00     0.074 A 
ATOM     57  C   UNL A   1      45.390  24.863  30.399  1.00  0.00     0.031 C 
ATOM     58  C   UNL A   1      45.560  26.551  32.210  1.00  0.00     0.034 A 
BRANCH  45  59
ATOM     59  C   UNL A   1      42.711  31.515  34.620  1.00  0.00     0.023 A 
ATOM     60  C   UNL A   1      41.812  31.522  35.702  1.00  0.00     0.031 A 
ATOM     61  C   UNL A   1      43.612  32.589  34.512  1.00  0.00     0.131 A 
ATOM     62  C   UNL A   1      41.781  32.612  36.584  1.00  0.00     0.055 A 
ATOM     63  C   UNL A   1      43.637  33.628  35.445  1.00  0.00     0.041 A 
ATOM     64  F   UNL A   1      44.479  32.654  33.490  1.00  0.00    -0.206 F 
ATOM     65  C   UNL A   1      42.707  33.652  36.480  1.00  0.00     0.022 A 
BRANCH  62  66
ATOM     66  S   UNL A   1      40.414  32.729  37.770  1.00  0.00     0.124 S 
ATOM     67  O   UNL A   1      41.068  32.326  39.014  1.00  0.00    -0.237 OA
ATOM     68  O   UNL A   1      40.032  34.132  37.676  1.00  0.00    -0.237 OA
ATOM     69  O   UNL A   1      39.431  31.777  37.256  1.00  0.00    -0.744 OA
ENDBRANCH  62  66
ENDBRANCH  45  59
BRANCH  46  70
ATOM     70  C   UNL A   1      42.443  24.561  27.397  1.00  0.00     0.023 A 
ATOM     71  C   UNL A   1      41.618  23.428  27.471  1.00  0.00     0.031 A 
ATOM     72  C   UNL A   1      43.299  24.680  26.287  1.00  0.00     0.131 A 
ATOM     73  C   UNL A   1      41.705  22.432  26.485  1.00  0.00     0.055 A 
ATOM     74  C   UNL A   1      43.336  23.718  25.276  1.00  0.00     0.041 A 
ATOM     75  F   UNL A   1      44.108  25.744  26.162  1.00  0.00    -0.206 F 
ATOM     76  C   UNL A   1      42.546  22.577  25.380  1.00  0.00     0.022 A 
BRANCH  73  77
ATOM     77  S   UNL A   1      40.776  20.892  26.722  1.00  0.00     0.124 S 
ATOM     78  O   UNL A   1      40.748  20.783  28.175  1.00  0.00    -0.237 OA
ATOM     79  O   UNL A   1      39.505  21.203  26.076  1.00  0.00    -0.237 OA
ATOM     80  O   UNL A   1      41.594  19.894  26.036  1.00  0.00    -0.744 OA
ENDBRANCH  73  77
ENDBRANCH  46  70
BRANCH  58  81
ATOM     81  C   UNL A   1      46.797  25.830  32.695  1.00  0.00     0.023 A 
ATOM     82  C   UNL A   1      46.734  24.828  33.679  1.00  0.00     0.031 A 
ATOM     83  C   UNL A   1      48.064  26.180  32.195  1.00  0.00     0.131 A 
ATOM     84  C   UNL A   1      47.916  24.273  34.191  1.00  0.00     0.055 A 
ATOM     85  C   UNL A   1      49.232  25.567  32.650  1.00  0.00     0.041 A 
ATOM     86  F   UNL A   1      48.190  27.133  31.258  1.00  0.00    -0.206 F 
ATOM     87  C   UNL A   1      49.164  24.621  33.668  1.00  0.00     0.022 A 
BRANCH  84  88
ATOM     88  S   UNL A   1      47.810  23.197  35.648  1.00  0.00     0.124 S 
ATOM     89  O   UNL A   1      46.376  22.942  35.732  1.00  0.00    -0.237 OA
ATOM     90  O   UNL A   1      48.637  22.060  35.256  1.00  0.00    -0.237 OA
ATOM     91  O   UNL A   1      48.358  24.021  36.724  1.00  0.00    -0.744 OA
ENDBRANCH  84  88
ENDBRANCH  58  81
ENDBRANCH  32  33
ENDBRANCH  24  27
ENDBRANCH  22  23
ENDBRANCH  21  22
ENDBRANCH   1  21
TORSDOF 18
ENDMDL
MODEL 3
REMARK VINA RESULT:     -10.6      2.755      3.516
REMARK SMILES CCNS(=O)(=O)c1ccc(CC(=O)NCCCCNC(=O)c2ccc(-c3c4nc(c(-c5cc(S(=O)(=O)[O-])ccc5F)c5ccc([nH]5)c(-c5cc(S(=O)(=O)[O-])ccc5F)c5nc(c(-c6cc(S(=O)(=O)[O-])ccc6F)c6ccc3[nH]6)C=C5)C=C4)cc2)cc1
REMARK SMILES IDX 16 1 15 2 14 3 12 4 13 5 11 7 10 8 7 9 8 10 86 11 9 12 85 13
REMARK SMILES IDX 4 14 5 15 6 16 3 17 2 19 1 20 17 21 18 22 19 23 20 24 21 26
REMARK SMILES IDX 22 27 23 28 84 29 24 30 83 31 25 32 26 33 27 34 77 35 28 36
REMARK SMILES IDX 82 37 76 38 78 39 29 40 81 41 75 42 74 43 30 45 62 46 42 47
REMARK SMILES IDX 61 48 43 49 46 50 60 51 79 52 44 53 45 54 59 56 80 57 47 58
REMARK SMILES IDX 31 59 32 60 40 61 33 62 39 63 41 64 38 65 34 66 35 67 36 68
REMARK SMILES IDX 37 69 63 70 64 71 72 72 65 73 71 74 73 75 70 76 66 77 67 78
REMARK SMILES IDX 68 79 69 80 48 81 49 82 57 83 50 84 56 85 58 86 55 87 51 88
REMARK SMILES IDX 52 89 53 90 54 91
REMARK H PARENT 14 6 3 18 19 25 78 44 46 55
REMARK Flexibility Score: inf
ROOT
ATOM      1  C   UNL A   1      32.539  29.436  24.832  1.00  0.00     0.023 C 
ENDROOT
BRANCH   1   2
ATOM      2  C   UNL A   1      31.069  29.857  24.806  1.00  0.00     0.116 C 
BRANCH   2   3
ATOM      3  N   UNL A   1      30.590  30.033  23.449  1.00  0.00    -0.356 N 
ATOM      4  C   UNL A   1      29.883  29.159  22.672  1.00  0.00     0.224 C 
ATOM      5  O   UNL A   1      29.650  29.463  21.500  1.00  0.00    -0.275 OA
ATOM      6  H   UNL A   1      30.802  30.898  23.031  1.00  0.00     0.163 HD
BRANCH   4   7
ATOM      7  C   UNL A   1      29.365  27.859  23.268  1.00  0.00     0.135 C 
BRANCH   7   8
ATOM      8  C   UNL A   1      30.367  26.728  23.242  1.00  0.00    -0.039 A 
ATOM      9  C   UNL A   1      32.124  24.562  23.108  1.00  0.00     0.082 A 
ATOM     10  C   UNL A   1      31.226  24.661  24.174  1.00  0.00     0.022 A 
ATOM     11  C   UNL A   1      32.195  25.562  22.138  1.00  0.00     0.022 A 
ATOM     12  C   UNL A   1      30.344  25.739  24.235  1.00  0.00     0.005 A 
ATOM     13  C   UNL A   1      31.324  26.649  22.216  1.00  0.00     0.005 A 
BRANCH   9  14
ATOM     14  S   UNL A   1      33.196  23.154  23.008  1.00  0.00     0.240 S 
ATOM     15  O   UNL A   1      34.367  23.511  22.241  1.00  0.00    -0.207 OA
ATOM     16  O   UNL A   1      32.391  22.001  22.660  1.00  0.00    -0.207 OA
BRANCH  14  17
ATOM     17  N   UNL A   1      33.658  22.940  24.610  1.00  0.00    -0.211 NA
ATOM     18  H   UNL A   1      34.587  23.349  24.712  1.00  0.00     0.141 HD
BRANCH  17  19
ATOM     19  C   UNL A   1      33.725  21.577  25.143  1.00  0.00     0.095 C 
ATOM     20  C   UNL A   1      35.072  20.964  24.807  1.00  0.00     0.022 C 
ENDBRANCH  17  19
ENDBRANCH  14  17
ENDBRANCH   9  14
ENDBRANCH   7   8
ENDBRANCH   4   7
ENDBRANCH   2   3
ENDBRANCH   1   2
BRANCH   1  21
ATOM     21  C   UNL A   1      32.952  28.669  26.092  1.00  0.00     0.023 C 
BRANCH  21  22
ATOM     22  C   UNL A   1      34.130  29.262  26.857  1.00  0.00     0.116 C 
BRANCH  22  23
ATOM     23  N   UNL A   1      33.868  30.609  27.335  1.00  0.00    -0.352 N 
ATOM     24  C   UNL A   1      34.572  31.362  28.244  1.00  0.00     0.251 C 
ATOM     25  H   UNL A   1      33.072  31.045  26.954  1.00  0.00     0.163 HD
ATOM     26  O   UNL A   1      34.097  32.423  28.639  1.00  0.00    -0.269 OA
BRANCH  24  27
ATOM     27  C   UNL A   1      35.872  30.881  28.765  1.00  0.00     0.039 A 
ATOM     28  C   UNL A   1      35.872  29.851  29.709  1.00  0.00     0.014 A 
ATOM     29  C   UNL A   1      37.081  31.439  28.343  1.00  0.00     0.014 A 
ATOM     30  C   UNL A   1      37.085  29.347  30.184  1.00  0.00     0.010 A 
ATOM     31  C   UNL A   1      38.290  30.880  28.754  1.00  0.00     0.010 A 
ATOM     32  C   UNL A   1      38.307  29.832  29.685  1.00  0.00    -0.014 A 
BRANCH  32  33
ATOM     33  C   UNL A   1      39.596  29.243  30.139  1.00  0.00     0.031 A 
ATOM     34  C   UNL A   1      40.294  29.778  31.360  1.00  0.00     0.074 A 
ATOM     35  C   UNL A   1      40.145  28.233  29.434  1.00  0.00     0.049 A 
ATOM     36  N   UNL A   1      41.413  29.381  31.913  1.00  0.00    -0.248 NA
ATOM     37  C   UNL A   1      39.667  30.923  32.035  1.00  0.00     0.031 C 
ATOM     38  C   UNL A   1      39.588  27.662  28.205  1.00  0.00     0.029 A 
ATOM     39  N   UNL A   1      41.287  27.502  29.648  1.00  0.00    -0.354 N 
ATOM     40  C   UNL A   1      41.623  30.226  32.997  1.00  0.00     0.074 A 
ATOM     41  C   UNL A   1      40.555  31.202  32.978  1.00  0.00     0.031 C 
ATOM     42  C   UNL A   1      40.361  26.640  27.805  1.00  0.00     0.029 A 
ATOM     43  C   UNL A   1      41.496  26.514  28.713  1.00  0.00     0.049 A 
ATOM     44  H   UNL A   1      41.899  27.669  30.400  1.00  0.00     0.167 HD
ATOM     45  C   UNL A   1      42.600  30.176  33.938  1.00  0.00     0.034 A 
ATOM     46  C   UNL A   1      42.489  25.610  28.596  1.00  0.00     0.034 A 
ATOM     47  C   UNL A   1      43.660  29.196  33.942  1.00  0.00     0.049 A 
ATOM     48  C   UNL A   1      43.580  25.595  29.637  1.00  0.00     0.074 A 
ATOM     49  C   UNL A   1      44.675  29.027  34.868  1.00  0.00     0.029 A 
ATOM     50  N   UNL A   1      43.851  28.224  32.967  1.00  0.00    -0.354 N 
ATOM     51  N   UNL A   1      43.731  26.366  30.690  1.00  0.00    -0.248 NA
ATOM     52  C   UNL A   1      44.625  24.577  29.480  1.00  0.00     0.031 C 
ATOM     53  C   UNL A   1      45.523  28.013  34.412  1.00  0.00     0.029 A 
ATOM     54  C   UNL A   1      44.988  27.479  33.251  1.00  0.00     0.049 A 
ATOM     55  H   UNL A   1      43.267  28.085  32.187  1.00  0.00     0.167 HD
ATOM     56  C   UNL A   1      44.872  25.899  31.340  1.00  0.00     0.074 A 
ATOM     57  C   UNL A   1      45.349  24.768  30.572  1.00  0.00     0.031 C 
ATOM     58  C   UNL A   1      45.469  26.363  32.469  1.00  0.00     0.034 A 
BRANCH  45  59
ATOM     59  C   UNL A   1      42.577  31.228  35.024  1.00  0.00     0.023 A 
ATOM     60  C   UNL A   1      43.199  32.479  34.857  1.00  0.00     0.031 A 
ATOM     61  C   UNL A   1      41.943  30.973  36.252  1.00  0.00     0.131 A 
ATOM     62  C   UNL A   1      43.240  33.393  35.921  1.00  0.00     0.055 A 
ATOM     63  C   UNL A   1      41.909  31.922  37.277  1.00  0.00     0.041 A 
ATOM     64  F   UNL A   1      41.351  29.791  36.485  1.00  0.00    -0.206 F 
ATOM     65  C   UNL A   1      42.574  33.134  37.121  1.00  0.00     0.022 A 
BRANCH  62  66
ATOM     66  S   UNL A   1      44.307  34.851  35.770  1.00  0.00     0.124 S 
ATOM     67  O   UNL A   1      43.376  35.844  35.237  1.00  0.00    -0.237 OA
ATOM     68  O   UNL A   1      44.749  35.063  37.143  1.00  0.00    -0.237 OA
ATOM     69  O   UNL A   1      45.347  34.421  34.838  1.00  0.00    -0.744 OA
ENDBRANCH  62  66
ENDBRANCH  45  59
BRANCH  46  70
ATOM     70  C   UNL A   1      42.508  24.645  27.458  1.00  0.00     0.023 A 
ATOM     71  C   UNL A   1      41.673  23.516  27.448  1.00  0.00     0.031 A 
ATOM     72  C   UNL A   1      43.401  24.812  26.384  1.00  0.00     0.131 A 
ATOM     73  C   UNL A   1      41.787  22.569  26.417  1.00  0.00     0.055 A 
ATOM     74  C   UNL A   1      43.465  23.901  25.328  1.00  0.00     0.041 A 
ATOM     75  F   UNL A   1      44.221  25.874  26.340  1.00  0.00    -0.206 F 
ATOM     76  C   UNL A   1      42.666  22.763  25.349  1.00  0.00     0.022 A 
BRANCH  73  77
ATOM     77  S   UNL A   1      40.841  21.027  26.545  1.00  0.00     0.124 S 
ATOM     78  O   UNL A   1      40.782  20.834  27.989  1.00  0.00    -0.237 OA
ATOM     79  O   UNL A   1      39.586  21.387  25.894  1.00  0.00    -0.237 OA
ATOM     80  O   UNL A   1      41.664  20.063  25.819  1.00  0.00    -0.744 OA
ENDBRANCH  73  77
ENDBRANCH  46  70
BRANCH  58  81
ATOM     81  C   UNL A   1      46.682  25.607  32.961  1.00  0.00     0.023 A 
ATOM     82  C   UNL A   1      47.977  25.899  32.497  1.00  0.00     0.031 A 
ATOM     83  C   UNL A   1      46.536  24.550  33.877  1.00  0.00     0.131 A 
ATOM     84  C   UNL A   1      49.058  25.092  32.883  1.00  0.00     0.055 A 
ATOM     85  C   UNL A   1      47.627  23.802  34.320  1.00  0.00     0.041 A 
ATOM     86  F   UNL A   1      45.325  24.220  34.353  1.00  0.00    -0.206 F 
ATOM     87  C   UNL A   1      48.895  24.058  33.808  1.00  0.00     0.022 A 
BRANCH  84  88
ATOM     88  S   UNL A   1      50.653  25.322  32.049  1.00  0.00     0.124 S 
ATOM     89  O   UNL A   1      50.460  26.600  31.374  1.00  0.00    -0.237 OA
ATOM     90  O   UNL A   1      51.591  25.327  33.167  1.00  0.00    -0.237 OA
ATOM     91  O   UNL A   1      50.748  24.161  31.165  1.00  0.00    -0.744 OA
ENDBRANCH  84  88
ENDBRANCH  58  81
ENDBRANCH  32  33
ENDBRANCH  24  27
ENDBRANCH  22  23
ENDBRANCH  21  22
ENDBRANCH   1  21
TORSDOF 18
ENDMDL
