MODEL 1
REMARK VINA RESULT:     -11.9      0.000      0.000
REMARK SMILES O=C(CC1CC[NH+](C[C@@H]2Cc3ccccc32)CC1)NCCCCNC(=O)c1ccc(-c2c3nc(c(-c4cc(S(=O)(=O)[O-])ccc4F)c4ccc([nH]4)c(-c4cc(S(=O)(=O)[O-])ccc4F)c4nc(c(-c5cc(S(=O)(=O)[O-])ccc5F)c5ccc2[nH]5)C=C4)C=C3)cc1
REMARK SMILES IDX 21 1 20 2 19 3 1 4 2 5 3 7 4 8 5 9 18 10 6 11 17 12 7 13
REMARK SMILES IDX 8 15 9 16 10 17 16 18 11 19 15 20 12 21 14 22 13 23 22 24
REMARK SMILES IDX 23 25 24 26 25 27 26 29 27 30 28 31 89 32 29 33 88 34 30 35
REMARK SMILES IDX 31 36 32 37 82 38 33 39 87 40 81 41 83 42 34 43 86 44 80 45
REMARK SMILES IDX 79 46 35 48 67 49 47 50 66 51 48 52 51 53 65 54 84 55 49 56
REMARK SMILES IDX 50 57 64 59 85 60 52 61 36 62 37 63 45 64 38 65 44 66 46 67
REMARK SMILES IDX 43 68 39 69 40 70 41 71 42 72 68 73 69 74 77 75 70 76 76 77
REMARK SMILES IDX 78 78 75 79 71 80 72 81 73 82 74 83 53 84 54 85 62 86 55 87
REMARK SMILES IDX 61 88 63 89 60 90 56 91 57 92 58 93 59 94
REMARK H PARENT 19 6 7 14 24 28 83 47 51 58
REMARK Flexibility Score: inf
ROOT
ATOM      1  C   UNL A   1      33.429  28.385  25.135  1.00  0.00     0.023 C 
ENDROOT
BRANCH   1   2
ATOM      2  C   UNL A   1      33.612  27.769  23.739  1.00  0.00     0.116 C 
BRANCH   2   3
ATOM      3  N   UNL A   1      33.638  26.318  23.729  1.00  0.00    -0.356 N 
ATOM      4  O   UNL A   1      33.608  26.025  21.463  1.00  0.00    -0.275 OA
ATOM      5  C   UNL A   1      33.622  25.539  22.592  1.00  0.00     0.220 C 
ATOM      6  H   UNL A   1      33.667  25.855  24.597  1.00  0.00     0.163 HD
BRANCH   5   7
ATOM      7  C   UNL A   1      33.466  24.026  22.798  1.00  0.00     0.104 C 
BRANCH   7   8
ATOM      8  C   UNL A   1      32.095  23.326  22.712  1.00  0.00     0.009 C 
ATOM      9  C   UNL A   1      31.256  23.616  23.980  1.00  0.00     0.066 C 
ATOM     10  C   UNL A   1      32.102  21.808  22.570  1.00  0.00     0.066 C 
ATOM     11  C   UNL A   1      31.817  22.933  25.241  1.00  0.00     0.262 C 
ATOM     12  C   UNL A   1      32.705  21.104  23.788  1.00  0.00     0.262 C 
ATOM     13  N   UNL A   1      32.161  21.529  25.066  1.00  0.00    -0.334 N 
ATOM     14  H   UNL A   1      31.210  21.162  25.044  1.00  0.00     0.348 HD
BRANCH  13  15
ATOM     15  C   UNL A   1      32.825  20.872  26.209  1.00  0.00     0.270 C 
BRANCH  15  16
ATOM     16  C   UNL A   1      34.153  21.402  26.793  1.00  0.00     0.079 C 
ATOM     17  C   UNL A   1      34.180  22.927  27.184  1.00  0.00     0.050 C 
ATOM     18  C   UNL A   1      35.380  21.713  25.971  1.00  0.00    -0.036 A 
ATOM     19  C   UNL A   1      35.439  23.022  26.373  1.00  0.00    -0.043 A 
ATOM     20  C   UNL A   1      36.341  21.203  25.136  1.00  0.00     0.004 A 
ATOM     21  C   UNL A   1      36.432  23.881  25.953  1.00  0.00     0.004 A 
ATOM     22  C   UNL A   1      37.365  22.038  24.683  1.00  0.00     0.000 A 
ATOM     23  C   UNL A   1      37.410  23.376  25.092  1.00  0.00     0.000 A 
ENDBRANCH  15  16
ENDBRANCH  13  15
ENDBRANCH   7   8
ENDBRANCH   5   7
ENDBRANCH   2   3
ENDBRANCH   1   2
BRANCH   1  24
ATOM     24  C   UNL A   1      32.405  29.514  25.342  1.00  0.00     0.023 C 
BRANCH  24  25
ATOM     25  C   UNL A   1      32.232  30.074  26.746  1.00  0.00     0.116 C 
BRANCH  25  26
ATOM     26  N   UNL A   1      32.353  31.515  26.747  1.00  0.00    -0.352 N 
ATOM     27  C   UNL A   1      33.255  32.303  27.425  1.00  0.00     0.251 C 
ATOM     28  H   UNL A   1      31.702  31.998  26.188  1.00  0.00     0.163 HD
ATOM     29  O   UNL A   1      32.983  33.487  27.604  1.00  0.00    -0.269 OA
BRANCH  27  30
ATOM     30  C   UNL A   1      34.541  31.752  27.932  1.00  0.00     0.039 A 
ATOM     31  C   UNL A   1      34.607  30.394  28.265  1.00  0.00     0.014 A 
ATOM     32  C   UNL A   1      35.645  32.574  28.186  1.00  0.00     0.014 A 
ATOM     33  C   UNL A   1      35.766  29.863  28.844  1.00  0.00     0.010 A 
ATOM     34  C   UNL A   1      36.824  32.031  28.707  1.00  0.00     0.010 A 
ATOM     35  C   UNL A   1      36.887  30.676  29.072  1.00  0.00    -0.014 A 
BRANCH  35  36
ATOM     36  C   UNL A   1      38.099  30.147  29.761  1.00  0.00     0.031 A 
ATOM     37  C   UNL A   1      38.422  30.599  31.164  1.00  0.00     0.074 A 
ATOM     38  C   UNL A   1      38.927  29.295  29.126  1.00  0.00     0.049 A 
ATOM     39  N   UNL A   1      39.461  30.322  31.911  1.00  0.00    -0.248 NA
ATOM     40  C   UNL A   1      37.455  31.508  31.798  1.00  0.00     0.031 C 
ATOM     41  C   UNL A   1      38.741  28.794  27.764  1.00  0.00     0.029 A 
ATOM     42  N   UNL A   1      40.098  28.706  29.538  1.00  0.00    -0.354 N 
ATOM     43  C   UNL A   1      39.287  31.040  33.090  1.00  0.00     0.074 A 
ATOM     44  C   UNL A   1      38.067  31.805  32.934  1.00  0.00     0.031 C 
ATOM     45  C   UNL A   1      39.751  27.961  27.460  1.00  0.00     0.029 A 
ATOM     46  C   UNL A   1      40.677  27.898  28.588  1.00  0.00     0.049 A 
ATOM     47  H   UNL A   1      40.486  28.849  30.431  1.00  0.00     0.167 HD
ATOM     48  C   UNL A   1      40.059  31.048  34.207  1.00  0.00     0.034 A 
ATOM     49  C   UNL A   1      41.827  27.195  28.615  1.00  0.00     0.034 A 
ATOM     50  C   UNL A   1      41.257  30.259  34.360  1.00  0.00     0.049 A 
ATOM     51  C   UNL A   1      42.678  27.227  29.862  1.00  0.00     0.074 A 
ATOM     52  C   UNL A   1      42.079  30.144  35.469  1.00  0.00     0.029 A 
ATOM     53  N   UNL A   1      41.810  29.451  33.374  1.00  0.00    -0.354 N 
ATOM     54  N   UNL A   1      42.477  27.881  30.982  1.00  0.00    -0.248 NA
ATOM     55  C   UNL A   1      43.902  26.416  29.849  1.00  0.00     0.031 C 
ATOM     56  C   UNL A   1      43.159  29.317  35.134  1.00  0.00     0.029 A 
ATOM     57  C   UNL A   1      42.976  28.860  33.839  1.00  0.00     0.049 A 
ATOM     58  H   UNL A   1      41.431  29.319  32.476  1.00  0.00     0.167 HD
ATOM     59  C   UNL A   1      43.536  27.535  31.817  1.00  0.00     0.074 A 
ATOM     60  C   UNL A   1      44.364  26.607  31.076  1.00  0.00     0.031 C 
ATOM     61  C   UNL A   1      43.798  27.944  33.086  1.00  0.00     0.034 A 
BRANCH  48  62
ATOM     62  C   UNL A   1      39.643  31.964  35.334  1.00  0.00     0.023 A 
ATOM     63  C   UNL A   1      38.921  31.493  36.445  1.00  0.00     0.031 A 
ATOM     64  C   UNL A   1      39.946  33.337  35.284  1.00  0.00     0.131 A 
ATOM     65  C   UNL A   1      38.456  32.396  37.414  1.00  0.00     0.055 A 
ATOM     66  C   UNL A   1      39.552  34.217  36.295  1.00  0.00     0.041 A 
ATOM     67  F   UNL A   1      40.618  33.852  34.241  1.00  0.00    -0.206 F 
ATOM     68  C   UNL A   1      38.787  33.751  37.359  1.00  0.00     0.022 A 
BRANCH  65  69
ATOM     69  S   UNL A   1      37.284  31.797  38.663  1.00  0.00     0.124 S 
ATOM     70  O   UNL A   1      37.000  30.448  38.176  1.00  0.00    -0.237 OA
ATOM     71  O   UNL A   1      38.061  31.884  39.892  1.00  0.00    -0.237 OA
ATOM     72  O   UNL A   1      36.166  32.735  38.561  1.00  0.00    -0.744 OA
ENDBRANCH  65  69
ENDBRANCH  48  62
BRANCH  49  73
ATOM     73  C   UNL A   1      42.257  26.403  27.428  1.00  0.00     0.023 A 
ATOM     74  C   UNL A   1      41.975  25.032  27.334  1.00  0.00     0.031 A 
ATOM     75  C   UNL A   1      42.992  26.998  26.387  1.00  0.00     0.131 A 
ATOM     76  C   UNL A   1      42.462  24.289  26.248  1.00  0.00     0.055 A 
ATOM     77  C   UNL A   1      43.433  26.266  25.284  1.00  0.00     0.041 A 
ATOM     78  F   UNL A   1      43.284  28.309  26.425  1.00  0.00    -0.206 F 
ATOM     79  C   UNL A   1      43.178  24.900  25.215  1.00  0.00     0.022 A 
BRANCH  76  80
ATOM     80  S   UNL A   1      42.209  22.493  26.239  1.00  0.00     0.124 S 
ATOM     81  O   UNL A   1      42.835  22.098  27.495  1.00  0.00    -0.237 OA
ATOM     82  O   UNL A   1      40.754  22.393  26.186  1.00  0.00    -0.237 OA
ATOM     83  O   UNL A   1      42.905  22.057  25.029  1.00  0.00    -0.744 OA
ENDBRANCH  76  80
ENDBRANCH  49  73
BRANCH  61  84
ATOM     84  C   UNL A   1      45.008  27.346  33.761  1.00  0.00     0.023 A 
ATOM     85  C   UNL A   1      44.932  26.148  34.492  1.00  0.00     0.031 A 
ATOM     86  C   UNL A   1      46.253  27.996  33.681  1.00  0.00     0.131 A 
ATOM     87  C   UNL A   1      46.067  25.664  35.160  1.00  0.00     0.055 A 
ATOM     88  C   UNL A   1      47.392  27.480  34.300  1.00  0.00     0.041 A 
ATOM     89  F   UNL A   1      46.382  29.143  32.996  1.00  0.00    -0.206 F 
ATOM     90  C   UNL A   1      47.300  26.313  35.055  1.00  0.00     0.022 A 
BRANCH  87  91
ATOM     91  S   UNL A   1      45.893  24.215  36.238  1.00  0.00     0.124 S 
ATOM     92  O   UNL A   1      47.221  23.617  36.160  1.00  0.00    -0.237 OA
ATOM     93  O   UNL A   1      45.540  24.820  37.518  1.00  0.00    -0.237 OA
ATOM     94  O   UNL A   1      44.825  23.442  35.604  1.00  0.00    -0.744 OA
ENDBRANCH  87  91
ENDBRANCH  61  84
ENDBRANCH  35  36
ENDBRANCH  27  30
ENDBRANCH  25  26
ENDBRANCH  24  25
ENDBRANCH   1  24
TORSDOF 17
ENDMDL
MODEL 2
REMARK VINA RESULT:     -11.9      2.364      8.130
REMARK SMILES O=C(CC1CC[NH+](C[C@@H]2Cc3ccccc32)CC1)NCCCCNC(=O)c1ccc(-c2c3nc(c(-c4cc(S(=O)(=O)[O-])ccc4F)c4ccc([nH]4)c(-c4cc(S(=O)(=O)[O-])ccc4F)c4nc(c(-c5cc(S(=O)(=O)[O-])ccc5F)c5ccc2[nH]5)C=C4)C=C3)cc1
REMARK SMILES IDX 21 1 20 2 19 3 1 4 2 5 3 7 4 8 5 9 18 10 6 11 17 12 7 13
REMARK SMILES IDX 8 15 9 16 10 17 16 18 11 19 15 20 12 21 14 22 13 23 22 24
REMARK SMILES IDX 23 25 24 26 25 27 26 29 27 30 28 31 89 32 29 33 88 34 30 35
REMARK SMILES IDX 31 36 32 37 82 38 33 39 87 40 81 41 83 42 34 43 86 44 80 45
REMARK SMILES IDX 79 46 35 48 67 49 47 50 66 51 48 52 51 53 65 54 84 55 49 56
REMARK SMILES IDX 50 57 64 59 85 60 52 61 36 62 37 63 45 64 38 65 44 66 46 67
REMARK SMILES IDX 43 68 39 69 40 70 41 71 42 72 68 73 69 74 77 75 70 76 76 77
REMARK SMILES IDX 78 78 75 79 71 80 72 81 73 82 74 83 53 84 54 85 62 86 55 87
REMARK SMILES IDX 61 88 63 89 60 90 56 91 57 92 58 93 59 94
REMARK H PARENT 19 6 7 14 24 28 83 47 51 58
REMARK Flexibility Score: inf
ROOT
ATOM      1  C   UNL A   1      31.716  30.534  26.034  1.00  0.00     0.023 C 
ENDROOT
BRANCH   1   2
ATOM      2  C   UNL A   1      31.943  29.237  26.827  1.00  0.00     0.116 C 
BRANCH   2   3
ATOM      3  N   UNL A   1      31.745  28.025  26.053  1.00  0.00    -0.356 N 
ATOM      4  O   UNL A   1      33.884  27.231  26.172  1.00  0.00    -0.275 OA
ATOM      5  C   UNL A   1      32.731  27.106  25.765  1.00  0.00     0.220 C 
ATOM      6  H   UNL A   1      30.841  27.847  25.707  1.00  0.00     0.163 HD
BRANCH   5   7
ATOM      7  C   UNL A   1      32.362  25.990  24.780  1.00  0.00     0.104 C 
BRANCH   7   8
ATOM      8  C   UNL A   1      30.921  25.455  24.651  1.00  0.00     0.009 C 
ATOM      9  C   UNL A   1      30.454  24.822  25.984  1.00  0.00     0.066 C 
ATOM     10  C   UNL A   1      30.672  24.391  23.587  1.00  0.00     0.066 C 
ATOM     11  C   UNL A   1      31.189  23.510  26.314  1.00  0.00     0.262 C 
ATOM     12  C   UNL A   1      31.433  23.091  23.863  1.00  0.00     0.262 C 
ATOM     13  N   UNL A   1      31.272  22.567  25.208  1.00  0.00    -0.334 N 
ATOM     14  H   UNL A   1      30.299  22.263  25.220  1.00  0.00     0.348 HD
BRANCH  13  15
ATOM     15  C   UNL A   1      32.081  21.355  25.443  1.00  0.00     0.270 C 
BRANCH  15  16
ATOM     16  C   UNL A   1      33.261  20.973  24.521  1.00  0.00     0.079 C 
ATOM     17  C   UNL A   1      34.000  19.625  24.863  1.00  0.00     0.050 C 
ATOM     18  C   UNL A   1      34.630  21.604  24.588  1.00  0.00    -0.036 A 
ATOM     19  C   UNL A   1      35.275  20.415  24.813  1.00  0.00    -0.043 A 
ATOM     20  C   UNL A   1      35.348  22.765  24.463  1.00  0.00     0.004 A 
ATOM     21  C   UNL A   1      36.645  20.329  24.943  1.00  0.00     0.004 A 
ATOM     22  C   UNL A   1      36.739  22.727  24.590  1.00  0.00     0.000 A 
ATOM     23  C   UNL A   1      37.386  21.509  24.829  1.00  0.00     0.000 A 
ENDBRANCH  15  16
ENDBRANCH  13  15
ENDBRANCH   7   8
ENDBRANCH   5   7
ENDBRANCH   2   3
ENDBRANCH   1   2
BRANCH   1  24
ATOM     24  C   UNL A   1      31.589  31.873  26.782  1.00  0.00     0.023 C 
BRANCH  24  25
ATOM     25  C   UNL A   1      32.839  32.447  27.434  1.00  0.00     0.116 C 
BRANCH  25  26
ATOM     26  N   UNL A   1      32.718  33.878  27.611  1.00  0.00    -0.352 N 
ATOM     27  C   UNL A   1      33.230  34.666  28.616  1.00  0.00     0.251 C 
ATOM     28  H   UNL A   1      32.200  34.350  26.920  1.00  0.00     0.163 HD
ATOM     29  O   UNL A   1      32.728  35.770  28.809  1.00  0.00    -0.269 OA
BRANCH  27  30
ATOM     30  C   UNL A   1      34.370  34.212  29.457  1.00  0.00     0.039 A 
ATOM     31  C   UNL A   1      35.674  34.416  28.990  1.00  0.00     0.014 A 
ATOM     32  C   UNL A   1      34.172  33.494  30.642  1.00  0.00     0.014 A 
ATOM     33  C   UNL A   1      36.768  33.908  29.701  1.00  0.00     0.010 A 
ATOM     34  C   UNL A   1      35.267  33.041  31.384  1.00  0.00     0.010 A 
ATOM     35  C   UNL A   1      36.577  33.215  30.906  1.00  0.00    -0.014 A 
BRANCH  35  36
ATOM     36  C   UNL A   1      37.722  32.598  31.634  1.00  0.00     0.031 A 
ATOM     37  C   UNL A   1      38.514  31.489  30.985  1.00  0.00     0.074 A 
ATOM     38  C   UNL A   1      38.033  32.999  32.881  1.00  0.00     0.049 A 
ATOM     39  N   UNL A   1      39.493  30.769  31.472  1.00  0.00    -0.248 NA
ATOM     40  C   UNL A   1      38.130  31.126  29.612  1.00  0.00     0.031 C 
ATOM     41  C   UNL A   1      37.337  34.047  33.629  1.00  0.00     0.029 A 
ATOM     42  N   UNL A   1      39.009  32.568  33.747  1.00  0.00    -0.354 N 
ATOM     43  C   UNL A   1      39.825  29.852  30.478  1.00  0.00     0.074 A 
ATOM     44  C   UNL A   1      38.905  30.078  29.383  1.00  0.00     0.031 C 
ATOM     45  C   UNL A   1      37.919  34.189  34.833  1.00  0.00     0.029 A 
ATOM     46  C   UNL A   1      39.003  33.218  34.959  1.00  0.00     0.049 A 
ATOM     47  H   UNL A   1      39.654  31.860  33.519  1.00  0.00     0.167 HD
ATOM     48  C   UNL A   1      40.815  28.924  30.469  1.00  0.00     0.034 A 
ATOM     49  C   UNL A   1      39.773  33.045  36.052  1.00  0.00     0.034 A 
ATOM     50  C   UNL A   1      41.744  28.730  31.557  1.00  0.00     0.049 A 
ATOM     51  C   UNL A   1      40.860  31.999  36.026  1.00  0.00     0.074 A 
ATOM     52  C   UNL A   1      42.821  27.862  31.627  1.00  0.00     0.029 A 
ATOM     53  N   UNL A   1      41.705  29.409  32.768  1.00  0.00    -0.354 N 
ATOM     54  N   UNL A   1      41.185  31.168  35.063  1.00  0.00    -0.248 NA
ATOM     55  C   UNL A   1      41.691  31.876  37.232  1.00  0.00     0.031 C 
ATOM     56  C   UNL A   1      43.394  27.973  32.900  1.00  0.00     0.029 A 
ATOM     57  C   UNL A   1      42.719  28.960  33.600  1.00  0.00     0.049 A 
ATOM     58  H   UNL A   1      41.052  30.107  33.001  1.00  0.00     0.167 HD
ATOM     59  C   UNL A   1      42.277  30.446  35.537  1.00  0.00     0.074 A 
ATOM     60  C   UNL A   1      42.562  30.948  36.866  1.00  0.00     0.031 C 
ATOM     61  C   UNL A   1      42.985  29.461  34.927  1.00  0.00     0.034 A 
BRANCH  48  62
ATOM     62  C   UNL A   1      40.920  28.030  29.256  1.00  0.00     0.023 A 
ATOM     63  C   UNL A   1      41.941  28.189  28.302  1.00  0.00     0.031 A 
ATOM     64  C   UNL A   1      39.966  27.021  29.032  1.00  0.00     0.131 A 
ATOM     65  C   UNL A   1      41.936  27.413  27.132  1.00  0.00     0.055 A 
ATOM     66  C   UNL A   1      40.016  26.194  27.906  1.00  0.00     0.041 A 
ATOM     67  F   UNL A   1      38.957  26.829  29.897  1.00  0.00    -0.206 F 
ATOM     68  C   UNL A   1      40.995  26.400  26.939  1.00  0.00     0.022 A 
BRANCH  65  69
ATOM     69  S   UNL A   1      43.087  27.851  25.799  1.00  0.00     0.124 S 
ATOM     70  O   UNL A   1      42.168  28.119  24.695  1.00  0.00    -0.237 OA
ATOM     71  O   UNL A   1      43.781  29.007  26.350  1.00  0.00    -0.237 OA
ATOM     72  O   UNL A   1      43.902  26.647  25.642  1.00  0.00    -0.744 OA
ENDBRANCH  65  69
ENDBRANCH  48  62
BRANCH  49  73
ATOM     73  C   UNL A   1      39.548  33.870  37.273  1.00  0.00     0.023 A 
ATOM     74  C   UNL A   1      38.861  33.350  38.380  1.00  0.00     0.031 A 
ATOM     75  C   UNL A   1      39.983  35.206  37.334  1.00  0.00     0.131 A 
ATOM     76  C   UNL A   1      38.588  34.171  39.485  1.00  0.00     0.055 A 
ATOM     77  C   UNL A   1      39.752  36.005  38.455  1.00  0.00     0.041 A 
ATOM     78  F   UNL A   1      40.650  35.752  36.304  1.00  0.00    -0.206 F 
ATOM     79  C   UNL A   1      39.040  35.492  39.535  1.00  0.00     0.022 A 
BRANCH  76  80
ATOM     80  S   UNL A   1      37.566  33.509  40.829  1.00  0.00     0.124 S 
ATOM     81  O   UNL A   1      36.468  32.894  40.093  1.00  0.00    -0.237 OA
ATOM     82  O   UNL A   1      38.491  32.593  41.489  1.00  0.00    -0.237 OA
ATOM     83  O   UNL A   1      37.212  34.697  41.604  1.00  0.00    -0.744 OA
ENDBRANCH  76  80
ENDBRANCH  49  73
BRANCH  61  84
ATOM     84  C   UNL A   1      44.166  28.899  35.682  1.00  0.00     0.023 A 
ATOM     85  C   UNL A   1      44.034  27.804  36.553  1.00  0.00     0.031 A 
ATOM     86  C   UNL A   1      45.438  29.479  35.534  1.00  0.00     0.131 A 
ATOM     87  C   UNL A   1      45.144  27.356  37.285  1.00  0.00     0.055 A 
ATOM     88  C   UNL A   1      46.551  28.994  36.222  1.00  0.00     0.041 A 
ATOM     89  F   UNL A   1      45.620  30.527  34.715  1.00  0.00    -0.206 F 
ATOM     90  C   UNL A   1      46.405  27.934  37.113  1.00  0.00     0.022 A 
BRANCH  87  91
ATOM     91  S   UNL A   1      44.902  26.060  38.531  1.00  0.00     0.124 S 
ATOM     92  O   UNL A   1      46.244  25.915  39.084  1.00  0.00    -0.237 OA
ATOM     93  O   UNL A   1      43.909  26.660  39.416  1.00  0.00    -0.237 OA
ATOM     94  O   UNL A   1      44.425  24.918  37.751  1.00  0.00    -0.744 OA
ENDBRANCH  87  91
ENDBRANCH  61  84
ENDBRANCH  35  36
ENDBRANCH  27  30
ENDBRANCH  25  26
ENDBRANCH  24  25
ENDBRANCH   1  24
TORSDOF 17
ENDMDL
MODEL 3
REMARK VINA RESULT:     -11.8      2.403      2.880
REMARK SMILES O=C(CC1CC[NH+](C[C@@H]2Cc3ccccc32)CC1)NCCCCNC(=O)c1ccc(-c2c3nc(c(-c4cc(S(=O)(=O)[O-])ccc4F)c4ccc([nH]4)c(-c4cc(S(=O)(=O)[O-])ccc4F)c4nc(c(-c5cc(S(=O)(=O)[O-])ccc5F)c5ccc2[nH]5)C=C4)C=C3)cc1
REMARK SMILES IDX 21 1 20 2 19 3 1 4 2 5 3 7 4 8 5 9 18 10 6 11 17 12 7 13
REMARK SMILES IDX 8 15 9 16 10 17 16 18 11 19 15 20 12 21 14 22 13 23 22 24
REMARK SMILES IDX 23 25 24 26 25 27 26 29 27 30 28 31 89 32 29 33 88 34 30 35
REMARK SMILES IDX 31 36 32 37 82 38 33 39 87 40 81 41 83 42 34 43 86 44 80 45
REMARK SMILES IDX 79 46 35 48 67 49 47 50 66 51 48 52 51 53 65 54 84 55 49 56
REMARK SMILES IDX 50 57 64 59 85 60 52 61 36 62 37 63 45 64 38 65 44 66 46 67
REMARK SMILES IDX 43 68 39 69 40 70 41 71 42 72 68 73 69 74 77 75 70 76 76 77
REMARK SMILES IDX 78 78 75 79 71 80 72 81 73 82 74 83 53 84 54 85 62 86 55 87
REMARK SMILES IDX 61 88 63 89 60 90 56 91 57 92 58 93 59 94
REMARK H PARENT 19 6 7 14 24 28 83 47 51 58
REMARK Flexibility Score: inf
ROOT
ATOM      1  C   UNL A   1      33.785  28.775  23.506  1.00  0.00     0.023 C 
ENDROOT
BRANCH   1   2
ATOM      2  C   UNL A   1      33.216  27.746  22.515  1.00  0.00     0.116 C 
BRANCH   2   3
ATOM      3  N   UNL A   1      33.290  26.372  22.977  1.00  0.00    -0.356 N 
ATOM      4  O   UNL A   1      33.265  25.358  20.930  1.00  0.00    -0.275 OA
ATOM      5  C   UNL A   1      33.298  25.266  22.155  1.00  0.00     0.220 C 
ATOM      6  H   UNL A   1      33.337  26.219  23.948  1.00  0.00     0.163 HD
BRANCH   5   7
ATOM      7  C   UNL A   1      33.193  23.899  22.843  1.00  0.00     0.104 C 
BRANCH   7   8
ATOM      8  C   UNL A   1      31.909  23.047  22.779  1.00  0.00     0.009 C 
ATOM      9  C   UNL A   1      31.050  23.262  24.048  1.00  0.00     0.066 C 
ATOM     10  C   UNL A   1      32.087  21.537  22.661  1.00  0.00     0.066 C 
ATOM     11  C   UNL A   1      31.691  22.668  25.316  1.00  0.00     0.262 C 
ATOM     12  C   UNL A   1      32.772  20.926  23.887  1.00  0.00     0.262 C 
ATOM     13  N   UNL A   1      32.191  21.309  25.162  1.00  0.00    -0.334 N 
ATOM     14  H   UNL A   1      31.288  20.837  25.152  1.00  0.00     0.348 HD
BRANCH  13  15
ATOM     15  C   UNL A   1      32.931  20.751  26.310  1.00  0.00     0.270 C 
BRANCH  15  16
ATOM     16  C   UNL A   1      34.255  21.373  26.806  1.00  0.00     0.079 C 
ATOM     17  C   UNL A   1      34.210  22.907  27.161  1.00  0.00     0.050 C 
ATOM     18  C   UNL A   1      35.413  21.736  25.907  1.00  0.00    -0.036 A 
ATOM     19  C   UNL A   1      35.414  23.056  26.277  1.00  0.00    -0.043 A 
ATOM     20  C   UNL A   1      36.354  21.264  25.031  1.00  0.00     0.004 A 
ATOM     21  C   UNL A   1      36.328  23.962  25.783  1.00  0.00     0.004 A 
ATOM     22  C   UNL A   1      37.299  22.146  24.501  1.00  0.00     0.000 A 
ATOM     23  C   UNL A   1      37.286  23.494  24.878  1.00  0.00     0.000 A 
ENDBRANCH  15  16
ENDBRANCH  13  15
ENDBRANCH   7   8
ENDBRANCH   5   7
ENDBRANCH   2   3
ENDBRANCH   1   2
BRANCH   1  24
ATOM     24  C   UNL A   1      32.942  29.219  24.713  1.00  0.00     0.023 C 
BRANCH  24  25
ATOM     25  C   UNL A   1      33.611  29.245  26.080  1.00  0.00     0.116 C 
BRANCH  25  26
ATOM     26  N   UNL A   1      33.699  30.597  26.586  1.00  0.00    -0.352 N 
ATOM     27  C   UNL A   1      34.491  31.086  27.601  1.00  0.00     0.251 C 
ATOM     28  H   UNL A   1      33.114  31.255  26.148  1.00  0.00     0.163 HD
ATOM     29  O   UNL A   1      34.174  32.144  28.136  1.00  0.00    -0.269 OA
BRANCH  27  30
ATOM     30  C   UNL A   1      35.714  30.366  28.048  1.00  0.00     0.039 A 
ATOM     31  C   UNL A   1      35.702  29.728  29.294  1.00  0.00     0.014 A 
ATOM     32  C   UNL A   1      36.902  30.403  27.309  1.00  0.00     0.014 A 
ATOM     33  C   UNL A   1      36.866  29.132  29.795  1.00  0.00     0.010 A 
ATOM     34  C   UNL A   1      38.047  29.755  27.782  1.00  0.00     0.010 A 
ATOM     35  C   UNL A   1      38.052  29.139  29.045  1.00  0.00    -0.014 A 
BRANCH  35  36
ATOM     36  C   UNL A   1      39.319  28.581  29.597  1.00  0.00     0.031 A 
ATOM     37  C   UNL A   1      39.943  29.205  30.821  1.00  0.00     0.074 A 
ATOM     38  C   UNL A   1      39.931  27.546  28.989  1.00  0.00     0.049 A 
ATOM     39  N   UNL A   1      41.076  28.923  31.414  1.00  0.00    -0.248 NA
ATOM     40  C   UNL A   1      39.202  30.313  31.442  1.00  0.00     0.031 C 
ATOM     41  C   UNL A   1      39.443  26.864  27.789  1.00  0.00     0.029 A 
ATOM     42  N   UNL A   1      41.100  26.891  29.289  1.00  0.00    -0.354 N 
ATOM     43  C   UNL A   1      41.197  29.833  32.461  1.00  0.00     0.074 A 
ATOM     44  C   UNL A   1      40.044  30.707  32.385  1.00  0.00     0.031 C 
ATOM     45  C   UNL A   1      40.297  25.878  27.467  1.00  0.00     0.029 A 
ATOM     46  C   UNL A   1      41.411  25.880  28.411  1.00  0.00     0.049 A 
ATOM     47  H   UNL A   1      41.662  27.124  30.063  1.00  0.00     0.167 HD
ATOM     48  C   UNL A   1      42.165  29.922  33.408  1.00  0.00     0.034 A 
ATOM     49  C   UNL A   1      42.477  25.055  28.363  1.00  0.00     0.034 A 
ATOM     50  C   UNL A   1      43.293  29.027  33.489  1.00  0.00     0.049 A 
ATOM     51  C   UNL A   1      43.549  25.178  29.419  1.00  0.00     0.074 A 
ATOM     52  C   UNL A   1      44.297  28.988  34.442  1.00  0.00     0.029 A 
ATOM     53  N   UNL A   1      43.573  28.014  32.580  1.00  0.00    -0.354 N 
ATOM     54  N   UNL A   1      43.626  26.019  30.424  1.00  0.00    -0.248 NA
ATOM     55  C   UNL A   1      44.670  24.233  29.338  1.00  0.00     0.031 C 
ATOM     56  C   UNL A   1      45.214  27.994  34.077  1.00  0.00     0.029 A 
ATOM     57  C   UNL A   1      44.747  27.365  32.934  1.00  0.00     0.049 A 
ATOM     58  H   UNL A   1      43.019  27.789  31.799  1.00  0.00     0.167 HD
ATOM     59  C   UNL A   1      44.789  25.682  31.111  1.00  0.00     0.074 A 
ATOM     60  C   UNL A   1      45.373  24.555  30.413  1.00  0.00     0.031 C 
ATOM     61  C   UNL A   1      45.323  26.249  32.223  1.00  0.00     0.034 A 
BRANCH  48  62
ATOM     62  C   UNL A   1      42.056  31.047  34.411  1.00  0.00     0.023 A 
ATOM     63  C   UNL A   1      42.672  32.294  34.198  1.00  0.00     0.031 A 
ATOM     64  C   UNL A   1      41.354  30.861  35.615  1.00  0.00     0.131 A 
ATOM     65  C   UNL A   1      42.642  33.272  35.204  1.00  0.00     0.055 A 
ATOM     66  C   UNL A   1      41.258  31.870  36.577  1.00  0.00     0.041 A 
ATOM     67  F   UNL A   1      40.759  29.687  35.886  1.00  0.00    -0.206 F 
ATOM     68  C   UNL A   1      41.919  33.078  36.382  1.00  0.00     0.022 A 
BRANCH  65  69
ATOM     69  S   UNL A   1      43.691  34.740  35.012  1.00  0.00     0.124 S 
ATOM     70  O   UNL A   1      44.915  34.317  35.690  1.00  0.00    -0.237 OA
ATOM     71  O   UNL A   1      43.776  34.880  33.565  1.00  0.00    -0.237 OA
ATOM     72  O   UNL A   1      42.940  35.789  35.700  1.00  0.00    -0.744 OA
ENDBRANCH  65  69
ENDBRANCH  48  62
BRANCH  49  73
ATOM     73  C   UNL A   1      42.599  24.041  27.278  1.00  0.00     0.023 A 
ATOM     74  C   UNL A   1      41.991  22.781  27.395  1.00  0.00     0.031 A 
ATOM     75  C   UNL A   1      43.359  24.302  26.124  1.00  0.00     0.131 A 
ATOM     76  C   UNL A   1      42.189  21.813  26.399  1.00  0.00     0.055 A 
ATOM     77  C   UNL A   1      43.514  23.353  25.112  1.00  0.00     0.041 A 
ATOM     78  F   UNL A   1      43.957  25.494  25.959  1.00  0.00    -0.206 F 
ATOM     79  C   UNL A   1      42.936  22.094  25.252  1.00  0.00     0.022 A 
BRANCH  76  80
ATOM     80  S   UNL A   1      41.516  20.149  26.659  1.00  0.00     0.124 S 
ATOM     81  O   UNL A   1      41.784  19.515  25.374  1.00  0.00    -0.237 OA
ATOM     82  O   UNL A   1      42.309  19.675  27.788  1.00  0.00    -0.237 OA
ATOM     83  O   UNL A   1      40.104  20.395  26.951  1.00  0.00    -0.744 OA
ENDBRANCH  76  80
ENDBRANCH  49  73
BRANCH  61  84
ATOM     84  C   UNL A   1      46.581  25.622  32.774  1.00  0.00     0.023 A 
ATOM     85  C   UNL A   1      46.538  24.610  33.749  1.00  0.00     0.031 A 
ATOM     86  C   UNL A   1      47.841  26.056  32.323  1.00  0.00     0.131 A 
ATOM     87  C   UNL A   1      47.733  24.103  34.282  1.00  0.00     0.055 A 
ATOM     88  C   UNL A   1      49.026  25.507  32.816  1.00  0.00     0.041 A 
ATOM     89  F   UNL A   1      47.940  27.019  31.394  1.00  0.00    -0.206 F 
ATOM     90  C   UNL A   1      48.976  24.533  33.810  1.00  0.00     0.022 A 
BRANCH  87  91
ATOM     91  S   UNL A   1      47.642  22.929  35.662  1.00  0.00     0.124 S 
ATOM     92  O   UNL A   1      48.672  23.438  36.561  1.00  0.00    -0.237 OA
ATOM     93  O   UNL A   1      46.265  23.087  36.116  1.00  0.00    -0.237 OA
ATOM     94  O   UNL A   1      47.944  21.641  35.038  1.00  0.00    -0.744 OA
ENDBRANCH  87  91
ENDBRANCH  61  84
ENDBRANCH  35  36
ENDBRANCH  27  30
ENDBRANCH  25  26
ENDBRANCH  24  25
ENDBRANCH   1  24
TORSDOF 17
ENDMDL
