MODEL 1
REMARK VINA RESULT:     -10.8      0.000      0.000
REMARK SMILES CCCC[C@H](NC(=O)CC1([NH3+])CCC1)C(=O)NCCCCNC(=O)c1ccc(-c2c3nc(c(-c4cc(S(=O)(=O)[O-])ccc4F)c4ccc([nH]4)c(-c4cc(S(=O)(=O)[O-])ccc4F)c4nc(c(-c5cc(S(=O)(=O)[O-])ccc5F)c5ccc2[nH]5)C=C4)C=C3)cc1
REMARK SMILES IDX 19 1 18 2 17 3 15 4 16 5 5 7 4 8 3 9 2 10 1 11 6 12 7 13
REMARK SMILES IDX 8 15 9 16 10 17 12 18 14 19 13 20 11 21 20 25 21 26 22 27
REMARK SMILES IDX 23 28 24 30 25 31 26 32 87 33 27 34 86 35 28 36 29 37 30 38
REMARK SMILES IDX 80 39 31 40 85 41 79 42 81 43 32 44 84 45 78 46 77 47 33 49
REMARK SMILES IDX 65 50 45 51 64 52 46 53 49 54 63 55 82 56 47 57 48 58 62 60
REMARK SMILES IDX 83 61 50 62 34 63 35 64 43 65 36 66 42 67 44 68 41 69 37 70
REMARK SMILES IDX 38 71 39 72 40 73 66 74 67 75 75 76 68 77 74 78 76 79 73 80
REMARK SMILES IDX 69 81 70 82 71 83 72 84 51 85 52 86 60 87 53 88 59 89 61 90
REMARK SMILES IDX 58 91 54 92 55 93 56 94 57 95
REMARK H PARENT 17 6 6 14 11 22 11 23 11 24 22 29 81 48 49 59
REMARK Flexibility Score: inf
ROOT
ATOM      1  C   UNL A   1      31.848  27.581  26.935  1.00  0.00     0.023 C 
ENDROOT
BRANCH   1   2
ATOM      2  C   UNL A   1      31.926  26.167  26.386  1.00  0.00     0.116 C 
BRANCH   2   3
ATOM      3  N   UNL A   1      30.862  25.290  26.803  1.00  0.00    -0.354 N 
ATOM      4  C   UNL A   1      30.720  23.965  26.518  1.00  0.00     0.242 C 
ATOM      5  O   UNL A   1      30.016  23.288  27.274  1.00  0.00    -0.273 OA
ATOM      6  H   UNL A   1      30.157  25.693  27.359  1.00  0.00     0.163 HD
BRANCH   4   7
ATOM      7  C   UNL A   1      31.471  23.287  25.345  1.00  0.00     0.171 C 
BRANCH   7   8
ATOM      8  C   UNL A   1      30.852  23.665  23.974  1.00  0.00     0.035 C 
BRANCH   8   9
ATOM      9  C   UNL A   1      31.578  24.596  22.985  1.00  0.00     0.002 C 
BRANCH   9  10
ATOM     10  C   UNL A   1      33.088  24.808  23.102  1.00  0.00    -0.003 C 
ATOM     11  C   UNL A   1      33.540  26.257  23.152  1.00  0.00     0.004 C 
ENDBRANCH   9  10
ENDBRANCH   8   9
ENDBRANCH   7   8
BRANCH   7  12
ATOM     12  N   UNL A   1      31.789  21.873  25.499  1.00  0.00    -0.344 N 
ATOM     13  C   UNL A   1      32.931  21.203  25.180  1.00  0.00     0.226 C 
ATOM     14  H   UNL A   1      31.073  21.322  25.891  1.00  0.00     0.164 HD
ATOM     15  O   UNL A   1      32.933  19.983  25.371  1.00  0.00    -0.275 OA
BRANCH  13  16
ATOM     16  C   UNL A   1      34.170  21.918  24.687  1.00  0.00     0.168 C 
BRANCH  16  17
ATOM     17  C   UNL A   1      35.479  21.706  25.437  1.00  0.00     0.103 C 
ATOM     18  C   UNL A   1      36.432  20.549  25.010  1.00  0.00     0.069 C 
ATOM     19  C   UNL A   1      36.634  22.676  25.031  1.00  0.00     0.069 C 
ATOM     20  C   UNL A   1      37.627  21.507  25.167  1.00  0.00     0.013 C 
BRANCH  17  21
ATOM     21  N   UNL A   1      35.383  21.745  26.906  1.00  0.00    -0.352 N 
ATOM     22  H   UNL A   1      34.615  21.147  27.212  1.00  0.00     0.344 HD
ATOM     23  H   UNL A   1      35.210  22.703  27.210  1.00  0.00     0.344 HD
ATOM     24  H   UNL A   1      36.256  21.411  27.312  1.00  0.00     0.344 HD
ENDBRANCH  17  21
ENDBRANCH  16  17
ENDBRANCH  13  16
ENDBRANCH   7  12
ENDBRANCH   4   7
ENDBRANCH   2   3
ENDBRANCH   1   2
BRANCH   1  25
ATOM     25  C   UNL A   1      31.726  28.682  25.889  1.00  0.00     0.023 C 
BRANCH  25  26
ATOM     26  C   UNL A   1      32.869  29.689  25.839  1.00  0.00     0.116 C 
BRANCH  26  27
ATOM     27  N   UNL A   1      32.522  31.018  26.325  1.00  0.00    -0.352 N 
ATOM     28  C   UNL A   1      33.232  31.824  27.183  1.00  0.00     0.251 C 
ATOM     29  H   UNL A   1      31.669  31.385  25.997  1.00  0.00     0.163 HD
ATOM     30  O   UNL A   1      32.778  32.913  27.523  1.00  0.00    -0.269 OA
BRANCH  28  31
ATOM     31  C   UNL A   1      34.513  31.334  27.733  1.00  0.00     0.039 A 
ATOM     32  C   UNL A   1      35.555  32.244  27.923  1.00  0.00     0.014 A 
ATOM     33  C   UNL A   1      34.655  30.002  28.132  1.00  0.00     0.014 A 
ATOM     34  C   UNL A   1      36.716  31.833  28.578  1.00  0.00     0.010 A 
ATOM     35  C   UNL A   1      35.774  29.620  28.862  1.00  0.00     0.010 A 
ATOM     36  C   UNL A   1      36.822  30.527  29.085  1.00  0.00    -0.014 A 
BRANCH  36  37
ATOM     37  C   UNL A   1      38.039  30.085  29.816  1.00  0.00     0.031 A 
ATOM     38  C   UNL A   1      38.281  30.571  31.221  1.00  0.00     0.074 A 
ATOM     39  C   UNL A   1      38.942  29.292  29.207  1.00  0.00     0.049 A 
ATOM     40  N   UNL A   1      39.295  30.340  32.015  1.00  0.00    -0.248 NA
ATOM     41  C   UNL A   1      37.264  31.466  31.792  1.00  0.00     0.031 C 
ATOM     42  C   UNL A   1      38.849  28.804  27.828  1.00  0.00     0.029 A 
ATOM     43  N   UNL A   1      40.120  28.757  29.665  1.00  0.00    -0.354 N 
ATOM     44  C   UNL A   1      39.045  31.075  33.170  1.00  0.00     0.074 A 
ATOM     45  C   UNL A   1      37.825  31.816  32.938  1.00  0.00     0.031 C 
ATOM     46  C   UNL A   1      39.905  28.016  27.567  1.00  0.00     0.029 A 
ATOM     47  C   UNL A   1      40.768  27.968  28.743  1.00  0.00     0.049 A 
ATOM     48  H   UNL A   1      40.468  28.923  30.572  1.00  0.00     0.167 HD
ATOM     49  C   UNL A   1      39.748  31.103  34.329  1.00  0.00     0.034 A 
ATOM     50  C   UNL A   1      41.924  27.282  28.838  1.00  0.00     0.034 A 
ATOM     51  C   UNL A   1      40.951  30.339  34.552  1.00  0.00     0.049 A 
ATOM     52  C   UNL A   1      42.678  27.309  30.145  1.00  0.00     0.074 A 
ATOM     53  C   UNL A   1      41.723  30.258  35.697  1.00  0.00     0.029 A 
ATOM     54  N   UNL A   1      41.557  29.520  33.608  1.00  0.00    -0.354 N 
ATOM     55  N   UNL A   1      42.400  27.966  31.249  1.00  0.00    -0.248 NA
ATOM     56  C   UNL A   1      43.888  26.481  30.227  1.00  0.00     0.031 C 
ATOM     57  C   UNL A   1      42.823  29.435  35.429  1.00  0.00     0.029 A 
ATOM     58  C   UNL A   1      42.699  28.941  34.140  1.00  0.00     0.049 A 
ATOM     59  H   UNL A   1      41.224  29.372  32.693  1.00  0.00     0.167 HD
ATOM     60  C   UNL A   1      43.379  27.594  32.168  1.00  0.00     0.074 A 
ATOM     61  C   UNL A   1      44.241  26.647  31.492  1.00  0.00     0.031 C 
ATOM     62  C   UNL A   1      43.548  27.995  33.454  1.00  0.00     0.034 A 
BRANCH  49  63
ATOM     63  C   UNL A   1      39.233  32.004  35.427  1.00  0.00     0.023 A 
ATOM     64  C   UNL A   1      39.637  33.348  35.528  1.00  0.00     0.031 A 
ATOM     65  C   UNL A   1      38.364  31.505  36.413  1.00  0.00     0.131 A 
ATOM     66  C   UNL A   1      39.246  34.118  36.635  1.00  0.00     0.055 A 
ATOM     67  C   UNL A   1      37.906  32.303  37.464  1.00  0.00     0.041 A 
ATOM     68  F   UNL A   1      37.960  30.225  36.384  1.00  0.00    -0.206 F 
ATOM     69  C   UNL A   1      38.360  33.613  37.589  1.00  0.00     0.022 A 
BRANCH  66  70
ATOM     70  S   UNL A   1      40.036  35.730  36.889  1.00  0.00     0.124 S 
ATOM     71  O   UNL A   1      39.583  36.468  35.713  1.00  0.00    -0.237 OA
ATOM     72  O   UNL A   1      39.478  36.158  38.166  1.00  0.00    -0.237 OA
ATOM     73  O   UNL A   1      41.463  35.413  36.906  1.00  0.00    -0.744 OA
ENDBRANCH  66  70
ENDBRANCH  49  63
BRANCH  50  74
ATOM     74  C   UNL A   1      42.440  26.495  27.681  1.00  0.00     0.023 A 
ATOM     75  C   UNL A   1      42.031  25.168  27.469  1.00  0.00     0.031 A 
ATOM     76  C   UNL A   1      43.392  27.039  26.801  1.00  0.00     0.131 A 
ATOM     77  C   UNL A   1      42.614  24.411  26.440  1.00  0.00     0.055 A 
ATOM     78  C   UNL A   1      43.929  26.299  25.745  1.00  0.00     0.041 A 
ATOM     79  F   UNL A   1      43.810  28.306  26.952  1.00  0.00    -0.206 F 
ATOM     80  C   UNL A   1      43.552  24.971  25.570  1.00  0.00     0.022 A 
BRANCH  77  81
ATOM     81  S   UNL A   1      42.196  22.649  26.314  1.00  0.00     0.124 S 
ATOM     82  O   UNL A   1      42.697  22.319  24.985  1.00  0.00    -0.237 OA
ATOM     83  O   UNL A   1      42.934  22.084  27.439  1.00  0.00    -0.237 OA
ATOM     84  O   UNL A   1      40.741  22.635  26.456  1.00  0.00    -0.744 OA
ENDBRANCH  77  81
ENDBRANCH  50  74
BRANCH  62  85
ATOM     85  C   UNL A   1      44.673  27.352  34.229  1.00  0.00     0.023 A 
ATOM     86  C   UNL A   1      44.487  26.170  34.967  1.00  0.00     0.031 A 
ATOM     87  C   UNL A   1      45.945  27.952  34.251  1.00  0.00     0.131 A 
ATOM     88  C   UNL A   1      45.534  25.668  35.755  1.00  0.00     0.055 A 
ATOM     89  C   UNL A   1      47.002  27.409  34.983  1.00  0.00     0.041 A 
ATOM     90  F   UNL A   1      46.180  29.081  33.564  1.00  0.00    -0.206 F 
ATOM     91  C   UNL A   1      46.794  26.270  35.755  1.00  0.00     0.022 A 
BRANCH  88  92
ATOM     92  S   UNL A   1      45.191  24.282  36.874  1.00  0.00     0.124 S 
ATOM     93  O   UNL A   1      44.298  24.895  37.853  1.00  0.00    -0.237 OA
ATOM     94  O   UNL A   1      44.580  23.304  35.980  1.00  0.00    -0.237 OA
ATOM     95  O   UNL A   1      46.512  23.916  37.383  1.00  0.00    -0.744 OA
ENDBRANCH  88  92
ENDBRANCH  62  85
ENDBRANCH  36  37
ENDBRANCH  28  31
ENDBRANCH  26  27
ENDBRANCH  25  26
ENDBRANCH   1  25
TORSDOF 21
ENDMDL
MODEL 2
REMARK VINA RESULT:     -10.7      1.741      2.282
REMARK SMILES CCCC[C@H](NC(=O)CC1([NH3+])CCC1)C(=O)NCCCCNC(=O)c1ccc(-c2c3nc(c(-c4cc(S(=O)(=O)[O-])ccc4F)c4ccc([nH]4)c(-c4cc(S(=O)(=O)[O-])ccc4F)c4nc(c(-c5cc(S(=O)(=O)[O-])ccc5F)c5ccc2[nH]5)C=C4)C=C3)cc1
REMARK SMILES IDX 19 1 18 2 17 3 15 4 16 5 5 7 4 8 3 9 2 10 1 11 6 12 7 13
REMARK SMILES IDX 8 15 9 16 10 17 12 18 14 19 13 20 11 21 20 25 21 26 22 27
REMARK SMILES IDX 23 28 24 30 25 31 26 32 87 33 27 34 86 35 28 36 29 37 30 38
REMARK SMILES IDX 80 39 31 40 85 41 79 42 81 43 32 44 84 45 78 46 77 47 33 49
REMARK SMILES IDX 65 50 45 51 64 52 46 53 49 54 63 55 82 56 47 57 48 58 62 60
REMARK SMILES IDX 83 61 50 62 34 63 35 64 43 65 36 66 42 67 44 68 41 69 37 70
REMARK SMILES IDX 38 71 39 72 40 73 66 74 67 75 75 76 68 77 74 78 76 79 73 80
REMARK SMILES IDX 69 81 70 82 71 83 72 84 51 85 52 86 60 87 53 88 59 89 61 90
REMARK SMILES IDX 58 91 54 92 55 93 56 94 57 95
REMARK H PARENT 17 6 6 14 11 22 11 23 11 24 22 29 81 48 49 59
REMARK Flexibility Score: inf
ROOT
ATOM      1  C   UNL A   1      32.253  27.253  26.871  1.00  0.00     0.023 C 
ENDROOT
BRANCH   1   2
ATOM      2  C   UNL A   1      31.991  26.067  25.960  1.00  0.00     0.116 C 
BRANCH   2   3
ATOM      3  N   UNL A   1      31.175  25.026  26.531  1.00  0.00    -0.354 N 
ATOM      4  C   UNL A   1      31.529  23.732  26.771  1.00  0.00     0.242 C 
ATOM      5  O   UNL A   1      30.886  23.111  27.623  1.00  0.00    -0.273 OA
ATOM      6  H   UNL A   1      30.256  25.279  26.777  1.00  0.00     0.163 HD
BRANCH   4   7
ATOM      7  C   UNL A   1      32.744  23.066  26.078  1.00  0.00     0.171 C 
BRANCH   7   8
ATOM      8  C   UNL A   1      34.069  23.794  26.422  1.00  0.00     0.035 C 
BRANCH   8   9
ATOM      9  C   UNL A   1      34.987  24.370  25.328  1.00  0.00     0.002 C 
BRANCH   9  10
ATOM     10  C   UNL A   1      36.400  23.815  25.145  1.00  0.00    -0.003 C 
ATOM     11  C   UNL A   1      36.603  22.944  23.917  1.00  0.00     0.004 C 
ENDBRANCH   9  10
ENDBRANCH   8   9
ENDBRANCH   7   8
BRANCH   7  12
ATOM     12  N   UNL A   1      32.589  22.719  24.671  1.00  0.00    -0.344 N 
ATOM     13  C   UNL A   1      33.137  21.690  23.968  1.00  0.00     0.226 C 
ATOM     14  H   UNL A   1      32.001  23.316  24.154  1.00  0.00     0.164 HD
ATOM     15  O   UNL A   1      32.881  21.640  22.761  1.00  0.00    -0.275 OA
BRANCH  13  16
ATOM     16  C   UNL A   1      33.960  20.610  24.636  1.00  0.00     0.168 C 
BRANCH  16  17
ATOM     17  C   UNL A   1      33.382  19.203  24.723  1.00  0.00     0.103 C 
ATOM     18  C   UNL A   1      32.449  18.684  23.588  1.00  0.00     0.069 C 
ATOM     19  C   UNL A   1      34.363  18.062  24.305  1.00  0.00     0.069 C 
ATOM     20  C   UNL A   1      33.185  17.332  23.633  1.00  0.00     0.013 C 
BRANCH  17  21
ATOM     21  N   UNL A   1      32.819  18.827  26.031  1.00  0.00    -0.352 N 
ATOM     22  H   UNL A   1      32.264  17.977  25.929  1.00  0.00     0.344 HD
ATOM     23  H   UNL A   1      32.226  19.581  26.376  1.00  0.00     0.344 HD
ATOM     24  H   UNL A   1      33.576  18.660  26.692  1.00  0.00     0.344 HD
ENDBRANCH  17  21
ENDBRANCH  16  17
ENDBRANCH  13  16
ENDBRANCH   7  12
ENDBRANCH   4   7
ENDBRANCH   2   3
ENDBRANCH   1   2
BRANCH   1  25
ATOM     25  C   UNL A   1      31.958  28.620  26.266  1.00  0.00     0.023 C 
BRANCH  25  26
ATOM     26  C   UNL A   1      33.142  29.574  26.153  1.00  0.00     0.116 C 
BRANCH  26  27
ATOM     27  N   UNL A   1      32.890  30.909  26.678  1.00  0.00    -0.352 N 
ATOM     28  C   UNL A   1      33.698  31.673  27.487  1.00  0.00     0.251 C 
ATOM     29  H   UNL A   1      32.032  31.316  26.419  1.00  0.00     0.163 HD
ATOM     30  O   UNL A   1      33.318  32.776  27.871  1.00  0.00    -0.269 OA
BRANCH  28  31
ATOM     31  C   UNL A   1      34.994  31.122  27.933  1.00  0.00     0.039 A 
ATOM     32  C   UNL A   1      36.104  31.968  27.979  1.00  0.00     0.014 A 
ATOM     33  C   UNL A   1      35.092  29.801  28.379  1.00  0.00     0.014 A 
ATOM     34  C   UNL A   1      37.297  31.508  28.538  1.00  0.00     0.010 A 
ATOM     35  C   UNL A   1      36.252  29.376  29.015  1.00  0.00     0.010 A 
ATOM     36  C   UNL A   1      37.371  30.220  29.093  1.00  0.00    -0.014 A 
BRANCH  36  37
ATOM     37  C   UNL A   1      38.624  29.728  29.724  1.00  0.00     0.031 A 
ATOM     38  C   UNL A   1      39.030  30.247  31.078  1.00  0.00     0.074 A 
ATOM     39  C   UNL A   1      39.416  28.859  29.064  1.00  0.00     0.049 A 
ATOM     40  N   UNL A   1      40.101  29.981  31.782  1.00  0.00    -0.248 NA
ATOM     41  C   UNL A   1      38.127  31.224  31.705  1.00  0.00     0.031 C 
ATOM     42  C   UNL A   1      39.162  28.330  27.722  1.00  0.00     0.029 A 
ATOM     43  N   UNL A   1      40.599  28.268  29.431  1.00  0.00    -0.354 N 
ATOM     44  C   UNL A   1      40.007  30.770  32.924  1.00  0.00     0.074 A 
ATOM     45  C   UNL A   1      38.816  31.578  32.778  1.00  0.00     0.031 C 
ATOM     46  C   UNL A   1      40.139  27.469  27.395  1.00  0.00     0.029 A 
ATOM     47  C   UNL A   1      41.108  27.408  28.485  1.00  0.00     0.049 A 
ATOM     48  H   UNL A   1      41.042  28.443  30.293  1.00  0.00     0.167 HD
ATOM     49  C   UNL A   1      40.819  30.795  34.010  1.00  0.00     0.034 A 
ATOM     50  C   UNL A   1      42.225  26.654  28.499  1.00  0.00     0.034 A 
ATOM     51  C   UNL A   1      41.991  29.965  34.149  1.00  0.00     0.049 A 
ATOM     52  C   UNL A   1      43.102  26.680  29.726  1.00  0.00     0.074 A 
ATOM     53  C   UNL A   1      42.864  29.876  35.218  1.00  0.00     0.029 A 
ATOM     54  N   UNL A   1      42.453  29.077  33.186  1.00  0.00    -0.354 N 
ATOM     55  N   UNL A   1      42.971  27.392  30.823  1.00  0.00    -0.248 NA
ATOM     56  C   UNL A   1      44.263  25.781  29.727  1.00  0.00     0.031 C 
ATOM     57  C   UNL A   1      43.882  28.977  34.881  1.00  0.00     0.029 A 
ATOM     58  C   UNL A   1      43.605  28.446  33.631  1.00  0.00     0.049 A 
ATOM     59  H   UNL A   1      42.025  28.918  32.314  1.00  0.00     0.167 HD
ATOM     60  C   UNL A   1      44.011  26.992  31.660  1.00  0.00     0.074 A 
ATOM     61  C   UNL A   1      44.746  25.969  30.946  1.00  0.00     0.031 C 
ATOM     62  C   UNL A   1      44.327  27.426  32.907  1.00  0.00     0.034 A 
BRANCH  49  63
ATOM     63  C   UNL A   1      40.467  31.764  35.114  1.00  0.00     0.023 A 
ATOM     64  C   UNL A   1      39.513  31.446  36.097  1.00  0.00     0.031 A 
ATOM     65  C   UNL A   1      41.057  33.039  35.162  1.00  0.00     0.131 A 
ATOM     66  C   UNL A   1      39.112  32.417  37.028  1.00  0.00     0.055 A 
ATOM     67  C   UNL A   1      40.720  33.970  36.146  1.00  0.00     0.041 A 
ATOM     68  F   UNL A   1      41.959  33.411  34.239  1.00  0.00    -0.206 F 
ATOM     69  C   UNL A   1      39.729  33.668  37.077  1.00  0.00     0.022 A 
BRANCH  66  70
ATOM     70  S   UNL A   1      37.667  32.073  38.067  1.00  0.00     0.124 S 
ATOM     71  O   UNL A   1      38.177  32.399  39.397  1.00  0.00    -0.237 OA
ATOM     72  O   UNL A   1      36.665  32.985  37.527  1.00  0.00    -0.237 OA
ATOM     73  O   UNL A   1      37.408  30.654  37.837  1.00  0.00    -0.744 OA
ENDBRANCH  66  70
ENDBRANCH  49  63
BRANCH  50  74
ATOM     74  C   UNL A   1      42.579  25.796  27.331  1.00  0.00     0.023 A 
ATOM     75  C   UNL A   1      42.130  24.469  27.246  1.00  0.00     0.031 A 
ATOM     76  C   UNL A   1      43.418  26.274  26.308  1.00  0.00     0.131 A 
ATOM     77  C   UNL A   1      42.567  23.646  26.196  1.00  0.00     0.055 A 
ATOM     78  C   UNL A   1      43.806  25.468  25.236  1.00  0.00     0.041 A 
ATOM     79  F   UNL A   1      43.867  27.538  26.334  1.00  0.00    -0.206 F 
ATOM     80  C   UNL A   1      43.393  24.140  25.184  1.00  0.00     0.022 A 
BRANCH  77  81
ATOM     81  S   UNL A   1      42.114  21.889  26.223  1.00  0.00     0.124 S 
ATOM     82  O   UNL A   1      40.686  21.946  25.936  1.00  0.00    -0.237 OA
ATOM     83  O   UNL A   1      42.962  21.343  25.168  1.00  0.00    -0.237 OA
ATOM     84  O   UNL A   1      42.464  21.469  27.579  1.00  0.00    -0.744 OA
ENDBRANCH  77  81
ENDBRANCH  50  74
BRANCH  62  85
ATOM     85  C   UNL A   1      45.481  26.741  33.598  1.00  0.00     0.023 A 
ATOM     86  C   UNL A   1      45.299  25.598  34.395  1.00  0.00     0.031 A 
ATOM     87  C   UNL A   1      46.782  27.263  33.479  1.00  0.00     0.131 A 
ATOM     88  C   UNL A   1      46.385  25.058  35.101  1.00  0.00     0.055 A 
ATOM     89  C   UNL A   1      47.871  26.681  34.129  1.00  0.00     0.041 A 
ATOM     90  F   UNL A   1      47.015  28.352  32.730  1.00  0.00    -0.206 F 
ATOM     91  C   UNL A   1      47.672  25.583  34.960  1.00  0.00     0.022 A 
BRANCH  88  92
ATOM     92  S   UNL A   1      46.071  23.733  36.300  1.00  0.00     0.124 S 
ATOM     93  O   UNL A   1      44.628  23.547  36.177  1.00  0.00    -0.237 OA
ATOM     94  O   UNL A   1      46.900  22.647  35.787  1.00  0.00    -0.237 OA
ATOM     95  O   UNL A   1      46.516  24.306  37.569  1.00  0.00    -0.744 OA
ENDBRANCH  88  92
ENDBRANCH  62  85
ENDBRANCH  36  37
ENDBRANCH  28  31
ENDBRANCH  26  27
ENDBRANCH  25  26
ENDBRANCH   1  25
TORSDOF 21
ENDMDL
MODEL 3
REMARK VINA RESULT:     -10.6      2.993      8.600
REMARK SMILES CCCC[C@H](NC(=O)CC1([NH3+])CCC1)C(=O)NCCCCNC(=O)c1ccc(-c2c3nc(c(-c4cc(S(=O)(=O)[O-])ccc4F)c4ccc([nH]4)c(-c4cc(S(=O)(=O)[O-])ccc4F)c4nc(c(-c5cc(S(=O)(=O)[O-])ccc5F)c5ccc2[nH]5)C=C4)C=C3)cc1
REMARK SMILES IDX 19 1 18 2 17 3 15 4 16 5 5 7 4 8 3 9 2 10 1 11 6 12 7 13
REMARK SMILES IDX 8 15 9 16 10 17 12 18 14 19 13 20 11 21 20 25 21 26 22 27
REMARK SMILES IDX 23 28 24 30 25 31 26 32 87 33 27 34 86 35 28 36 29 37 30 38
REMARK SMILES IDX 80 39 31 40 85 41 79 42 81 43 32 44 84 45 78 46 77 47 33 49
REMARK SMILES IDX 65 50 45 51 64 52 46 53 49 54 63 55 82 56 47 57 48 58 62 60
REMARK SMILES IDX 83 61 50 62 34 63 35 64 43 65 36 66 42 67 44 68 41 69 37 70
REMARK SMILES IDX 38 71 39 72 40 73 66 74 67 75 75 76 68 77 74 78 76 79 73 80
REMARK SMILES IDX 69 81 70 82 71 83 72 84 51 85 52 86 60 87 53 88 59 89 61 90
REMARK SMILES IDX 58 91 54 92 55 93 56 94 57 95
REMARK H PARENT 17 6 6 14 11 22 11 23 11 24 22 29 81 48 49 59
REMARK Flexibility Score: inf
ROOT
ATOM      1  C   UNL A   1      31.775  30.328  26.858  1.00  0.00     0.023 C 
ENDROOT
BRANCH   1   2
ATOM      2  C   UNL A   1      32.841  29.793  25.919  1.00  0.00     0.116 C 
BRANCH   2   3
ATOM      3  N   UNL A   1      33.381  28.505  26.278  1.00  0.00    -0.354 N 
ATOM      4  C   UNL A   1      33.015  27.288  25.788  1.00  0.00     0.242 C 
ATOM      5  O   UNL A   1      33.833  26.366  25.875  1.00  0.00    -0.273 OA
ATOM      6  H   UNL A   1      34.096  28.506  26.953  1.00  0.00     0.163 HD
BRANCH   4   7
ATOM      7  C   UNL A   1      31.664  27.058  25.065  1.00  0.00     0.171 C 
BRANCH   7   8
ATOM      8  C   UNL A   1      30.856  25.905  25.714  1.00  0.00     0.035 C 
BRANCH   8   9
ATOM      9  C   UNL A   1      30.613  24.572  24.983  1.00  0.00     0.002 C 
BRANCH   9  10
ATOM     10  C   UNL A   1      30.938  23.249  25.677  1.00  0.00    -0.003 C 
ATOM     11  C   UNL A   1      30.175  22.983  26.963  1.00  0.00     0.004 C 
ENDBRANCH   9  10
ENDBRANCH   8   9
ENDBRANCH   7   8
BRANCH   7  12
ATOM     12  N   UNL A   1      31.695  27.035  23.608  1.00  0.00    -0.344 N 
ATOM     13  C   UNL A   1      30.774  27.493  22.716  1.00  0.00     0.226 C 
ATOM     14  H   UNL A   1      32.499  26.627  23.212  1.00  0.00     0.164 HD
ATOM     15  O   UNL A   1      31.020  27.311  21.519  1.00  0.00    -0.275 OA
BRANCH  13  16
ATOM     16  C   UNL A   1      29.543  28.257  23.153  1.00  0.00     0.168 C 
BRANCH  16  17
ATOM     17  C   UNL A   1      29.393  29.708  22.712  1.00  0.00     0.103 C 
ATOM     18  C   UNL A   1      27.969  30.295  22.472  1.00  0.00     0.069 C 
ATOM     19  C   UNL A   1      29.529  30.761  23.857  1.00  0.00     0.069 C 
ATOM     20  C   UNL A   1      28.404  31.582  23.199  1.00  0.00     0.013 C 
BRANCH  17  21
ATOM     21  N   UNL A   1      30.289  30.138  21.626  1.00  0.00    -0.352 N 
ATOM     22  H   UNL A   1      30.080  31.104  21.375  1.00  0.00     0.344 HD
ATOM     23  H   UNL A   1      30.151  29.538  20.812  1.00  0.00     0.344 HD
ATOM     24  H   UNL A   1      31.258  30.071  21.937  1.00  0.00     0.344 HD
ENDBRANCH  17  21
ENDBRANCH  16  17
ENDBRANCH  13  16
ENDBRANCH   7  12
ENDBRANCH   4   7
ENDBRANCH   2   3
ENDBRANCH   1   2
BRANCH   1  25
ATOM     25  C   UNL A   1      31.613  31.843  26.868  1.00  0.00     0.023 C 
BRANCH  25  26
ATOM     26  C   UNL A   1      32.894  32.654  27.019  1.00  0.00     0.116 C 
BRANCH  26  27
ATOM     27  N   UNL A   1      32.708  33.964  27.628  1.00  0.00    -0.352 N 
ATOM     28  C   UNL A   1      33.443  34.550  28.632  1.00  0.00     0.251 C 
ATOM     29  H   UNL A   1      31.960  34.498  27.275  1.00  0.00     0.163 HD
ATOM     30  O   UNL A   1      33.129  35.658  29.058  1.00  0.00    -0.269 OA
BRANCH  28  31
ATOM     31  C   UNL A   1      34.570  33.802  29.226  1.00  0.00     0.039 A 
ATOM     32  C   UNL A   1      35.872  34.242  28.979  1.00  0.00     0.014 A 
ATOM     33  C   UNL A   1      34.337  32.725  30.085  1.00  0.00     0.014 A 
ATOM     34  C   UNL A   1      36.939  33.642  29.650  1.00  0.00     0.010 A 
ATOM     35  C   UNL A   1      35.391  32.191  30.817  1.00  0.00     0.010 A 
ATOM     36  C   UNL A   1      36.705  32.636  30.601  1.00  0.00    -0.014 A 
BRANCH  36  37
ATOM     37  C   UNL A   1      37.828  32.012  31.349  1.00  0.00     0.031 A 
ATOM     38  C   UNL A   1      38.634  30.916  30.704  1.00  0.00     0.074 A 
ATOM     39  C   UNL A   1      38.091  32.393  32.615  1.00  0.00     0.049 A 
ATOM     40  N   UNL A   1      39.623  30.214  31.196  1.00  0.00    -0.248 NA
ATOM     41  C   UNL A   1      38.250  30.535  29.337  1.00  0.00     0.031 C 
ATOM     42  C   UNL A   1      37.343  33.402  33.370  1.00  0.00     0.029 A 
ATOM     43  N   UNL A   1      39.059  31.977  33.494  1.00  0.00    -0.354 N 
ATOM     44  C   UNL A   1      39.966  29.299  30.205  1.00  0.00     0.074 A 
ATOM     45  C   UNL A   1      39.028  29.487  29.119  1.00  0.00     0.031 C 
ATOM     46  C   UNL A   1      37.901  33.548  34.583  1.00  0.00     0.029 A 
ATOM     47  C   UNL A   1      39.024  32.623  34.708  1.00  0.00     0.049 A 
ATOM     48  H   UNL A   1      39.719  31.279  33.275  1.00  0.00     0.167 HD
ATOM     49  C   UNL A   1      40.988  28.408  30.186  1.00  0.00     0.034 A 
ATOM     50  C   UNL A   1      39.809  32.488  35.795  1.00  0.00     0.034 A 
ATOM     51  C   UNL A   1      41.928  28.250  31.269  1.00  0.00     0.049 A 
ATOM     52  C   UNL A   1      40.955  31.507  35.744  1.00  0.00     0.074 A 
ATOM     53  C   UNL A   1      43.025  27.410  31.344  1.00  0.00     0.029 A 
ATOM     54  N   UNL A   1      41.884  28.951  32.467  1.00  0.00    -0.354 N 
ATOM     55  N   UNL A   1      41.300  30.686  34.778  1.00  0.00    -0.248 NA
ATOM     56  C   UNL A   1      41.831  31.454  36.921  1.00  0.00     0.031 C 
ATOM     57  C   UNL A   1      43.610  27.563  32.607  1.00  0.00     0.029 A 
ATOM     58  C   UNL A   1      42.925  28.553  33.292  1.00  0.00     0.049 A 
ATOM     59  H   UNL A   1      41.211  29.631  32.698  1.00  0.00     0.167 HD
ATOM     60  C   UNL A   1      42.460  30.052  35.217  1.00  0.00     0.074 A 
ATOM     61  C   UNL A   1      42.759  30.597  36.524  1.00  0.00     0.031 C 
ATOM     62  C   UNL A   1      43.212  29.108  34.594  1.00  0.00     0.034 A 
BRANCH  49  63
ATOM     63  C   UNL A   1      41.119  27.533  28.962  1.00  0.00     0.023 A 
ATOM     64  C   UNL A   1      42.115  27.763  27.995  1.00  0.00     0.031 A 
ATOM     65  C   UNL A   1      40.213  26.484  28.732  1.00  0.00     0.131 A 
ATOM     66  C   UNL A   1      42.126  27.017  26.807  1.00  0.00     0.055 A 
ATOM     67  C   UNL A   1      40.285  25.685  27.588  1.00  0.00     0.041 A 
ATOM     68  F   UNL A   1      39.227  26.228  29.606  1.00  0.00    -0.206 F 
ATOM     69  C   UNL A   1      41.235  25.961  26.609  1.00  0.00     0.022 A 
BRANCH  66  70
ATOM     70  S   UNL A   1      43.219  27.550  25.461  1.00  0.00     0.124 S 
ATOM     71  O   UNL A   1      43.824  26.285  25.054  1.00  0.00    -0.237 OA
ATOM     72  O   UNL A   1      42.285  28.146  24.513  1.00  0.00    -0.237 OA
ATOM     73  O   UNL A   1      44.131  28.488  26.112  1.00  0.00    -0.744 OA
ENDBRANCH  66  70
ENDBRANCH  49  63
BRANCH  50  74
ATOM     74  C   UNL A   1      39.563  33.305  37.019  1.00  0.00     0.023 A 
ATOM     75  C   UNL A   1      38.818  32.792  38.093  1.00  0.00     0.031 A 
ATOM     76  C   UNL A   1      40.023  34.630  37.110  1.00  0.00     0.131 A 
ATOM     77  C   UNL A   1      38.504  33.617  39.185  1.00  0.00     0.055 A 
ATOM     78  C   UNL A   1      39.755  35.430  38.224  1.00  0.00     0.041 A 
ATOM     79  F   UNL A   1      40.749  35.167  36.116  1.00  0.00    -0.206 F 
ATOM     80  C   UNL A   1      38.977  34.928  39.263  1.00  0.00     0.022 A 
BRANCH  77  81
ATOM     81  S   UNL A   1      37.386  32.976  40.463  1.00  0.00     0.124 S 
ATOM     82  O   UNL A   1      36.170  32.729  39.698  1.00  0.00    -0.237 OA
ATOM     83  O   UNL A   1      38.105  31.795  40.928  1.00  0.00    -0.237 OA
ATOM     84  O   UNL A   1      37.307  34.074  41.426  1.00  0.00    -0.744 OA
ENDBRANCH  77  81
ENDBRANCH  50  74
BRANCH  62  85
ATOM     85  C   UNL A   1      44.469  28.660  35.300  1.00  0.00     0.023 A 
ATOM     86  C   UNL A   1      44.443  27.708  36.334  1.00  0.00     0.031 A 
ATOM     87  C   UNL A   1      45.710  29.221  34.949  1.00  0.00     0.131 A 
ATOM     88  C   UNL A   1      45.623  27.401  37.030  1.00  0.00     0.055 A 
ATOM     89  C   UNL A   1      46.891  28.861  35.600  1.00  0.00     0.041 A 
ATOM     90  F   UNL A   1      45.795  30.134  33.969  1.00  0.00    -0.206 F 
ATOM     91  C   UNL A   1      46.849  27.959  36.659  1.00  0.00     0.022 A 
BRANCH  88  92
ATOM     92  S   UNL A   1      45.513  26.352  38.506  1.00  0.00     0.124 S 
ATOM     93  O   UNL A   1      45.693  25.017  37.944  1.00  0.00    -0.237 OA
ATOM     94  O   UNL A   1      46.611  26.852  39.326  1.00  0.00    -0.237 OA
ATOM     95  O   UNL A   1      44.175  26.630  39.026  1.00  0.00    -0.744 OA
ENDBRANCH  88  92
ENDBRANCH  62  85
ENDBRANCH  36  37
ENDBRANCH  28  31
ENDBRANCH  26  27
ENDBRANCH  25  26
ENDBRANCH   1  25
TORSDOF 21
ENDMDL
