MODEL 1
REMARK VINA RESULT:     -12.6      0.000      0.000
REMARK SMILES NS(=O)(=O)c1ccc(/N=N/c2ccc(O)c(C(=O)NCCCCNC(=O)c3ccc(-c4c5nc(c(-c6cc(S(=O)(=O)[O-])ccc6F)c6ccc([nH]6)c(-c6cc(S(=O)(=O)[O-])ccc6F)c6nc(c(-c7cc(S(=O)(=O)[O-])ccc7F)c7ccc4[nH]7)C=C6)C=C5)cc3)c2)cc1
REMARK SMILES IDX 21 1 20 2 19 3 17 4 18 5 16 7 11 8 12 9 90 10 13 11 14 12
REMARK SMILES IDX 10 13 9 14 8 15 5 16 6 17 92 18 7 19 91 20 2 21 3 22 4 23
REMARK SMILES IDX 1 24 15 27 22 29 23 30 24 31 25 32 26 34 27 35 28 36 89 37
REMARK SMILES IDX 29 38 88 39 30 40 31 41 32 42 82 43 33 44 87 45 81 46 83 47
REMARK SMILES IDX 34 48 86 49 80 50 79 51 35 53 67 54 47 55 66 56 48 57 51 58
REMARK SMILES IDX 65 59 84 60 49 61 50 62 64 64 85 65 52 66 36 67 37 68 45 69
REMARK SMILES IDX 38 70 44 71 46 72 43 73 39 74 40 75 41 76 42 77 68 78 69 79
REMARK SMILES IDX 77 80 70 81 76 82 78 83 75 84 71 85 72 86 73 87 74 88 53 89
REMARK SMILES IDX 54 90 62 91 55 92 61 93 63 94 60 95 56 96 57 97 58 98 59 99
REMARK H PARENT 19 6 1 25 1 26 15 28 24 33 83 52 51 63
REMARK Flexibility Score: inf
ROOT
ATOM      1  C   UNL A   1      32.144  29.826  27.031  1.00  0.00     0.023 C 
ENDROOT
BRANCH   1   2
ATOM      2  C   UNL A   1      33.384  29.118  26.499  1.00  0.00     0.116 C 
BRANCH   2   3
ATOM      3  N   UNL A   1      33.664  29.356  25.088  1.00  0.00    -0.352 N 
ATOM      4  C   UNL A   1      33.000  28.935  23.953  1.00  0.00     0.255 C 
ATOM      5  O   UNL A   1      33.466  29.198  22.843  1.00  0.00    -0.269 OA
ATOM      6  H   UNL A   1      34.458  29.910  24.915  1.00  0.00     0.163 HD
BRANCH   4   7
ATOM      7  C   UNL A   1      31.779  28.093  24.009  1.00  0.00     0.083 A 
ATOM      8  C   UNL A   1      30.769  25.871  24.132  1.00  0.00     0.087 A 
ATOM      9  C   UNL A   1      29.551  26.422  23.721  1.00  0.00     0.034 A 
ATOM     10  C   UNL A   1      31.839  26.749  24.373  1.00  0.00     0.048 A 
ATOM     11  C   UNL A   1      29.423  27.803  23.526  1.00  0.00     0.049 A 
ATOM     12  C   UNL A   1      30.537  28.631  23.657  1.00  0.00     0.128 A 
BRANCH   8  13
ATOM     13  N   UNL A   1      30.911  24.459  24.224  1.00  0.00    -0.151 NA
ATOM     14  N   UNL A   1      32.123  24.165  24.331  1.00  0.00    -0.151 NA
BRANCH  14  15
ATOM     15  C   UNL A   1      32.417  22.797  24.283  1.00  0.00     0.086 A 
ATOM     16  C   UNL A   1      32.617  20.011  24.067  1.00  0.00     0.082 A 
ATOM     17  C   UNL A   1      32.549  20.788  22.910  1.00  0.00     0.024 A 
ATOM     18  C   UNL A   1      32.587  20.609  25.331  1.00  0.00     0.024 A 
ATOM     19  C   UNL A   1      32.449  22.176  23.026  1.00  0.00     0.031 A 
ATOM     20  C   UNL A   1      32.489  22.001  25.434  1.00  0.00     0.031 A 
BRANCH  16  21
ATOM     21  S   UNL A   1      32.673  18.248  23.938  1.00  0.00     0.238 S 
ATOM     22  O   UNL A   1      31.856  17.656  24.966  1.00  0.00    -0.207 OA
ATOM     23  O   UNL A   1      34.038  17.839  23.688  1.00  0.00    -0.207 OA
BRANCH  21  24
ATOM     24  N   UNL A   1      31.842  17.980  22.501  1.00  0.00    -0.225 NA
ATOM     25  H   UNL A   1      32.448  18.202  21.712  1.00  0.00     0.137 HD
ATOM     26  H   UNL A   1      31.013  18.574  22.472  1.00  0.00     0.137 HD
ENDBRANCH  21  24
ENDBRANCH  16  21
ENDBRANCH  14  15
ENDBRANCH   8  13
BRANCH  12  27
ATOM     27  O   UNL A   1      30.346  29.965  23.419  1.00  0.00    -0.507 OA
ATOM     28  H   UNL A   1      29.567  30.258  22.988  1.00  0.00     0.293 HD
ENDBRANCH  12  27
ENDBRANCH   4   7
ENDBRANCH   2   3
ENDBRANCH   1   2
BRANCH   1  29
ATOM     29  C   UNL A   1      32.032  31.315  26.731  1.00  0.00     0.023 C 
BRANCH  29  30
ATOM     30  C   UNL A   1      33.090  32.205  27.371  1.00  0.00     0.116 C 
BRANCH  30  31
ATOM     31  N   UNL A   1      32.650  33.576  27.592  1.00  0.00    -0.352 N 
ATOM     32  C   UNL A   1      33.135  34.514  28.476  1.00  0.00     0.251 C 
ATOM     33  H   UNL A   1      31.899  33.875  27.029  1.00  0.00     0.163 HD
ATOM     34  O   UNL A   1      32.575  35.600  28.587  1.00  0.00    -0.269 OA
BRANCH  32  35
ATOM     35  C   UNL A   1      34.305  34.183  29.318  1.00  0.00     0.039 A 
ATOM     36  C   UNL A   1      34.101  33.550  30.547  1.00  0.00     0.014 A 
ATOM     37  C   UNL A   1      35.601  34.434  28.863  1.00  0.00     0.014 A 
ATOM     38  C   UNL A   1      35.199  33.080  31.272  1.00  0.00     0.010 A 
ATOM     39  C   UNL A   1      36.686  33.885  29.540  1.00  0.00     0.010 A 
ATOM     40  C   UNL A   1      36.498  33.194  30.747  1.00  0.00    -0.014 A 
BRANCH  40  41
ATOM     41  C   UNL A   1      37.673  32.594  31.436  1.00  0.00     0.031 A 
ATOM     42  C   UNL A   1      38.403  31.438  30.805  1.00  0.00     0.074 A 
ATOM     43  C   UNL A   1      38.032  33.034  32.659  1.00  0.00     0.049 A 
ATOM     44  N   UNL A   1      39.377  30.711  31.287  1.00  0.00    -0.248 NA
ATOM     45  C   UNL A   1      37.952  31.028  29.466  1.00  0.00     0.031 C 
ATOM     46  C   UNL A   1      37.379  34.120  33.393  1.00  0.00     0.029 A 
ATOM     47  N   UNL A   1      39.027  32.616  33.509  1.00  0.00    -0.354 N 
ATOM     48  C   UNL A   1      39.646  29.749  30.319  1.00  0.00     0.074 A 
ATOM     49  C   UNL A   1      38.685  29.946  29.255  1.00  0.00     0.031 C 
ATOM     50  C   UNL A   1      38.007  34.300  34.566  1.00  0.00     0.029 A 
ATOM     51  C   UNL A   1      39.070  33.309  34.698  1.00  0.00     0.049 A 
ATOM     52  H   UNL A   1      39.653  31.888  33.288  1.00  0.00     0.167 HD
ATOM     53  C   UNL A   1      40.620  28.806  30.308  1.00  0.00     0.034 A 
ATOM     54  C   UNL A   1      39.862  33.153  35.779  1.00  0.00     0.034 A 
ATOM     55  C   UNL A   1      41.576  28.629  31.374  1.00  0.00     0.049 A 
ATOM     56  C   UNL A   1      40.913  32.070  35.761  1.00  0.00     0.074 A 
ATOM     57  C   UNL A   1      42.635  27.741  31.442  1.00  0.00     0.029 A 
ATOM     58  N   UNL A   1      41.585  29.348  32.563  1.00  0.00    -0.354 N 
ATOM     59  N   UNL A   1      41.186  31.199  34.816  1.00  0.00    -0.248 NA
ATOM     60  C   UNL A   1      41.768  31.955  36.948  1.00  0.00     0.031 C 
ATOM     61  C   UNL A   1      43.232  27.866  32.701  1.00  0.00     0.029 A 
ATOM     62  C   UNL A   1      42.608  28.897  33.384  1.00  0.00     0.049 A 
ATOM     63  H   UNL A   1      40.958  30.072  32.790  1.00  0.00     0.167 HD
ATOM     64  C   UNL A   1      42.269  30.459  35.283  1.00  0.00     0.074 A 
ATOM     65  C   UNL A   1      42.604  30.994  36.587  1.00  0.00     0.031 C 
ATOM     66  C   UNL A   1      42.930  29.436  34.685  1.00  0.00     0.034 A 
BRANCH  53  67
ATOM     67  C   UNL A   1      40.678  27.878  29.116  1.00  0.00     0.023 A 
ATOM     68  C   UNL A   1      41.617  28.056  28.085  1.00  0.00     0.031 A 
ATOM     69  C   UNL A   1      39.765  26.815  28.995  1.00  0.00     0.131 A 
ATOM     70  C   UNL A   1      41.572  27.238  26.946  1.00  0.00     0.055 A 
ATOM     71  C   UNL A   1      39.783  25.949  27.900  1.00  0.00     0.041 A 
ATOM     72  F   UNL A   1      38.828  26.608  29.934  1.00  0.00    -0.206 F 
ATOM     73  C   UNL A   1      40.680  26.168  26.859  1.00  0.00     0.022 A 
BRANCH  70  74
ATOM     74  S   UNL A   1      42.589  27.694  25.515  1.00  0.00     0.124 S 
ATOM     75  O   UNL A   1      42.467  26.503  24.677  1.00  0.00    -0.237 OA
ATOM     76  O   UNL A   1      41.921  28.893  25.021  1.00  0.00    -0.237 OA
ATOM     77  O   UNL A   1      43.914  27.908  26.090  1.00  0.00    -0.744 OA
ENDBRANCH  70  74
ENDBRANCH  53  67
BRANCH  54  78
ATOM     78  C   UNL A   1      39.690  34.026  36.978  1.00  0.00     0.023 A 
ATOM     79  C   UNL A   1      39.122  33.526  38.162  1.00  0.00     0.031 A 
ATOM     80  C   UNL A   1      40.046  35.386  36.944  1.00  0.00     0.131 A 
ATOM     81  C   UNL A   1      38.878  34.390  39.242  1.00  0.00     0.055 A 
ATOM     82  C   UNL A   1      39.858  36.228  38.042  1.00  0.00     0.041 A 
ATOM     83  F   UNL A   1      40.594  35.918  35.840  1.00  0.00    -0.206 F 
ATOM     84  C   UNL A   1      39.257  35.734  39.195  1.00  0.00     0.022 A 
BRANCH  81  85
ATOM     85  S   UNL A   1      37.965  33.754  40.674  1.00  0.00     0.124 S 
ATOM     86  O   UNL A   1      37.799  34.958  41.478  1.00  0.00    -0.237 OA
ATOM     87  O   UNL A   1      36.757  33.225  40.052  1.00  0.00    -0.237 OA
ATOM     88  O   UNL A   1      38.867  32.749  41.233  1.00  0.00    -0.744 OA
ENDBRANCH  81  85
ENDBRANCH  54  78
BRANCH  66  89
ATOM     89  C   UNL A   1      44.124  28.865  35.413  1.00  0.00     0.023 A 
ATOM     90  C   UNL A   1      43.993  27.866  36.394  1.00  0.00     0.031 A 
ATOM     91  C   UNL A   1      45.418  29.332  35.116  1.00  0.00     0.131 A 
ATOM     92  C   UNL A   1      45.128  27.405  37.079  1.00  0.00     0.055 A 
ATOM     93  C   UNL A   1      46.550  28.822  35.752  1.00  0.00     0.041 A 
ATOM     94  F   UNL A   1      45.604  30.288  34.192  1.00  0.00    -0.206 F 
ATOM     95  C   UNL A   1      46.407  27.862  36.750  1.00  0.00     0.022 A 
BRANCH  92  96
ATOM     96  S   UNL A   1      44.904  26.268  38.474  1.00  0.00     0.124 S 
ATOM     97  O   UNL A   1      45.857  26.791  39.447  1.00  0.00    -0.237 OA
ATOM     98  O   UNL A   1      43.494  26.450  38.801  1.00  0.00    -0.237 OA
ATOM     99  O   UNL A   1      45.244  24.962  37.911  1.00  0.00    -0.744 OA
ENDBRANCH  92  96
ENDBRANCH  66  89
ENDBRANCH  40  41
ENDBRANCH  32  35
ENDBRANCH  30  31
ENDBRANCH  29  30
ENDBRANCH   1  29
TORSDOF 19
ENDMDL
MODEL 2
REMARK VINA RESULT:     -12.0      2.421      8.023
REMARK SMILES NS(=O)(=O)c1ccc(/N=N/c2ccc(O)c(C(=O)NCCCCNC(=O)c3ccc(-c4c5nc(c(-c6cc(S(=O)(=O)[O-])ccc6F)c6ccc([nH]6)c(-c6cc(S(=O)(=O)[O-])ccc6F)c6nc(c(-c7cc(S(=O)(=O)[O-])ccc7F)c7ccc4[nH]7)C=C6)C=C5)cc3)c2)cc1
REMARK SMILES IDX 21 1 20 2 19 3 17 4 18 5 16 7 11 8 12 9 90 10 13 11 14 12
REMARK SMILES IDX 10 13 9 14 8 15 5 16 6 17 92 18 7 19 91 20 2 21 3 22 4 23
REMARK SMILES IDX 1 24 15 27 22 29 23 30 24 31 25 32 26 34 27 35 28 36 89 37
REMARK SMILES IDX 29 38 88 39 30 40 31 41 32 42 82 43 33 44 87 45 81 46 83 47
REMARK SMILES IDX 34 48 86 49 80 50 79 51 35 53 67 54 47 55 66 56 48 57 51 58
REMARK SMILES IDX 65 59 84 60 49 61 50 62 64 64 85 65 52 66 36 67 37 68 45 69
REMARK SMILES IDX 38 70 44 71 46 72 43 73 39 74 40 75 41 76 42 77 68 78 69 79
REMARK SMILES IDX 77 80 70 81 76 82 78 83 75 84 71 85 72 86 73 87 74 88 53 89
REMARK SMILES IDX 54 90 62 91 55 92 61 93 63 94 60 95 56 96 57 97 58 98 59 99
REMARK H PARENT 19 6 1 25 1 26 15 28 24 33 83 52 51 63
REMARK Flexibility Score: inf
ROOT
ATOM      1  C   UNL A   1      32.527  29.699  24.635  1.00  0.00     0.023 C 
ENDROOT
BRANCH   1   2
ATOM      2  C   UNL A   1      33.686  28.730  24.434  1.00  0.00     0.116 C 
BRANCH   2   3
ATOM      3  N   UNL A   1      33.825  28.220  23.075  1.00  0.00    -0.352 N 
ATOM      4  C   UNL A   1      33.211  27.157  22.443  1.00  0.00     0.255 C 
ATOM      5  O   UNL A   1      33.543  26.858  21.295  1.00  0.00    -0.269 OA
ATOM      6  H   UNL A   1      34.463  28.716  22.514  1.00  0.00     0.163 HD
BRANCH   4   7
ATOM      7  C   UNL A   1      32.217  26.289  23.124  1.00  0.00     0.083 A 
ATOM      8  C   UNL A   1      31.642  24.121  24.093  1.00  0.00     0.087 A 
ATOM      9  C   UNL A   1      30.291  24.478  24.044  1.00  0.00     0.034 A 
ATOM     10  C   UNL A   1      32.591  25.091  23.727  1.00  0.00     0.048 A 
ATOM     11  C   UNL A   1      29.905  25.753  23.609  1.00  0.00     0.049 A 
ATOM     12  C   UNL A   1      30.866  26.648  23.139  1.00  0.00     0.128 A 
BRANCH   8  13
ATOM     13  N   UNL A   1      32.011  22.792  24.436  1.00  0.00    -0.151 NA
ATOM     14  N   UNL A   1      32.872  22.373  23.631  1.00  0.00    -0.151 NA
BRANCH  14  15
ATOM     15  C   UNL A   1      33.217  21.023  23.765  1.00  0.00     0.086 A 
ATOM     16  C   UNL A   1      33.585  18.295  24.284  1.00  0.00     0.082 A 
ATOM     17  C   UNL A   1      32.524  18.705  23.476  1.00  0.00     0.024 A 
ATOM     18  C   UNL A   1      34.465  19.232  24.837  1.00  0.00     0.024 A 
ATOM     19  C   UNL A   1      32.348  20.067  23.221  1.00  0.00     0.031 A 
ATOM     20  C   UNL A   1      34.278  20.593  24.574  1.00  0.00     0.031 A 
BRANCH  16  21
ATOM     21  S   UNL A   1      33.780  16.581  24.673  1.00  0.00     0.238 S 
ATOM     22  O   UNL A   1      34.006  15.828  23.466  1.00  0.00    -0.207 OA
ATOM     23  O   UNL A   1      32.788  16.207  25.657  1.00  0.00    -0.207 OA
BRANCH  21  24
ATOM     24  N   UNL A   1      35.254  16.575  25.481  1.00  0.00    -0.225 NA
ATOM     25  H   UNL A   1      35.762  17.432  25.268  1.00  0.00     0.137 HD
ATOM     26  H   UNL A   1      35.803  15.769  25.180  1.00  0.00     0.137 HD
ENDBRANCH  21  24
ENDBRANCH  16  21
ENDBRANCH  14  15
ENDBRANCH   8  13
BRANCH  12  27
ATOM     27  O   UNL A   1      30.413  27.863  22.699  1.00  0.00    -0.507 OA
ATOM     28  H   UNL A   1      29.939  27.923  21.893  1.00  0.00     0.293 HD
ENDBRANCH  12  27
ENDBRANCH   4   7
ENDBRANCH   2   3
ENDBRANCH   1   2
BRANCH   1  29
ATOM     29  C   UNL A   1      31.805  29.624  25.973  1.00  0.00     0.023 C 
BRANCH  29  30
ATOM     30  C   UNL A   1      32.583  30.134  27.180  1.00  0.00     0.116 C 
BRANCH  30  31
ATOM     31  N   UNL A   1      32.695  31.585  27.237  1.00  0.00    -0.352 N 
ATOM     32  C   UNL A   1      33.758  32.360  27.644  1.00  0.00     0.251 C 
ATOM     33  H   UNL A   1      31.898  32.082  26.943  1.00  0.00     0.163 HD
ATOM     34  O   UNL A   1      33.638  33.580  27.711  1.00  0.00    -0.269 OA
BRANCH  32  35
ATOM     35  C   UNL A   1      35.024  31.708  28.041  1.00  0.00     0.039 A 
ATOM     36  C   UNL A   1      36.181  32.483  28.156  1.00  0.00     0.014 A 
ATOM     37  C   UNL A   1      35.052  30.350  28.366  1.00  0.00     0.014 A 
ATOM     38  C   UNL A   1      37.341  31.915  28.693  1.00  0.00     0.010 A 
ATOM     39  C   UNL A   1      36.177  29.813  28.983  1.00  0.00     0.010 A 
ATOM     40  C   UNL A   1      37.332  30.591  29.163  1.00  0.00    -0.014 A 
BRANCH  40  41
ATOM     41  C   UNL A   1      38.512  30.000  29.851  1.00  0.00     0.031 A 
ATOM     42  C   UNL A   1      38.888  30.469  31.231  1.00  0.00     0.074 A 
ATOM     43  C   UNL A   1      39.286  29.103  29.207  1.00  0.00     0.049 A 
ATOM     44  N   UNL A   1      39.933  30.160  31.954  1.00  0.00    -0.248 NA
ATOM     45  C   UNL A   1      37.983  31.441  31.865  1.00  0.00     0.031 C 
ATOM     46  C   UNL A   1      39.048  28.599  27.852  1.00  0.00     0.029 A 
ATOM     47  N   UNL A   1      40.437  28.465  29.597  1.00  0.00    -0.354 N 
ATOM     48  C   UNL A   1      39.820  30.909  33.121  1.00  0.00     0.074 A 
ATOM     49  C   UNL A   1      38.641  31.736  32.975  1.00  0.00     0.031 C 
ATOM     50  C   UNL A   1      40.005  27.711  27.538  1.00  0.00     0.029 A 
ATOM     51  C   UNL A   1      40.957  27.622  28.640  1.00  0.00     0.049 A 
ATOM     52  H   UNL A   1      40.853  28.596  30.480  1.00  0.00     0.167 HD
ATOM     53  C   UNL A   1      40.611  30.890  34.222  1.00  0.00     0.034 A 
ATOM     54  C   UNL A   1      42.081  26.876  28.642  1.00  0.00     0.034 A 
ATOM     55  C   UNL A   1      41.777  30.051  34.355  1.00  0.00     0.049 A 
ATOM     56  C   UNL A   1      42.969  26.900  29.863  1.00  0.00     0.074 A 
ATOM     57  C   UNL A   1      42.619  29.913  35.445  1.00  0.00     0.029 A 
ATOM     58  N   UNL A   1      42.274  29.213  33.364  1.00  0.00    -0.354 N 
ATOM     59  N   UNL A   1      42.821  27.579  30.978  1.00  0.00    -0.248 NA
ATOM     60  C   UNL A   1      44.167  26.054  29.829  1.00  0.00     0.031 C 
ATOM     61  C   UNL A   1      43.666  29.058  35.085  1.00  0.00     0.029 A 
ATOM     62  C   UNL A   1      43.429  28.586  33.804  1.00  0.00     0.049 A 
ATOM     63  H   UNL A   1      41.864  29.083  32.477  1.00  0.00     0.167 HD
ATOM     64  C   UNL A   1      43.889  27.208  31.792  1.00  0.00     0.074 A 
ATOM     65  C   UNL A   1      44.664  26.241  31.043  1.00  0.00     0.031 C 
ATOM     66  C   UNL A   1      44.197  27.625  33.046  1.00  0.00     0.034 A 
BRANCH  53  67
ATOM     67  C   UNL A   1      40.252  31.824  35.355  1.00  0.00     0.023 A 
ATOM     68  C   UNL A   1      39.335  31.455  36.355  1.00  0.00     0.031 A 
ATOM     69  C   UNL A   1      40.814  33.111  35.422  1.00  0.00     0.131 A 
ATOM     70  C   UNL A   1      38.949  32.387  37.330  1.00  0.00     0.055 A 
ATOM     71  C   UNL A   1      40.493  34.002  36.448  1.00  0.00     0.041 A 
ATOM     72  F   UNL A   1      41.676  33.530  34.484  1.00  0.00    -0.206 F 
ATOM     73  C   UNL A   1      39.542  33.648  37.401  1.00  0.00     0.022 A 
BRANCH  70  74
ATOM     74  S   UNL A   1      37.547  31.980  38.407  1.00  0.00     0.124 S 
ATOM     75  O   UNL A   1      36.572  32.996  38.017  1.00  0.00    -0.237 OA
ATOM     76  O   UNL A   1      37.234  30.610  38.014  1.00  0.00    -0.237 OA
ATOM     77  O   UNL A   1      38.092  32.135  39.753  1.00  0.00    -0.744 OA
ENDBRANCH  70  74
ENDBRANCH  53  67
BRANCH  54  78
ATOM     78  C   UNL A   1      42.450  26.054  27.451  1.00  0.00     0.023 A 
ATOM     79  C   UNL A   1      42.033  24.717  27.337  1.00  0.00     0.031 A 
ATOM     80  C   UNL A   1      43.266  26.576  26.433  1.00  0.00     0.131 A 
ATOM     81  C   UNL A   1      42.476  23.934  26.259  1.00  0.00     0.055 A 
ATOM     82  C   UNL A   1      43.655  25.812  25.330  1.00  0.00     0.041 A 
ATOM     83  F   UNL A   1      43.694  27.848  26.488  1.00  0.00    -0.206 F 
ATOM     84  C   UNL A   1      43.271  24.477  25.247  1.00  0.00     0.022 A 
BRANCH  81  85
ATOM     85  S   UNL A   1      42.081  22.164  26.251  1.00  0.00     0.124 S 
ATOM     86  O   UNL A   1      42.888  21.686  25.135  1.00  0.00    -0.237 OA
ATOM     87  O   UNL A   1      42.514  21.751  27.581  1.00  0.00    -0.237 OA
ATOM     88  O   UNL A   1      40.636  22.140  26.033  1.00  0.00    -0.744 OA
ENDBRANCH  81  85
ENDBRANCH  54  78
BRANCH  66  89
ATOM     89  C   UNL A   1      45.395  26.991  33.712  1.00  0.00     0.023 A 
ATOM     90  C   UNL A   1      45.280  25.852  34.528  1.00  0.00     0.031 A 
ATOM     91  C   UNL A   1      46.677  27.539  33.521  1.00  0.00     0.131 A 
ATOM     92  C   UNL A   1      46.416  25.331  35.166  1.00  0.00     0.055 A 
ATOM     93  C   UNL A   1      47.813  26.976  34.104  1.00  0.00     0.041 A 
ATOM     94  F   UNL A   1      46.848  28.629  32.756  1.00  0.00    -0.206 F 
ATOM     95  C   UNL A   1      47.684  25.874  34.943  1.00  0.00     0.022 A 
BRANCH  92  96
ATOM     96  S   UNL A   1      46.203  23.991  36.369  1.00  0.00     0.124 S 
ATOM     97  O   UNL A   1      45.411  23.027  35.612  1.00  0.00    -0.237 OA
ATOM     98  O   UNL A   1      47.580  23.602  36.651  1.00  0.00    -0.237 OA
ATOM     99  O   UNL A   1      45.502  24.635  37.479  1.00  0.00    -0.744 OA
ENDBRANCH  92  96
ENDBRANCH  66  89
ENDBRANCH  40  41
ENDBRANCH  32  35
ENDBRANCH  30  31
ENDBRANCH  29  30
ENDBRANCH   1  29
TORSDOF 19
ENDMDL
MODEL 3
REMARK VINA RESULT:     -11.9      2.459      3.192
REMARK SMILES NS(=O)(=O)c1ccc(/N=N/c2ccc(O)c(C(=O)NCCCCNC(=O)c3ccc(-c4c5nc(c(-c6cc(S(=O)(=O)[O-])ccc6F)c6ccc([nH]6)c(-c6cc(S(=O)(=O)[O-])ccc6F)c6nc(c(-c7cc(S(=O)(=O)[O-])ccc7F)c7ccc4[nH]7)C=C6)C=C5)cc3)c2)cc1
REMARK SMILES IDX 21 1 20 2 19 3 17 4 18 5 16 7 11 8 12 9 90 10 13 11 14 12
REMARK SMILES IDX 10 13 9 14 8 15 5 16 6 17 92 18 7 19 91 20 2 21 3 22 4 23
REMARK SMILES IDX 1 24 15 27 22 29 23 30 24 31 25 32 26 34 27 35 28 36 89 37
REMARK SMILES IDX 29 38 88 39 30 40 31 41 32 42 82 43 33 44 87 45 81 46 83 47
REMARK SMILES IDX 34 48 86 49 80 50 79 51 35 53 67 54 47 55 66 56 48 57 51 58
REMARK SMILES IDX 65 59 84 60 49 61 50 62 64 64 85 65 52 66 36 67 37 68 45 69
REMARK SMILES IDX 38 70 44 71 46 72 43 73 39 74 40 75 41 76 42 77 68 78 69 79
REMARK SMILES IDX 77 80 70 81 76 82 78 83 75 84 71 85 72 86 73 87 74 88 53 89
REMARK SMILES IDX 54 90 62 91 55 92 61 93 63 94 60 95 56 96 57 97 58 98 59 99
REMARK H PARENT 19 6 1 25 1 26 15 28 24 33 83 52 51 63
REMARK Flexibility Score: inf
ROOT
ATOM      1  C   UNL A   1      33.253  29.338  23.464  1.00  0.00     0.023 C 
ENDROOT
BRANCH   1   2
ATOM      2  C   UNL A   1      34.134  28.107  23.286  1.00  0.00     0.116 C 
BRANCH   2   3
ATOM      3  N   UNL A   1      34.019  27.458  21.986  1.00  0.00    -0.352 N 
ATOM      4  C   UNL A   1      33.150  26.485  21.535  1.00  0.00     0.255 C 
ATOM      5  O   UNL A   1      33.287  26.024  20.401  1.00  0.00    -0.269 OA
ATOM      6  H   UNL A   1      34.671  27.765  21.316  1.00  0.00     0.163 HD
BRANCH   4   7
ATOM      7  C   UNL A   1      32.094  25.897  22.399  1.00  0.00     0.083 A 
ATOM      8  C   UNL A   1      31.204  23.963  23.598  1.00  0.00     0.087 A 
ATOM      9  C   UNL A   1      29.967  24.610  23.686  1.00  0.00     0.034 A 
ATOM     10  C   UNL A   1      32.280  24.677  23.044  1.00  0.00     0.048 A 
ATOM     11  C   UNL A   1      29.809  25.916  23.203  1.00  0.00     0.049 A 
ATOM     12  C   UNL A   1      30.867  26.549  22.550  1.00  0.00     0.128 A 
BRANCH   8  13
ATOM     13  N   UNL A   1      31.320  22.603  23.996  1.00  0.00    -0.151 NA
ATOM     14  N   UNL A   1      32.433  22.155  23.641  1.00  0.00    -0.151 NA
BRANCH  14  15
ATOM     15  C   UNL A   1      32.621  20.782  23.841  1.00  0.00     0.086 A 
ATOM     16  C   UNL A   1      33.375  18.097  24.096  1.00  0.00     0.082 A 
ATOM     17  C   UNL A   1      33.901  19.045  24.974  1.00  0.00     0.024 A 
ATOM     18  C   UNL A   1      32.477  18.473  23.092  1.00  0.00     0.024 A 
ATOM     19  C   UNL A   1      33.520  20.382  24.841  1.00  0.00     0.031 A 
ATOM     20  C   UNL A   1      32.102  19.815  22.970  1.00  0.00     0.031 A 
BRANCH  16  21
ATOM     21  S   UNL A   1      33.902  16.412  24.208  1.00  0.00     0.238 S 
ATOM     22  O   UNL A   1      34.386  15.965  22.927  1.00  0.00    -0.207 OA
ATOM     23  O   UNL A   1      32.933  15.668  24.983  1.00  0.00    -0.207 OA
BRANCH  21  24
ATOM     24  N   UNL A   1      35.268  16.539  25.179  1.00  0.00    -0.225 NA
ATOM     25  H   UNL A   1      35.864  17.289  24.830  1.00  0.00     0.137 HD
ATOM     26  H   UNL A   1      35.782  15.658  25.159  1.00  0.00     0.137 HD
ENDBRANCH  21  24
ENDBRANCH  16  21
ENDBRANCH  14  15
ENDBRANCH   8  13
BRANCH  12  27
ATOM     27  O   UNL A   1      30.631  27.811  22.075  1.00  0.00    -0.507 OA
ATOM     28  H   UNL A   1      31.248  28.219  21.500  1.00  0.00     0.293 HD
ENDBRANCH  12  27
ENDBRANCH   4   7
ENDBRANCH   2   3
ENDBRANCH   1   2
BRANCH   1  29
ATOM     29  C   UNL A   1      32.253  29.295  24.612  1.00  0.00     0.023 C 
BRANCH  29  30
ATOM     30  C   UNL A   1      32.803  29.643  25.989  1.00  0.00     0.116 C 
BRANCH  30  31
ATOM     31  N   UNL A   1      32.470  30.991  26.432  1.00  0.00    -0.352 N 
ATOM     32  C   UNL A   1      33.180  31.837  27.254  1.00  0.00     0.251 C 
ATOM     33  H   UNL A   1      31.615  31.347  26.097  1.00  0.00     0.163 HD
ATOM     34  O   UNL A   1      32.695  32.912  27.594  1.00  0.00    -0.269 OA
BRANCH  32  35
ATOM     35  C   UNL A   1      34.507  31.419  27.755  1.00  0.00     0.039 A 
ATOM     36  C   UNL A   1      35.534  32.364  27.828  1.00  0.00     0.014 A 
ATOM     37  C   UNL A   1      34.714  30.118  28.217  1.00  0.00     0.014 A 
ATOM     38  C   UNL A   1      36.737  32.028  28.455  1.00  0.00     0.010 A 
ATOM     39  C   UNL A   1      35.875  29.815  28.921  1.00  0.00     0.010 A 
ATOM     40  C   UNL A   1      36.897  30.768  29.057  1.00  0.00    -0.014 A 
BRANCH  40  41
ATOM     41  C   UNL A   1      38.116  30.426  29.839  1.00  0.00     0.031 A 
ATOM     42  C   UNL A   1      39.110  29.441  29.284  1.00  0.00     0.074 A 
ATOM     43  C   UNL A   1      38.290  30.939  31.074  1.00  0.00     0.049 A 
ATOM     44  N   UNL A   1      40.174  28.931  29.848  1.00  0.00    -0.248 NA
ATOM     45  C   UNL A   1      38.850  28.938  27.926  1.00  0.00     0.031 C 
ATOM     46  C   UNL A   1      37.377  31.873  31.737  1.00  0.00     0.029 A 
ATOM     47  N   UNL A   1      39.285  30.739  31.999  1.00  0.00    -0.354 N 
ATOM     48  C   UNL A   1      40.703  28.038  28.922  1.00  0.00     0.074 A 
ATOM     49  C   UNL A   1      39.801  28.027  27.789  1.00  0.00     0.031 C 
ATOM     50  C   UNL A   1      37.869  32.186  32.947  1.00  0.00     0.029 A 
ATOM     51  C   UNL A   1      39.099  31.434  33.173  1.00  0.00     0.049 A 
ATOM     52  H   UNL A   1      40.060  30.153  31.838  1.00  0.00     0.167 HD
ATOM     53  C   UNL A   1      41.846  27.314  28.998  1.00  0.00     0.034 A 
ATOM     54  C   UNL A   1      39.826  31.451  34.310  1.00  0.00     0.034 A 
ATOM     55  C   UNL A   1      42.739  27.344  30.131  1.00  0.00     0.049 A 
ATOM     56  C   UNL A   1      41.075  30.606  34.387  1.00  0.00     0.074 A 
ATOM     57  C   UNL A   1      43.949  26.691  30.292  1.00  0.00     0.029 A 
ATOM     58  N   UNL A   1      42.516  28.057  31.303  1.00  0.00    -0.354 N 
ATOM     59  N   UNL A   1      41.586  29.803  33.482  1.00  0.00    -0.248 NA
ATOM     60  C   UNL A   1      41.847  30.675  35.634  1.00  0.00     0.031 C 
ATOM     61  C   UNL A   1      44.416  26.945  31.585  1.00  0.00     0.029 A 
ATOM     62  C   UNL A   1      43.547  27.831  32.202  1.00  0.00     0.049 A 
ATOM     63  H   UNL A   1      41.739  28.639  31.470  1.00  0.00     0.167 HD
ATOM     64  C   UNL A   1      42.761  29.303  34.039  1.00  0.00     0.074 A 
ATOM     65  C   UNL A   1      42.885  29.904  35.351  1.00  0.00     0.031 C 
ATOM     66  C   UNL A   1      43.658  28.432  33.511  1.00  0.00     0.034 A 
BRANCH  53  67
ATOM     67  C   UNL A   1      42.178  26.409  27.833  1.00  0.00     0.023 A 
ATOM     68  C   UNL A   1      41.682  25.095  27.754  1.00  0.00     0.031 A 
ATOM     69  C   UNL A   1      43.022  26.856  26.801  1.00  0.00     0.131 A 
ATOM     70  C   UNL A   1      42.097  24.252  26.712  1.00  0.00     0.055 A 
ATOM     71  C   UNL A   1      43.358  26.040  25.720  1.00  0.00     0.041 A 
ATOM     72  F   UNL A   1      43.546  28.091  26.833  1.00  0.00    -0.206 F 
ATOM     73  C   UNL A   1      42.909  24.723  25.679  1.00  0.00     0.022 A 
BRANCH  70  74
ATOM     74  S   UNL A   1      41.686  22.488  26.813  1.00  0.00     0.124 S 
ATOM     75  O   UNL A   1      42.554  22.046  27.903  1.00  0.00    -0.237 OA
ATOM     76  O   UNL A   1      40.258  22.512  27.104  1.00  0.00    -0.237 OA
ATOM     77  O   UNL A   1      42.047  21.976  25.493  1.00  0.00    -0.744 OA
ENDBRANCH  70  74
ENDBRANCH  53  67
BRANCH  54  78
ATOM     78  C   UNL A   1      39.395  32.278  35.476  1.00  0.00     0.023 A 
ATOM     79  C   UNL A   1      39.760  33.630  35.580  1.00  0.00     0.031 A 
ATOM     80  C   UNL A   1      38.652  31.716  36.529  1.00  0.00     0.131 A 
ATOM     81  C   UNL A   1      39.430  34.360  36.733  1.00  0.00     0.055 A 
ATOM     82  C   UNL A   1      38.273  32.462  37.647  1.00  0.00     0.041 A 
ATOM     83  F   UNL A   1      38.274  30.428  36.484  1.00  0.00    -0.206 F 
ATOM     84  C   UNL A   1      38.675  33.789  37.760  1.00  0.00     0.022 A 
BRANCH  81  85
ATOM     85  S   UNL A   1      40.089  36.039  36.916  1.00  0.00     0.124 S 
ATOM     86  O   UNL A   1      41.493  35.776  37.207  1.00  0.00    -0.237 OA
ATOM     87  O   UNL A   1      39.801  36.622  35.610  1.00  0.00    -0.237 OA
ATOM     88  O   UNL A   1      39.313  36.589  38.026  1.00  0.00    -0.744 OA
ENDBRANCH  81  85
ENDBRANCH  54  78
BRANCH  66  89
ATOM     89  C   UNL A   1      44.887  28.122  34.332  1.00  0.00     0.023 A 
ATOM     90  C   UNL A   1      44.897  27.114  35.311  1.00  0.00     0.031 A 
ATOM     91  C   UNL A   1      46.072  28.853  34.126  1.00  0.00     0.131 A 
ATOM     92  C   UNL A   1      46.049  26.900  36.083  1.00  0.00     0.055 A 
ATOM     93  C   UNL A   1      47.235  28.590  34.850  1.00  0.00     0.041 A 
ATOM     94  F   UNL A   1      46.122  29.832  33.207  1.00  0.00    -0.206 F 
ATOM     95  C   UNL A   1      47.224  27.618  35.845  1.00  0.00     0.022 A 
BRANCH  92  96
ATOM     96  S   UNL A   1      45.965  25.735  37.471  1.00  0.00     0.124 S 
ATOM     97  O   UNL A   1      46.479  26.539  38.574  1.00  0.00    -0.237 OA
ATOM     98  O   UNL A   1      44.543  25.415  37.524  1.00  0.00    -0.237 OA
ATOM     99  O   UNL A   1      46.831  24.635  37.048  1.00  0.00    -0.744 OA
ENDBRANCH  92  96
ENDBRANCH  66  89
ENDBRANCH  40  41
ENDBRANCH  32  35
ENDBRANCH  30  31
ENDBRANCH  29  30
ENDBRANCH   1  29
TORSDOF 19
ENDMDL
