MODEL 1
REMARK VINA RESULT:     -11.5      0.000      0.000
REMARK SMILES C[C@H](O)[C@H](NC(=O)N1CC[N@H+]2CCC[C@@H]2C1)C(=O)NCCCCNC(=O)c1ccc(-c2c3nc(c(-c4cc(S(=O)(=O)[O-])ccc4F)c4ccc([nH]4)c(-c4cc(S(=O)(=O)[O-])ccc4F)c4nc(c(-c5cc(S(=O)(=O)[O-])ccc5F)c5ccc2[nH]5)C=C4)C=C3)cc1
REMARK SMILES IDX 22 1 21 2 20 3 19 4 17 5 18 6 4 8 2 9 1 10 3 11 5 13 6 14
REMARK SMILES IDX 7 16 8 17 9 18 16 19 10 20 15 21 11 22 14 23 12 24 13 26
REMARK SMILES IDX 23 27 24 28 25 29 26 31 27 32 28 33 89 34 29 35 88 36 30 37
REMARK SMILES IDX 31 38 32 39 82 40 33 41 87 42 81 43 83 44 34 45 86 46 80 47
REMARK SMILES IDX 79 48 35 50 67 51 47 52 66 53 48 54 51 55 65 56 84 57 49 58
REMARK SMILES IDX 50 59 64 61 85 62 52 63 36 64 37 65 45 66 38 67 44 68 46 69
REMARK SMILES IDX 43 70 39 71 40 72 41 73 42 74 68 75 69 76 77 77 70 78 76 79
REMARK SMILES IDX 78 80 75 81 71 82 72 83 73 84 74 85 53 86 54 87 62 88 55 89
REMARK SMILES IDX 61 90 63 91 60 92 56 93 57 94 58 95 59 96
REMARK H PARENT 19 7 3 12 5 15 11 25 24 30 83 49 51 60
REMARK Flexibility Score: inf
ROOT
ATOM      1  C   UNL A   1      32.951  29.682  25.223  1.00  0.00     0.023 C 
ENDROOT
BRANCH   1   2
ATOM      2  C   UNL A   1      32.105  29.327  23.998  1.00  0.00     0.023 C 
BRANCH   2   3
ATOM      3  C   UNL A   1      32.929  28.922  22.779  1.00  0.00     0.116 C 
BRANCH   3   4
ATOM      4  N   UNL A   1      33.645  27.703  23.045  1.00  0.00    -0.354 N 
ATOM      5  C   UNL A   1      33.294  26.532  22.426  1.00  0.00     0.245 C 
ATOM      6  O   UNL A   1      33.474  26.323  21.231  1.00  0.00    -0.273 OA
ATOM      7  H   UNL A   1      34.397  27.711  23.680  1.00  0.00     0.163 HD
BRANCH   5   8
ATOM      8  C   UNL A   1      32.525  25.573  23.355  1.00  0.00     0.201 C 
BRANCH   8   9
ATOM      9  C   UNL A   1      31.035  25.442  22.858  1.00  0.00     0.143 C 
ATOM     10  C   UNL A   1      29.949  26.194  23.632  1.00  0.00     0.041 C 
BRANCH   9  11
ATOM     11  O   UNL A   1      30.650  24.046  22.856  1.00  0.00    -0.391 OA
ATOM     12  H   UNL A   1      29.715  23.969  22.604  1.00  0.00     0.211 HD
ENDBRANCH   9  11
ENDBRANCH   8   9
BRANCH   8  13
ATOM     13  N   UNL A   1      32.510  26.059  24.763  1.00  0.00    -0.324 N 
ATOM     14  C   UNL A   1      32.384  25.600  26.016  1.00  0.00     0.318 C 
ATOM     15  H   UNL A   1      32.631  27.036  24.777  1.00  0.00     0.166 HD
ATOM     16  O   UNL A   1      32.479  26.466  26.892  1.00  0.00    -0.249 OA
BRANCH  14  17
ATOM     17  N   UNL A   1      32.314  24.275  26.324  1.00  0.00    -0.313 N 
ATOM     18  C   UNL A   1      31.148  23.431  26.640  1.00  0.00     0.183 C 
ATOM     19  C   UNL A   1      33.590  23.517  26.422  1.00  0.00     0.186 C 
ATOM     20  C   UNL A   1      31.103  22.133  25.788  1.00  0.00     0.284 C 
ATOM     21  C   UNL A   1      33.515  22.292  25.505  1.00  0.00     0.204 C 
ATOM     22  N   UNL A   1      32.380  21.423  25.845  1.00  0.00    -0.330 N 
ATOM     23  C   UNL A   1      34.645  21.283  25.559  1.00  0.00     0.073 C 
ATOM     24  C   UNL A   1      32.507  20.262  24.968  1.00  0.00     0.262 C 
ATOM     25  H   UNL A   1      32.394  21.109  26.816  1.00  0.00     0.348 HD
ATOM     26  C   UNL A   1      34.025  20.062  24.866  1.00  0.00     0.068 C 
ENDBRANCH  14  17
ENDBRANCH   8  13
ENDBRANCH   5   8
ENDBRANCH   3   4
ENDBRANCH   2   3
ENDBRANCH   1   2
BRANCH   1  27
ATOM     27  C   UNL A   1      32.150  30.080  26.454  1.00  0.00     0.116 C 
BRANCH  27  28
ATOM     28  N   UNL A   1      32.179  31.513  26.637  1.00  0.00    -0.352 N 
ATOM     29  C   UNL A   1      33.020  32.305  27.376  1.00  0.00     0.251 C 
ATOM     30  H   UNL A   1      31.479  32.003  26.149  1.00  0.00     0.163 HD
ATOM     31  O   UNL A   1      32.643  33.451  27.626  1.00  0.00    -0.269 OA
BRANCH  29  32
ATOM     32  C   UNL A   1      34.339  31.840  27.892  1.00  0.00     0.039 A 
ATOM     33  C   UNL A   1      34.413  30.528  28.375  1.00  0.00     0.014 A 
ATOM     34  C   UNL A   1      35.453  32.671  28.045  1.00  0.00     0.014 A 
ATOM     35  C   UNL A   1      35.572  30.062  29.007  1.00  0.00     0.010 A 
ATOM     36  C   UNL A   1      36.645  32.177  28.597  1.00  0.00     0.010 A 
ATOM     37  C   UNL A   1      36.708  30.877  29.123  1.00  0.00    -0.014 A 
BRANCH  37  38
ATOM     38  C   UNL A   1      37.915  30.395  29.860  1.00  0.00     0.031 A 
ATOM     39  C   UNL A   1      38.150  30.792  31.299  1.00  0.00     0.074 A 
ATOM     40  C   UNL A   1      38.802  29.579  29.254  1.00  0.00     0.049 A 
ATOM     41  N   UNL A   1      39.133  30.461  32.102  1.00  0.00    -0.248 NA
ATOM     42  C   UNL A   1      37.163  31.693  31.909  1.00  0.00     0.031 C 
ATOM     43  C   UNL A   1      38.719  29.122  27.866  1.00  0.00     0.029 A 
ATOM     44  N   UNL A   1      39.945  28.980  29.730  1.00  0.00    -0.354 N 
ATOM     45  C   UNL A   1      38.887  31.120  33.303  1.00  0.00     0.074 A 
ATOM     46  C   UNL A   1      37.695  31.917  33.100  1.00  0.00     0.031 C 
ATOM     47  C   UNL A   1      39.745  28.293  27.613  1.00  0.00     0.029 A 
ATOM     48  C   UNL A   1      40.583  28.188  28.805  1.00  0.00     0.049 A 
ATOM     49  H   UNL A   1      40.275  29.107  30.649  1.00  0.00     0.167 HD
ATOM     50  C   UNL A   1      39.568  31.052  34.476  1.00  0.00     0.034 A 
ATOM     51  C   UNL A   1      41.716  27.461  28.896  1.00  0.00     0.034 A 
ATOM     52  C   UNL A   1      40.741  30.237  34.691  1.00  0.00     0.049 A 
ATOM     53  C   UNL A   1      42.476  27.425  30.197  1.00  0.00     0.074 A 
ATOM     54  C   UNL A   1      41.461  30.055  35.860  1.00  0.00     0.029 A 
ATOM     55  N   UNL A   1      41.371  29.474  33.718  1.00  0.00    -0.354 N 
ATOM     56  N   UNL A   1      42.201  28.023  31.332  1.00  0.00    -0.248 NA
ATOM     57  C   UNL A   1      43.695  26.604  30.230  1.00  0.00     0.031 C 
ATOM     58  C   UNL A   1      42.560  29.235  35.580  1.00  0.00     0.029 A 
ATOM     59  C   UNL A   1      42.488  28.847  34.252  1.00  0.00     0.049 A 
ATOM     60  H   UNL A   1      41.070  29.389  32.784  1.00  0.00     0.167 HD
ATOM     61  C   UNL A   1      43.198  27.624  32.221  1.00  0.00     0.074 A 
ATOM     62  C   UNL A   1      44.072  26.729  31.494  1.00  0.00     0.031 C 
ATOM     63  C   UNL A   1      43.367  27.964  33.524  1.00  0.00     0.034 A 
BRANCH  50  64
ATOM     64  C   UNL A   1      39.068  31.904  35.619  1.00  0.00     0.023 A 
ATOM     65  C   UNL A   1      38.412  31.341  36.728  1.00  0.00     0.031 A 
ATOM     66  C   UNL A   1      39.233  33.300  35.591  1.00  0.00     0.131 A 
ATOM     67  C   UNL A   1      37.879  32.175  37.723  1.00  0.00     0.055 A 
ATOM     68  C   UNL A   1      38.771  34.118  36.624  1.00  0.00     0.041 A 
ATOM     69  F   UNL A   1      39.837  33.895  34.550  1.00  0.00    -0.206 F 
ATOM     70  C   UNL A   1      38.074  33.557  37.691  1.00  0.00     0.022 A 
BRANCH  67  71
ATOM     71  S   UNL A   1      36.801  31.438  38.982  1.00  0.00     0.124 S 
ATOM     72  O   UNL A   1      35.629  32.307  38.913  1.00  0.00    -0.237 OA
ATOM     73  O   UNL A   1      36.619  30.079  38.486  1.00  0.00    -0.237 OA
ATOM     74  O   UNL A   1      37.582  31.554  40.212  1.00  0.00    -0.744 OA
ENDBRANCH  67  71
ENDBRANCH  50  64
BRANCH  51  75
ATOM     75  C   UNL A   1      42.225  26.714  27.711  1.00  0.00     0.023 A 
ATOM     76  C   UNL A   1      41.969  25.342  27.553  1.00  0.00     0.031 A 
ATOM     77  C   UNL A   1      43.022  27.354  26.745  1.00  0.00     0.131 A 
ATOM     78  C   UNL A   1      42.543  24.644  26.479  1.00  0.00     0.055 A 
ATOM     79  C   UNL A   1      43.550  26.665  25.652  1.00  0.00     0.041 A 
ATOM     80  F   UNL A   1      43.293  28.664  26.850  1.00  0.00    -0.206 F 
ATOM     81  C   UNL A   1      43.321  25.299  25.522  1.00  0.00     0.022 A 
BRANCH  78  82
ATOM     82  S   UNL A   1      42.319  22.846  26.395  1.00  0.00     0.124 S 
ATOM     83  O   UNL A   1      42.556  22.584  24.977  1.00  0.00    -0.237 OA
ATOM     84  O   UNL A   1      43.336  22.369  27.317  1.00  0.00    -0.237 OA
ATOM     85  O   UNL A   1      40.936  22.656  26.839  1.00  0.00    -0.744 OA
ENDBRANCH  78  82
ENDBRANCH  51  75
BRANCH  63  86
ATOM     86  C   UNL A   1      44.520  27.325  34.259  1.00  0.00     0.023 A 
ATOM     87  C   UNL A   1      44.414  26.049  34.841  1.00  0.00     0.031 A 
ATOM     88  C   UNL A   1      45.741  28.010  34.389  1.00  0.00     0.131 A 
ATOM     89  C   UNL A   1      45.492  25.518  35.567  1.00  0.00     0.055 A 
ATOM     90  C   UNL A   1      46.828  27.456  35.067  1.00  0.00     0.041 A 
ATOM     91  F   UNL A   1      45.899  29.232  33.855  1.00  0.00    -0.206 F 
ATOM     92  C   UNL A   1      46.703  26.208  35.672  1.00  0.00     0.022 A 
BRANCH  89  93
ATOM     93  S   UNL A   1      45.268  23.944  36.441  1.00  0.00     0.124 S 
ATOM     94  O   UNL A   1      45.166  24.379  37.831  1.00  0.00    -0.237 OA
ATOM     95  O   UNL A   1      44.042  23.426  35.845  1.00  0.00    -0.237 OA
ATOM     96  O   UNL A   1      46.480  23.194  36.114  1.00  0.00    -0.744 OA
ENDBRANCH  89  93
ENDBRANCH  63  86
ENDBRANCH  37  38
ENDBRANCH  29  32
ENDBRANCH  27  28
ENDBRANCH   1  27
TORSDOF 18
ENDMDL
MODEL 2
REMARK VINA RESULT:     -11.5      4.932     10.229
REMARK SMILES C[C@H](O)[C@H](NC(=O)N1CC[N@H+]2CCC[C@@H]2C1)C(=O)NCCCCNC(=O)c1ccc(-c2c3nc(c(-c4cc(S(=O)(=O)[O-])ccc4F)c4ccc([nH]4)c(-c4cc(S(=O)(=O)[O-])ccc4F)c4nc(c(-c5cc(S(=O)(=O)[O-])ccc5F)c5ccc2[nH]5)C=C4)C=C3)cc1
REMARK SMILES IDX 22 1 21 2 20 3 19 4 17 5 18 6 4 8 2 9 1 10 3 11 5 13 6 14
REMARK SMILES IDX 7 16 8 17 9 18 16 19 10 20 15 21 11 22 14 23 12 24 13 26
REMARK SMILES IDX 23 27 24 28 25 29 26 31 27 32 28 33 89 34 29 35 88 36 30 37
REMARK SMILES IDX 31 38 32 39 82 40 33 41 87 42 81 43 83 44 34 45 86 46 80 47
REMARK SMILES IDX 79 48 35 50 67 51 47 52 66 53 48 54 51 55 65 56 84 57 49 58
REMARK SMILES IDX 50 59 64 61 85 62 52 63 36 64 37 65 45 66 38 67 44 68 46 69
REMARK SMILES IDX 43 70 39 71 40 72 41 73 42 74 68 75 69 76 77 77 70 78 76 79
REMARK SMILES IDX 78 80 75 81 71 82 72 83 73 84 74 85 53 86 54 87 62 88 55 89
REMARK SMILES IDX 61 90 63 91 60 92 56 93 57 94 58 95 59 96
REMARK H PARENT 19 7 3 12 5 15 11 25 24 30 83 49 51 60
REMARK Flexibility Score: inf
ROOT
ATOM      1  C   UNL A   1      35.969  21.618  24.383  1.00  0.00     0.023 C 
ENDROOT
BRANCH   1   2
ATOM      2  C   UNL A   1      34.927  21.203  25.424  1.00  0.00     0.023 C 
BRANCH   2   3
ATOM      3  C   UNL A   1      33.717  20.487  24.831  1.00  0.00     0.116 C 
BRANCH   3   4
ATOM      4  N   UNL A   1      32.585  21.374  24.794  1.00  0.00    -0.354 N 
ATOM      5  C   UNL A   1      32.356  22.178  23.709  1.00  0.00     0.245 C 
ATOM      6  O   UNL A   1      31.996  21.748  22.618  1.00  0.00    -0.273 OA
ATOM      7  H   UNL A   1      31.966  21.402  25.559  1.00  0.00     0.163 HD
BRANCH   5   8
ATOM      8  C   UNL A   1      32.734  23.649  23.965  1.00  0.00     0.201 C 
BRANCH   8   9
ATOM      9  C   UNL A   1      31.547  24.375  24.708  1.00  0.00     0.143 C 
ATOM     10  C   UNL A   1      31.603  24.463  26.236  1.00  0.00     0.041 C 
BRANCH   9  11
ATOM     11  O   UNL A   1      30.300  23.720  24.377  1.00  0.00    -0.391 OA
ATOM     12  H   UNL A   1      29.915  24.138  23.590  1.00  0.00     0.211 HD
ENDBRANCH   9  11
ENDBRANCH   8   9
BRANCH   8  13
ATOM     13  N   UNL A   1      33.011  24.379  22.697  1.00  0.00    -0.324 N 
ATOM     14  C   UNL A   1      32.967  25.616  22.182  1.00  0.00     0.318 C 
ATOM     15  H   UNL A   1      33.329  23.746  22.013  1.00  0.00     0.166 HD
ATOM     16  O   UNL A   1      33.355  25.699  21.012  1.00  0.00    -0.249 OA
BRANCH  14  17
ATOM     17  N   UNL A   1      32.672  26.723  22.919  1.00  0.00    -0.313 N 
ATOM     18  C   UNL A   1      31.437  27.526  22.978  1.00  0.00     0.183 C 
ATOM     19  C   UNL A   1      33.742  27.287  23.783  1.00  0.00     0.186 C 
ATOM     20  C   UNL A   1      30.936  27.744  24.433  1.00  0.00     0.284 C 
ATOM     21  C   UNL A   1      33.216  27.408  25.216  1.00  0.00     0.204 C 
ATOM     22  N   UNL A   1      32.011  28.246  25.288  1.00  0.00    -0.330 N 
ATOM     23  C   UNL A   1      34.084  28.106  26.245  1.00  0.00     0.073 C 
ATOM     24  C   UNL A   1      31.700  28.353  26.711  1.00  0.00     0.262 C 
ATOM     25  H   UNL A   1      32.152  29.182  24.908  1.00  0.00     0.348 HD
ATOM     26  C   UNL A   1      33.083  28.397  27.372  1.00  0.00     0.068 C 
ENDBRANCH  14  17
ENDBRANCH   8  13
ENDBRANCH   5   8
ENDBRANCH   3   4
ENDBRANCH   2   3
ENDBRANCH   1   2
BRANCH   1  27
ATOM     27  C   UNL A   1      37.226  22.255  24.960  1.00  0.00     0.116 C 
BRANCH  27  28
ATOM     28  N   UNL A   1      38.113  21.243  25.485  1.00  0.00    -0.352 N 
ATOM     29  C   UNL A   1      39.311  21.355  26.141  1.00  0.00     0.251 C 
ATOM     30  H   UNL A   1      37.805  20.318  25.351  1.00  0.00     0.163 HD
ATOM     31  O   UNL A   1      40.022  20.350  26.198  1.00  0.00    -0.269 OA
BRANCH  29  32
ATOM     32  C   UNL A   1      39.788  22.623  26.764  1.00  0.00     0.039 A 
ATOM     33  C   UNL A   1      39.219  23.818  26.305  1.00  0.00     0.014 A 
ATOM     34  C   UNL A   1      40.851  22.695  27.670  1.00  0.00     0.014 A 
ATOM     35  C   UNL A   1      39.711  25.056  26.733  1.00  0.00     0.010 A 
ATOM     36  C   UNL A   1      41.285  23.934  28.167  1.00  0.00     0.010 A 
ATOM     37  C   UNL A   1      40.748  25.133  27.676  1.00  0.00    -0.014 A 
BRANCH  37  38
ATOM     38  C   UNL A   1      41.313  26.458  28.073  1.00  0.00     0.031 A 
ATOM     39  C   UNL A   1      42.726  26.838  27.698  1.00  0.00     0.074 A 
ATOM     40  C   UNL A   1      40.558  27.343  28.757  1.00  0.00     0.049 A 
ATOM     41  N   UNL A   1      43.382  27.947  27.946  1.00  0.00    -0.248 NA
ATOM     42  C   UNL A   1      43.512  25.835  26.967  1.00  0.00     0.031 C 
ATOM     43  C   UNL A   1      39.183  27.114  29.202  1.00  0.00     0.029 A 
ATOM     44  N   UNL A   1      40.836  28.619  29.188  1.00  0.00    -0.354 N 
ATOM     45  C   UNL A   1      44.655  27.769  27.411  1.00  0.00     0.074 A 
ATOM     46  C   UNL A   1      44.696  26.422  26.882  1.00  0.00     0.031 C 
ATOM     47  C   UNL A   1      38.729  28.219  29.815  1.00  0.00     0.029 A 
ATOM     48  C   UNL A   1      39.789  29.224  29.843  1.00  0.00     0.049 A 
ATOM     49  H   UNL A   1      41.705  29.058  29.041  1.00  0.00     0.167 HD
ATOM     50  C   UNL A   1      45.687  28.649  27.340  1.00  0.00     0.034 A 
ATOM     51  C   UNL A   1      39.688  30.444  30.409  1.00  0.00     0.034 A 
ATOM     52  C   UNL A   1      45.642  30.001  27.842  1.00  0.00     0.049 A 
ATOM     53  C   UNL A   1      40.857  31.393  30.349  1.00  0.00     0.074 A 
ATOM     54  C   UNL A   1      46.615  30.984  27.760  1.00  0.00     0.029 A 
ATOM     55  N   UNL A   1      44.572  30.563  28.526  1.00  0.00    -0.354 N 
ATOM     56  N   UNL A   1      42.037  31.218  29.801  1.00  0.00    -0.248 NA
ATOM     57  C   UNL A   1      40.675  32.711  30.974  1.00  0.00     0.031 C 
ATOM     58  C   UNL A   1      46.160  32.115  28.446  1.00  0.00     0.029 A 
ATOM     59  C   UNL A   1      44.875  31.866  28.898  1.00  0.00     0.049 A 
ATOM     60  H   UNL A   1      43.722  30.105  28.718  1.00  0.00     0.167 HD
ATOM     61  C   UNL A   1      42.723  32.416  29.991  1.00  0.00     0.074 A 
ATOM     62  C   UNL A   1      41.825  33.307  30.693  1.00  0.00     0.031 C 
ATOM     63  C   UNL A   1      43.983  32.749  29.610  1.00  0.00     0.034 A 
BRANCH  50  64
ATOM     64  C   UNL A   1      46.971  28.161  26.709  1.00  0.00     0.023 A 
ATOM     65  C   UNL A   1      47.183  28.227  25.320  1.00  0.00     0.031 A 
ATOM     66  C   UNL A   1      47.988  27.606  27.503  1.00  0.00     0.131 A 
ATOM     67  C   UNL A   1      48.348  27.678  24.762  1.00  0.00     0.055 A 
ATOM     68  C   UNL A   1      49.181  27.134  26.950  1.00  0.00     0.041 A 
ATOM     69  F   UNL A   1      47.837  27.501  28.833  1.00  0.00    -0.206 F 
ATOM     70  C   UNL A   1      49.358  27.153  25.570  1.00  0.00     0.022 A 
BRANCH  67  71
ATOM     71  S   UNL A   1      48.455  27.528  22.958  1.00  0.00     0.124 S 
ATOM     72  O   UNL A   1      47.276  28.276  22.528  1.00  0.00    -0.237 OA
ATOM     73  O   UNL A   1      49.744  28.143  22.666  1.00  0.00    -0.237 OA
ATOM     74  O   UNL A   1      48.386  26.086  22.729  1.00  0.00    -0.744 OA
ENDBRANCH  67  71
ENDBRANCH  50  64
BRANCH  51  75
ATOM     75  C   UNL A   1      38.434  30.845  31.108  1.00  0.00     0.023 A 
ATOM     76  C   UNL A   1      37.391  31.485  30.418  1.00  0.00     0.031 A 
ATOM     77  C   UNL A   1      38.284  30.639  32.490  1.00  0.00     0.131 A 
ATOM     78  C   UNL A   1      36.265  31.940  31.122  1.00  0.00     0.055 A 
ATOM     79  C   UNL A   1      37.140  31.049  33.177  1.00  0.00     0.041 A 
ATOM     80  F   UNL A   1      39.251  30.029  33.194  1.00  0.00    -0.206 F 
ATOM     81  C   UNL A   1      36.127  31.715  32.493  1.00  0.00     0.022 A 
BRANCH  78  82
ATOM     82  S   UNL A   1      35.013  32.899  30.226  1.00  0.00     0.124 S 
ATOM     83  O   UNL A   1      34.028  33.153  31.275  1.00  0.00    -0.237 OA
ATOM     84  O   UNL A   1      35.778  34.049  29.771  1.00  0.00    -0.237 OA
ATOM     85  O   UNL A   1      34.575  31.983  29.171  1.00  0.00    -0.744 OA
ENDBRANCH  78  82
ENDBRANCH  51  75
BRANCH  63  86
ATOM     86  C   UNL A   1      44.444  34.155  29.906  1.00  0.00     0.023 A 
ATOM     87  C   UNL A   1      44.265  35.205  28.988  1.00  0.00     0.031 A 
ATOM     88  C   UNL A   1      45.083  34.446  31.125  1.00  0.00     0.131 A 
ATOM     89  C   UNL A   1      44.764  36.484  29.280  1.00  0.00     0.055 A 
ATOM     90  C   UNL A   1      45.530  35.732  31.433  1.00  0.00     0.041 A 
ATOM     91  F   UNL A   1      45.282  33.482  32.038  1.00  0.00    -0.206 F 
ATOM     92  C   UNL A   1      45.383  36.757  30.503  1.00  0.00     0.022 A 
BRANCH  89  93
ATOM     93  S   UNL A   1      44.662  37.775  28.009  1.00  0.00     0.124 S 
ATOM     94  O   UNL A   1      43.785  38.756  28.642  1.00  0.00    -0.237 OA
ATOM     95  O   UNL A   1      46.057  38.174  27.855  1.00  0.00    -0.237 OA
ATOM     96  O   UNL A   1      44.087  37.080  26.858  1.00  0.00    -0.744 OA
ENDBRANCH  89  93
ENDBRANCH  63  86
ENDBRANCH  37  38
ENDBRANCH  29  32
ENDBRANCH  27  28
ENDBRANCH   1  27
TORSDOF 18
ENDMDL
MODEL 3
REMARK VINA RESULT:     -11.5      4.897     10.218
REMARK SMILES C[C@H](O)[C@H](NC(=O)N1CC[N@H+]2CCC[C@@H]2C1)C(=O)NCCCCNC(=O)c1ccc(-c2c3nc(c(-c4cc(S(=O)(=O)[O-])ccc4F)c4ccc([nH]4)c(-c4cc(S(=O)(=O)[O-])ccc4F)c4nc(c(-c5cc(S(=O)(=O)[O-])ccc5F)c5ccc2[nH]5)C=C4)C=C3)cc1
REMARK SMILES IDX 22 1 21 2 20 3 19 4 17 5 18 6 4 8 2 9 1 10 3 11 5 13 6 14
REMARK SMILES IDX 7 16 8 17 9 18 16 19 10 20 15 21 11 22 14 23 12 24 13 26
REMARK SMILES IDX 23 27 24 28 25 29 26 31 27 32 28 33 89 34 29 35 88 36 30 37
REMARK SMILES IDX 31 38 32 39 82 40 33 41 87 42 81 43 83 44 34 45 86 46 80 47
REMARK SMILES IDX 79 48 35 50 67 51 47 52 66 53 48 54 51 55 65 56 84 57 49 58
REMARK SMILES IDX 50 59 64 61 85 62 52 63 36 64 37 65 45 66 38 67 44 68 46 69
REMARK SMILES IDX 43 70 39 71 40 72 41 73 42 74 68 75 69 76 77 77 70 78 76 79
REMARK SMILES IDX 78 80 75 81 71 82 72 83 73 84 74 85 53 86 54 87 62 88 55 89
REMARK SMILES IDX 61 90 63 91 60 92 56 93 57 94 58 95 59 96
REMARK H PARENT 19 7 3 12 5 15 11 25 24 30 83 49 51 60
REMARK Flexibility Score: inf
ROOT
ATOM      1  C   UNL A   1      35.880  21.613  24.724  1.00  0.00     0.023 C 
ENDROOT
BRANCH   1   2
ATOM      2  C   UNL A   1      34.511  21.200  25.268  1.00  0.00     0.023 C 
BRANCH   2   3
ATOM      3  C   UNL A   1      33.651  20.446  24.259  1.00  0.00     0.116 C 
BRANCH   3   4
ATOM      4  N   UNL A   1      32.347  21.046  24.171  1.00  0.00    -0.354 N 
ATOM      5  C   UNL A   1      32.066  21.983  23.211  1.00  0.00     0.245 C 
ATOM      6  O   UNL A   1      31.973  21.714  22.018  1.00  0.00    -0.273 OA
ATOM      7  H   UNL A   1      31.646  20.779  24.809  1.00  0.00     0.163 HD
BRANCH   5   8
ATOM      8  C   UNL A   1      32.024  23.417  23.771  1.00  0.00     0.201 C 
BRANCH   8   9
ATOM      9  C   UNL A   1      33.357  24.169  23.388  1.00  0.00     0.143 C 
ATOM     10  C   UNL A   1      33.241  25.536  22.708  1.00  0.00     0.041 C 
BRANCH   9  11
ATOM     11  O   UNL A   1      34.144  23.334  22.507  1.00  0.00    -0.391 OA
ATOM     12  H   UNL A   1      35.086  23.533  22.629  1.00  0.00     0.211 HD
ENDBRANCH   9  11
ENDBRANCH   8   9
BRANCH   8  13
ATOM     13  N   UNL A   1      31.886  23.429  25.253  1.00  0.00    -0.324 N 
ATOM     14  C   UNL A   1      31.660  24.278  26.267  1.00  0.00     0.318 C 
ATOM     15  H   UNL A   1      32.000  22.516  25.604  1.00  0.00     0.166 HD
ATOM     16  O   UNL A   1      31.609  23.746  27.380  1.00  0.00    -0.249 OA
BRANCH  14  17
ATOM     17  N   UNL A   1      31.354  25.593  26.086  1.00  0.00    -0.313 N 
ATOM     18  C   UNL A   1      32.089  26.805  26.489  1.00  0.00     0.183 C 
ATOM     19  C   UNL A   1      30.061  25.920  25.429  1.00  0.00     0.186 C 
ATOM     20  C   UNL A   1      32.287  27.801  25.313  1.00  0.00     0.284 C 
ATOM     21  C   UNL A   1      30.326  26.842  24.235  1.00  0.00     0.204 C 
ATOM     22  N   UNL A   1      31.019  28.074  24.638  1.00  0.00    -0.330 N 
ATOM     23  C   UNL A   1      29.138  27.434  23.505  1.00  0.00     0.073 C 
ATOM     24  C   UNL A   1      31.100  28.885  23.426  1.00  0.00     0.262 C 
ATOM     25  H   UNL A   1      30.516  28.599  25.354  1.00  0.00     0.348 HD
ATOM     26  C   UNL A   1      29.782  28.576  22.705  1.00  0.00     0.068 C 
ENDBRANCH  14  17
ENDBRANCH   8  13
ENDBRANCH   5   8
ENDBRANCH   3   4
ENDBRANCH   2   3
ENDBRANCH   1   2
BRANCH   1  27
ATOM     27  C   UNL A   1      36.838  22.170  25.769  1.00  0.00     0.116 C 
BRANCH  27  28
ATOM     28  N   UNL A   1      37.978  21.297  25.929  1.00  0.00    -0.352 N 
ATOM     29  C   UNL A   1      39.281  21.575  26.252  1.00  0.00     0.251 C 
ATOM     30  H   UNL A   1      37.788  20.343  25.782  1.00  0.00     0.163 HD
ATOM     31  O   UNL A   1      40.122  20.708  26.010  1.00  0.00    -0.269 OA
BRANCH  29  32
ATOM     32  C   UNL A   1      39.716  22.865  26.860  1.00  0.00     0.039 A 
ATOM     33  C   UNL A   1      39.244  24.045  26.270  1.00  0.00     0.014 A 
ATOM     34  C   UNL A   1      40.662  22.964  27.885  1.00  0.00     0.014 A 
ATOM     35  C   UNL A   1      39.717  25.293  26.688  1.00  0.00     0.010 A 
ATOM     36  C   UNL A   1      41.069  24.219  28.364  1.00  0.00     0.010 A 
ATOM     37  C   UNL A   1      40.633  25.401  27.746  1.00  0.00    -0.014 A 
BRANCH  37  38
ATOM     38  C   UNL A   1      41.184  26.733  28.138  1.00  0.00     0.031 A 
ATOM     39  C   UNL A   1      42.606  27.110  27.795  1.00  0.00     0.074 A 
ATOM     40  C   UNL A   1      40.410  27.626  28.788  1.00  0.00     0.049 A 
ATOM     41  N   UNL A   1      43.253  28.225  28.043  1.00  0.00    -0.248 NA
ATOM     42  C   UNL A   1      43.413  26.098  27.100  1.00  0.00     0.031 C 
ATOM     43  C   UNL A   1      39.024  27.401  29.200  1.00  0.00     0.029 A 
ATOM     44  N   UNL A   1      40.674  28.909  29.207  1.00  0.00    -0.354 N 
ATOM     45  C   UNL A   1      44.540  28.041  27.545  1.00  0.00     0.074 A 
ATOM     46  C   UNL A   1      44.597  26.686  27.037  1.00  0.00     0.031 C 
ATOM     47  C   UNL A   1      38.551  28.514  29.784  1.00  0.00     0.029 A 
ATOM     48  C   UNL A   1      39.609  29.521  29.825  1.00  0.00     0.049 A 
ATOM     49  H   UNL A   1      41.545  29.348  29.076  1.00  0.00     0.167 HD
ATOM     50  C   UNL A   1      45.573  28.922  27.487  1.00  0.00     0.034 A 
ATOM     51  C   UNL A   1      39.491  30.750  30.369  1.00  0.00     0.034 A 
ATOM     52  C   UNL A   1      45.511  30.282  27.967  1.00  0.00     0.049 A 
ATOM     53  C   UNL A   1      40.659  31.701  30.325  1.00  0.00     0.074 A 
ATOM     54  C   UNL A   1      46.484  31.265  27.897  1.00  0.00     0.029 A 
ATOM     55  N   UNL A   1      44.423  30.852  28.614  1.00  0.00    -0.354 N 
ATOM     56  N   UNL A   1      41.853  31.520  29.811  1.00  0.00    -0.248 NA
ATOM     57  C   UNL A   1      40.458  33.028  30.925  1.00  0.00     0.031 C 
ATOM     58  C   UNL A   1      46.009  32.406  28.553  1.00  0.00     0.029 A 
ATOM     59  C   UNL A   1      44.713  32.160  28.974  1.00  0.00     0.049 A 
ATOM     60  H   UNL A   1      43.569  30.394  28.790  1.00  0.00     0.167 HD
ATOM     61  C   UNL A   1      42.532  32.722  30.001  1.00  0.00     0.074 A 
ATOM     62  C   UNL A   1      41.614  33.621  30.666  1.00  0.00     0.031 C 
ATOM     63  C   UNL A   1      43.801  33.052  29.649  1.00  0.00     0.034 A 
BRANCH  50  64
ATOM     64  C   UNL A   1      46.873  28.428  26.898  1.00  0.00     0.023 A 
ATOM     65  C   UNL A   1      47.073  28.354  25.508  1.00  0.00     0.031 A 
ATOM     66  C   UNL A   1      47.920  28.007  27.736  1.00  0.00     0.131 A 
ATOM     67  C   UNL A   1      48.259  27.801  24.999  1.00  0.00     0.055 A 
ATOM     68  C   UNL A   1      49.130  27.533  27.224  1.00  0.00     0.041 A 
ATOM     69  F   UNL A   1      47.781  28.039  29.071  1.00  0.00    -0.206 F 
ATOM     70  C   UNL A   1      49.298  27.412  25.847  1.00  0.00     0.022 A 
BRANCH  67  71
ATOM     71  S   UNL A   1      48.362  27.463  23.220  1.00  0.00     0.124 S 
ATOM     72  O   UNL A   1      49.654  28.053  22.882  1.00  0.00    -0.237 OA
ATOM     73  O   UNL A   1      48.292  26.007  23.171  1.00  0.00    -0.237 OA
ATOM     74  O   UNL A   1      47.203  28.162  22.671  1.00  0.00    -0.744 OA
ENDBRANCH  67  71
ENDBRANCH  50  64
BRANCH  51  75
ATOM     75  C   UNL A   1      38.217  31.159  31.028  1.00  0.00     0.023 A 
ATOM     76  C   UNL A   1      37.259  31.924  30.344  1.00  0.00     0.031 A 
ATOM     77  C   UNL A   1      37.968  30.833  32.373  1.00  0.00     0.131 A 
ATOM     78  C   UNL A   1      36.116  32.377  31.021  1.00  0.00     0.055 A 
ATOM     79  C   UNL A   1      36.805  31.245  33.027  1.00  0.00     0.041 A 
ATOM     80  F   UNL A   1      38.852  30.101  33.069  1.00  0.00    -0.206 F 
ATOM     81  C   UNL A   1      35.877  32.033  32.353  1.00  0.00     0.022 A 
BRANCH  78  82
ATOM     82  S   UNL A   1      34.979  33.491  30.151  1.00  0.00     0.124 S 
ATOM     83  O   UNL A   1      35.854  34.073  29.135  1.00  0.00    -0.237 OA
ATOM     84  O   UNL A   1      33.959  32.574  29.673  1.00  0.00    -0.237 OA
ATOM     85  O   UNL A   1      34.545  34.417  31.199  1.00  0.00    -0.744 OA
ENDBRANCH  78  82
ENDBRANCH  51  75
BRANCH  63  86
ATOM     86  C   UNL A   1      44.251  34.464  29.935  1.00  0.00     0.023 A 
ATOM     87  C   UNL A   1      43.919  35.536  29.089  1.00  0.00     0.031 A 
ATOM     88  C   UNL A   1      45.036  34.737  31.071  1.00  0.00     0.131 A 
ATOM     89  C   UNL A   1      44.411  36.823  29.362  1.00  0.00     0.055 A 
ATOM     90  C   UNL A   1      45.477  36.027  31.367  1.00  0.00     0.041 A 
ATOM     91  F   UNL A   1      45.384  33.751  31.913  1.00  0.00    -0.206 F 
ATOM     92  C   UNL A   1      45.176  37.077  30.504  1.00  0.00     0.022 A 
BRANCH  89  93
ATOM     93  S   UNL A   1      44.101  38.151  28.166  1.00  0.00     0.124 S 
ATOM     94  O   UNL A   1      42.713  38.500  28.452  1.00  0.00    -0.237 OA
ATOM     95  O   UNL A   1      45.099  39.147  28.539  1.00  0.00    -0.237 OA
ATOM     96  O   UNL A   1      44.324  37.507  26.872  1.00  0.00    -0.744 OA
ENDBRANCH  89  93
ENDBRANCH  63  86
ENDBRANCH  37  38
ENDBRANCH  29  32
ENDBRANCH  27  28
ENDBRANCH   1  27
TORSDOF 18
ENDMDL
