MODEL 1
REMARK VINA RESULT:     -12.6      0.000      0.000
REMARK SMILES COC(=O)c1ccc(Cl)c(-c2ccc(C(=O)NCCCCNC(=O)c3ccc(-c4c5nc(c(-c6cc(S(=O)(=O)[O-])ccc6F)c6ccc([nH]6)c(-c6cc(S(=O)(=O)[O-])ccc6F)c6nc(c(-c7cc(S(=O)(=O)[O-])ccc7F)c7ccc4[nH]7)C=C6)C=C5)cc3)c(F)c2)c1
REMARK SMILES IDX 19 1 18 2 17 3 15 4 16 5 14 7 11 8 12 9 90 10 13 11 88 12
REMARK SMILES IDX 89 13 10 14 5 15 6 16 91 17 7 18 8 19 9 20 3 21 4 22 2 23
REMARK SMILES IDX 1 24 20 25 21 26 22 27 23 28 24 30 25 31 26 32 87 33 27 34
REMARK SMILES IDX 86 35 28 36 29 37 30 38 80 39 31 40 85 41 79 42 81 43 32 44
REMARK SMILES IDX 84 45 78 46 77 47 33 49 65 50 45 51 64 52 46 53 49 54 63 55
REMARK SMILES IDX 82 56 47 57 48 58 62 60 83 61 50 62 34 63 35 64 43 65 36 66
REMARK SMILES IDX 42 67 44 68 41 69 37 70 38 71 39 72 40 73 66 74 67 75 75 76
REMARK SMILES IDX 68 77 74 78 76 79 73 80 69 81 70 82 71 83 72 84 51 85 52 86
REMARK SMILES IDX 60 87 53 88 59 89 61 90 58 91 54 92 55 93 56 94 57 95
REMARK H PARENT 17 6 22 29 81 48 49 59
REMARK Flexibility Score: inf
ROOT
ATOM      1  C   UNL A   1      31.319  29.608  24.492  1.00  0.00     0.023 C 
ENDROOT
BRANCH   1   2
ATOM      2  C   UNL A   1      30.923  28.819  23.240  1.00  0.00     0.116 C 
BRANCH   2   3
ATOM      3  N   UNL A   1      29.627  28.196  23.414  1.00  0.00    -0.352 N 
ATOM      4  C   UNL A   1      29.242  26.910  23.690  1.00  0.00     0.254 C 
ATOM      5  O   UNL A   1      28.028  26.709  23.786  1.00  0.00    -0.269 OA
ATOM      6  H   UNL A   1      28.873  28.820  23.313  1.00  0.00     0.163 HD
BRANCH   4   7
ATOM      7  C   UNL A   1      30.161  25.761  23.934  1.00  0.00     0.075 A 
ATOM      8  C   UNL A   1      32.024  23.616  24.151  1.00  0.00    -0.014 A 
ATOM      9  C   UNL A   1      31.833  24.266  22.930  1.00  0.00     0.010 A 
ATOM     10  C   UNL A   1      31.287  24.058  25.253  1.00  0.00     0.048 A 
ATOM     11  C   UNL A   1      30.911  25.319  22.825  1.00  0.00     0.017 A 
ATOM     12  C   UNL A   1      30.397  25.126  25.149  1.00  0.00     0.136 A 
ATOM     13  F   UNL A   1      29.848  25.520  26.299  1.00  0.00    -0.206 F 
BRANCH   8  14
ATOM     14  C   UNL A   1      32.979  22.516  24.331  1.00  0.00     0.001 A 
ATOM     15  C   UNL A   1      33.321  20.120  24.674  1.00  0.00     0.060 A 
ATOM     16  C   UNL A   1      34.665  20.347  24.982  1.00  0.00     0.017 A 
ATOM     17  C   UNL A   1      32.493  21.196  24.330  1.00  0.00     0.026 A 
ATOM     18  C   UNL A   1      35.174  21.647  24.948  1.00  0.00     0.022 A 
ATOM     19  C   UNL A   1      34.339  22.725  24.630  1.00  0.00     0.048 A 
ATOM     20  Cl  UNL A   1      35.033  24.309  24.677  1.00  0.00    -0.084 Cl
BRANCH  15  21
ATOM     21  C   UNL A   1      32.713  18.767  24.729  1.00  0.00     0.337 C 
ATOM     22  O   UNL A   1      32.424  18.199  25.762  1.00  0.00    -0.246 OA
BRANCH  21  23
ATOM     23  O   UNL A   1      32.621  18.259  23.472  1.00  0.00    -0.465 OA
ATOM     24  C   UNL A   1      33.420  17.093  23.266  1.00  0.00     0.282 C 
ENDBRANCH  21  23
ENDBRANCH  15  21
ENDBRANCH   8  14
ENDBRANCH   4   7
ENDBRANCH   2   3
ENDBRANCH   1   2
BRANCH   1  25
ATOM     25  C   UNL A   1      32.054  28.791  25.555  1.00  0.00     0.023 C 
BRANCH  25  26
ATOM     26  C   UNL A   1      32.159  29.459  26.920  1.00  0.00     0.116 C 
BRANCH  26  27
ATOM     27  N   UNL A   1      32.002  30.906  26.871  1.00  0.00    -0.352 N 
ATOM     28  C   UNL A   1      32.898  31.869  27.270  1.00  0.00     0.251 C 
ATOM     29  H   UNL A   1      31.149  31.236  26.506  1.00  0.00     0.163 HD
ATOM     30  O   UNL A   1      32.583  33.055  27.260  1.00  0.00    -0.269 OA
BRANCH  28  31
ATOM     31  C   UNL A   1      34.225  31.442  27.758  1.00  0.00     0.039 A 
ATOM     32  C   UNL A   1      35.195  32.413  28.011  1.00  0.00     0.014 A 
ATOM     33  C   UNL A   1      34.473  30.096  28.042  1.00  0.00     0.014 A 
ATOM     34  C   UNL A   1      36.388  32.043  28.630  1.00  0.00     0.010 A 
ATOM     35  C   UNL A   1      35.632  29.741  28.722  1.00  0.00     0.010 A 
ATOM     36  C   UNL A   1      36.596  30.713  29.035  1.00  0.00    -0.014 A 
BRANCH  36  37
ATOM     37  C   UNL A   1      37.800  30.326  29.812  1.00  0.00     0.031 A 
ATOM     38  C   UNL A   1      38.831  29.417  29.205  1.00  0.00     0.074 A 
ATOM     39  C   UNL A   1      37.936  30.757  31.082  1.00  0.00     0.049 A 
ATOM     40  N   UNL A   1      39.910  28.918  29.750  1.00  0.00    -0.248 NA
ATOM     41  C   UNL A   1      38.609  28.997  27.814  1.00  0.00     0.031 C 
ATOM     42  C   UNL A   1      36.988  31.622  31.788  1.00  0.00     0.029 A 
ATOM     43  N   UNL A   1      38.927  30.534  32.005  1.00  0.00    -0.354 N 
ATOM     44  C   UNL A   1      40.496  28.126  28.770  1.00  0.00     0.074 A 
ATOM     45  C   UNL A   1      39.620  28.163  27.618  1.00  0.00     0.031 C 
ATOM     46  C   UNL A   1      37.465  31.892  33.013  1.00  0.00     0.029 A 
ATOM     47  C   UNL A   1      38.725  31.182  33.202  1.00  0.00     0.049 A 
ATOM     48  H   UNL A   1      39.709  29.963  31.828  1.00  0.00     0.167 HD
ATOM     49  C   UNL A   1      41.670  27.452  28.817  1.00  0.00     0.034 A 
ATOM     50  C   UNL A   1      39.468  31.200  34.326  1.00  0.00     0.034 A 
ATOM     51  C   UNL A   1      42.539  27.432  29.966  1.00  0.00     0.049 A 
ATOM     52  C   UNL A   1      40.746  30.407  34.371  1.00  0.00     0.074 A 
ATOM     53  C   UNL A   1      43.763  26.799  30.105  1.00  0.00     0.029 A 
ATOM     54  N   UNL A   1      42.283  28.071  31.170  1.00  0.00    -0.354 N 
ATOM     55  N   UNL A   1      41.282  29.657  33.437  1.00  0.00    -0.248 NA
ATOM     56  C   UNL A   1      41.520  30.461  35.619  1.00  0.00     0.031 C 
ATOM     57  C   UNL A   1      44.216  27.008  31.411  1.00  0.00     0.029 A 
ATOM     58  C   UNL A   1      43.314  27.831  32.064  1.00  0.00     0.049 A 
ATOM     59  H   UNL A   1      41.485  28.617  31.361  1.00  0.00     0.167 HD
ATOM     60  C   UNL A   1      42.471  29.174  33.974  1.00  0.00     0.074 A 
ATOM     61  C   UNL A   1      42.573  29.714  35.315  1.00  0.00     0.031 C 
ATOM     62  C   UNL A   1      43.398  28.367  33.402  1.00  0.00     0.034 A 
BRANCH  49  63
ATOM     63  C   UNL A   1      42.076  26.673  27.593  1.00  0.00     0.023 A 
ATOM     64  C   UNL A   1      41.804  25.299  27.477  1.00  0.00     0.031 A 
ATOM     65  C   UNL A   1      42.725  27.313  26.524  1.00  0.00     0.131 A 
ATOM     66  C   UNL A   1      42.220  24.598  26.336  1.00  0.00     0.055 A 
ATOM     67  C   UNL A   1      43.076  26.623  25.361  1.00  0.00     0.041 A 
ATOM     68  F   UNL A   1      43.026  28.619  26.590  1.00  0.00    -0.206 F 
ATOM     69  C   UNL A   1      42.832  25.256  25.266  1.00  0.00     0.022 A 
BRANCH  66  70
ATOM     70  S   UNL A   1      42.027  22.796  26.305  1.00  0.00     0.124 S 
ATOM     71  O   UNL A   1      42.681  22.409  27.553  1.00  0.00    -0.237 OA
ATOM     72  O   UNL A   1      40.579  22.631  26.265  1.00  0.00    -0.237 OA
ATOM     73  O   UNL A   1      42.734  22.398  25.088  1.00  0.00    -0.744 OA
ENDBRANCH  66  70
ENDBRANCH  49  63
BRANCH  50  74
ATOM     74  C   UNL A   1      39.023  32.005  35.497  1.00  0.00     0.023 A 
ATOM     75  C   UNL A   1      38.335  31.405  36.563  1.00  0.00     0.031 A 
ATOM     76  C   UNL A   1      39.295  33.383  35.573  1.00  0.00     0.131 A 
ATOM     77  C   UNL A   1      37.925  32.184  37.656  1.00  0.00     0.055 A 
ATOM     78  C   UNL A   1      38.918  34.146  36.681  1.00  0.00     0.041 A 
ATOM     79  F   UNL A   1      39.959  33.999  34.584  1.00  0.00    -0.206 F 
ATOM     80  C   UNL A   1      38.225  33.547  37.727  1.00  0.00     0.022 A 
BRANCH  77  81
ATOM     81  S   UNL A   1      36.975  31.393  38.983  1.00  0.00     0.124 S 
ATOM     82  O   UNL A   1      36.808  30.042  38.462  1.00  0.00    -0.237 OA
ATOM     83  O   UNL A   1      37.869  31.537  40.127  1.00  0.00    -0.237 OA
ATOM     84  O   UNL A   1      35.753  32.193  39.049  1.00  0.00    -0.744 OA
ENDBRANCH  77  81
ENDBRANCH  50  74
BRANCH  62  85
ATOM     85  C   UNL A   1      44.633  28.047  34.203  1.00  0.00     0.023 A 
ATOM     86  C   UNL A   1      44.679  26.955  35.085  1.00  0.00     0.031 A 
ATOM     87  C   UNL A   1      45.796  28.819  34.036  1.00  0.00     0.131 A 
ATOM     88  C   UNL A   1      45.862  26.680  35.788  1.00  0.00     0.055 A 
ATOM     89  C   UNL A   1      46.983  28.512  34.701  1.00  0.00     0.041 A 
ATOM     90  F   UNL A   1      45.802  29.871  33.201  1.00  0.00    -0.206 F 
ATOM     91  C   UNL A   1      47.018  27.440  35.587  1.00  0.00     0.022 A 
BRANCH  88  92
ATOM     92  S   UNL A   1      45.865  25.329  36.997  1.00  0.00     0.124 S 
ATOM     93  O   UNL A   1      46.540  24.265  36.259  1.00  0.00    -0.237 OA
ATOM     94  O   UNL A   1      46.610  25.902  38.113  1.00  0.00    -0.237 OA
ATOM     95  O   UNL A   1      44.445  25.097  37.257  1.00  0.00    -0.744 OA
ENDBRANCH  88  92
ENDBRANCH  62  85
ENDBRANCH  36  37
ENDBRANCH  28  31
ENDBRANCH  26  27
ENDBRANCH  25  26
ENDBRANCH   1  25
TORSDOF 17
ENDMDL
MODEL 2
REMARK VINA RESULT:     -12.6      5.308     10.561
REMARK SMILES COC(=O)c1ccc(Cl)c(-c2ccc(C(=O)NCCCCNC(=O)c3ccc(-c4c5nc(c(-c6cc(S(=O)(=O)[O-])ccc6F)c6ccc([nH]6)c(-c6cc(S(=O)(=O)[O-])ccc6F)c6nc(c(-c7cc(S(=O)(=O)[O-])ccc7F)c7ccc4[nH]7)C=C6)C=C5)cc3)c(F)c2)c1
REMARK SMILES IDX 19 1 18 2 17 3 15 4 16 5 14 7 11 8 12 9 90 10 13 11 88 12
REMARK SMILES IDX 89 13 10 14 5 15 6 16 91 17 7 18 8 19 9 20 3 21 4 22 2 23
REMARK SMILES IDX 1 24 20 25 21 26 22 27 23 28 24 30 25 31 26 32 87 33 27 34
REMARK SMILES IDX 86 35 28 36 29 37 30 38 80 39 31 40 85 41 79 42 81 43 32 44
REMARK SMILES IDX 84 45 78 46 77 47 33 49 65 50 45 51 64 52 46 53 49 54 63 55
REMARK SMILES IDX 82 56 47 57 48 58 62 60 83 61 50 62 34 63 35 64 43 65 36 66
REMARK SMILES IDX 42 67 44 68 41 69 37 70 38 71 39 72 40 73 66 74 67 75 75 76
REMARK SMILES IDX 68 77 74 78 76 79 73 80 69 81 70 82 71 83 72 84 51 85 52 86
REMARK SMILES IDX 60 87 53 88 59 89 61 90 58 91 54 92 55 93 56 94 57 95
REMARK H PARENT 17 6 22 29 81 48 49 59
REMARK Flexibility Score: inf
ROOT
ATOM      1  C   UNL A   1      34.618  20.888  25.231  1.00  0.00     0.023 C 
ENDROOT
BRANCH   1   2
ATOM      2  C   UNL A   1      33.108  20.632  25.166  1.00  0.00     0.116 C 
BRANCH   2   3
ATOM      3  N   UNL A   1      32.659  20.557  23.791  1.00  0.00    -0.352 N 
ATOM      4  C   UNL A   1      32.167  21.492  22.920  1.00  0.00     0.254 C 
ATOM      5  O   UNL A   1      31.879  21.091  21.788  1.00  0.00    -0.269 OA
ATOM      6  H   UNL A   1      32.719  19.653  23.406  1.00  0.00     0.163 HD
BRANCH   4   7
ATOM      7  C   UNL A   1      32.002  22.946  23.207  1.00  0.00     0.075 A 
ATOM      8  C   UNL A   1      31.455  25.658  23.893  1.00  0.00    -0.014 A 
ATOM      9  C   UNL A   1      30.491  24.668  24.099  1.00  0.00     0.010 A 
ATOM     10  C   UNL A   1      32.688  25.273  23.358  1.00  0.00     0.048 A 
ATOM     11  C   UNL A   1      30.761  23.334  23.755  1.00  0.00     0.017 A 
ATOM     12  C   UNL A   1      32.960  23.941  23.050  1.00  0.00     0.136 A 
ATOM     13  F   UNL A   1      34.211  23.695  22.657  1.00  0.00    -0.206 F 
BRANCH   8  14
ATOM     14  C   UNL A   1      31.240  27.067  24.240  1.00  0.00     0.001 A 
ATOM     15  C   UNL A   1      30.349  29.242  23.566  1.00  0.00     0.060 A 
ATOM     16  C   UNL A   1      31.018  29.855  24.629  1.00  0.00     0.017 A 
ATOM     17  C   UNL A   1      30.444  27.856  23.389  1.00  0.00     0.026 A 
ATOM     18  C   UNL A   1      31.780  29.082  25.507  1.00  0.00     0.022 A 
ATOM     19  C   UNL A   1      31.896  27.700  25.314  1.00  0.00     0.048 A 
ATOM     20  Cl  UNL A   1      32.914  26.826  26.407  1.00  0.00    -0.084 Cl
BRANCH  15  21
ATOM     21  C   UNL A   1      29.554  30.014  22.579  1.00  0.00     0.337 C 
ATOM     22  O   UNL A   1      29.457  29.711  21.407  1.00  0.00    -0.246 OA
BRANCH  21  23
ATOM     23  O   UNL A   1      29.047  31.126  23.173  1.00  0.00    -0.465 OA
ATOM     24  C   UNL A   1      27.653  31.032  23.468  1.00  0.00     0.282 C 
ENDBRANCH  21  23
ENDBRANCH  15  21
ENDBRANCH   8  14
ENDBRANCH   4   7
ENDBRANCH   2   3
ENDBRANCH   1   2
BRANCH   1  25
ATOM     25  C   UNL A   1      35.017  22.173  25.957  1.00  0.00     0.023 C 
BRANCH  25  26
ATOM     26  C   UNL A   1      36.460  22.611  25.741  1.00  0.00     0.116 C 
BRANCH  26  27
ATOM     27  N   UNL A   1      37.409  21.507  25.754  1.00  0.00    -0.352 N 
ATOM     28  C   UNL A   1      38.738  21.536  26.109  1.00  0.00     0.251 C 
ATOM     29  H   UNL A   1      37.057  20.631  25.474  1.00  0.00     0.163 HD
ATOM     30  O   UNL A   1      39.440  20.540  25.973  1.00  0.00    -0.269 OA
BRANCH  28  31
ATOM     31  C   UNL A   1      39.309  22.803  26.607  1.00  0.00     0.039 A 
ATOM     32  C   UNL A   1      40.379  22.755  27.501  1.00  0.00     0.014 A 
ATOM     33  C   UNL A   1      38.839  24.028  26.123  1.00  0.00     0.014 A 
ATOM     34  C   UNL A   1      41.036  23.936  27.847  1.00  0.00     0.010 A 
ATOM     35  C   UNL A   1      39.539  25.194  26.413  1.00  0.00     0.010 A 
ATOM     36  C   UNL A   1      40.652  25.157  27.267  1.00  0.00    -0.014 A 
BRANCH  36  37
ATOM     37  C   UNL A   1      41.422  26.401  27.519  1.00  0.00     0.031 A 
ATOM     38  C   UNL A   1      40.822  27.508  28.341  1.00  0.00     0.074 A 
ATOM     39  C   UNL A   1      42.642  26.551  26.966  1.00  0.00     0.049 A 
ATOM     40  N   UNL A   1      41.312  28.690  28.613  1.00  0.00    -0.248 NA
ATOM     41  C   UNL A   1      39.490  27.262  28.913  1.00  0.00     0.031 C 
ATOM     42  C   UNL A   1      43.317  25.557  26.128  1.00  0.00     0.029 A 
ATOM     43  N   UNL A   1      43.536  27.590  27.028  1.00  0.00    -0.354 N 
ATOM     44  C   UNL A   1      40.351  29.328  29.386  1.00  0.00     0.074 A 
ATOM     45  C   UNL A   1      39.224  28.426  29.489  1.00  0.00     0.031 C 
ATOM     46  C   UNL A   1      44.534  26.016  25.793  1.00  0.00     0.029 A 
ATOM     47  C   UNL A   1      44.708  27.354  26.348  1.00  0.00     0.049 A 
ATOM     48  H   UNL A   1      43.355  28.427  27.513  1.00  0.00     0.167 HD
ATOM     49  C   UNL A   1      40.413  30.545  29.979  1.00  0.00     0.034 A 
ATOM     50  C   UNL A   1      45.800  28.127  26.185  1.00  0.00     0.034 A 
ATOM     51  C   UNL A   1      41.546  31.430  29.879  1.00  0.00     0.049 A 
ATOM     52  C   UNL A   1      45.828  29.494  26.815  1.00  0.00     0.074 A 
ATOM     53  C   UNL A   1      41.717  32.673  30.462  1.00  0.00     0.029 A 
ATOM     54  N   UNL A   1      42.699  31.170  29.152  1.00  0.00    -0.354 N 
ATOM     55  N   UNL A   1      44.906  30.086  27.537  1.00  0.00    -0.248 NA
ATOM     56  C   UNL A   1      47.041  30.297  26.609  1.00  0.00     0.031 C 
ATOM     57  C   UNL A   1      42.947  33.188  30.041  1.00  0.00     0.029 A 
ATOM     58  C   UNL A   1      43.576  32.237  29.255  1.00  0.00     0.049 A 
ATOM     59  H   UNL A   1      42.869  30.346  28.639  1.00  0.00     0.167 HD
ATOM     60  C   UNL A   1      45.440  31.319  27.897  1.00  0.00     0.074 A 
ATOM     61  C   UNL A   1      46.763  31.388  27.311  1.00  0.00     0.031 C 
ATOM     62  C   UNL A   1      44.888  32.298  28.656  1.00  0.00     0.034 A 
BRANCH  49  63
ATOM     63  C   UNL A   1      39.218  30.992  30.779  1.00  0.00     0.023 A 
ATOM     64  C   UNL A   1      38.166  31.710  30.184  1.00  0.00     0.031 A 
ATOM     65  C   UNL A   1      39.119  30.683  32.146  1.00  0.00     0.131 A 
ATOM     66  C   UNL A   1      37.081  32.135  30.964  1.00  0.00     0.055 A 
ATOM     67  C   UNL A   1      38.005  31.051  32.902  1.00  0.00     0.041 A 
ATOM     68  F   UNL A   1      40.104  30.017  32.769  1.00  0.00    -0.206 F 
ATOM     69  C   UNL A   1      36.981  31.789  32.314  1.00  0.00     0.022 A 
BRANCH  66  70
ATOM     70  S   UNL A   1      35.842  33.222  30.210  1.00  0.00     0.124 S 
ATOM     71  O   UNL A   1      34.778  32.276  29.887  1.00  0.00    -0.237 OA
ATOM     72  O   UNL A   1      35.553  34.167  31.282  1.00  0.00    -0.237 OA
ATOM     73  O   UNL A   1      36.540  33.785  29.055  1.00  0.00    -0.744 OA
ENDBRANCH  66  70
ENDBRANCH  49  63
BRANCH  50  74
ATOM     74  C   UNL A   1      46.957  27.621  25.398  1.00  0.00     0.023 A 
ATOM     75  C   UNL A   1      47.091  27.929  24.036  1.00  0.00     0.031 A 
ATOM     76  C   UNL A   1      47.956  26.836  26.002  1.00  0.00     0.131 A 
ATOM     77  C   UNL A   1      48.191  27.440  23.314  1.00  0.00     0.055 A 
ATOM     78  C   UNL A   1      49.068  26.384  25.289  1.00  0.00     0.041 A 
ATOM     79  F   UNL A   1      47.878  26.524  27.306  1.00  0.00    -0.206 F 
ATOM     80  C   UNL A   1      49.187  26.682  23.935  1.00  0.00     0.022 A 
BRANCH  77  81
ATOM     81  S   UNL A   1      48.296  27.795  21.538  1.00  0.00     0.124 S 
ATOM     82  O   UNL A   1      46.944  28.256  21.248  1.00  0.00    -0.237 OA
ATOM     83  O   UNL A   1      49.346  28.807  21.491  1.00  0.00    -0.237 OA
ATOM     84  O   UNL A   1      48.655  26.503  20.955  1.00  0.00    -0.744 OA
ENDBRANCH  77  81
ENDBRANCH  50  74
BRANCH  62  85
ATOM     85  C   UNL A   1      45.725  33.518  28.937  1.00  0.00     0.023 A 
ATOM     86  C   UNL A   1      45.642  34.671  28.140  1.00  0.00     0.031 A 
ATOM     87  C   UNL A   1      46.579  33.540  30.053  1.00  0.00     0.131 A 
ATOM     88  C   UNL A   1      46.421  35.794  28.458  1.00  0.00     0.055 A 
ATOM     89  C   UNL A   1      47.315  34.674  30.393  1.00  0.00     0.041 A 
ATOM     90  F   UNL A   1      46.691  32.462  30.847  1.00  0.00    -0.206 F 
ATOM     91  C   UNL A   1      47.242  35.809  29.590  1.00  0.00     0.022 A 
BRANCH  88  92
ATOM     92  S   UNL A   1      46.372  37.232  27.355  1.00  0.00     0.124 S 
ATOM     93  O   UNL A   1      47.319  38.137  27.999  1.00  0.00    -0.237 OA
ATOM     94  O   UNL A   1      46.796  36.668  26.079  1.00  0.00    -0.237 OA
ATOM     95  O   UNL A   1      44.974  37.658  27.409  1.00  0.00    -0.744 OA
ENDBRANCH  88  92
ENDBRANCH  62  85
ENDBRANCH  36  37
ENDBRANCH  28  31
ENDBRANCH  26  27
ENDBRANCH  25  26
ENDBRANCH   1  25
TORSDOF 17
ENDMDL
MODEL 3
REMARK VINA RESULT:     -12.6      0.662      7.429
REMARK SMILES COC(=O)c1ccc(Cl)c(-c2ccc(C(=O)NCCCCNC(=O)c3ccc(-c4c5nc(c(-c6cc(S(=O)(=O)[O-])ccc6F)c6ccc([nH]6)c(-c6cc(S(=O)(=O)[O-])ccc6F)c6nc(c(-c7cc(S(=O)(=O)[O-])ccc7F)c7ccc4[nH]7)C=C6)C=C5)cc3)c(F)c2)c1
REMARK SMILES IDX 19 1 18 2 17 3 15 4 16 5 14 7 11 8 12 9 90 10 13 11 88 12
REMARK SMILES IDX 89 13 10 14 5 15 6 16 91 17 7 18 8 19 9 20 3 21 4 22 2 23
REMARK SMILES IDX 1 24 20 25 21 26 22 27 23 28 24 30 25 31 26 32 87 33 27 34
REMARK SMILES IDX 86 35 28 36 29 37 30 38 80 39 31 40 85 41 79 42 81 43 32 44
REMARK SMILES IDX 84 45 78 46 77 47 33 49 65 50 45 51 64 52 46 53 49 54 63 55
REMARK SMILES IDX 82 56 47 57 48 58 62 60 83 61 50 62 34 63 35 64 43 65 36 66
REMARK SMILES IDX 42 67 44 68 41 69 37 70 38 71 39 72 40 73 66 74 67 75 75 76
REMARK SMILES IDX 68 77 74 78 76 79 73 80 69 81 70 82 71 83 72 84 51 85 52 86
REMARK SMILES IDX 60 87 53 88 59 89 61 90 58 91 54 92 55 93 56 94 57 95
REMARK H PARENT 17 6 22 29 81 48 49 59
REMARK Flexibility Score: inf
ROOT
ATOM      1  C   UNL A   1      31.949  28.650  23.923  1.00  0.00     0.023 C 
ENDROOT
BRANCH   1   2
ATOM      2  C   UNL A   1      30.937  28.319  22.822  1.00  0.00     0.116 C 
BRANCH   2   3
ATOM      3  N   UNL A   1      29.738  27.732  23.386  1.00  0.00    -0.352 N 
ATOM      4  C   UNL A   1      29.476  26.512  23.951  1.00  0.00     0.254 C 
ATOM      5  O   UNL A   1      28.323  26.328  24.350  1.00  0.00    -0.269 OA
ATOM      6  H   UNL A   1      28.956  28.329  23.356  1.00  0.00     0.163 HD
BRANCH   4   7
ATOM      7  C   UNL A   1      30.471  25.423  24.168  1.00  0.00     0.075 A 
ATOM      8  C   UNL A   1      32.343  23.278  24.315  1.00  0.00    -0.014 A 
ATOM      9  C   UNL A   1      31.542  23.442  23.182  1.00  0.00     0.010 A 
ATOM     10  C   UNL A   1      32.205  24.201  25.356  1.00  0.00     0.048 A 
ATOM     11  C   UNL A   1      30.617  24.495  23.115  1.00  0.00     0.017 A 
ATOM     12  C   UNL A   1      31.308  25.264  25.268  1.00  0.00     0.136 A 
ATOM     13  F   UNL A   1      31.360  26.135  26.277  1.00  0.00    -0.206 F 
BRANCH   8  14
ATOM     14  C   UNL A   1      33.336  22.206  24.444  1.00  0.00     0.001 A 
ATOM     15  C   UNL A   1      33.759  19.814  24.726  1.00  0.00     0.060 A 
ATOM     16  C   UNL A   1      35.104  20.076  25.002  1.00  0.00     0.017 A 
ATOM     17  C   UNL A   1      32.890  20.871  24.429  1.00  0.00     0.026 A 
ATOM     18  C   UNL A   1      35.572  21.391  24.981  1.00  0.00     0.022 A 
ATOM     19  C   UNL A   1      34.697  22.450  24.709  1.00  0.00     0.048 A 
ATOM     20  Cl  UNL A   1      35.344  24.053  24.770  1.00  0.00    -0.084 Cl
BRANCH  15  21
ATOM     21  C   UNL A   1      33.194  18.443  24.770  1.00  0.00     0.337 C 
ATOM     22  O   UNL A   1      32.156  18.158  25.331  1.00  0.00    -0.246 OA
BRANCH  21  23
ATOM     23  O   UNL A   1      34.054  17.577  24.170  1.00  0.00    -0.465 OA
ATOM     24  C   UNL A   1      34.228  16.355  24.887  1.00  0.00     0.282 C 
ENDBRANCH  21  23
ENDBRANCH  15  21
ENDBRANCH   8  14
ENDBRANCH   4   7
ENDBRANCH   2   3
ENDBRANCH   1   2
BRANCH   1  25
ATOM     25  C   UNL A   1      31.412  29.553  25.034  1.00  0.00     0.023 C 
BRANCH  25  26
ATOM     26  C   UNL A   1      32.464  30.069  26.007  1.00  0.00     0.116 C 
BRANCH  26  27
ATOM     27  N   UNL A   1      32.228  31.438  26.444  1.00  0.00    -0.352 N 
ATOM     28  C   UNL A   1      33.010  32.209  27.272  1.00  0.00     0.251 C 
ATOM     29  H   UNL A   1      31.409  31.865  26.104  1.00  0.00     0.163 HD
ATOM     30  O   UNL A   1      32.629  33.318  27.632  1.00  0.00    -0.269 OA
BRANCH  28  31
ATOM     31  C   UNL A   1      34.289  31.654  27.757  1.00  0.00     0.039 A 
ATOM     32  C   UNL A   1      35.353  32.523  28.001  1.00  0.00     0.014 A 
ATOM     33  C   UNL A   1      34.402  30.291  28.047  1.00  0.00     0.014 A 
ATOM     34  C   UNL A   1      36.506  32.038  28.617  1.00  0.00     0.010 A 
ATOM     35  C   UNL A   1      35.523  29.824  28.725  1.00  0.00     0.010 A 
ATOM     36  C   UNL A   1      36.580  30.696  29.028  1.00  0.00    -0.014 A 
BRANCH  36  37
ATOM     37  C   UNL A   1      37.743  30.195  29.803  1.00  0.00     0.031 A 
ATOM     38  C   UNL A   1      37.932  30.610  31.235  1.00  0.00     0.074 A 
ATOM     39  C   UNL A   1      38.652  29.404  29.199  1.00  0.00     0.049 A 
ATOM     40  N   UNL A   1      38.917  30.331  32.050  1.00  0.00    -0.248 NA
ATOM     41  C   UNL A   1      36.893  31.470  31.820  1.00  0.00     0.031 C 
ATOM     42  C   UNL A   1      38.589  28.955  27.806  1.00  0.00     0.029 A 
ATOM     43  N   UNL A   1      39.804  28.831  29.677  1.00  0.00    -0.354 N 
ATOM     44  C   UNL A   1      38.616  30.978  33.242  1.00  0.00     0.074 A 
ATOM     45  C   UNL A   1      37.389  31.714  33.024  1.00  0.00     0.031 C 
ATOM     46  C   UNL A   1      39.628  28.142  27.558  1.00  0.00     0.029 A 
ATOM     47  C   UNL A   1      40.459  28.050  28.753  1.00  0.00     0.049 A 
ATOM     48  H   UNL A   1      40.131  28.966  30.596  1.00  0.00     0.167 HD
ATOM     49  C   UNL A   1      39.287  30.940  34.418  1.00  0.00     0.034 A 
ATOM     50  C   UNL A   1      41.601  27.342  28.854  1.00  0.00     0.034 A 
ATOM     51  C   UNL A   1      40.503  30.194  34.625  1.00  0.00     0.049 A 
ATOM     52  C   UNL A   1      42.354  27.351  30.157  1.00  0.00     0.074 A 
ATOM     53  C   UNL A   1      41.246  30.071  35.787  1.00  0.00     0.029 A 
ATOM     54  N   UNL A   1      41.153  29.445  33.655  1.00  0.00    -0.354 N 
ATOM     55  N   UNL A   1      42.059  27.976  31.273  1.00  0.00    -0.248 NA
ATOM     56  C   UNL A   1      43.592  26.562  30.216  1.00  0.00     0.031 C 
ATOM     57  C   UNL A   1      42.374  29.296  35.503  1.00  0.00     0.029 A 
ATOM     58  C   UNL A   1      42.299  28.874  34.185  1.00  0.00     0.049 A 
ATOM     59  H   UNL A   1      40.844  29.334  32.726  1.00  0.00     0.167 HD
ATOM     60  C   UNL A   1      43.060  27.631  32.176  1.00  0.00     0.074 A 
ATOM     61  C   UNL A   1      43.968  26.746  31.475  1.00  0.00     0.031 C 
ATOM     62  C   UNL A   1      43.202  28.003  33.472  1.00  0.00     0.034 A 
BRANCH  49  63
ATOM     63  C   UNL A   1      38.726  31.736  35.567  1.00  0.00     0.023 A 
ATOM     64  C   UNL A   1      38.153  31.104  36.683  1.00  0.00     0.031 A 
ATOM     65  C   UNL A   1      38.780  33.140  35.556  1.00  0.00     0.131 A 
ATOM     66  C   UNL A   1      37.616  31.875  37.724  1.00  0.00     0.055 A 
ATOM     67  C   UNL A   1      38.304  33.901  36.625  1.00  0.00     0.041 A 
ATOM     68  F   UNL A   1      39.299  33.796  34.505  1.00  0.00    -0.206 F 
ATOM     69  C   UNL A   1      37.710  33.269  37.714  1.00  0.00     0.022 A 
BRANCH  66  70
ATOM     70  S   UNL A   1      36.713  31.034  39.052  1.00  0.00     0.124 S 
ATOM     71  O   UNL A   1      35.525  31.875  39.178  1.00  0.00    -0.237 OA
ATOM     72  O   UNL A   1      36.499  29.703  38.498  1.00  0.00    -0.237 OA
ATOM     73  O   UNL A   1      37.636  31.096  40.185  1.00  0.00    -0.744 OA
ENDBRANCH  66  70
ENDBRANCH  49  63
BRANCH  50  74
ATOM     74  C   UNL A   1      42.095  26.559  27.688  1.00  0.00     0.023 A 
ATOM     75  C   UNL A   1      41.815  25.189  27.571  1.00  0.00     0.031 A 
ATOM     76  C   UNL A   1      42.837  27.175  26.665  1.00  0.00     0.131 A 
ATOM     77  C   UNL A   1      42.290  24.472  26.462  1.00  0.00     0.055 A 
ATOM     78  C   UNL A   1      43.275  26.466  25.545  1.00  0.00     0.041 A 
ATOM     79  F   UNL A   1      43.120  28.486  26.726  1.00  0.00    -0.206 F 
ATOM     80  C   UNL A   1      43.006  25.104  25.442  1.00  0.00     0.022 A 
BRANCH  77  81
ATOM     81  S   UNL A   1      41.975  22.688  26.378  1.00  0.00     0.124 S 
ATOM     82  O   UNL A   1      40.518  22.646  26.360  1.00  0.00    -0.237 OA
ATOM     83  O   UNL A   1      42.645  22.318  25.135  1.00  0.00    -0.237 OA
ATOM     84  O   UNL A   1      42.601  22.174  27.594  1.00  0.00    -0.744 OA
ENDBRANCH  77  81
ENDBRANCH  50  74
BRANCH  62  85
ATOM     85  C   UNL A   1      44.363  27.425  34.240  1.00  0.00     0.023 A 
ATOM     86  C   UNL A   1      44.258  26.210  34.934  1.00  0.00     0.031 A 
ATOM     87  C   UNL A   1      45.606  28.081  34.228  1.00  0.00     0.131 A 
ATOM     88  C   UNL A   1      45.375  25.697  35.610  1.00  0.00     0.055 A 
ATOM     89  C   UNL A   1      46.726  27.544  34.862  1.00  0.00     0.041 A 
ATOM     90  F   UNL A   1      45.757  29.246  33.575  1.00  0.00    -0.206 F 
ATOM     91  C   UNL A   1      46.612  26.347  35.563  1.00  0.00     0.022 A 
BRANCH  88  92
ATOM     92  S   UNL A   1      45.186  24.179  36.584  1.00  0.00     0.124 S 
ATOM     93  O   UNL A   1      46.558  23.683  36.637  1.00  0.00    -0.237 OA
ATOM     94  O   UNL A   1      44.638  24.674  37.841  1.00  0.00    -0.237 OA
ATOM     95  O   UNL A   1      44.266  23.371  35.784  1.00  0.00    -0.744 OA
ENDBRANCH  88  92
ENDBRANCH  62  85
ENDBRANCH  36  37
ENDBRANCH  28  31
ENDBRANCH  26  27
ENDBRANCH  25  26
ENDBRANCH   1  25
TORSDOF 17
ENDMDL
