MODEL 1
REMARK VINA RESULT:     -12.7      0.000      0.000
REMARK SMILES Cc1cc(C(=O)N2CC[NH2+]C[C@H]2C(=O)NCCCCNC(=O)c2ccc(-c3c4nc(c(-c5cc(S(=O)(=O)[O-])ccc5F)c5ccc([nH]5)c(-c5cc(S(=O)(=O)[O-])ccc5F)c5nc(c(-c6cc(S(=O)(=O)[O-])ccc6F)c6ccc3[nH]6)C=C5)C=C4)cc2)sc1Br
REMARK SMILES IDX 18 1 17 2 16 3 15 4 13 5 14 6 12 8 7 9 8 10 9 11 11 12 10 13
REMARK SMILES IDX 5 16 6 17 4 18 1 19 2 20 3 21 87 22 86 23 88 24 19 25 20 26
REMARK SMILES IDX 21 27 22 29 23 30 24 31 85 32 25 33 84 34 26 35 27 36 28 37
REMARK SMILES IDX 78 38 29 39 83 40 77 41 79 42 30 43 82 44 76 45 75 46 31 48
REMARK SMILES IDX 63 49 43 50 62 51 44 52 47 53 61 54 80 55 45 56 46 57 60 59
REMARK SMILES IDX 81 60 48 61 32 62 33 63 41 64 34 65 40 66 42 67 39 68 35 69
REMARK SMILES IDX 36 70 37 71 38 72 64 73 65 74 73 75 66 76 72 77 74 78 71 79
REMARK SMILES IDX 67 80 68 81 69 82 70 83 49 84 50 85 58 86 51 87 57 88 59 89
REMARK SMILES IDX 56 90 52 91 53 92 54 93 55 94
REMARK H PARENT 15 7 10 14 10 15 20 28 79 47 47 58
REMARK Flexibility Score: inf
ROOT
ATOM      1  C   UNL A   1      34.011  28.926  27.052  1.00  0.00     0.023 C 
ENDROOT
BRANCH   1   2
ATOM      2  C   UNL A   1      33.638  27.830  26.015  1.00  0.00     0.023 C 
BRANCH   2   3
ATOM      3  C   UNL A   1      33.645  26.260  26.083  1.00  0.00     0.116 C 
BRANCH   3   4
ATOM      4  N   UNL A   1      32.519  25.450  26.537  1.00  0.00    -0.354 N 
ATOM      5  C   UNL A   1      32.247  24.105  26.600  1.00  0.00     0.248 C 
ATOM      6  O   UNL A   1      31.268  23.794  27.297  1.00  0.00    -0.272 OA
ATOM      7  H   UNL A   1      31.777  25.999  26.880  1.00  0.00     0.163 HD
BRANCH   5   8
ATOM      8  C   UNL A   1      33.071  22.951  25.943  1.00  0.00     0.230 C 
ATOM      9  N   UNL A   1      33.775  23.110  24.616  1.00  0.00    -0.315 N 
ATOM     10  C   UNL A   1      34.992  22.315  24.436  1.00  0.00     0.182 C 
ATOM     11  C   UNL A   1      35.852  22.200  25.690  1.00  0.00     0.282 C 
ATOM     12  C   UNL A   1      33.941  22.369  27.110  1.00  0.00     0.296 C 
ATOM     13  N   UNL A   1      35.104  21.538  26.759  1.00  0.00    -0.343 N 
ATOM     14  H   UNL A   1      35.703  21.423  27.576  1.00  0.00     0.346 HD
ATOM     15  H   UNL A   1      34.791  20.619  26.444  1.00  0.00     0.346 HD
BRANCH   9  16
ATOM     16  C   UNL A   1      33.031  23.258  23.395  1.00  0.00     0.265 C 
ATOM     17  O   UNL A   1      32.842  22.285  22.654  1.00  0.00    -0.268 OA
BRANCH  16  18
ATOM     18  C   UNL A   1      32.620  24.596  23.022  1.00  0.00     0.093 A 
ATOM     19  C   UNL A   1      33.814  28.034  22.301  1.00  0.00     0.046 C 
ATOM     20  C   UNL A   1      32.928  26.839  22.438  1.00  0.00    -0.025 A 
ATOM     21  C   UNL A   1      33.388  25.501  22.341  1.00  0.00     0.030 A 
ATOM     22  C   UNL A   1      31.573  26.783  22.657  1.00  0.00     0.074 A 
ATOM     23  S   UNL A   1      31.045  25.237  23.175  1.00  0.00    -0.123 S 
ATOM     24  Br  UNL A   1      30.420  28.243  22.437  1.00  0.00    -0.039 Br
ENDBRANCH  16  18
ENDBRANCH   9  16
ENDBRANCH   5   8
ENDBRANCH   3   4
ENDBRANCH   2   3
ENDBRANCH   1   2
BRANCH   1  25
ATOM     25  C   UNL A   1      35.435  29.278  27.484  1.00  0.00     0.116 C 
BRANCH  25  26
ATOM     26  N   UNL A   1      35.538  29.774  28.844  1.00  0.00    -0.352 N 
ATOM     27  C   UNL A   1      36.465  29.438  29.803  1.00  0.00     0.251 C 
ATOM     28  H   UNL A   1      34.858  30.433  29.114  1.00  0.00     0.163 HD
ATOM     29  O   UNL A   1      36.149  29.517  30.991  1.00  0.00    -0.269 OA
BRANCH  27  30
ATOM     30  C   UNL A   1      37.824  29.005  29.412  1.00  0.00     0.039 A 
ATOM     31  C   UNL A   1      38.456  29.597  28.314  1.00  0.00     0.014 A 
ATOM     32  C   UNL A   1      38.459  27.973  30.110  1.00  0.00     0.014 A 
ATOM     33  C   UNL A   1      39.728  29.164  27.951  1.00  0.00     0.010 A 
ATOM     34  C   UNL A   1      39.758  27.625  29.824  1.00  0.00     0.010 A 
ATOM     35  C   UNL A   1      40.378  28.181  28.715  1.00  0.00    -0.014 A 
BRANCH  35  36
ATOM     36  C   UNL A   1      41.760  27.826  28.424  1.00  0.00     0.031 A 
ATOM     37  C   UNL A   1      41.911  26.566  27.658  1.00  0.00     0.074 A 
ATOM     38  C   UNL A   1      42.826  28.619  28.658  1.00  0.00     0.049 A 
ATOM     39  N   UNL A   1      42.272  25.417  28.119  1.00  0.00    -0.248 NA
ATOM     40  C   UNL A   1      41.433  26.527  26.269  1.00  0.00     0.031 C 
ATOM     41  C   UNL A   1      42.852  30.002  29.138  1.00  0.00     0.029 A 
ATOM     42  N   UNL A   1      44.142  28.354  28.426  1.00  0.00    -0.354 N 
ATOM     43  C   UNL A   1      42.317  24.564  27.024  1.00  0.00     0.074 A 
ATOM     44  C   UNL A   1      41.581  25.232  25.984  1.00  0.00     0.031 C 
ATOM     45  C   UNL A   1      44.089  30.520  28.959  1.00  0.00     0.029 A 
ATOM     46  C   UNL A   1      44.979  29.461  28.515  1.00  0.00     0.049 A 
ATOM     47  H   UNL A   1      44.472  27.453  28.211  1.00  0.00     0.167 HD
ATOM     48  C   UNL A   1      43.173  23.504  27.003  1.00  0.00     0.034 A 
ATOM     49  C   UNL A   1      46.309  29.506  28.237  1.00  0.00     0.034 A 
ATOM     50  C   UNL A   1      43.687  23.234  28.332  1.00  0.00     0.049 A 
ATOM     51  C   UNL A   1      46.822  28.122  28.397  1.00  0.00     0.074 A 
ATOM     52  C   UNL A   1      43.106  22.947  29.555  1.00  0.00     0.029 A 
ATOM     53  N   UNL A   1      44.969  23.647  28.630  1.00  0.00    -0.354 N 
ATOM     54  N   UNL A   1      46.836  27.498  29.543  1.00  0.00    -0.248 NA
ATOM     55  C   UNL A   1      46.861  27.258  27.227  1.00  0.00     0.031 C 
ATOM     56  C   UNL A   1      43.866  23.694  30.505  1.00  0.00     0.029 A 
ATOM     57  C   UNL A   1      44.919  24.315  29.829  1.00  0.00     0.049 A 
ATOM     58  H   UNL A   1      45.772  23.493  28.081  1.00  0.00     0.167 HD
ATOM     59  C   UNL A   1      46.434  26.203  29.253  1.00  0.00     0.074 A 
ATOM     60  C   UNL A   1      46.570  26.087  27.802  1.00  0.00     0.031 C 
ATOM     61  C   UNL A   1      45.767  25.443  30.173  1.00  0.00     0.034 A 
BRANCH  48  62
ATOM     62  C   UNL A   1      43.846  22.954  25.761  1.00  0.00     0.023 A 
ATOM     63  C   UNL A   1      43.720  21.571  25.531  1.00  0.00     0.031 A 
ATOM     64  C   UNL A   1      44.814  23.616  24.973  1.00  0.00     0.131 A 
ATOM     65  C   UNL A   1      44.605  20.894  24.675  1.00  0.00     0.055 A 
ATOM     66  C   UNL A   1      45.646  22.950  24.069  1.00  0.00     0.041 A 
ATOM     67  F   UNL A   1      45.079  24.922  25.085  1.00  0.00    -0.206 F 
ATOM     68  C   UNL A   1      45.573  21.574  23.944  1.00  0.00     0.022 A 
BRANCH  65  69
ATOM     69  S   UNL A   1      44.595  19.084  24.695  1.00  0.00     0.124 S 
ATOM     70  O   UNL A   1      43.248  18.808  25.182  1.00  0.00    -0.237 OA
ATOM     71  O   UNL A   1      44.853  18.769  23.293  1.00  0.00    -0.237 OA
ATOM     72  O   UNL A   1      45.675  18.750  25.619  1.00  0.00    -0.744 OA
ENDBRANCH  65  69
ENDBRANCH  48  62
BRANCH  49  73
ATOM     73  C   UNL A   1      47.055  30.596  27.553  1.00  0.00     0.023 A 
ATOM     74  C   UNL A   1      46.422  31.727  26.994  1.00  0.00     0.031 A 
ATOM     75  C   UNL A   1      48.463  30.652  27.668  1.00  0.00     0.131 A 
ATOM     76  C   UNL A   1      47.189  32.846  26.588  1.00  0.00     0.055 A 
ATOM     77  C   UNL A   1      49.215  31.759  27.266  1.00  0.00     0.041 A 
ATOM     78  F   UNL A   1      49.151  29.662  28.259  1.00  0.00    -0.206 F 
ATOM     79  C   UNL A   1      48.578  32.867  26.734  1.00  0.00     0.022 A 
BRANCH  76  80
ATOM     80  S   UNL A   1      46.374  34.345  25.944  1.00  0.00     0.124 S 
ATOM     81  O   UNL A   1      47.476  35.047  25.300  1.00  0.00    -0.237 OA
ATOM     82  O   UNL A   1      45.351  33.793  25.064  1.00  0.00    -0.237 OA
ATOM     83  O   UNL A   1      45.853  34.995  27.150  1.00  0.00    -0.744 OA
ENDBRANCH  76  80
ENDBRANCH  49  73
BRANCH  61  84
ATOM     84  C   UNL A   1      45.737  25.916  31.617  1.00  0.00     0.023 A 
ATOM     85  C   UNL A   1      44.609  26.463  32.271  1.00  0.00     0.031 A 
ATOM     86  C   UNL A   1      46.890  25.691  32.391  1.00  0.00     0.131 A 
ATOM     87  C   UNL A   1      44.671  26.775  33.646  1.00  0.00     0.055 A 
ATOM     88  C   UNL A   1      46.939  25.980  33.754  1.00  0.00     0.041 A 
ATOM     89  F   UNL A   1      47.988  25.151  31.836  1.00  0.00    -0.206 F 
ATOM     90  C   UNL A   1      45.831  26.530  34.385  1.00  0.00     0.022 A 
BRANCH  87  91
ATOM     91  S   UNL A   1      43.244  27.533  34.494  1.00  0.00     0.124 S 
ATOM     92  O   UNL A   1      42.714  26.460  35.310  1.00  0.00    -0.237 OA
ATOM     93  O   UNL A   1      43.864  28.647  35.218  1.00  0.00    -0.237 OA
ATOM     94  O   UNL A   1      42.376  27.949  33.386  1.00  0.00    -0.744 OA
ENDBRANCH  87  91
ENDBRANCH  61  84
ENDBRANCH  35  36
ENDBRANCH  27  30
ENDBRANCH  25  26
ENDBRANCH   1  25
TORSDOF 16
ENDMDL
MODEL 2
REMARK VINA RESULT:     -12.6      3.856      6.183
REMARK SMILES Cc1cc(C(=O)N2CC[NH2+]C[C@H]2C(=O)NCCCCNC(=O)c2ccc(-c3c4nc(c(-c5cc(S(=O)(=O)[O-])ccc5F)c5ccc([nH]5)c(-c5cc(S(=O)(=O)[O-])ccc5F)c5nc(c(-c6cc(S(=O)(=O)[O-])ccc6F)c6ccc3[nH]6)C=C5)C=C4)cc2)sc1Br
REMARK SMILES IDX 18 1 17 2 16 3 15 4 13 5 14 6 12 8 7 9 8 10 9 11 11 12 10 13
REMARK SMILES IDX 5 16 6 17 4 18 1 19 2 20 3 21 87 22 86 23 88 24 19 25 20 26
REMARK SMILES IDX 21 27 22 29 23 30 24 31 85 32 25 33 84 34 26 35 27 36 28 37
REMARK SMILES IDX 78 38 29 39 83 40 77 41 79 42 30 43 82 44 76 45 75 46 31 48
REMARK SMILES IDX 63 49 43 50 62 51 44 52 47 53 61 54 80 55 45 56 46 57 60 59
REMARK SMILES IDX 81 60 48 61 32 62 33 63 41 64 34 65 40 66 42 67 39 68 35 69
REMARK SMILES IDX 36 70 37 71 38 72 64 73 65 74 73 75 66 76 72 77 74 78 71 79
REMARK SMILES IDX 67 80 68 81 69 82 70 83 49 84 50 85 58 86 51 87 57 88 59 89
REMARK SMILES IDX 56 90 52 91 53 92 54 93 55 94
REMARK H PARENT 15 7 10 14 10 15 20 28 79 47 47 58
REMARK Flexibility Score: inf
ROOT
ATOM      1  C   UNL A   1      34.439  30.379  27.270  1.00  0.00     0.023 C 
ENDROOT
BRANCH   1   2
ATOM      2  C   UNL A   1      34.018  31.834  27.618  1.00  0.00     0.023 C 
BRANCH   2   3
ATOM      3  C   UNL A   1      34.846  33.120  27.978  1.00  0.00     0.116 C 
BRANCH   3   4
ATOM      4  N   UNL A   1      34.319  34.479  27.929  1.00  0.00    -0.354 N 
ATOM      5  C   UNL A   1      33.900  35.399  28.861  1.00  0.00     0.248 C 
ATOM      6  O   UNL A   1      33.759  36.557  28.437  1.00  0.00    -0.272 OA
ATOM      7  H   UNL A   1      34.244  34.819  27.008  1.00  0.00     0.163 HD
BRANCH   5   8
ATOM      8  C   UNL A   1      33.653  35.143  30.383  1.00  0.00     0.230 C 
ATOM      9  N   UNL A   1      34.738  34.646  31.309  1.00  0.00    -0.315 N 
ATOM     10  C   UNL A   1      34.637  35.078  32.705  1.00  0.00     0.182 C 
ATOM     11  C   UNL A   1      34.152  36.513  32.879  1.00  0.00     0.282 C 
ATOM     12  C   UNL A   1      32.861  36.403  30.875  1.00  0.00     0.296 C 
ATOM     13  N   UNL A   1      32.808  36.665  32.322  1.00  0.00    -0.343 N 
ATOM     14  H   UNL A   1      32.474  37.615  32.487  1.00  0.00     0.346 HD
ATOM     15  H   UNL A   1      32.171  36.007  32.771  1.00  0.00     0.346 HD
BRANCH   9  16
ATOM     16  C   UNL A   1      35.269  33.316  31.183  1.00  0.00     0.265 C 
ATOM     17  O   UNL A   1      34.510  32.341  31.128  1.00  0.00    -0.268 OA
BRANCH  16  18
ATOM     18  C   UNL A   1      36.709  33.164  31.239  1.00  0.00     0.093 A 
ATOM     19  C   UNL A   1      39.641  32.966  33.503  1.00  0.00     0.046 C 
ATOM     20  C   UNL A   1      38.792  32.931  32.274  1.00  0.00    -0.025 A 
ATOM     21  C   UNL A   1      37.409  32.619  32.279  1.00  0.00     0.030 A 
ATOM     22  C   UNL A   1      39.146  33.166  30.967  1.00  0.00     0.074 A 
ATOM     23  S   UNL A   1      37.794  33.447  29.951  1.00  0.00    -0.123 S 
ATOM     24  Br  UNL A   1      40.916  33.199  30.356  1.00  0.00    -0.039 Br
ENDBRANCH  16  18
ENDBRANCH   9  16
ENDBRANCH   5   8
ENDBRANCH   3   4
ENDBRANCH   2   3
ENDBRANCH   1   2
BRANCH   1  25
ATOM     25  C   UNL A   1      35.494  29.566  28.020  1.00  0.00     0.116 C 
BRANCH  25  26
ATOM     26  N   UNL A   1      35.642  29.930  29.417  1.00  0.00    -0.352 N 
ATOM     27  C   UNL A   1      36.587  29.490  30.316  1.00  0.00     0.251 C 
ATOM     28  H   UNL A   1      34.983  30.574  29.766  1.00  0.00     0.163 HD
ATOM     29  O   UNL A   1      36.302  29.462  31.514  1.00  0.00    -0.269 OA
BRANCH  27  30
ATOM     30  C   UNL A   1      37.926  29.071  29.849  1.00  0.00     0.039 A 
ATOM     31  C   UNL A   1      38.584  29.812  28.863  1.00  0.00     0.014 A 
ATOM     32  C   UNL A   1      38.514  27.909  30.358  1.00  0.00     0.014 A 
ATOM     33  C   UNL A   1      39.836  29.392  28.424  1.00  0.00     0.010 A 
ATOM     34  C   UNL A   1      39.797  27.558  30.010  1.00  0.00     0.010 A 
ATOM     35  C   UNL A   1      40.442  28.267  29.007  1.00  0.00    -0.014 A 
BRANCH  35  36
ATOM     36  C   UNL A   1      41.808  27.907  28.652  1.00  0.00     0.031 A 
ATOM     37  C   UNL A   1      41.917  26.654  27.867  1.00  0.00     0.074 A 
ATOM     38  C   UNL A   1      42.888  28.690  28.849  1.00  0.00     0.049 A 
ATOM     39  N   UNL A   1      42.290  25.498  28.299  1.00  0.00    -0.248 NA
ATOM     40  C   UNL A   1      41.378  26.634  26.500  1.00  0.00     0.031 C 
ATOM     41  C   UNL A   1      42.944  30.068  29.341  1.00  0.00     0.029 A 
ATOM     42  N   UNL A   1      44.191  28.420  28.556  1.00  0.00    -0.354 N 
ATOM     43  C   UNL A   1      42.282  24.657  27.194  1.00  0.00     0.074 A 
ATOM     44  C   UNL A   1      41.506  25.342  26.194  1.00  0.00     0.031 C 
ATOM     45  C   UNL A   1      44.175  30.580  29.115  1.00  0.00     0.029 A 
ATOM     46  C   UNL A   1      45.038  29.521  28.620  1.00  0.00     0.049 A 
ATOM     47  H   UNL A   1      44.506  27.519  28.317  1.00  0.00     0.167 HD
ATOM     48  C   UNL A   1      43.129  23.592  27.123  1.00  0.00     0.034 A 
ATOM     49  C   UNL A   1      46.355  29.561  28.285  1.00  0.00     0.034 A 
ATOM     50  C   UNL A   1      43.699  23.304  28.425  1.00  0.00     0.049 A 
ATOM     51  C   UNL A   1      46.866  28.172  28.407  1.00  0.00     0.074 A 
ATOM     52  C   UNL A   1      43.170  23.007  29.670  1.00  0.00     0.029 A 
ATOM     53  N   UNL A   1      44.995  23.706  28.672  1.00  0.00    -0.354 N 
ATOM     54  N   UNL A   1      46.926  27.535  29.545  1.00  0.00    -0.248 NA
ATOM     55  C   UNL A   1      46.848  27.321  27.227  1.00  0.00     0.031 C 
ATOM     56  C   UNL A   1      43.975  23.739  30.594  1.00  0.00     0.029 A 
ATOM     57  C   UNL A   1      45.002  24.361  29.880  1.00  0.00     0.049 A 
ATOM     58  H   UNL A   1      45.773  23.554  28.087  1.00  0.00     0.167 HD
ATOM     59  C   UNL A   1      46.503  26.246  29.259  1.00  0.00     0.074 A 
ATOM     60  C   UNL A   1      46.575  26.145  27.802  1.00  0.00     0.031 C 
ATOM     61  C   UNL A   1      45.872  25.480  30.198  1.00  0.00     0.034 A 
BRANCH  48  62
ATOM     62  C   UNL A   1      43.743  23.052  25.847  1.00  0.00     0.023 A 
ATOM     63  C   UNL A   1      43.692  21.658  25.659  1.00  0.00     0.031 A 
ATOM     64  C   UNL A   1      44.605  23.753  24.974  1.00  0.00     0.131 A 
ATOM     65  C   UNL A   1      44.554  21.016  24.754  1.00  0.00     0.055 A 
ATOM     66  C   UNL A   1      45.411  23.116  24.025  1.00  0.00     0.041 A 
ATOM     67  F   UNL A   1      44.792  25.075  25.036  1.00  0.00    -0.206 F 
ATOM     68  C   UNL A   1      45.420  21.735  23.937  1.00  0.00     0.022 A 
BRANCH  65  69
ATOM     69  S   UNL A   1      44.664  19.210  24.817  1.00  0.00     0.124 S 
ATOM     70  O   UNL A   1      45.854  19.020  25.638  1.00  0.00    -0.237 OA
ATOM     71  O   UNL A   1      43.390  18.855  25.434  1.00  0.00    -0.237 OA
ATOM     72  O   UNL A   1      44.804  18.831  23.414  1.00  0.00    -0.744 OA
ENDBRANCH  65  69
ENDBRANCH  48  62
BRANCH  49  73
ATOM     73  C   UNL A   1      47.077  30.654  27.581  1.00  0.00     0.023 A 
ATOM     74  C   UNL A   1      46.418  31.743  26.971  1.00  0.00     0.031 A 
ATOM     75  C   UNL A   1      48.480  30.764  27.724  1.00  0.00     0.131 A 
ATOM     76  C   UNL A   1      47.155  32.874  26.544  1.00  0.00     0.055 A 
ATOM     77  C   UNL A   1      49.201  31.883  27.302  1.00  0.00     0.041 A 
ATOM     78  F   UNL A   1      49.189  29.819  28.363  1.00  0.00    -0.206 F 
ATOM     79  C   UNL A   1      48.538  32.950  26.719  1.00  0.00     0.022 A 
BRANCH  76  80
ATOM     80  S   UNL A   1      46.302  34.322  25.834  1.00  0.00     0.124 S 
ATOM     81  O   UNL A   1      45.874  35.045  27.023  1.00  0.00    -0.237 OA
ATOM     82  O   UNL A   1      47.352  34.945  25.036  1.00  0.00    -0.237 OA
ATOM     83  O   UNL A   1      45.215  33.727  25.053  1.00  0.00    -0.744 OA
ENDBRANCH  76  80
ENDBRANCH  49  73
BRANCH  61  84
ATOM     84  C   UNL A   1      45.907  25.936  31.647  1.00  0.00     0.023 A 
ATOM     85  C   UNL A   1      44.800  26.438  32.371  1.00  0.00     0.031 A 
ATOM     86  C   UNL A   1      47.109  25.744  32.352  1.00  0.00     0.131 A 
ATOM     87  C   UNL A   1      44.930  26.738  33.744  1.00  0.00     0.055 A 
ATOM     88  C   UNL A   1      47.227  26.020  33.714  1.00  0.00     0.041 A 
ATOM     89  F   UNL A   1      48.192  25.247  31.730  1.00  0.00    -0.206 F 
ATOM     90  C   UNL A   1      46.138  26.525  34.413  1.00  0.00     0.022 A 
BRANCH  87  91
ATOM     91  S   UNL A   1      43.529  27.437  34.680  1.00  0.00     0.124 S 
ATOM     92  O   UNL A   1      43.282  26.460  35.720  1.00  0.00    -0.237 OA
ATOM     93  O   UNL A   1      44.061  28.730  35.123  1.00  0.00    -0.237 OA
ATOM     94  O   UNL A   1      42.468  27.542  33.670  1.00  0.00    -0.744 OA
ENDBRANCH  87  91
ENDBRANCH  61  84
ENDBRANCH  35  36
ENDBRANCH  27  30
ENDBRANCH  25  26
ENDBRANCH   1  25
TORSDOF 16
ENDMDL
MODEL 3
REMARK VINA RESULT:     -12.4      1.995      2.896
REMARK SMILES Cc1cc(C(=O)N2CC[NH2+]C[C@H]2C(=O)NCCCCNC(=O)c2ccc(-c3c4nc(c(-c5cc(S(=O)(=O)[O-])ccc5F)c5ccc([nH]5)c(-c5cc(S(=O)(=O)[O-])ccc5F)c5nc(c(-c6cc(S(=O)(=O)[O-])ccc6F)c6ccc3[nH]6)C=C5)C=C4)cc2)sc1Br
REMARK SMILES IDX 18 1 17 2 16 3 15 4 13 5 14 6 12 8 7 9 8 10 9 11 11 12 10 13
REMARK SMILES IDX 5 16 6 17 4 18 1 19 2 20 3 21 87 22 86 23 88 24 19 25 20 26
REMARK SMILES IDX 21 27 22 29 23 30 24 31 85 32 25 33 84 34 26 35 27 36 28 37
REMARK SMILES IDX 78 38 29 39 83 40 77 41 79 42 30 43 82 44 76 45 75 46 31 48
REMARK SMILES IDX 63 49 43 50 62 51 44 52 47 53 61 54 80 55 45 56 46 57 60 59
REMARK SMILES IDX 81 60 48 61 32 62 33 63 41 64 34 65 40 66 42 67 39 68 35 69
REMARK SMILES IDX 36 70 37 71 38 72 64 73 65 74 73 75 66 76 72 77 74 78 71 79
REMARK SMILES IDX 67 80 68 81 69 82 70 83 49 84 50 85 58 86 51 87 57 88 59 89
REMARK SMILES IDX 56 90 52 91 53 92 54 93 55 94
REMARK H PARENT 15 7 10 14 10 15 20 28 79 47 47 58
REMARK Flexibility Score: inf
ROOT
ATOM      1  C   UNL A   1      34.318  29.204  27.143  1.00  0.00     0.023 C 
ENDROOT
BRANCH   1   2
ATOM      2  C   UNL A   1      33.949  28.854  25.674  1.00  0.00     0.023 C 
BRANCH   2   3
ATOM      3  C   UNL A   1      33.402  27.543  25.002  1.00  0.00     0.116 C 
BRANCH   3   4
ATOM      4  N   UNL A   1      33.766  27.090  23.664  1.00  0.00    -0.354 N 
ATOM      5  C   UNL A   1      33.299  26.133  22.796  1.00  0.00     0.248 C 
ATOM      6  O   UNL A   1      33.715  26.226  21.630  1.00  0.00    -0.272 OA
ATOM      7  H   UNL A   1      34.530  27.589  23.295  1.00  0.00     0.163 HD
BRANCH   5   8
ATOM      8  C   UNL A   1      32.267  25.004  23.115  1.00  0.00     0.230 C 
ATOM      9  N   UNL A   1      32.581  23.857  24.047  1.00  0.00    -0.315 N 
ATOM     10  C   UNL A   1      31.444  23.299  24.783  1.00  0.00     0.182 C 
ATOM     11  C   UNL A   1      30.432  24.340  25.249  1.00  0.00     0.282 C 
ATOM     12  C   UNL A   1      30.922  25.761  23.395  1.00  0.00     0.296 C 
ATOM     13  N   UNL A   1      29.853  25.035  24.099  1.00  0.00    -0.343 N 
ATOM     14  H   UNL A   1      29.143  25.694  24.419  1.00  0.00     0.346 HD
ATOM     15  H   UNL A   1      29.419  24.359  23.469  1.00  0.00     0.346 HD
BRANCH   9  16
ATOM     16  C   UNL A   1      33.549  22.856  23.691  1.00  0.00     0.265 C 
ATOM     17  O   UNL A   1      33.222  21.889  22.991  1.00  0.00    -0.268 OA
BRANCH  16  18
ATOM     18  C   UNL A   1      34.870  22.968  24.273  1.00  0.00     0.093 A 
ATOM     19  C   UNL A   1      37.992  21.124  25.062  1.00  0.00     0.046 C 
ATOM     20  C   UNL A   1      37.002  22.230  24.887  1.00  0.00    -0.025 A 
ATOM     21  C   UNL A   1      35.955  22.207  23.932  1.00  0.00     0.030 A 
ATOM     22  C   UNL A   1      36.908  23.426  25.557  1.00  0.00     0.074 A 
ATOM     23  S   UNL A   1      35.390  24.192  25.345  1.00  0.00    -0.123 S 
ATOM     24  Br  UNL A   1      38.283  24.141  26.611  1.00  0.00    -0.039 Br
ENDBRANCH  16  18
ENDBRANCH   9  16
ENDBRANCH   5   8
ENDBRANCH   3   4
ENDBRANCH   2   3
ENDBRANCH   1   2
BRANCH   1  25
ATOM     25  C   UNL A   1      35.694  29.677  27.614  1.00  0.00     0.116 C 
BRANCH  25  26
ATOM     26  N   UNL A   1      35.767  29.970  29.033  1.00  0.00    -0.352 N 
ATOM     27  C   UNL A   1      36.644  29.460  29.964  1.00  0.00     0.251 C 
ATOM     28  H   UNL A   1      35.106  30.616  29.374  1.00  0.00     0.163 HD
ATOM     29  O   UNL A   1      36.287  29.385  31.140  1.00  0.00    -0.269 OA
BRANCH  27  30
ATOM     30  C   UNL A   1      37.996  29.023  29.557  1.00  0.00     0.039 A 
ATOM     31  C   UNL A   1      38.682  29.717  28.555  1.00  0.00     0.014 A 
ATOM     32  C   UNL A   1      38.571  27.889  30.138  1.00  0.00     0.014 A 
ATOM     33  C   UNL A   1      39.947  29.280  28.174  1.00  0.00     0.010 A 
ATOM     34  C   UNL A   1      39.865  27.525  29.845  1.00  0.00     0.010 A 
ATOM     35  C   UNL A   1      40.537  28.187  28.828  1.00  0.00    -0.014 A 
BRANCH  35  36
ATOM     36  C   UNL A   1      41.914  27.814  28.531  1.00  0.00     0.031 A 
ATOM     37  C   UNL A   1      42.043  26.563  27.745  1.00  0.00     0.074 A 
ATOM     38  C   UNL A   1      42.992  28.585  28.777  1.00  0.00     0.049 A 
ATOM     39  N   UNL A   1      42.386  25.401  28.188  1.00  0.00    -0.248 NA
ATOM     40  C   UNL A   1      41.564  26.554  26.356  1.00  0.00     0.031 C 
ATOM     41  C   UNL A   1      43.041  29.961  29.278  1.00  0.00     0.029 A 
ATOM     42  N   UNL A   1      44.304  28.303  28.539  1.00  0.00    -0.354 N 
ATOM     43  C   UNL A   1      42.417  24.565  27.080  1.00  0.00     0.074 A 
ATOM     44  C   UNL A   1      41.692  25.262  26.051  1.00  0.00     0.031 C 
ATOM     45  C   UNL A   1      44.286  30.461  29.107  1.00  0.00     0.029 A 
ATOM     46  C   UNL A   1      45.159  29.394  28.645  1.00  0.00     0.049 A 
ATOM     47  H   UNL A   1      44.619  27.400  28.310  1.00  0.00     0.167 HD
ATOM     48  C   UNL A   1      43.256  23.492  27.041  1.00  0.00     0.034 A 
ATOM     49  C   UNL A   1      46.489  29.422  28.367  1.00  0.00     0.034 A 
ATOM     50  C   UNL A   1      43.766  23.192  28.365  1.00  0.00     0.049 A 
ATOM     51  C   UNL A   1      46.980  28.028  28.505  1.00  0.00     0.074 A 
ATOM     52  C   UNL A   1      43.181  22.896  29.584  1.00  0.00     0.029 A 
ATOM     53  N   UNL A   1      45.054  23.581  28.669  1.00  0.00    -0.354 N 
ATOM     54  N   UNL A   1      46.984  27.386  29.641  1.00  0.00    -0.248 NA
ATOM     55  C   UNL A   1      47.004  27.181  27.321  1.00  0.00     0.031 C 
ATOM     56  C   UNL A   1      43.953  23.616  30.546  1.00  0.00     0.029 A 
ATOM     57  C   UNL A   1      45.015  24.230  29.879  1.00  0.00     0.049 A 
ATOM     58  H   UNL A   1      45.855  23.422  28.118  1.00  0.00     0.167 HD
ATOM     59  C   UNL A   1      46.561  26.102  29.332  1.00  0.00     0.074 A 
ATOM     60  C   UNL A   1      46.694  26.006  27.879  1.00  0.00     0.031 C 
ATOM     61  C   UNL A   1      45.882  25.339  30.239  1.00  0.00     0.034 A 
BRANCH  48  62
ATOM     62  C   UNL A   1      43.919  22.950  25.790  1.00  0.00     0.023 A 
ATOM     63  C   UNL A   1      43.926  21.552  25.630  1.00  0.00     0.031 A 
ATOM     64  C   UNL A   1      44.772  23.667  24.921  1.00  0.00     0.131 A 
ATOM     65  C   UNL A   1      44.833  20.926  24.759  1.00  0.00     0.055 A 
ATOM     66  C   UNL A   1      45.623  23.043  24.004  1.00  0.00     0.041 A 
ATOM     67  F   UNL A   1      44.906  24.996  24.959  1.00  0.00    -0.206 F 
ATOM     68  C   UNL A   1      45.687  21.662  23.945  1.00  0.00     0.022 A 
BRANCH  65  69
ATOM     69  S   UNL A   1      45.011  19.127  24.862  1.00  0.00     0.124 S 
ATOM     70  O   UNL A   1      44.869  18.742  23.462  1.00  0.00    -0.237 OA
ATOM     71  O   UNL A   1      46.347  18.993  25.436  1.00  0.00    -0.237 OA
ATOM     72  O   UNL A   1      43.913  18.728  25.736  1.00  0.00    -0.744 OA
ENDBRANCH  65  69
ENDBRANCH  48  62
BRANCH  49  73
ATOM     73  C   UNL A   1      47.252  30.511  27.699  1.00  0.00     0.023 A 
ATOM     74  C   UNL A   1      46.631  31.615  27.077  1.00  0.00     0.031 A 
ATOM     75  C   UNL A   1      48.650  30.598  27.893  1.00  0.00     0.131 A 
ATOM     76  C   UNL A   1      47.400  32.739  26.688  1.00  0.00     0.055 A 
ATOM     77  C   UNL A   1      49.403  31.710  27.507  1.00  0.00     0.041 A 
ATOM     78  F   UNL A   1      49.322  29.636  28.547  1.00  0.00    -0.206 F 
ATOM     79  C   UNL A   1      48.777  32.792  26.912  1.00  0.00     0.022 A 
BRANCH  76  80
ATOM     80  S   UNL A   1      46.594  34.206  25.962  1.00  0.00     0.124 S 
ATOM     81  O   UNL A   1      47.631  34.726  25.081  1.00  0.00    -0.237 OA
ATOM     82  O   UNL A   1      45.419  33.631  25.316  1.00  0.00    -0.237 OA
ATOM     83  O   UNL A   1      46.299  35.045  27.126  1.00  0.00    -0.744 OA
ENDBRANCH  76  80
ENDBRANCH  49  73
BRANCH  61  84
ATOM     84  C   UNL A   1      45.860  25.789  31.691  1.00  0.00     0.023 A 
ATOM     85  C   UNL A   1      46.895  25.566  32.629  1.00  0.00     0.031 A 
ATOM     86  C   UNL A   1      44.772  26.580  32.102  1.00  0.00     0.131 A 
ATOM     87  C   UNL A   1      46.806  26.119  33.925  1.00  0.00     0.055 A 
ATOM     88  C   UNL A   1      44.699  27.142  33.376  1.00  0.00     0.041 A 
ATOM     89  F   UNL A   1      43.767  26.850  31.252  1.00  0.00    -0.206 F 
ATOM     90  C   UNL A   1      45.713  26.907  34.295  1.00  0.00     0.022 A 
BRANCH  87  91
ATOM     91  S   UNL A   1      48.105  25.797  35.164  1.00  0.00     0.124 S 
ATOM     92  O   UNL A   1      47.856  24.433  35.584  1.00  0.00    -0.237 OA
ATOM     93  O   UNL A   1      49.335  26.020  34.397  1.00  0.00    -0.237 OA
ATOM     94  O   UNL A   1      47.849  26.813  36.192  1.00  0.00    -0.744 OA
ENDBRANCH  87  91
ENDBRANCH  61  84
ENDBRANCH  35  36
ENDBRANCH  27  30
ENDBRANCH  25  26
ENDBRANCH   1  25
TORSDOF 16
ENDMDL
