MODEL 1
REMARK VINA RESULT:     -11.8      0.000      0.000
REMARK SMILES O=C(CNC(=O)c1cccs1)N[C@@H]1C=C[C@H](C(=O)NCCCCNC(=O)c2ccc(-c3c4nc(c(-c5cc(S(=O)(=O)[O-])ccc5F)c5ccc([nH]5)c(-c5cc(S(=O)(=O)[O-])ccc5F)c5nc(c(-c6cc(S(=O)(=O)[O-])ccc6F)c6ccc3[nH]6)C=C5)C=C4)cc2)C1
REMARK SMILES IDX 21 1 20 2 19 3 17 4 18 5 16 7 13 8 14 9 90 10 15 11 12 12
REMARK SMILES IDX 1 13 2 14 3 16 4 17 5 18 6 20 7 21 8 22 11 23 9 24 10 25
REMARK SMILES IDX 22 26 23 27 24 28 25 29 26 31 27 32 28 33 89 34 29 35 88 36
REMARK SMILES IDX 30 37 31 38 32 39 82 40 33 41 87 42 81 43 83 44 34 45 86 46
REMARK SMILES IDX 80 47 79 48 35 50 67 51 47 52 66 53 48 54 51 55 65 56 84 57
REMARK SMILES IDX 49 58 50 59 64 61 85 62 52 63 36 64 37 65 45 66 38 67 44 68
REMARK SMILES IDX 46 69 43 70 39 71 40 72 41 73 42 74 68 75 69 76 77 77 70 78
REMARK SMILES IDX 76 79 78 80 75 81 71 82 72 83 73 84 74 85 53 86 54 87 62 88
REMARK SMILES IDX 55 89 61 90 63 91 60 92 56 93 57 94 58 95 59 96
REMARK H PARENT 19 6 12 15 4 19 24 30 83 49 51 60
REMARK Flexibility Score: inf
ROOT
ATOM      1  C   UNL A   1      36.713  21.829  24.642  1.00  0.00     0.023 C 
ENDROOT
BRANCH   1   2
ATOM      2  C   UNL A   1      35.377  21.922  25.381  1.00  0.00     0.116 C 
BRANCH   2   3
ATOM      3  N   UNL A   1      34.292  22.279  24.483  1.00  0.00    -0.356 N 
ATOM      4  C   UNL A   1      33.307  23.214  24.610  1.00  0.00     0.227 C 
ATOM      5  O   UNL A   1      32.432  23.264  23.742  1.00  0.00    -0.274 OA
ATOM      6  H   UNL A   1      34.264  21.761  23.646  1.00  0.00     0.163 HD
BRANCH   4   7
ATOM      7  C   UNL A   1      33.320  24.183  25.790  1.00  0.00     0.103 C 
ATOM      8  C   UNL A   1      32.104  26.325  25.621  1.00  0.00     0.106 C 
ATOM      9  C   UNL A   1      33.565  26.491  25.384  1.00  0.00    -0.006 C 
ATOM     10  C   UNL A   1      31.944  24.842  25.981  1.00  0.00     0.047 C 
ATOM     11  C   UNL A   1      34.230  25.335  25.481  1.00  0.00    -0.016 C 
BRANCH   8  12
ATOM     12  N   UNL A   1      31.409  26.682  24.410  1.00  0.00    -0.348 N 
ATOM     13  O   UNL A   1      31.272  28.916  24.910  1.00  0.00    -0.273 OA
ATOM     14  C   UNL A   1      31.065  27.985  24.132  1.00  0.00     0.239 C 
ATOM     15  H   UNL A   1      31.174  25.976  23.765  1.00  0.00     0.164 HD
BRANCH  14  16
ATOM     16  C   UNL A   1      30.208  28.184  22.884  1.00  0.00     0.216 C 
BRANCH  16  17
ATOM     17  N   UNL A   1      28.785  28.011  23.123  1.00  0.00    -0.342 N 
ATOM     18  C   UNL A   1      27.776  28.942  23.154  1.00  0.00     0.261 C 
ATOM     19  H   UNL A   1      28.499  27.084  23.288  1.00  0.00     0.164 HD
ATOM     20  O   UNL A   1      26.650  28.532  23.440  1.00  0.00    -0.268 OA
BRANCH  18  21
ATOM     21  C   UNL A   1      28.081  30.327  22.862  1.00  0.00     0.092 A 
ATOM     22  C   UNL A   1      28.460  31.353  23.709  1.00  0.00     0.025 A 
ATOM     23  S   UNL A   1      28.025  30.851  21.232  1.00  0.00    -0.139 S 
ATOM     24  C   UNL A   1      28.632  32.590  23.020  1.00  0.00     0.012 A 
ATOM     25  C   UNL A   1      28.420  32.457  21.667  1.00  0.00     0.065 A 
ENDBRANCH  18  21
ENDBRANCH  16  17
ENDBRANCH  14  16
ENDBRANCH   8  12
ENDBRANCH   4   7
ENDBRANCH   2   3
ENDBRANCH   1   2
BRANCH   1  26
ATOM     26  C   UNL A   1      37.583  20.632  25.038  1.00  0.00     0.023 C 
BRANCH  26  27
ATOM     27  C   UNL A   1      38.849  20.967  25.822  1.00  0.00     0.116 C 
BRANCH  27  28
ATOM     28  N   UNL A   1      39.770  19.846  25.925  1.00  0.00    -0.352 N 
ATOM     29  C   UNL A   1      41.126  19.853  26.152  1.00  0.00     0.251 C 
ATOM     30  H   UNL A   1      39.364  18.957  25.814  1.00  0.00     0.163 HD
ATOM     31  O   UNL A   1      41.756  18.802  26.072  1.00  0.00    -0.269 OA
BRANCH  29  32
ATOM     32  C   UNL A   1      41.826  21.123  26.454  1.00  0.00     0.039 A 
ATOM     33  C   UNL A   1      42.137  21.987  25.401  1.00  0.00     0.014 A 
ATOM     34  C   UNL A   1      42.167  21.467  27.765  1.00  0.00     0.014 A 
ATOM     35  C   UNL A   1      42.723  23.227  25.669  1.00  0.00     0.010 A 
ATOM     36  C   UNL A   1      42.689  22.731  28.036  1.00  0.00     0.010 A 
ATOM     37  C   UNL A   1      42.968  23.626  26.993  1.00  0.00    -0.014 A 
BRANCH  37  38
ATOM     38  C   UNL A   1      43.508  24.978  27.304  1.00  0.00     0.031 A 
ATOM     39  C   UNL A   1      42.608  26.037  27.880  1.00  0.00     0.074 A 
ATOM     40  C   UNL A   1      44.790  25.271  27.006  1.00  0.00     0.049 A 
ATOM     41  N   UNL A   1      42.867  27.294  28.138  1.00  0.00    -0.248 NA
ATOM     42  C   UNL A   1      41.225  25.636  28.176  1.00  0.00     0.031 C 
ATOM     43  C   UNL A   1      45.751  24.341  26.407  1.00  0.00     0.029 A 
ATOM     44  N   UNL A   1      45.503  26.434  27.151  1.00  0.00    -0.354 N 
ATOM     45  C   UNL A   1      41.678  27.838  28.615  1.00  0.00     0.074 A 
ATOM     46  C   UNL A   1      40.685  26.786  28.550  1.00  0.00     0.031 C 
ATOM     47  C   UNL A   1      46.930  24.964  26.257  1.00  0.00     0.029 A 
ATOM     48  C   UNL A   1      46.802  26.348  26.703  1.00  0.00     0.049 A 
ATOM     49  H   UNL A   1      45.121  27.254  27.540  1.00  0.00     0.167 HD
ATOM     50  C   UNL A   1      41.443  29.089  29.082  1.00  0.00     0.034 A 
ATOM     51  C   UNL A   1      47.774  27.280  26.644  1.00  0.00     0.034 A 
ATOM     52  C   UNL A   1      42.447  30.124  29.150  1.00  0.00     0.049 A 
ATOM     53  C   UNL A   1      47.482  28.671  27.148  1.00  0.00     0.074 A 
ATOM     54  C   UNL A   1      42.330  31.408  29.655  1.00  0.00     0.029 A 
ATOM     55  N   UNL A   1      43.753  29.998  28.691  1.00  0.00    -0.354 N 
ATOM     56  N   UNL A   1      46.365  29.154  27.641  1.00  0.00    -0.248 NA
ATOM     57  C   UNL A   1      48.587  29.638  27.097  1.00  0.00     0.031 C 
ATOM     58  C   UNL A   1      43.540  32.078  29.442  1.00  0.00     0.029 A 
ATOM     59  C   UNL A   1      44.440  31.189  28.874  1.00  0.00     0.049 A 
ATOM     60  H   UNL A   1      44.134  29.183  28.294  1.00  0.00     0.167 HD
ATOM     61  C   UNL A   1      46.645  30.474  27.988  1.00  0.00     0.074 A 
ATOM     62  C   UNL A   1      48.037  30.703  27.660  1.00  0.00     0.031 C 
ATOM     63  C   UNL A   1      45.826  31.409  28.533  1.00  0.00     0.034 A 
BRANCH  50  64
ATOM     64  C   UNL A   1      40.036  29.408  29.532  1.00  0.00     0.023 A 
ATOM     65  C   UNL A   1      39.702  29.514  30.894  1.00  0.00     0.031 A 
ATOM     66  C   UNL A   1      39.007  29.578  28.590  1.00  0.00     0.131 A 
ATOM     67  C   UNL A   1      38.366  29.699  31.277  1.00  0.00     0.055 A 
ATOM     68  C   UNL A   1      37.692  29.848  28.976  1.00  0.00     0.041 A 
ATOM     69  F   UNL A   1      39.257  29.471  27.275  1.00  0.00    -0.206 F 
ATOM     70  C   UNL A   1      37.361  29.893  30.326  1.00  0.00     0.022 A 
BRANCH  67  71
ATOM     71  S   UNL A   1      37.938  29.531  33.032  1.00  0.00     0.124 S 
ATOM     72  O   UNL A   1      37.041  30.667  33.226  1.00  0.00    -0.237 OA
ATOM     73  O   UNL A   1      37.319  28.212  33.081  1.00  0.00    -0.237 OA
ATOM     74  O   UNL A   1      39.228  29.640  33.711  1.00  0.00    -0.744 OA
ENDBRANCH  67  71
ENDBRANCH  50  64
BRANCH  51  75
ATOM     75  C   UNL A   1      49.111  26.941  26.080  1.00  0.00     0.023 A 
ATOM     76  C   UNL A   1      49.474  27.352  24.786  1.00  0.00     0.031 A 
ATOM     77  C   UNL A   1      50.029  26.164  26.808  1.00  0.00     0.131 A 
ATOM     78  C   UNL A   1      50.703  26.944  24.243  1.00  0.00     0.055 A 
ATOM     79  C   UNL A   1      51.272  25.806  26.282  1.00  0.00     0.041 A 
ATOM     80  F   UNL A   1      49.734  25.752  28.050  1.00  0.00    -0.206 F 
ATOM     81  C   UNL A   1      51.609  26.185  24.987  1.00  0.00     0.022 A 
BRANCH  78  82
ATOM     82  S   UNL A   1      51.064  27.354  22.513  1.00  0.00     0.124 S 
ATOM     83  O   UNL A   1      50.972  28.809  22.527  1.00  0.00    -0.237 OA
ATOM     84  O   UNL A   1      52.402  26.797  22.343  1.00  0.00    -0.237 OA
ATOM     85  O   UNL A   1      50.007  26.667  21.774  1.00  0.00    -0.744 OA
ENDBRANCH  78  82
ENDBRANCH  51  75
BRANCH  63  86
ATOM     86  C   UNL A   1      46.437  32.752  28.852  1.00  0.00     0.023 A 
ATOM     87  C   UNL A   1      46.419  33.814  27.931  1.00  0.00     0.031 A 
ATOM     88  C   UNL A   1      47.063  32.964  30.094  1.00  0.00     0.131 A 
ATOM     89  C   UNL A   1      47.062  35.022  28.244  1.00  0.00     0.055 A 
ATOM     90  C   UNL A   1      47.649  34.187  30.423  1.00  0.00     0.041 A 
ATOM     91  F   UNL A   1      47.112  31.984  31.011  1.00  0.00    -0.206 F 
ATOM     92  C   UNL A   1      47.663  35.220  29.491  1.00  0.00     0.022 A 
BRANCH  89  93
ATOM     93  S   UNL A   1      47.186  36.301  26.964  1.00  0.00     0.124 S 
ATOM     94  O   UNL A   1      46.120  37.220  27.348  1.00  0.00    -0.237 OA
ATOM     95  O   UNL A   1      48.548  36.792  27.145  1.00  0.00    -0.237 OA
ATOM     96  O   UNL A   1      46.953  35.567  25.721  1.00  0.00    -0.744 OA
ENDBRANCH  89  93
ENDBRANCH  63  86
ENDBRANCH  37  38
ENDBRANCH  29  32
ENDBRANCH  27  28
ENDBRANCH  26  27
ENDBRANCH   1  26
TORSDOF 18
ENDMDL
MODEL 2
REMARK VINA RESULT:     -11.8      5.833     11.822
REMARK SMILES O=C(CNC(=O)c1cccs1)N[C@@H]1C=C[C@H](C(=O)NCCCCNC(=O)c2ccc(-c3c4nc(c(-c5cc(S(=O)(=O)[O-])ccc5F)c5ccc([nH]5)c(-c5cc(S(=O)(=O)[O-])ccc5F)c5nc(c(-c6cc(S(=O)(=O)[O-])ccc6F)c6ccc3[nH]6)C=C5)C=C4)cc2)C1
REMARK SMILES IDX 21 1 20 2 19 3 17 4 18 5 16 7 13 8 14 9 90 10 15 11 12 12
REMARK SMILES IDX 1 13 2 14 3 16 4 17 5 18 6 20 7 21 8 22 11 23 9 24 10 25
REMARK SMILES IDX 22 26 23 27 24 28 25 29 26 31 27 32 28 33 89 34 29 35 88 36
REMARK SMILES IDX 30 37 31 38 32 39 82 40 33 41 87 42 81 43 83 44 34 45 86 46
REMARK SMILES IDX 80 47 79 48 35 50 67 51 47 52 66 53 48 54 51 55 65 56 84 57
REMARK SMILES IDX 49 58 50 59 64 61 85 62 52 63 36 64 37 65 45 66 38 67 44 68
REMARK SMILES IDX 46 69 43 70 39 71 40 72 41 73 42 74 68 75 69 76 77 77 70 78
REMARK SMILES IDX 76 79 78 80 75 81 71 82 72 83 73 84 74 85 53 86 54 87 62 88
REMARK SMILES IDX 55 89 61 90 63 91 60 92 56 93 57 94 58 95 59 96
REMARK H PARENT 19 6 12 15 4 19 24 30 83 49 51 60
REMARK Flexibility Score: inf
ROOT
ATOM      1  C   UNL A   1      34.720  30.832  27.901  1.00  0.00     0.023 C 
ENDROOT
BRANCH   1   2
ATOM      2  C   UNL A   1      34.518  29.342  27.621  1.00  0.00     0.116 C 
BRANCH   2   3
ATOM      3  N   UNL A   1      34.545  29.057  26.197  1.00  0.00    -0.356 N 
ATOM      4  C   UNL A   1      33.560  28.615  25.362  1.00  0.00     0.227 C 
ATOM      5  O   UNL A   1      33.856  28.353  24.194  1.00  0.00    -0.274 OA
ATOM      6  H   UNL A   1      35.416  29.207  25.763  1.00  0.00     0.163 HD
BRANCH   4   7
ATOM      7  C   UNL A   1      32.127  28.483  25.873  1.00  0.00     0.103 C 
ATOM      8  C   UNL A   1      31.060  26.257  25.944  1.00  0.00     0.106 C 
ATOM      9  C   UNL A   1      30.633  27.045  24.754  1.00  0.00    -0.006 C 
ATOM     10  C   UNL A   1      31.959  27.219  26.732  1.00  0.00     0.047 C 
ATOM     11  C   UNL A   1      31.202  28.254  24.714  1.00  0.00    -0.016 C 
BRANCH   8  12
ATOM     12  N   UNL A   1      31.764  25.089  25.480  1.00  0.00    -0.348 N 
ATOM     13  O   UNL A   1      31.363  23.852  27.369  1.00  0.00    -0.273 OA
ATOM     14  C   UNL A   1      31.838  23.942  26.237  1.00  0.00     0.239 C 
ATOM     15  H   UNL A   1      32.204  25.111  24.600  1.00  0.00     0.164 HD
BRANCH  14  16
ATOM     16  C   UNL A   1      32.737  22.844  25.674  1.00  0.00     0.216 C 
BRANCH  16  17
ATOM     17  N   UNL A   1      33.077  23.032  24.273  1.00  0.00    -0.342 N 
ATOM     18  C   UNL A   1      34.304  23.174  23.675  1.00  0.00     0.261 C 
ATOM     19  H   UNL A   1      32.309  23.063  23.659  1.00  0.00     0.164 HD
ATOM     20  O   UNL A   1      34.309  23.381  22.460  1.00  0.00    -0.268 OA
BRANCH  18  21
ATOM     21  C   UNL A   1      35.502  23.081  24.483  1.00  0.00     0.092 A 
ATOM     22  C   UNL A   1      36.194  24.065  25.165  1.00  0.00     0.025 A 
ATOM     23  S   UNL A   1      36.217  21.541  24.712  1.00  0.00    -0.139 S 
ATOM     24  C   UNL A   1      37.357  23.558  25.816  1.00  0.00     0.012 A 
ATOM     25  C   UNL A   1      37.489  22.199  25.645  1.00  0.00     0.065 A 
ENDBRANCH  18  21
ENDBRANCH  16  17
ENDBRANCH  14  16
ENDBRANCH   8  12
ENDBRANCH   4   7
ENDBRANCH   2   3
ENDBRANCH   1   2
BRANCH   1  26
ATOM     26  C   UNL A   1      33.432  31.660  27.923  1.00  0.00     0.023 C 
BRANCH  26  27
ATOM     27  C   UNL A   1      33.416  32.880  27.004  1.00  0.00     0.116 C 
BRANCH  27  28
ATOM     28  N   UNL A   1      32.847  34.061  27.634  1.00  0.00    -0.352 N 
ATOM     29  C   UNL A   1      33.196  34.669  28.817  1.00  0.00     0.251 C 
ATOM     30  H   UNL A   1      32.105  34.483  27.145  1.00  0.00     0.163 HD
ATOM     31  O   UNL A   1      32.505  35.586  29.251  1.00  0.00    -0.269 OA
BRANCH  29  32
ATOM     32  C   UNL A   1      34.375  34.197  29.579  1.00  0.00     0.039 A 
ATOM     33  C   UNL A   1      34.170  33.501  30.774  1.00  0.00     0.014 A 
ATOM     34  C   UNL A   1      35.675  34.428  29.120  1.00  0.00     0.014 A 
ATOM     35  C   UNL A   1      35.262  32.974  31.468  1.00  0.00     0.010 A 
ATOM     36  C   UNL A   1      36.757  33.844  29.777  1.00  0.00     0.010 A 
ATOM     37  C   UNL A   1      36.563  33.108  30.955  1.00  0.00    -0.014 A 
BRANCH  37  38
ATOM     38  C   UNL A   1      37.728  32.477  31.632  1.00  0.00     0.031 A 
ATOM     39  C   UNL A   1      38.457  31.335  30.977  1.00  0.00     0.074 A 
ATOM     40  C   UNL A   1      38.087  32.888  32.865  1.00  0.00     0.049 A 
ATOM     41  N   UNL A   1      39.436  30.602  31.441  1.00  0.00    -0.248 NA
ATOM     42  C   UNL A   1      38.002  30.949  29.633  1.00  0.00     0.031 C 
ATOM     43  C   UNL A   1      37.434  33.959  33.622  1.00  0.00     0.029 A 
ATOM     44  N   UNL A   1      39.080  32.449  33.704  1.00  0.00    -0.354 N 
ATOM     45  C   UNL A   1      39.707  29.659  30.454  1.00  0.00     0.074 A 
ATOM     46  C   UNL A   1      38.745  29.880  29.394  1.00  0.00     0.031 C 
ATOM     47  C   UNL A   1      38.056  34.105  34.802  1.00  0.00     0.029 A 
ATOM     48  C   UNL A   1      39.120  33.112  34.910  1.00  0.00     0.049 A 
ATOM     49  H   UNL A   1      39.704  31.726  33.467  1.00  0.00     0.167 HD
ATOM     50  C   UNL A   1      40.679  28.714  30.425  1.00  0.00     0.034 A 
ATOM     51  C   UNL A   1      39.914  32.933  35.985  1.00  0.00     0.034 A 
ATOM     52  C   UNL A   1      41.638  28.514  31.486  1.00  0.00     0.049 A 
ATOM     53  C   UNL A   1      40.973  31.861  35.939  1.00  0.00     0.074 A 
ATOM     54  C   UNL A   1      42.696  27.622  31.536  1.00  0.00     0.029 A 
ATOM     55  N   UNL A   1      41.650  29.209  32.689  1.00  0.00    -0.354 N 
ATOM     56  N   UNL A   1      41.247  31.010  34.976  1.00  0.00    -0.248 NA
ATOM     57  C   UNL A   1      41.836  31.733  37.121  1.00  0.00     0.031 C 
ATOM     58  C   UNL A   1      43.306  27.731  32.791  1.00  0.00     0.029 A 
ATOM     59  C   UNL A   1      42.678  28.745  33.498  1.00  0.00     0.049 A 
ATOM     60  H   UNL A   1      41.022  29.925  32.933  1.00  0.00     0.167 HD
ATOM     61  C   UNL A   1      42.336  30.268  35.427  1.00  0.00     0.074 A 
ATOM     62  C   UNL A   1      42.674  30.781  36.738  1.00  0.00     0.031 C 
ATOM     63  C   UNL A   1      42.999  29.258  34.809  1.00  0.00     0.034 A 
BRANCH  50  64
ATOM     64  C   UNL A   1      40.733  27.812  29.214  1.00  0.00     0.023 A 
ATOM     65  C   UNL A   1      41.669  28.013  28.184  1.00  0.00     0.031 A 
ATOM     66  C   UNL A   1      39.818  26.754  29.071  1.00  0.00     0.131 A 
ATOM     67  C   UNL A   1      41.617  27.227  27.024  1.00  0.00     0.055 A 
ATOM     68  C   UNL A   1      39.826  25.920  27.951  1.00  0.00     0.041 A 
ATOM     69  F   UNL A   1      38.888  26.522  30.010  1.00  0.00    -0.206 F 
ATOM     70  C   UNL A   1      40.717  26.164  26.911  1.00  0.00     0.022 A 
BRANCH  67  71
ATOM     71  S   UNL A   1      42.637  27.710  25.605  1.00  0.00     0.124 S 
ATOM     72  O   UNL A   1      42.614  26.492  24.798  1.00  0.00    -0.237 OA
ATOM     73  O   UNL A   1      41.907  28.849  25.063  1.00  0.00    -0.237 OA
ATOM     74  O   UNL A   1      43.932  28.026  26.205  1.00  0.00    -0.744 OA
ENDBRANCH  67  71
ENDBRANCH  50  64
BRANCH  51  75
ATOM     75  C   UNL A   1      39.739  33.776  37.201  1.00  0.00     0.023 A 
ATOM     76  C   UNL A   1      39.009  33.307  38.306  1.00  0.00     0.031 A 
ATOM     77  C   UNL A   1      40.261  35.080  37.261  1.00  0.00     0.131 A 
ATOM     78  C   UNL A   1      38.782  34.152  39.404  1.00  0.00     0.055 A 
ATOM     79  C   UNL A   1      40.076  35.899  38.377  1.00  0.00     0.041 A 
ATOM     80  F   UNL A   1      40.971  35.575  36.235  1.00  0.00    -0.206 F 
ATOM     81  C   UNL A   1      39.320  35.440  39.452  1.00  0.00     0.022 A 
BRANCH  78  82
ATOM     82  S   UNL A   1      37.697  33.570  40.736  1.00  0.00     0.124 S 
ATOM     83  O   UNL A   1      36.627  32.922  39.987  1.00  0.00    -0.237 OA
ATOM     84  O   UNL A   1      38.585  32.686  41.484  1.00  0.00    -0.237 OA
ATOM     85  O   UNL A   1      37.319  34.801  41.428  1.00  0.00    -0.744 OA
ENDBRANCH  78  82
ENDBRANCH  51  75
BRANCH  63  86
ATOM     86  C   UNL A   1      44.189  28.677  35.533  1.00  0.00     0.023 A 
ATOM     87  C   UNL A   1      44.059  27.612  36.442  1.00  0.00     0.031 A 
ATOM     88  C   UNL A   1      45.473  29.211  35.320  1.00  0.00     0.131 A 
ATOM     89  C   UNL A   1      45.183  27.151  37.144  1.00  0.00     0.055 A 
ATOM     90  C   UNL A   1      46.597  28.710  35.978  1.00  0.00     0.041 A 
ATOM     91  F   UNL A   1      45.656  30.231  34.466  1.00  0.00    -0.206 F 
ATOM     92  C   UNL A   1      46.454  27.682  36.906  1.00  0.00     0.022 A 
BRANCH  89  93
ATOM     93  S   UNL A   1      44.949  25.908  38.445  1.00  0.00     0.124 S 
ATOM     94  O   UNL A   1      44.287  26.683  39.490  1.00  0.00    -0.237 OA
ATOM     95  O   UNL A   1      44.127  24.907  37.775  1.00  0.00    -0.237 OA
ATOM     96  O   UNL A   1      46.311  25.480  38.760  1.00  0.00    -0.744 OA
ENDBRANCH  89  93
ENDBRANCH  63  86
ENDBRANCH  37  38
ENDBRANCH  29  32
ENDBRANCH  27  28
ENDBRANCH  26  27
ENDBRANCH   1  26
TORSDOF 18
ENDMDL
MODEL 3
REMARK VINA RESULT:     -11.4      1.847      7.692
REMARK SMILES O=C(CNC(=O)c1cccs1)N[C@@H]1C=C[C@H](C(=O)NCCCCNC(=O)c2ccc(-c3c4nc(c(-c5cc(S(=O)(=O)[O-])ccc5F)c5ccc([nH]5)c(-c5cc(S(=O)(=O)[O-])ccc5F)c5nc(c(-c6cc(S(=O)(=O)[O-])ccc6F)c6ccc3[nH]6)C=C5)C=C4)cc2)C1
REMARK SMILES IDX 21 1 20 2 19 3 17 4 18 5 16 7 13 8 14 9 90 10 15 11 12 12
REMARK SMILES IDX 1 13 2 14 3 16 4 17 5 18 6 20 7 21 8 22 11 23 9 24 10 25
REMARK SMILES IDX 22 26 23 27 24 28 25 29 26 31 27 32 28 33 89 34 29 35 88 36
REMARK SMILES IDX 30 37 31 38 32 39 82 40 33 41 87 42 81 43 83 44 34 45 86 46
REMARK SMILES IDX 80 47 79 48 35 50 67 51 47 52 66 53 48 54 51 55 65 56 84 57
REMARK SMILES IDX 49 58 50 59 64 61 85 62 52 63 36 64 37 65 45 66 38 67 44 68
REMARK SMILES IDX 46 69 43 70 39 71 40 72 41 73 42 74 68 75 69 76 77 77 70 78
REMARK SMILES IDX 76 79 78 80 75 81 71 82 72 83 73 84 74 85 53 86 54 87 62 88
REMARK SMILES IDX 55 89 61 90 63 91 60 92 56 93 57 94 58 95 59 96
REMARK H PARENT 19 6 12 15 4 19 24 30 83 49 51 60
REMARK Flexibility Score: inf
ROOT
ATOM      1  C   UNL A   1      36.479  21.753  24.687  1.00  0.00     0.023 C 
ENDROOT
BRANCH   1   2
ATOM      2  C   UNL A   1      35.029  21.342  24.947  1.00  0.00     0.116 C 
BRANCH   2   3
ATOM      3  N   UNL A   1      34.123  21.936  23.978  1.00  0.00    -0.356 N 
ATOM      4  C   UNL A   1      33.339  23.048  24.065  1.00  0.00     0.227 C 
ATOM      5  O   UNL A   1      32.573  23.299  23.131  1.00  0.00    -0.274 OA
ATOM      6  H   UNL A   1      34.066  21.457  23.120  1.00  0.00     0.163 HD
BRANCH   4   7
ATOM      7  C   UNL A   1      33.441  23.964  25.283  1.00  0.00     0.103 C 
ATOM      8  C   UNL A   1      32.215  26.107  25.302  1.00  0.00     0.106 C 
ATOM      9  C   UNL A   1      33.654  26.288  24.963  1.00  0.00    -0.006 C 
ATOM     10  C   UNL A   1      32.083  24.609  25.607  1.00  0.00     0.047 C 
ATOM     11  C   UNL A   1      34.324  25.132  24.958  1.00  0.00    -0.016 C 
BRANCH   8  12
ATOM     12  N   UNL A   1      31.430  26.516  24.165  1.00  0.00    -0.348 N 
ATOM     13  O   UNL A   1      31.193  28.689  24.857  1.00  0.00    -0.273 OA
ATOM     14  C   UNL A   1      30.995  27.813  24.016  1.00  0.00     0.239 C 
ATOM     15  H   UNL A   1      31.200  25.851  23.476  1.00  0.00     0.164 HD
BRANCH  14  16
ATOM     16  C   UNL A   1      30.056  28.056  22.836  1.00  0.00     0.216 C 
BRANCH  16  17
ATOM     17  N   UNL A   1      28.648  27.965  23.186  1.00  0.00    -0.342 N 
ATOM     18  C   UNL A   1      27.649  28.899  23.072  1.00  0.00     0.261 C 
ATOM     19  H   UNL A   1      28.368  27.101  23.563  1.00  0.00     0.164 HD
ATOM     20  O   UNL A   1      26.539  28.580  23.502  1.00  0.00    -0.268 OA
BRANCH  18  21
ATOM     21  C   UNL A   1      27.943  30.182  22.471  1.00  0.00     0.092 A 
ATOM     22  C   UNL A   1      28.028  30.544  21.139  1.00  0.00     0.025 A 
ATOM     23  S   UNL A   1      28.204  31.527  23.501  1.00  0.00    -0.139 S 
ATOM     24  C   UNL A   1      28.381  31.915  20.970  1.00  0.00     0.012 A 
ATOM     25  C   UNL A   1      28.512  32.564  22.176  1.00  0.00     0.065 A 
ENDBRANCH  18  21
ENDBRANCH  16  17
ENDBRANCH  14  16
ENDBRANCH   8  12
ENDBRANCH   4   7
ENDBRANCH   2   3
ENDBRANCH   1   2
BRANCH   1  26
ATOM     26  C   UNL A   1      37.523  20.703  25.079  1.00  0.00     0.023 C 
BRANCH  26  27
ATOM     27  C   UNL A   1      38.732  21.230  25.850  1.00  0.00     0.116 C 
BRANCH  27  28
ATOM     28  N   UNL A   1      39.778  20.234  26.020  1.00  0.00    -0.352 N 
ATOM     29  C   UNL A   1      41.100  20.411  26.352  1.00  0.00     0.251 C 
ATOM     30  H   UNL A   1      39.499  19.302  25.875  1.00  0.00     0.163 HD
ATOM     31  O   UNL A   1      41.864  19.450  26.317  1.00  0.00    -0.269 OA
BRANCH  29  32
ATOM     32  C   UNL A   1      41.606  21.755  26.711  1.00  0.00     0.039 A 
ATOM     33  C   UNL A   1      41.844  22.680  25.691  1.00  0.00     0.014 A 
ATOM     34  C   UNL A   1      41.839  22.109  28.044  1.00  0.00     0.014 A 
ATOM     35  C   UNL A   1      42.243  23.981  26.011  1.00  0.00     0.010 A 
ATOM     36  C   UNL A   1      42.171  23.424  28.364  1.00  0.00     0.010 A 
ATOM     37  C   UNL A   1      42.372  24.375  27.353  1.00  0.00    -0.014 A 
BRANCH  37  38
ATOM     38  C   UNL A   1      42.709  25.779  27.716  1.00  0.00     0.031 A 
ATOM     39  C   UNL A   1      44.128  26.266  27.617  1.00  0.00     0.074 A 
ATOM     40  C   UNL A   1      41.748  26.593  28.198  1.00  0.00     0.049 A 
ATOM     41  N   UNL A   1      44.635  27.421  27.966  1.00  0.00    -0.248 NA
ATOM     42  C   UNL A   1      45.114  25.315  27.082  1.00  0.00     0.031 C 
ATOM     43  C   UNL A   1      40.341  26.225  28.379  1.00  0.00     0.029 A 
ATOM     44  N   UNL A   1      41.808  27.892  28.636  1.00  0.00    -0.354 N 
ATOM     45  C   UNL A   1      45.999  27.334  27.706  1.00  0.00     0.074 A 
ATOM     46  C   UNL A   1      46.245  25.989  27.228  1.00  0.00     0.031 C 
ATOM     47  C   UNL A   1      39.671  27.279  28.869  1.00  0.00     0.029 A 
ATOM     48  C   UNL A   1      40.602  28.383  29.083  1.00  0.00     0.049 A 
ATOM     49  H   UNL A   1      42.636  28.424  28.631  1.00  0.00     0.167 HD
ATOM     50  C   UNL A   1      46.952  28.290  27.834  1.00  0.00     0.034 A 
ATOM     51  C   UNL A   1      40.284  29.579  29.617  1.00  0.00     0.034 A 
ATOM     52  C   UNL A   1      46.688  29.630  28.303  1.00  0.00     0.049 A 
ATOM     53  C   UNL A   1      41.365  30.620  29.771  1.00  0.00     0.074 A 
ATOM     54  C   UNL A   1      47.569  30.692  28.420  1.00  0.00     0.029 A 
ATOM     55  N   UNL A   1      45.453  30.091  28.742  1.00  0.00    -0.354 N 
ATOM     56  N   UNL A   1      42.641  30.536  29.473  1.00  0.00    -0.248 NA
ATOM     57  C   UNL A   1      40.958  31.919  30.322  1.00  0.00     0.031 C 
ATOM     58  C   UNL A   1      46.884  31.772  28.989  1.00  0.00     0.029 A 
ATOM     59  C   UNL A   1      45.557  31.411  29.158  1.00  0.00     0.049 A 
ATOM     60  H   UNL A   1      44.626  29.560  28.757  1.00  0.00     0.167 HD
ATOM     61  C   UNL A   1      43.182  31.784  29.773  1.00  0.00     0.074 A 
ATOM     62  C   UNL A   1      42.091  32.603  30.260  1.00  0.00     0.031 C 
ATOM     63  C   UNL A   1      44.463  32.214  29.652  1.00  0.00     0.034 A 
BRANCH  50  64
ATOM     64  C   UNL A   1      48.371  27.906  27.483  1.00  0.00     0.023 A 
ATOM     65  C   UNL A   1      48.870  28.044  26.175  1.00  0.00     0.031 A 
ATOM     66  C   UNL A   1      49.227  27.368  28.459  1.00  0.00     0.131 A 
ATOM     67  C   UNL A   1      50.153  27.573  25.861  1.00  0.00     0.055 A 
ATOM     68  C   UNL A   1      50.534  26.980  28.158  1.00  0.00     0.041 A 
ATOM     69  F   UNL A   1      48.803  27.194  29.720  1.00  0.00    -0.206 F 
ATOM     70  C   UNL A   1      51.000  27.065  26.850  1.00  0.00     0.022 A 
BRANCH  67  71
ATOM     71  S   UNL A   1      50.643  27.495  24.117  1.00  0.00     0.124 S 
ATOM     72  O   UNL A   1      49.455  26.906  23.503  1.00  0.00    -0.237 OA
ATOM     73  O   UNL A   1      50.900  28.894  23.798  1.00  0.00    -0.237 OA
ATOM     74  O   UNL A   1      51.822  26.631  24.130  1.00  0.00    -0.744 OA
ENDBRANCH  67  71
ENDBRANCH  50  64
BRANCH  51  75
ATOM     75  C   UNL A   1      38.889  29.863  30.057  1.00  0.00     0.023 A 
ATOM     76  C   UNL A   1      38.000  30.571  29.231  1.00  0.00     0.031 A 
ATOM     77  C   UNL A   1      38.435  29.468  31.328  1.00  0.00     0.131 A 
ATOM     78  C   UNL A   1      36.721  30.904  29.703  1.00  0.00     0.055 A 
ATOM     79  C   UNL A   1      37.143  29.756  31.772  1.00  0.00     0.041 A 
ATOM     80  F   UNL A   1      39.241  28.782  32.153  1.00  0.00    -0.206 F 
ATOM     81  C   UNL A   1      36.282  30.491  30.963  1.00  0.00     0.022 A 
BRANCH  78  82
ATOM     82  S   UNL A   1      35.665  31.961  28.675  1.00  0.00     0.124 S 
ATOM     83  O   UNL A   1      34.638  32.371  29.626  1.00  0.00    -0.237 OA
ATOM     84  O   UNL A   1      36.597  32.999  28.249  1.00  0.00    -0.237 OA
ATOM     85  O   UNL A   1      35.212  31.060  27.616  1.00  0.00    -0.744 OA
ENDBRANCH  78  82
ENDBRANCH  51  75
BRANCH  63  86
ATOM     86  C   UNL A   1      44.737  33.655  30.008  1.00  0.00     0.023 A 
ATOM     87  C   UNL A   1      44.621  34.689  29.062  1.00  0.00     0.031 A 
ATOM     88  C   UNL A   1      45.139  33.995  31.313  1.00  0.00     0.131 A 
ATOM     89  C   UNL A   1      44.956  36.005  29.420  1.00  0.00     0.055 A 
ATOM     90  C   UNL A   1      45.413  35.313  31.679  1.00  0.00     0.041 A 
ATOM     91  F   UNL A   1      45.269  33.047  32.256  1.00  0.00    -0.206 F 
ATOM     92  C   UNL A   1      45.335  36.325  30.727  1.00  0.00     0.022 A 
BRANCH  89  93
ATOM     93  S   UNL A   1      44.979  37.280  28.131  1.00  0.00     0.124 S 
ATOM     94  O   UNL A   1      44.393  36.575  26.995  1.00  0.00    -0.237 OA
ATOM     95  O   UNL A   1      44.158  38.333  28.720  1.00  0.00    -0.237 OA
ATOM     96  O   UNL A   1      46.397  37.605  27.995  1.00  0.00    -0.744 OA
ENDBRANCH  89  93
ENDBRANCH  63  86
ENDBRANCH  37  38
ENDBRANCH  29  32
ENDBRANCH  27  28
ENDBRANCH  26  27
ENDBRANCH   1  26
TORSDOF 18
ENDMDL
