MODEL 1
REMARK VINA RESULT:      -8.7      0.000      0.000
REMARK SMILES O=C(CN1C(=O)c2ccccc2[C@@H]1O)NCCCCNC(=O)c1ccc(-c2c3nc(c(-c4cc(S(=O)(=O)[O-])ccc4F)c4ccc([nH]4)c(-c4cc(S(=O)(=O)[O-])ccc4F)c4nc(c(-c5cc(S(=O)(=O)[O-])ccc5F)c5ccc2[nH]5)C=C4)C=C3)cc1
REMARK SMILES IDX 18 1 17 2 16 3 15 4 1 5 2 6 3 8 4 9 5 10 13 11 6 12 7 13
REMARK SMILES IDX 12 14 8 15 11 16 9 17 10 18 14 19 19 21 20 22 21 23 22 25
REMARK SMILES IDX 23 26 24 27 85 28 25 29 84 30 26 31 27 32 28 33 78 34 29 35
REMARK SMILES IDX 83 36 77 37 79 38 30 39 82 40 76 41 75 42 31 44 63 45 43 46
REMARK SMILES IDX 62 47 44 48 47 49 61 50 80 51 45 52 46 53 60 55 81 56 48 57
REMARK SMILES IDX 32 58 33 59 41 60 34 61 40 62 42 63 39 64 35 65 36 66 37 67
REMARK SMILES IDX 38 68 64 69 65 70 73 71 66 72 72 73 74 74 71 75 67 76 68 77
REMARK SMILES IDX 69 78 70 79 49 80 50 81 58 82 51 83 57 84 59 85 56 86 52 87
REMARK SMILES IDX 53 88 54 89 55 90
REMARK H PARENT 15 7 14 20 20 24 79 43 47 54
REMARK Flexibility Score: inf
ROOT
ATOM      1  C   UNL A   1      33.639  34.963  31.329  1.00  0.00     0.023 C 
ENDROOT
BRANCH   1   2
ATOM      2  C   UNL A   1      35.016  34.770  31.977  1.00  0.00     0.023 C 
BRANCH   2   3
ATOM      3  C   UNL A   1      35.166  35.330  33.392  1.00  0.00     0.116 C 
BRANCH   3   4
ATOM      4  N   UNL A   1      35.659  34.335  34.316  1.00  0.00    -0.355 N 
ATOM      5  O   UNL A   1      37.856  35.012  34.445  1.00  0.00    -0.273 OA
ATOM      6  C   UNL A   1      36.951  34.254  34.783  1.00  0.00     0.239 C 
ATOM      7  H   UNL A   1      35.018  33.661  34.640  1.00  0.00     0.163 HD
BRANCH   6   8
ATOM      8  C   UNL A   1      37.163  33.097  35.777  1.00  0.00     0.222 C 
BRANCH   8   9
ATOM      9  N   UNL A   1      37.853  31.942  35.215  1.00  0.00    -0.299 N 
ATOM     10  C   UNL A   1      37.470  31.311  34.040  1.00  0.00     0.257 C 
ATOM     11  C   UNL A   1      39.254  31.718  35.477  1.00  0.00     0.247 C 
ATOM     12  O   UNL A   1      36.460  31.488  33.380  1.00  0.00    -0.269 OA
ATOM     13  C   UNL A   1      38.540  30.387  33.673  1.00  0.00     0.047 A 
ATOM     14  C   UNL A   1      39.617  30.632  34.520  1.00  0.00     0.014 A 
ATOM     15  C   UNL A   1      38.560  29.428  32.680  1.00  0.00     0.014 A 
ATOM     16  C   UNL A   1      40.795  29.924  34.361  1.00  0.00     0.009 A 
ATOM     17  C   UNL A   1      39.737  28.696  32.528  1.00  0.00     0.001 A 
ATOM     18  C   UNL A   1      40.848  28.950  33.355  1.00  0.00     0.001 A 
BRANCH  11  19
ATOM     19  O   UNL A   1      39.401  31.307  36.811  1.00  0.00    -0.369 OA
ATOM     20  H   UNL A   1      40.103  31.824  37.234  1.00  0.00     0.213 HD
ENDBRANCH  11  19
ENDBRANCH   8   9
ENDBRANCH   6   8
ENDBRANCH   3   4
ENDBRANCH   2   3
ENDBRANCH   1   2
BRANCH   1  21
ATOM     21  C   UNL A   1      33.641  35.569  29.928  1.00  0.00     0.116 C 
BRANCH  21  22
ATOM     22  N   UNL A   1      33.000  34.706  28.947  1.00  0.00    -0.352 N 
ATOM     23  C   UNL A   1      33.486  33.613  28.271  1.00  0.00     0.251 C 
ATOM     24  H   UNL A   1      32.068  34.945  28.734  1.00  0.00     0.163 HD
ATOM     25  O   UNL A   1      32.823  33.133  27.353  1.00  0.00    -0.269 OA
BRANCH  23  26
ATOM     26  C   UNL A   1      34.806  33.027  28.611  1.00  0.00     0.039 A 
ATOM     27  C   UNL A   1      35.954  33.567  28.021  1.00  0.00     0.014 A 
ATOM     28  C   UNL A   1      34.924  31.939  29.481  1.00  0.00     0.014 A 
ATOM     29  C   UNL A   1      37.216  33.068  28.361  1.00  0.00     0.010 A 
ATOM     30  C   UNL A   1      36.186  31.494  29.876  1.00  0.00     0.010 A 
ATOM     31  C   UNL A   1      37.349  32.056  29.325  1.00  0.00    -0.014 A 
BRANCH  31  32
ATOM     32  C   UNL A   1      38.691  31.589  29.776  1.00  0.00     0.031 A 
ATOM     33  C   UNL A   1      39.451  32.354  30.828  1.00  0.00     0.074 A 
ATOM     34  C   UNL A   1      39.251  30.507  29.198  1.00  0.00     0.049 A 
ATOM     35  N   UNL A   1      40.656  32.143  31.297  1.00  0.00    -0.248 NA
ATOM     36  C   UNL A   1      38.777  33.522  31.413  1.00  0.00     0.031 C 
ATOM     37  C   UNL A   1      38.631  29.695  28.149  1.00  0.00     0.029 A 
ATOM     38  N   UNL A   1      40.468  29.902  29.404  1.00  0.00    -0.354 N 
ATOM     39  C   UNL A   1      40.888  33.157  32.222  1.00  0.00     0.074 A 
ATOM     40  C   UNL A   1      39.721  34.013  32.202  1.00  0.00     0.031 C 
ATOM     41  C   UNL A   1      39.455  28.686  27.827  1.00  0.00     0.029 A 
ATOM     42  C   UNL A   1      40.687  28.807  28.600  1.00  0.00     0.049 A 
ATOM     43  H   UNL A   1      41.123  30.223  30.066  1.00  0.00     0.167 HD
ATOM     44  C   UNL A   1      41.966  33.343  33.026  1.00  0.00     0.034 A 
ATOM     45  C   UNL A   1      41.762  28.000  28.481  1.00  0.00     0.034 A 
ATOM     46  C   UNL A   1      43.120  32.477  33.038  1.00  0.00     0.049 A 
ATOM     47  C   UNL A   1      42.969  28.261  29.350  1.00  0.00     0.074 A 
ATOM     48  C   UNL A   1      44.239  32.547  33.850  1.00  0.00     0.029 A 
ATOM     49  N   UNL A   1      43.314  31.391  32.194  1.00  0.00    -0.354 N 
ATOM     50  N   UNL A   1      43.151  29.197  30.254  1.00  0.00    -0.248 NA
ATOM     51  C   UNL A   1      44.111  27.352  29.188  1.00  0.00     0.031 C 
ATOM     52  C   UNL A   1      45.145  31.564  33.440  1.00  0.00     0.029 A 
ATOM     53  C   UNL A   1      44.552  30.813  32.438  1.00  0.00     0.049 A 
ATOM     54  H   UNL A   1      42.668  31.078  31.520  1.00  0.00     0.167 HD
ATOM     55  C   UNL A   1      44.413  28.961  30.793  1.00  0.00     0.074 A 
ATOM     56  C   UNL A   1      44.939  27.789  30.125  1.00  0.00     0.031 C 
ATOM     57  C   UNL A   1      45.074  29.649  31.759  1.00  0.00     0.034 A 
BRANCH  44  58
ATOM     58  C   UNL A   1      41.960  34.551  33.935  1.00  0.00     0.023 A 
ATOM     59  C   UNL A   1      41.463  34.488  35.249  1.00  0.00     0.031 A 
ATOM     60  C   UNL A   1      42.456  35.786  33.479  1.00  0.00     0.131 A 
ATOM     61  C   UNL A   1      41.407  35.652  36.033  1.00  0.00     0.055 A 
ATOM     62  C   UNL A   1      42.478  36.919  34.296  1.00  0.00     0.041 A 
ATOM     63  F   UNL A   1      42.923  35.916  32.228  1.00  0.00    -0.206 F 
ATOM     64  C   UNL A   1      41.937  36.859  35.575  1.00  0.00     0.022 A 
BRANCH  61  65
ATOM     65  S   UNL A   1      40.498  35.594  37.602  1.00  0.00     0.124 S 
ATOM     66  O   UNL A   1      39.721  36.830  37.538  1.00  0.00    -0.237 OA
ATOM     67  O   UNL A   1      39.739  34.355  37.482  1.00  0.00    -0.237 OA
ATOM     68  O   UNL A   1      41.556  35.585  38.611  1.00  0.00    -0.744 OA
ENDBRANCH  61  65
ENDBRANCH  44  58
BRANCH  45  69
ATOM     69  C   UNL A   1      41.769  26.880  27.494  1.00  0.00     0.023 A 
ATOM     70  C   UNL A   1      41.518  25.558  27.898  1.00  0.00     0.031 A 
ATOM     71  C   UNL A   1      42.088  27.104  26.142  1.00  0.00     0.131 A 
ATOM     72  C   UNL A   1      41.647  24.507  26.976  1.00  0.00     0.055 A 
ATOM     73  C   UNL A   1      42.149  26.062  25.215  1.00  0.00     0.041 A 
ATOM     74  F   UNL A   1      42.340  28.346  25.700  1.00  0.00    -0.206 F 
ATOM     75  C   UNL A   1      41.944  24.752  25.634  1.00  0.00     0.022 A 
BRANCH  72  76
ATOM     76  S   UNL A   1      41.533  22.801  27.583  1.00  0.00     0.124 S 
ATOM     77  O   UNL A   1      40.090  22.592  27.606  1.00  0.00    -0.237 OA
ATOM     78  O   UNL A   1      42.272  22.067  26.562  1.00  0.00    -0.237 OA
ATOM     79  O   UNL A   1      42.176  22.864  28.893  1.00  0.00    -0.744 OA
ENDBRANCH  72  76
ENDBRANCH  45  69
BRANCH  57  80
ATOM     80  C   UNL A   1      46.421  29.114  32.190  1.00  0.00     0.023 A 
ATOM     81  C   UNL A   1      47.616  29.513  31.564  1.00  0.00     0.031 A 
ATOM     82  C   UNL A   1      46.508  28.183  33.240  1.00  0.00     0.131 A 
ATOM     83  C   UNL A   1      48.836  28.936  31.953  1.00  0.00     0.055 A 
ATOM     84  C   UNL A   1      47.731  27.666  33.670  1.00  0.00     0.041 A 
ATOM     85  F   UNL A   1      45.401  27.760  33.873  1.00  0.00    -0.206 F 
ATOM     86  C   UNL A   1      48.904  28.032  33.016  1.00  0.00     0.022 A 
BRANCH  83  87
ATOM     87  S   UNL A   1      50.322  29.305  30.981  1.00  0.00     0.124 S 
ATOM     88  O   UNL A   1      49.956  28.797  29.662  1.00  0.00    -0.237 OA
ATOM     89  O   UNL A   1      50.422  30.756  31.100  1.00  0.00    -0.237 OA
ATOM     90  O   UNL A   1      51.374  28.554  31.665  1.00  0.00    -0.744 OA
ENDBRANCH  83  87
ENDBRANCH  57  80
ENDBRANCH  31  32
ENDBRANCH  23  26
ENDBRANCH  21  22
ENDBRANCH   1  21
TORSDOF 16
ENDMDL
MODEL 2
REMARK VINA RESULT:      -8.7      6.361     11.869
REMARK SMILES O=C(CN1C(=O)c2ccccc2[C@@H]1O)NCCCCNC(=O)c1ccc(-c2c3nc(c(-c4cc(S(=O)(=O)[O-])ccc4F)c4ccc([nH]4)c(-c4cc(S(=O)(=O)[O-])ccc4F)c4nc(c(-c5cc(S(=O)(=O)[O-])ccc5F)c5ccc2[nH]5)C=C4)C=C3)cc1
REMARK SMILES IDX 18 1 17 2 16 3 15 4 1 5 2 6 3 8 4 9 5 10 13 11 6 12 7 13
REMARK SMILES IDX 12 14 8 15 11 16 9 17 10 18 14 19 19 21 20 22 21 23 22 25
REMARK SMILES IDX 23 26 24 27 85 28 25 29 84 30 26 31 27 32 28 33 78 34 29 35
REMARK SMILES IDX 83 36 77 37 79 38 30 39 82 40 76 41 75 42 31 44 63 45 43 46
REMARK SMILES IDX 62 47 44 48 47 49 61 50 80 51 45 52 46 53 60 55 81 56 48 57
REMARK SMILES IDX 32 58 33 59 41 60 34 61 40 62 42 63 39 64 35 65 36 66 37 67
REMARK SMILES IDX 38 68 64 69 65 70 73 71 66 72 72 73 74 74 71 75 67 76 68 77
REMARK SMILES IDX 69 78 70 79 49 80 50 81 58 82 51 83 57 84 59 85 56 86 52 87
REMARK SMILES IDX 53 88 54 89 55 90
REMARK H PARENT 15 7 14 20 20 24 79 43 47 54
REMARK Flexibility Score: inf
ROOT
ATOM      1  C   UNL A   1      36.367  21.726  24.130  1.00  0.00     0.023 C 
ENDROOT
BRANCH   1   2
ATOM      2  C   UNL A   1      36.368  23.148  23.553  1.00  0.00     0.023 C 
BRANCH   2   3
ATOM      3  C   UNL A   1      35.373  24.121  24.189  1.00  0.00     0.116 C 
BRANCH   3   4
ATOM      4  N   UNL A   1      34.023  23.611  24.150  1.00  0.00    -0.355 N 
ATOM      5  O   UNL A   1      33.348  24.510  22.142  1.00  0.00    -0.273 OA
ATOM      6  C   UNL A   1      33.119  23.827  23.135  1.00  0.00     0.239 C 
ATOM      7  H   UNL A   1      33.724  23.062  24.912  1.00  0.00     0.163 HD
BRANCH   6   8
ATOM      8  C   UNL A   1      31.766  23.131  23.372  1.00  0.00     0.222 C 
BRANCH   8   9
ATOM      9  N   UNL A   1      31.863  21.695  23.611  1.00  0.00    -0.299 N 
ATOM     10  C   UNL A   1      32.055  20.758  22.608  1.00  0.00     0.257 C 
ATOM     11  C   UNL A   1      32.335  21.187  24.878  1.00  0.00     0.247 C 
ATOM     12  O   UNL A   1      32.023  20.924  21.400  1.00  0.00    -0.269 OA
ATOM     13  C   UNL A   1      32.362  19.485  23.254  1.00  0.00     0.047 A 
ATOM     14  C   UNL A   1      32.544  19.734  24.611  1.00  0.00     0.014 A 
ATOM     15  C   UNL A   1      32.476  18.228  22.692  1.00  0.00     0.014 A 
ATOM     16  C   UNL A   1      32.895  18.701  25.462  1.00  0.00     0.009 A 
ATOM     17  C   UNL A   1      32.810  17.179  23.548  1.00  0.00     0.001 A 
ATOM     18  C   UNL A   1      33.028  17.416  24.919  1.00  0.00     0.001 A 
BRANCH  11  19
ATOM     19  O   UNL A   1      31.341  21.403  25.845  1.00  0.00    -0.369 OA
ATOM     20  H   UNL A   1      31.752  21.701  26.670  1.00  0.00     0.213 HD
ENDBRANCH  11  19
ENDBRANCH   8   9
ENDBRANCH   6   8
ENDBRANCH   3   4
ENDBRANCH   2   3
ENDBRANCH   1   2
BRANCH   1  21
ATOM     21  C   UNL A   1      36.790  21.599  25.591  1.00  0.00     0.116 C 
BRANCH  21  22
ATOM     22  N   UNL A   1      37.877  20.649  25.776  1.00  0.00    -0.352 N 
ATOM     23  C   UNL A   1      39.193  20.858  26.114  1.00  0.00     0.251 C 
ATOM     24  H   UNL A   1      37.629  19.706  25.638  1.00  0.00     0.163 HD
ATOM     25  O   UNL A   1      39.984  19.919  26.047  1.00  0.00    -0.269 OA
BRANCH  23  26
ATOM     26  C   UNL A   1      39.674  22.200  26.524  1.00  0.00     0.039 A 
ATOM     27  C   UNL A   1      40.793  22.287  27.358  1.00  0.00     0.014 A 
ATOM     28  C   UNL A   1      39.023  23.368  26.118  1.00  0.00     0.014 A 
ATOM     29  C   UNL A   1      41.300  23.540  27.721  1.00  0.00     0.010 A 
ATOM     30  C   UNL A   1      39.574  24.616  26.418  1.00  0.00     0.010 A 
ATOM     31  C   UNL A   1      40.723  24.718  27.219  1.00  0.00    -0.014 A 
BRANCH  31  32
ATOM     32  C   UNL A   1      41.316  26.054  27.509  1.00  0.00     0.031 A 
ATOM     33  C   UNL A   1      42.693  26.403  27.007  1.00  0.00     0.074 A 
ATOM     34  C   UNL A   1      40.637  26.935  28.271  1.00  0.00     0.049 A 
ATOM     35  N   UNL A   1      43.401  27.484  27.216  1.00  0.00    -0.248 NA
ATOM     36  C   UNL A   1      43.371  25.392  26.182  1.00  0.00     0.031 C 
ATOM     37  C   UNL A   1      39.307  26.709  28.841  1.00  0.00     0.029 A 
ATOM     38  N   UNL A   1      40.969  28.197  28.705  1.00  0.00    -0.354 N 
ATOM     39  C   UNL A   1      44.611  27.281  26.559  1.00  0.00     0.074 A 
ATOM     40  C   UNL A   1      44.559  25.949  25.995  1.00  0.00     0.031 C 
ATOM     41  C   UNL A   1      38.926  27.803  29.520  1.00  0.00     0.029 A 
ATOM     42  C   UNL A   1      40.002  28.787  29.487  1.00  0.00     0.049 A 
ATOM     43  H   UNL A   1      41.819  28.637  28.477  1.00  0.00     0.167 HD
ATOM     44  C   UNL A   1      45.658  28.134  26.422  1.00  0.00     0.034 A 
ATOM     45  C   UNL A   1      39.987  29.977  30.123  1.00  0.00     0.034 A 
ATOM     46  C   UNL A   1      45.692  29.463  26.985  1.00  0.00     0.049 A 
ATOM     47  C   UNL A   1      41.187  30.886  29.998  1.00  0.00     0.074 A 
ATOM     48  C   UNL A   1      46.680  30.424  26.862  1.00  0.00     0.029 A 
ATOM     49  N   UNL A   1      44.704  30.016  27.790  1.00  0.00    -0.354 N 
ATOM     50  N   UNL A   1      42.303  30.695  29.332  1.00  0.00    -0.248 NA
ATOM     51  C   UNL A   1      41.120  32.172  30.704  1.00  0.00     0.031 C 
ATOM     52  C   UNL A   1      46.333  31.520  27.658  1.00  0.00     0.029 A 
ATOM     53  C   UNL A   1      45.081  31.287  28.203  1.00  0.00     0.049 A 
ATOM     54  H   UNL A   1      43.860  29.572  28.033  1.00  0.00     0.167 HD
ATOM     55  C   UNL A   1      43.051  31.857  29.510  1.00  0.00     0.074 A 
ATOM     56  C   UNL A   1      42.255  32.744  30.330  1.00  0.00     0.031 C 
ATOM     57  C   UNL A   1      44.284  32.163  29.030  1.00  0.00     0.034 A 
BRANCH  44  58
ATOM     58  C   UNL A   1      46.867  27.642  25.661  1.00  0.00     0.023 A 
ATOM     59  C   UNL A   1      47.109  28.019  24.328  1.00  0.00     0.031 A 
ATOM     60  C   UNL A   1      47.792  26.779  26.277  1.00  0.00     0.131 A 
ATOM     61  C   UNL A   1      48.204  27.478  23.635  1.00  0.00     0.055 A 
ATOM     62  C   UNL A   1      48.927  26.315  25.608  1.00  0.00     0.041 A 
ATOM     63  F   UNL A   1      47.605  26.365  27.540  1.00  0.00    -0.206 F 
ATOM     64  C   UNL A   1      49.129  26.652  24.274  1.00  0.00     0.022 A 
BRANCH  61  65
ATOM     65  S   UNL A   1      48.316  27.754  21.845  1.00  0.00     0.124 S 
ATOM     66  O   UNL A   1      46.980  28.263  21.541  1.00  0.00    -0.237 OA
ATOM     67  O   UNL A   1      49.406  28.716  21.742  1.00  0.00    -0.237 OA
ATOM     68  O   UNL A   1      48.603  26.424  21.311  1.00  0.00    -0.744 OA
ENDBRANCH  61  65
ENDBRANCH  44  58
BRANCH  45  69
ATOM     69  C   UNL A   1      38.815  30.382  30.954  1.00  0.00     0.023 A 
ATOM     70  C   UNL A   1      37.718  31.047  30.382  1.00  0.00     0.031 A 
ATOM     71  C   UNL A   1      38.800  30.167  32.344  1.00  0.00     0.131 A 
ATOM     72  C   UNL A   1      36.682  31.524  31.200  1.00  0.00     0.055 A 
ATOM     73  C   UNL A   1      37.735  30.585  33.144  1.00  0.00     0.041 A 
ATOM     74  F   UNL A   1      39.823  29.541  32.946  1.00  0.00    -0.206 F 
ATOM     75  C   UNL A   1      36.675  31.282  32.576  1.00  0.00     0.022 A 
BRANCH  72  76
ATOM     76  S   UNL A   1      35.397  32.566  30.456  1.00  0.00     0.124 S 
ATOM     77  O   UNL A   1      36.096  33.837  30.311  1.00  0.00    -0.237 OA
ATOM     78  O   UNL A   1      35.105  31.849  29.219  1.00  0.00    -0.237 OA
ATOM     79  O   UNL A   1      34.329  32.550  31.452  1.00  0.00    -0.744 OA
ENDBRANCH  72  76
ENDBRANCH  45  69
BRANCH  57  80
ATOM     80  C   UNL A   1      44.823  33.541  29.339  1.00  0.00     0.023 A 
ATOM     81  C   UNL A   1      44.726  34.602  28.420  1.00  0.00     0.031 A 
ATOM     82  C   UNL A   1      45.453  33.793  30.571  1.00  0.00     0.131 A 
ATOM     83  C   UNL A   1      45.303  35.846  28.724  1.00  0.00     0.055 A 
ATOM     84  C   UNL A   1      45.962  35.052  30.896  1.00  0.00     0.041 A 
ATOM     85  F   UNL A   1      45.580  32.819  31.486  1.00  0.00    -0.206 F 
ATOM     86  C   UNL A   1      45.901  36.083  29.963  1.00  0.00     0.022 A 
BRANCH  83  87
ATOM     87  S   UNL A   1      45.354  37.120  27.434  1.00  0.00     0.124 S 
ATOM     88  O   UNL A   1      46.182  38.148  28.056  1.00  0.00    -0.237 OA
ATOM     89  O   UNL A   1      45.958  36.407  26.314  1.00  0.00    -0.237 OA
ATOM     90  O   UNL A   1      43.949  37.481  27.253  1.00  0.00    -0.744 OA
ENDBRANCH  83  87
ENDBRANCH  57  80
ENDBRANCH  31  32
ENDBRANCH  23  26
ENDBRANCH  21  22
ENDBRANCH   1  21
TORSDOF 16
ENDMDL
MODEL 3
REMARK VINA RESULT:      -8.7      5.779     11.359
REMARK SMILES O=C(CN1C(=O)c2ccccc2[C@@H]1O)NCCCCNC(=O)c1ccc(-c2c3nc(c(-c4cc(S(=O)(=O)[O-])ccc4F)c4ccc([nH]4)c(-c4cc(S(=O)(=O)[O-])ccc4F)c4nc(c(-c5cc(S(=O)(=O)[O-])ccc5F)c5ccc2[nH]5)C=C4)C=C3)cc1
REMARK SMILES IDX 18 1 17 2 16 3 15 4 1 5 2 6 3 8 4 9 5 10 13 11 6 12 7 13
REMARK SMILES IDX 12 14 8 15 11 16 9 17 10 18 14 19 19 21 20 22 21 23 22 25
REMARK SMILES IDX 23 26 24 27 85 28 25 29 84 30 26 31 27 32 28 33 78 34 29 35
REMARK SMILES IDX 83 36 77 37 79 38 30 39 82 40 76 41 75 42 31 44 63 45 43 46
REMARK SMILES IDX 62 47 44 48 47 49 61 50 80 51 45 52 46 53 60 55 81 56 48 57
REMARK SMILES IDX 32 58 33 59 41 60 34 61 40 62 42 63 39 64 35 65 36 66 37 67
REMARK SMILES IDX 38 68 64 69 65 70 73 71 66 72 72 73 74 74 71 75 67 76 68 77
REMARK SMILES IDX 69 78 70 79 49 80 50 81 58 82 51 83 57 84 59 85 56 86 52 87
REMARK SMILES IDX 53 88 54 89 55 90
REMARK H PARENT 15 7 14 20 20 24 79 43 47 54
REMARK Flexibility Score: inf
ROOT
ATOM      1  C   UNL A   1      36.164  20.665  24.969  1.00  0.00     0.023 C 
ENDROOT
BRANCH   1   2
ATOM      2  C   UNL A   1      35.376  21.464  26.016  1.00  0.00     0.023 C 
BRANCH   2   3
ATOM      3  C   UNL A   1      33.886  21.132  26.116  1.00  0.00     0.116 C 
BRANCH   3   4
ATOM      4  N   UNL A   1      33.060  22.203  25.609  1.00  0.00    -0.355 N 
ATOM      5  O   UNL A   1      32.308  21.203  23.677  1.00  0.00    -0.273 OA
ATOM      6  C   UNL A   1      32.327  22.160  24.446  1.00  0.00     0.239 C 
ATOM      7  H   UNL A   1      33.017  23.031  26.141  1.00  0.00     0.163 HD
BRANCH   6   8
ATOM      8  C   UNL A   1      31.528  23.451  24.187  1.00  0.00     0.222 C 
BRANCH   8   9
ATOM      9  N   UNL A   1      31.875  24.558  25.071  1.00  0.00    -0.299 N 
ATOM     10  C   UNL A   1      33.031  25.313  24.943  1.00  0.00     0.257 C 
ATOM     11  C   UNL A   1      30.848  25.313  25.748  1.00  0.00     0.247 C 
ATOM     12  O   UNL A   1      33.990  25.112  24.219  1.00  0.00    -0.269 OA
ATOM     13  C   UNL A   1      32.895  26.470  25.824  1.00  0.00     0.047 A 
ATOM     14  C   UNL A   1      31.587  26.486  26.300  1.00  0.00     0.014 A 
ATOM     15  C   UNL A   1      33.837  27.421  26.164  1.00  0.00     0.014 A 
ATOM     16  C   UNL A   1      31.166  27.512  27.127  1.00  0.00     0.009 A 
ATOM     17  C   UNL A   1      33.423  28.447  27.013  1.00  0.00     0.001 A 
ATOM     18  C   UNL A   1      32.096  28.498  27.482  1.00  0.00     0.001 A 
BRANCH  11  19
ATOM     19  O   UNL A   1      30.302  24.515  26.765  1.00  0.00    -0.369 OA
ATOM     20  H   UNL A   1      29.392  24.273  26.534  1.00  0.00     0.213 HD
ENDBRANCH  11  19
ENDBRANCH   8   9
ENDBRANCH   6   8
ENDBRANCH   3   4
ENDBRANCH   2   3
ENDBRANCH   1   2
BRANCH   1  21
ATOM     21  C   UNL A   1      37.628  21.062  24.792  1.00  0.00     0.116 C 
BRANCH  21  22
ATOM     22  N   UNL A   1      38.541  20.119  25.420  1.00  0.00    -0.352 N 
ATOM     23  C   UNL A   1      39.694  20.340  26.135  1.00  0.00     0.251 C 
ATOM     24  H   UNL A   1      38.293  19.172  25.316  1.00  0.00     0.163 HD
ATOM     25  O   UNL A   1      40.407  19.382  26.430  1.00  0.00    -0.269 OA
BRANCH  23  26
ATOM     26  C   UNL A   1      40.103  21.711  26.525  1.00  0.00     0.039 A 
ATOM     27  C   UNL A   1      41.294  21.882  27.237  1.00  0.00     0.014 A 
ATOM     28  C   UNL A   1      39.315  22.826  26.221  1.00  0.00     0.014 A 
ATOM     29  C   UNL A   1      41.730  23.168  27.575  1.00  0.00     0.010 A 
ATOM     30  C   UNL A   1      39.789  24.111  26.491  1.00  0.00     0.010 A 
ATOM     31  C   UNL A   1      41.005  24.299  27.167  1.00  0.00    -0.014 A 
BRANCH  31  32
ATOM     32  C   UNL A   1      41.512  25.677  27.425  1.00  0.00     0.031 A 
ATOM     33  C   UNL A   1      42.857  26.106  26.901  1.00  0.00     0.074 A 
ATOM     34  C   UNL A   1      40.784  26.526  28.179  1.00  0.00     0.049 A 
ATOM     35  N   UNL A   1      43.495  27.235  27.082  1.00  0.00    -0.248 NA
ATOM     36  C   UNL A   1      43.592  25.127  26.087  1.00  0.00     0.031 C 
ATOM     37  C   UNL A   1      39.478  26.223  28.769  1.00  0.00     0.029 A 
ATOM     38  N   UNL A   1      41.037  27.814  28.586  1.00  0.00    -0.354 N 
ATOM     39  C   UNL A   1      44.709  27.100  26.415  1.00  0.00     0.074 A 
ATOM     40  C   UNL A   1      44.739  25.757  25.876  1.00  0.00     0.031 C 
ATOM     41  C   UNL A   1      39.033  27.302  29.432  1.00  0.00     0.029 A 
ATOM     42  C   UNL A   1      40.041  28.354  29.369  1.00  0.00     0.049 A 
ATOM     43  H   UNL A   1      41.853  28.306  28.340  1.00  0.00     0.167 HD
ATOM     44  C   UNL A   1      45.695  28.017  26.250  1.00  0.00     0.034 A 
ATOM     45  C   UNL A   1      39.955  29.553  29.984  1.00  0.00     0.034 A 
ATOM     46  C   UNL A   1      45.647  29.356  26.788  1.00  0.00     0.049 A 
ATOM     47  C   UNL A   1      41.090  30.536  29.828  1.00  0.00     0.074 A 
ATOM     48  C   UNL A   1      46.569  30.377  26.635  1.00  0.00     0.029 A 
ATOM     49  N   UNL A   1      44.633  29.858  27.594  1.00  0.00    -0.354 N 
ATOM     50  N   UNL A   1      42.209  30.407  29.152  1.00  0.00    -0.248 NA
ATOM     51  C   UNL A   1      40.946  31.828  30.511  1.00  0.00     0.031 C 
ATOM     52  C   UNL A   1      46.159  31.463  27.416  1.00  0.00     0.029 A 
ATOM     53  C   UNL A   1      44.930  31.158  27.979  1.00  0.00     0.049 A 
ATOM     54  H   UNL A   1      43.823  29.364  27.855  1.00  0.00     0.167 HD
ATOM     55  C   UNL A   1      42.881  31.618  29.299  1.00  0.00     0.074 A 
ATOM     56  C   UNL A   1      42.036  32.466  30.113  1.00  0.00     0.031 C 
ATOM     57  C   UNL A   1      44.086  31.996  28.800  1.00  0.00     0.034 A 
BRANCH  44  58
ATOM     58  C   UNL A   1      46.926  27.591  25.483  1.00  0.00     0.023 A 
ATOM     59  C   UNL A   1      47.137  27.972  24.146  1.00  0.00     0.031 A 
ATOM     60  C   UNL A   1      47.904  26.788  26.098  1.00  0.00     0.131 A 
ATOM     61  C   UNL A   1      48.257  27.492  23.449  1.00  0.00     0.055 A 
ATOM     62  C   UNL A   1      49.059  26.386  25.425  1.00  0.00     0.041 A 
ATOM     63  F   UNL A   1      47.750  26.372  27.365  1.00  0.00    -0.206 F 
ATOM     64  C   UNL A   1      49.233  26.725  24.087  1.00  0.00     0.022 A 
BRANCH  61  65
ATOM     65  S   UNL A   1      48.340  27.762  21.657  1.00  0.00     0.124 S 
ATOM     66  O   UNL A   1      47.010  28.297  21.376  1.00  0.00    -0.237 OA
ATOM     67  O   UNL A   1      49.448  28.702  21.531  1.00  0.00    -0.237 OA
ATOM     68  O   UNL A   1      48.591  26.425  21.121  1.00  0.00    -0.744 OA
ENDBRANCH  61  65
ENDBRANCH  44  58
BRANCH  45  69
ATOM     69  C   UNL A   1      38.767  29.895  30.820  1.00  0.00     0.023 A 
ATOM     70  C   UNL A   1      37.725  30.686  30.308  1.00  0.00     0.031 A 
ATOM     71  C   UNL A   1      38.684  29.491  32.165  1.00  0.00     0.131 A 
ATOM     72  C   UNL A   1      36.677  31.095  31.149  1.00  0.00     0.055 A 
ATOM     73  C   UNL A   1      37.605  29.845  32.978  1.00  0.00     0.041 A 
ATOM     74  F   UNL A   1      39.652  28.738  32.710  1.00  0.00    -0.206 F 
ATOM     75  C   UNL A   1      36.602  30.665  32.475  1.00  0.00     0.022 A 
BRANCH  72  76
ATOM     76  S   UNL A   1      35.471  32.291  30.513  1.00  0.00     0.124 S 
ATOM     77  O   UNL A   1      36.298  33.479  30.338  1.00  0.00    -0.237 OA
ATOM     78  O   UNL A   1      35.016  31.641  29.288  1.00  0.00    -0.237 OA
ATOM     79  O   UNL A   1      34.478  32.372  31.581  1.00  0.00    -0.744 OA
ENDBRANCH  72  76
ENDBRANCH  45  69
BRANCH  57  80
ATOM     80  C   UNL A   1      44.536  33.412  29.077  1.00  0.00     0.023 A 
ATOM     81  C   UNL A   1      44.098  34.499  28.298  1.00  0.00     0.031 A 
ATOM     82  C   UNL A   1      45.425  33.676  30.134  1.00  0.00     0.131 A 
ATOM     83  C   UNL A   1      44.598  35.786  28.550  1.00  0.00     0.055 A 
ATOM     84  C   UNL A   1      45.864  34.969  30.424  1.00  0.00     0.041 A 
ATOM     85  F   UNL A   1      45.883  32.679  30.909  1.00  0.00    -0.206 F 
ATOM     86  C   UNL A   1      45.461  36.032  29.621  1.00  0.00     0.022 A 
BRANCH  83  87
ATOM     87  S   UNL A   1      44.187  37.121  27.393  1.00  0.00     0.124 S 
ATOM     88  O   UNL A   1      45.481  37.400  26.779  1.00  0.00    -0.237 OA
ATOM     89  O   UNL A   1      43.194  36.492  26.529  1.00  0.00    -0.237 OA
ATOM     90  O   UNL A   1      43.672  38.180  28.260  1.00  0.00    -0.744 OA
ENDBRANCH  83  87
ENDBRANCH  57  80
ENDBRANCH  31  32
ENDBRANCH  23  26
ENDBRANCH  21  22
ENDBRANCH   1  21
TORSDOF 16
ENDMDL
