MODEL 1
REMARK VINA RESULT:     -11.2      0.000      0.000
REMARK SMILES CC[C@@H](C(=O)NCCCCNC(=O)c1ccc(-c2c3nc(c(-c4cc(S(=O)(=O)[O-])ccc4F)c4ccc([nH]4)c(-c4cc(S(=O)(=O)[O-])ccc4F)c4nc(c(-c5cc(S(=O)(=O)[O-])ccc5F)c5ccc2[nH]5)C=C4)C=C3)cc1)c1cc(Br)ccc1F
REMARK SMILES IDX 9 1 8 2 7 3 6 4 4 5 5 6 3 8 2 9 1 10 77 11 78 12 83 13 79 14
REMARK SMILES IDX 82 15 84 16 80 17 81 18 10 19 11 20 12 21 13 23 14 24 15 25
REMARK SMILES IDX 76 26 16 27 75 28 17 29 18 30 19 31 69 32 20 33 74 34 68 35
REMARK SMILES IDX 70 36 21 37 73 38 67 39 66 40 22 42 54 43 34 44 53 45 35 46
REMARK SMILES IDX 38 47 52 48 71 49 36 50 37 51 51 53 72 54 39 55 23 56 24 57
REMARK SMILES IDX 32 58 25 59 31 60 33 61 30 62 26 63 27 64 28 65 29 66 55 67
REMARK SMILES IDX 56 68 64 69 57 70 63 71 65 72 62 73 58 74 59 75 60 76 61 77
REMARK SMILES IDX 40 78 41 79 49 80 42 81 48 82 50 83 47 84 43 85 44 86 45 87
REMARK SMILES IDX 46 88
REMARK H PARENT 6 7 11 22 70 41 38 52
REMARK Flexibility Score: inf
ROOT
ATOM      1  C   UNL A   1      31.391  31.745  26.746  1.00  0.00     0.023 C 
ENDROOT
BRANCH   1   2
ATOM      2  C   UNL A   1      31.496  30.538  25.820  1.00  0.00     0.023 C 
BRANCH   2   3
ATOM      3  C   UNL A   1      32.870  29.859  25.791  1.00  0.00     0.116 C 
BRANCH   3   4
ATOM      4  N   UNL A   1      33.333  29.767  24.420  1.00  0.00    -0.356 N 
ATOM      5  C   UNL A   1      33.548  28.663  23.645  1.00  0.00     0.227 C 
ATOM      6  O   UNL A   1      34.339  28.785  22.706  1.00  0.00    -0.274 OA
ATOM      7  H   UNL A   1      33.520  30.629  23.984  1.00  0.00     0.163 HD
BRANCH   5   8
ATOM      8  C   UNL A   1      32.772  27.346  23.894  1.00  0.00     0.111 C 
BRANCH   8   9
ATOM      9  C   UNL A   1      33.355  26.155  23.095  1.00  0.00     0.015 C 
ATOM     10  C   UNL A   1      33.911  24.964  23.846  1.00  0.00     0.005 C 
ENDBRANCH   8   9
BRANCH   8  11
ATOM     11  C   UNL A   1      31.280  27.564  23.534  1.00  0.00     0.001 A 
ATOM     12  C   UNL A   1      30.822  28.669  22.787  1.00  0.00     0.023 A 
ATOM     13  C   UNL A   1      30.308  26.673  24.014  1.00  0.00     0.127 A 
ATOM     14  C   UNL A   1      29.457  28.891  22.584  1.00  0.00     0.018 A 
ATOM     15  C   UNL A   1      28.943  26.903  23.826  1.00  0.00     0.041 A 
ATOM     16  F   UNL A   1      30.680  25.576  24.689  1.00  0.00    -0.207 F 
ATOM     17  Br  UNL A   1      28.900  30.404  21.595  1.00  0.00    -0.051 Br
ATOM     18  C   UNL A   1      28.513  28.022  23.116  1.00  0.00     0.019 A 
ENDBRANCH   8  11
ENDBRANCH   5   8
ENDBRANCH   3   4
ENDBRANCH   2   3
ENDBRANCH   1   2
BRANCH   1  19
ATOM     19  C   UNL A   1      32.714  32.424  27.044  1.00  0.00     0.116 C 
BRANCH  19  20
ATOM     20  N   UNL A   1      32.558  33.802  27.485  1.00  0.00    -0.352 N 
ATOM     21  C   UNL A   1      33.218  34.466  28.489  1.00  0.00     0.251 C 
ATOM     22  H   UNL A   1      31.885  34.330  26.996  1.00  0.00     0.163 HD
ATOM     23  O   UNL A   1      32.852  35.593  28.815  1.00  0.00    -0.269 OA
BRANCH  21  24
ATOM     24  C   UNL A   1      34.338  33.803  29.190  1.00  0.00     0.039 A 
ATOM     25  C   UNL A   1      35.639  34.263  28.982  1.00  0.00     0.014 A 
ATOM     26  C   UNL A   1      34.101  32.745  30.072  1.00  0.00     0.014 A 
ATOM     27  C   UNL A   1      36.695  33.691  29.694  1.00  0.00     0.010 A 
ATOM     28  C   UNL A   1      35.134  32.256  30.861  1.00  0.00     0.010 A 
ATOM     29  C   UNL A   1      36.447  32.700  30.657  1.00  0.00    -0.014 A 
BRANCH  29  30
ATOM     30  C   UNL A   1      37.556  32.062  31.410  1.00  0.00     0.031 A 
ATOM     31  C   UNL A   1      38.358  30.964  30.759  1.00  0.00     0.074 A 
ATOM     32  C   UNL A   1      37.814  32.437  32.678  1.00  0.00     0.049 A 
ATOM     33  N   UNL A   1      39.337  30.248  31.249  1.00  0.00    -0.248 NA
ATOM     34  C   UNL A   1      37.976  30.593  29.387  1.00  0.00     0.031 C 
ATOM     35  C   UNL A   1      37.065  33.447  33.431  1.00  0.00     0.029 A 
ATOM     36  N   UNL A   1      38.777  32.016  33.557  1.00  0.00    -0.354 N 
ATOM     37  C   UNL A   1      39.670  29.334  30.254  1.00  0.00     0.074 A 
ATOM     38  C   UNL A   1      38.732  29.529  29.171  1.00  0.00     0.031 C 
ATOM     39  C   UNL A   1      37.624  33.596  34.642  1.00  0.00     0.029 A 
ATOM     40  C   UNL A   1      38.745  32.670  34.768  1.00  0.00     0.049 A 
ATOM     41  H   UNL A   1      39.431  31.313  33.342  1.00  0.00     0.167 HD
ATOM     42  C   UNL A   1      40.691  28.441  30.227  1.00  0.00     0.034 A 
ATOM     43  C   UNL A   1      39.536  32.537  35.850  1.00  0.00     0.034 A 
ATOM     44  C   UNL A   1      41.633  28.283  31.305  1.00  0.00     0.049 A 
ATOM     45  C   UNL A   1      40.673  31.548  35.793  1.00  0.00     0.074 A 
ATOM     46  C   UNL A   1      42.738  27.453  31.374  1.00  0.00     0.029 A 
ATOM     47  N   UNL A   1      41.582  28.975  32.510  1.00  0.00    -0.354 N 
ATOM     48  N   UNL A   1      41.015  30.732  34.821  1.00  0.00    -0.248 NA
ATOM     49  C   UNL A   1      41.543  31.477  36.973  1.00  0.00     0.031 C 
ATOM     50  C   UNL A   1      43.318  27.599  32.639  1.00  0.00     0.029 A 
ATOM     51  C   UNL A   1      42.621  28.575  33.335  1.00  0.00     0.049 A 
ATOM     52  H   UNL A   1      40.907  29.652  32.743  1.00  0.00     0.167 HD
ATOM     53  C   UNL A   1      42.158  30.073  35.264  1.00  0.00     0.074 A 
ATOM     54  C   UNL A   1      42.459  30.608  36.578  1.00  0.00     0.031 C 
ATOM     55  C   UNL A   1      42.894  29.111  34.648  1.00  0.00     0.034 A 
BRANCH  42  56
ATOM     56  C   UNL A   1      40.817  27.571  28.997  1.00  0.00     0.023 A 
ATOM     57  C   UNL A   1      41.770  27.838  27.997  1.00  0.00     0.031 A 
ATOM     58  C   UNL A   1      39.942  26.490  28.794  1.00  0.00     0.131 A 
ATOM     59  C   UNL A   1      41.764  27.099  26.805  1.00  0.00     0.055 A 
ATOM     60  C   UNL A   1      40.002  25.698  27.644  1.00  0.00     0.041 A 
ATOM     61  F   UNL A   1      38.996  26.195  29.700  1.00  0.00    -0.206 F 
ATOM     62  C   UNL A   1      40.904  26.013  26.632  1.00  0.00     0.022 A 
BRANCH  59  63
ATOM     63  S   UNL A   1      42.783  27.682  25.421  1.00  0.00     0.124 S 
ATOM     64  O   UNL A   1      43.960  28.196  26.119  1.00  0.00    -0.237 OA
ATOM     65  O   UNL A   1      42.982  26.467  24.641  1.00  0.00    -0.237 OA
ATOM     66  O   UNL A   1      41.949  28.702  24.787  1.00  0.00    -0.744 OA
ENDBRANCH  59  63
ENDBRANCH  42  56
BRANCH  43  67
ATOM     67  C   UNL A   1      39.301  33.362  37.070  1.00  0.00     0.023 A 
ATOM     68  C   UNL A   1      39.991  34.569  37.270  1.00  0.00     0.031 A 
ATOM     69  C   UNL A   1      38.419  32.935  38.078  1.00  0.00     0.131 A 
ATOM     70  C   UNL A   1      39.831  35.277  38.471  1.00  0.00     0.055 A 
ATOM     71  C   UNL A   1      38.222  33.670  39.248  1.00  0.00     0.041 A 
ATOM     72  F   UNL A   1      37.728  31.792  37.934  1.00  0.00    -0.206 F 
ATOM     73  C   UNL A   1      38.943  34.843  39.457  1.00  0.00     0.022 A 
BRANCH  70  74
ATOM     74  S   UNL A   1      40.873  36.734  38.766  1.00  0.00     0.124 S 
ATOM     75  O   UNL A   1      39.878  37.752  39.082  1.00  0.00    -0.237 OA
ATOM     76  O   UNL A   1      41.710  36.287  39.874  1.00  0.00    -0.237 OA
ATOM     77  O   UNL A   1      41.571  36.915  37.495  1.00  0.00    -0.744 OA
ENDBRANCH  70  74
ENDBRANCH  43  67
BRANCH  55  78
ATOM     78  C   UNL A   1      44.112  28.612  35.387  1.00  0.00     0.023 A 
ATOM     79  C   UNL A   1      44.041  27.527  36.277  1.00  0.00     0.031 A 
ATOM     80  C   UNL A   1      45.352  29.254  35.224  1.00  0.00     0.131 A 
ATOM     81  C   UNL A   1      45.167  27.167  37.030  1.00  0.00     0.055 A 
ATOM     82  C   UNL A   1      46.489  28.845  35.923  1.00  0.00     0.041 A 
ATOM     83  F   UNL A   1      45.479  30.297  34.387  1.00  0.00    -0.206 F 
ATOM     84  C   UNL A   1      46.395  27.807  36.846  1.00  0.00     0.022 A 
BRANCH  81  85
ATOM     85  S   UNL A   1      44.972  25.931  38.344  1.00  0.00     0.124 S 
ATOM     86  O   UNL A   1      44.235  24.874  37.659  1.00  0.00    -0.237 OA
ATOM     87  O   UNL A   1      46.356  25.623  38.688  1.00  0.00    -0.237 OA
ATOM     88  O   UNL A   1      44.221  26.643  39.375  1.00  0.00    -0.744 OA
ENDBRANCH  81  85
ENDBRANCH  55  78
ENDBRANCH  29  30
ENDBRANCH  21  24
ENDBRANCH  19  20
ENDBRANCH   1  19
TORSDOF 16
ENDMDL
MODEL 2
REMARK VINA RESULT:     -11.2      6.394     10.491
REMARK SMILES CC[C@@H](C(=O)NCCCCNC(=O)c1ccc(-c2c3nc(c(-c4cc(S(=O)(=O)[O-])ccc4F)c4ccc([nH]4)c(-c4cc(S(=O)(=O)[O-])ccc4F)c4nc(c(-c5cc(S(=O)(=O)[O-])ccc5F)c5ccc2[nH]5)C=C4)C=C3)cc1)c1cc(Br)ccc1F
REMARK SMILES IDX 9 1 8 2 7 3 6 4 4 5 5 6 3 8 2 9 1 10 77 11 78 12 83 13 79 14
REMARK SMILES IDX 82 15 84 16 80 17 81 18 10 19 11 20 12 21 13 23 14 24 15 25
REMARK SMILES IDX 76 26 16 27 75 28 17 29 18 30 19 31 69 32 20 33 74 34 68 35
REMARK SMILES IDX 70 36 21 37 73 38 67 39 66 40 22 42 54 43 34 44 53 45 35 46
REMARK SMILES IDX 38 47 52 48 71 49 36 50 37 51 51 53 72 54 39 55 23 56 24 57
REMARK SMILES IDX 32 58 25 59 31 60 33 61 30 62 26 63 27 64 28 65 29 66 55 67
REMARK SMILES IDX 56 68 64 69 57 70 63 71 65 72 62 73 58 74 59 75 60 76 61 77
REMARK SMILES IDX 40 78 41 79 49 80 42 81 48 82 50 83 47 84 43 85 44 86 45 87
REMARK SMILES IDX 46 88
REMARK H PARENT 6 7 11 22 70 41 38 52
REMARK Flexibility Score: inf
ROOT
ATOM      1  C   UNL A   1      41.581  20.483  27.376  1.00  0.00     0.023 C 
ENDROOT
BRANCH   1   2
ATOM      2  C   UNL A   1      42.310  19.327  26.700  1.00  0.00     0.023 C 
BRANCH   2   3
ATOM      3  C   UNL A   1      43.013  19.683  25.385  1.00  0.00     0.116 C 
BRANCH   3   4
ATOM      4  N   UNL A   1      44.404  19.990  25.650  1.00  0.00    -0.356 N 
ATOM      5  C   UNL A   1      45.046  21.195  25.653  1.00  0.00     0.227 C 
ATOM      6  O   UNL A   1      46.265  21.180  25.464  1.00  0.00    -0.274 OA
ATOM      7  H   UNL A   1      44.971  19.213  25.858  1.00  0.00     0.163 HD
BRANCH   5   8
ATOM      8  C   UNL A   1      44.282  22.507  25.958  1.00  0.00     0.111 C 
BRANCH   8   9
ATOM      9  C   UNL A   1      44.120  23.404  24.706  1.00  0.00     0.015 C 
ATOM     10  C   UNL A   1      43.413  24.736  24.838  1.00  0.00     0.005 C 
ENDBRANCH   8   9
BRANCH   8  11
ATOM     11  C   UNL A   1      45.025  23.273  27.082  1.00  0.00     0.001 A 
ATOM     12  C   UNL A   1      44.537  23.368  28.402  1.00  0.00     0.023 A 
ATOM     13  C   UNL A   1      46.209  23.970  26.790  1.00  0.00     0.127 A 
ATOM     14  C   UNL A   1      45.176  24.165  29.356  1.00  0.00     0.018 A 
ATOM     15  C   UNL A   1      46.839  24.779  27.739  1.00  0.00     0.041 A 
ATOM     16  F   UNL A   1      46.754  23.882  25.568  1.00  0.00    -0.207 F 
ATOM     17  Br  UNL A   1      44.460  24.274  31.103  1.00  0.00    -0.051 Br
ATOM     18  C   UNL A   1      46.316  24.886  29.026  1.00  0.00     0.019 A 
ENDBRANCH   8  11
ENDBRANCH   5   8
ENDBRANCH   3   4
ENDBRANCH   2   3
ENDBRANCH   1   2
BRANCH   1  19
ATOM     19  C   UNL A   1      41.208  21.620  26.446  1.00  0.00     0.116 C 
BRANCH  19  20
ATOM     20  N   UNL A   1      39.803  21.603  26.065  1.00  0.00    -0.352 N 
ATOM     21  C   UNL A   1      38.855  22.585  26.220  1.00  0.00     0.251 C 
ATOM     22  H   UNL A   1      39.489  20.773  25.638  1.00  0.00     0.163 HD
ATOM     23  O   UNL A   1      37.678  22.339  25.967  1.00  0.00    -0.269 OA
BRANCH  21  24
ATOM     24  C   UNL A   1      39.257  23.914  26.726  1.00  0.00     0.039 A 
ATOM     25  C   UNL A   1      39.118  24.195  28.086  1.00  0.00     0.014 A 
ATOM     26  C   UNL A   1      39.795  24.874  25.863  1.00  0.00     0.014 A 
ATOM     27  C   UNL A   1      39.562  25.421  28.586  1.00  0.00     0.010 A 
ATOM     28  C   UNL A   1      40.338  26.043  26.379  1.00  0.00     0.010 A 
ATOM     29  C   UNL A   1      40.198  26.344  27.740  1.00  0.00    -0.014 A 
BRANCH  29  30
ATOM     30  C   UNL A   1      40.657  27.663  28.245  1.00  0.00     0.031 A 
ATOM     31  C   UNL A   1      42.129  27.986  28.240  1.00  0.00     0.074 A 
ATOM     32  C   UNL A   1      39.764  28.543  28.738  1.00  0.00     0.049 A 
ATOM     33  N   UNL A   1      42.746  29.056  28.671  1.00  0.00    -0.248 NA
ATOM     34  C   UNL A   1      43.031  26.946  27.722  1.00  0.00     0.031 C 
ATOM     35  C   UNL A   1      38.321  28.315  28.848  1.00  0.00     0.029 A 
ATOM     36  N   UNL A   1      39.938  29.808  29.237  1.00  0.00    -0.354 N 
ATOM     37  C   UNL A   1      44.103  28.807  28.492  1.00  0.00     0.074 A 
ATOM     38  C   UNL A   1      44.222  27.454  27.998  1.00  0.00     0.031 C 
ATOM     39  C   UNL A   1      37.738  29.419  29.341  1.00  0.00     0.029 A 
ATOM     40  C   UNL A   1      38.765  30.418  29.618  1.00  0.00     0.049 A 
ATOM     41  H   UNL A   1      40.819  30.239  29.316  1.00  0.00     0.167 HD
ATOM     42  C   UNL A   1      45.153  29.644  28.683  1.00  0.00     0.034 A 
ATOM     43  C   UNL A   1      38.547  31.647  30.125  1.00  0.00     0.034 A 
ATOM     44  C   UNL A   1      45.011  31.000  29.149  1.00  0.00     0.049 A 
ATOM     45  C   UNL A   1      39.728  32.566  30.317  1.00  0.00     0.074 A 
ATOM     46  C   UNL A   1      45.991  31.959  29.330  1.00  0.00     0.029 A 
ATOM     47  N   UNL A   1      43.805  31.592  29.507  1.00  0.00    -0.354 N 
ATOM     48  N   UNL A   1      41.002  32.338  30.085  1.00  0.00    -0.248 NA
ATOM     49  C   UNL A   1      39.438  33.914  30.819  1.00  0.00     0.031 C 
ATOM     50  C   UNL A   1      45.387  33.109  29.854  1.00  0.00     0.029 A 
ATOM     51  C   UNL A   1      44.020  32.894  29.930  1.00  0.00     0.049 A 
ATOM     52  H   UNL A   1      42.927  31.151  29.466  1.00  0.00     0.167 HD
ATOM     53  C   UNL A   1      41.660  33.527  30.388  1.00  0.00     0.074 A 
ATOM     54  C   UNL A   1      40.638  34.474  30.791  1.00  0.00     0.031 C 
ATOM     55  C   UNL A   1      42.987  33.816  30.342  1.00  0.00     0.034 A 
BRANCH  42  56
ATOM     56  C   UNL A   1      46.534  29.097  28.398  1.00  0.00     0.023 A 
ATOM     57  C   UNL A   1      47.003  28.926  27.083  1.00  0.00     0.031 A 
ATOM     58  C   UNL A   1      47.374  28.695  29.450  1.00  0.00     0.131 A 
ATOM     59  C   UNL A   1      48.229  28.283  26.852  1.00  0.00     0.055 A 
ATOM     60  C   UNL A   1      48.635  28.140  29.216  1.00  0.00     0.041 A 
ATOM     61  F   UNL A   1      46.977  28.812  30.727  1.00  0.00    -0.206 F 
ATOM     62  C   UNL A   1      49.061  27.914  27.910  1.00  0.00     0.022 A 
BRANCH  59  63
ATOM     63  S   UNL A   1      48.642  27.792  25.155  1.00  0.00     0.124 S 
ATOM     64  O   UNL A   1      48.650  26.335  25.264  1.00  0.00    -0.237 OA
ATOM     65  O   UNL A   1      47.547  28.369  24.384  1.00  0.00    -0.237 OA
ATOM     66  O   UNL A   1      49.952  28.400  24.931  1.00  0.00    -0.744 OA
ENDBRANCH  59  63
ENDBRANCH  42  56
BRANCH  43  67
ATOM     67  C   UNL A   1      37.167  32.094  30.474  1.00  0.00     0.023 A 
ATOM     68  C   UNL A   1      36.284  32.551  29.483  1.00  0.00     0.031 A 
ATOM     69  C   UNL A   1      36.726  32.116  31.808  1.00  0.00     0.131 A 
ATOM     70  C   UNL A   1      35.028  33.062  29.845  1.00  0.00     0.055 A 
ATOM     71  C   UNL A   1      35.456  32.574  32.159  1.00  0.00     0.041 A 
ATOM     72  F   UNL A   1      37.528  31.683  32.795  1.00  0.00    -0.206 F 
ATOM     73  C   UNL A   1      34.602  33.066  31.175  1.00  0.00     0.022 A 
BRANCH  70  74
ATOM     74  S   UNL A   1      33.989  33.806  28.557  1.00  0.00     0.124 S 
ATOM     75  O   UNL A   1      34.934  34.692  27.887  1.00  0.00    -0.237 OA
ATOM     76  O   UNL A   1      33.558  32.635  27.800  1.00  0.00    -0.237 OA
ATOM     77  O   UNL A   1      32.934  34.476  29.315  1.00  0.00    -0.744 OA
ENDBRANCH  70  74
ENDBRANCH  43  67
BRANCH  55  78
ATOM     78  C   UNL A   1      43.387  35.225  30.705  1.00  0.00     0.023 A 
ATOM     79  C   UNL A   1      43.592  35.612  32.040  1.00  0.00     0.031 A 
ATOM     80  C   UNL A   1      43.529  36.202  29.704  1.00  0.00     0.131 A 
ATOM     81  C   UNL A   1      43.851  36.954  32.347  1.00  0.00     0.055 A 
ATOM     82  C   UNL A   1      43.858  37.524  30.009  1.00  0.00     0.041 A 
ATOM     83  F   UNL A   1      43.344  35.891  28.411  1.00  0.00    -0.206 F 
ATOM     84  C   UNL A   1      44.002  37.910  31.339  1.00  0.00     0.022 A 
BRANCH  81  85
ATOM     85  S   UNL A   1      43.862  37.460  34.090  1.00  0.00     0.124 S 
ATOM     86  O   UNL A   1      42.585  38.155  34.211  1.00  0.00    -0.237 OA
ATOM     87  O   UNL A   1      43.959  36.181  34.784  1.00  0.00    -0.237 OA
ATOM     88  O   UNL A   1      45.045  38.312  34.191  1.00  0.00    -0.744 OA
ENDBRANCH  81  85
ENDBRANCH  55  78
ENDBRANCH  29  30
ENDBRANCH  21  24
ENDBRANCH  19  20
ENDBRANCH   1  19
TORSDOF 16
ENDMDL
MODEL 3
REMARK VINA RESULT:     -11.1      3.190      8.798
REMARK SMILES CC[C@@H](C(=O)NCCCCNC(=O)c1ccc(-c2c3nc(c(-c4cc(S(=O)(=O)[O-])ccc4F)c4ccc([nH]4)c(-c4cc(S(=O)(=O)[O-])ccc4F)c4nc(c(-c5cc(S(=O)(=O)[O-])ccc5F)c5ccc2[nH]5)C=C4)C=C3)cc1)c1cc(Br)ccc1F
REMARK SMILES IDX 9 1 8 2 7 3 6 4 4 5 5 6 3 8 2 9 1 10 77 11 78 12 83 13 79 14
REMARK SMILES IDX 82 15 84 16 80 17 81 18 10 19 11 20 12 21 13 23 14 24 15 25
REMARK SMILES IDX 76 26 16 27 75 28 17 29 18 30 19 31 69 32 20 33 74 34 68 35
REMARK SMILES IDX 70 36 21 37 73 38 67 39 66 40 22 42 54 43 34 44 53 45 35 46
REMARK SMILES IDX 38 47 52 48 71 49 36 50 37 51 51 53 72 54 39 55 23 56 24 57
REMARK SMILES IDX 32 58 25 59 31 60 33 61 30 62 26 63 27 64 28 65 29 66 55 67
REMARK SMILES IDX 56 68 64 69 57 70 63 71 65 72 62 73 58 74 59 75 60 76 61 77
REMARK SMILES IDX 40 78 41 79 49 80 42 81 48 82 50 83 47 84 43 85 44 86 45 87
REMARK SMILES IDX 46 88
REMARK H PARENT 6 7 11 22 70 41 38 52
REMARK Flexibility Score: inf
ROOT
ATOM      1  C   UNL A   1      32.883  28.874  25.457  1.00  0.00     0.023 C 
ENDROOT
BRANCH   1   2
ATOM      2  C   UNL A   1      32.917  29.210  23.971  1.00  0.00     0.023 C 
BRANCH   2   3
ATOM      3  C   UNL A   1      34.020  28.508  23.171  1.00  0.00     0.116 C 
BRANCH   3   4
ATOM      4  N   UNL A   1      33.418  27.678  22.146  1.00  0.00    -0.356 N 
ATOM      5  C   UNL A   1      33.462  26.323  21.985  1.00  0.00     0.227 C 
ATOM      6  O   UNL A   1      33.273  25.889  20.845  1.00  0.00    -0.274 OA
ATOM      7  H   UNL A   1      32.901  28.165  21.464  1.00  0.00     0.163 HD
BRANCH   5   8
ATOM      8  C   UNL A   1      33.665  25.379  23.195  1.00  0.00     0.111 C 
BRANCH   8   9
ATOM      9  C   UNL A   1      33.894  23.908  22.768  1.00  0.00     0.015 C 
ATOM     10  C   UNL A   1      35.084  23.156  23.324  1.00  0.00     0.005 C 
ENDBRANCH   8   9
BRANCH   8  11
ATOM     11  C   UNL A   1      32.434  25.488  24.131  1.00  0.00     0.001 A 
ATOM     12  C   UNL A   1      31.155  25.874  23.679  1.00  0.00     0.023 A 
ATOM     13  C   UNL A   1      32.581  25.260  25.508  1.00  0.00     0.127 A 
ATOM     14  C   UNL A   1      30.100  26.074  24.574  1.00  0.00     0.018 A 
ATOM     15  C   UNL A   1      31.531  25.474  26.405  1.00  0.00     0.041 A 
ATOM     16  F   UNL A   1      33.757  24.842  25.997  1.00  0.00    -0.207 F 
ATOM     17  Br  UNL A   1      28.413  26.617  23.912  1.00  0.00    -0.051 Br
ATOM     18  C   UNL A   1      30.286  25.893  25.939  1.00  0.00     0.019 A 
ENDBRANCH   8  11
ENDBRANCH   5   8
ENDBRANCH   3   4
ENDBRANCH   2   3
ENDBRANCH   1   2
BRANCH   1  19
ATOM     19  C   UNL A   1      34.037  29.447  26.257  1.00  0.00     0.116 C 
BRANCH  19  20
ATOM     20  N   UNL A   1      33.756  30.772  26.788  1.00  0.00    -0.352 N 
ATOM     21  C   UNL A   1      34.419  31.465  27.772  1.00  0.00     0.251 C 
ATOM     22  H   UNL A   1      32.985  31.235  26.388  1.00  0.00     0.163 HD
ATOM     23  O   UNL A   1      33.951  32.520  28.192  1.00  0.00    -0.269 OA
BRANCH  21  24
ATOM     24  C   UNL A   1      35.668  30.914  28.339  1.00  0.00     0.039 A 
ATOM     25  C   UNL A   1      35.595  29.846  29.235  1.00  0.00     0.014 A 
ATOM     26  C   UNL A   1      36.911  31.433  27.966  1.00  0.00     0.014 A 
ATOM     27  C   UNL A   1      36.771  29.272  29.720  1.00  0.00     0.010 A 
ATOM     28  C   UNL A   1      38.076  30.789  28.359  1.00  0.00     0.010 A 
ATOM     29  C   UNL A   1      38.021  29.723  29.267  1.00  0.00    -0.014 A 
BRANCH  29  30
ATOM     30  C   UNL A   1      39.285  29.142  29.786  1.00  0.00     0.031 A 
ATOM     31  C   UNL A   1      39.872  29.672  31.069  1.00  0.00     0.074 A 
ATOM     32  C   UNL A   1      39.918  28.177  29.092  1.00  0.00     0.049 A 
ATOM     33  N   UNL A   1      40.982  29.338  31.675  1.00  0.00    -0.248 NA
ATOM     34  C   UNL A   1      39.132  30.756  31.735  1.00  0.00     0.031 C 
ATOM     35  C   UNL A   1      39.475  27.628  27.807  1.00  0.00     0.029 A 
ATOM     36  N   UNL A   1      41.068  27.484  29.368  1.00  0.00    -0.354 N 
ATOM     37  C   UNL A   1      41.079  30.182  32.777  1.00  0.00     0.074 A 
ATOM     38  C   UNL A   1      39.963  31.099  32.705  1.00  0.00     0.031 C 
ATOM     39  C   UNL A   1      40.320  26.655  27.430  1.00  0.00     0.029 A 
ATOM     40  C   UNL A   1      41.383  26.535  28.422  1.00  0.00     0.049 A 
ATOM     41  H   UNL A   1      41.617  27.649  30.168  1.00  0.00     0.167 HD
ATOM     42  C   UNL A   1      41.990  30.168  33.782  1.00  0.00     0.034 A 
ATOM     43  C   UNL A   1      42.411  25.666  28.369  1.00  0.00     0.034 A 
ATOM     44  C   UNL A   1      43.078  29.226  33.850  1.00  0.00     0.049 A 
ATOM     45  C   UNL A   1      43.406  25.659  29.503  1.00  0.00     0.074 A 
ATOM     46  C   UNL A   1      44.033  29.077  34.841  1.00  0.00     0.029 A 
ATOM     47  N   UNL A   1      43.357  28.266  32.884  1.00  0.00    -0.354 N 
ATOM     48  N   UNL A   1      43.450  26.422  30.572  1.00  0.00    -0.248 NA
ATOM     49  C   UNL A   1      44.477  24.658  29.432  1.00  0.00     0.031 C 
ATOM     50  C   UNL A   1      44.921  28.070  34.445  1.00  0.00     0.029 A 
ATOM     51  C   UNL A   1      44.480  27.538  33.244  1.00  0.00     0.049 A 
ATOM     52  H   UNL A   1      42.832  28.123  32.064  1.00  0.00     0.167 HD
ATOM     53  C   UNL A   1      44.539  25.972  31.314  1.00  0.00     0.074 A 
ATOM     54  C   UNL A   1      45.103  24.855  30.582  1.00  0.00     0.031 C 
ATOM     55  C   UNL A   1      45.034  26.437  32.491  1.00  0.00     0.034 A 
BRANCH  42  56
ATOM     56  C   UNL A   1      41.843  31.213  34.865  1.00  0.00     0.023 A 
ATOM     57  C   UNL A   1      40.734  31.227  35.730  1.00  0.00     0.031 A 
ATOM     58  C   UNL A   1      42.794  32.237  35.004  1.00  0.00     0.131 A 
ATOM     59  C   UNL A   1      40.556  32.291  36.627  1.00  0.00     0.055 A 
ATOM     60  C   UNL A   1      42.659  33.244  35.963  1.00  0.00     0.041 A 
ATOM     61  F   UNL A   1      43.864  32.292  34.195  1.00  0.00    -0.206 F 
ATOM     62  C   UNL A   1      41.525  33.286  36.768  1.00  0.00     0.022 A 
BRANCH  59  63
ATOM     63  S   UNL A   1      38.965  32.442  37.486  1.00  0.00     0.124 S 
ATOM     64  O   UNL A   1      38.418  33.656  36.882  1.00  0.00    -0.237 OA
ATOM     65  O   UNL A   1      38.296  31.195  37.133  1.00  0.00    -0.237 OA
ATOM     66  O   UNL A   1      39.345  32.571  38.891  1.00  0.00    -0.744 OA
ENDBRANCH  59  63
ENDBRANCH  42  56
BRANCH  43  67
ATOM     67  C   UNL A   1      42.552  24.722  27.223  1.00  0.00     0.023 A 
ATOM     68  C   UNL A   1      41.993  23.435  27.275  1.00  0.00     0.031 A 
ATOM     69  C   UNL A   1      43.287  25.074  26.078  1.00  0.00     0.131 A 
ATOM     70  C   UNL A   1      42.225  22.527  26.230  1.00  0.00     0.055 A 
ATOM     71  C   UNL A   1      43.469  24.187  25.016  1.00  0.00     0.041 A 
ATOM     72  F   UNL A   1      43.836  26.295  25.973  1.00  0.00    -0.206 F 
ATOM     73  C   UNL A   1      42.949  22.898  25.095  1.00  0.00     0.022 A 
BRANCH  70  74
ATOM     74  S   UNL A   1      41.639  20.820  26.415  1.00  0.00     0.124 S 
ATOM     75  O   UNL A   1      40.244  20.937  26.004  1.00  0.00    -0.237 OA
ATOM     76  O   UNL A   1      42.519  20.097  25.504  1.00  0.00    -0.237 OA
ATOM     77  O   UNL A   1      41.850  20.540  27.834  1.00  0.00    -0.744 OA
ENDBRANCH  70  74
ENDBRANCH  43  67
BRANCH  55  78
ATOM     78  C   UNL A   1      46.223  25.704  33.064  1.00  0.00     0.023 A 
ATOM     79  C   UNL A   1      46.065  24.610  33.932  1.00  0.00     0.031 A 
ATOM     80  C   UNL A   1      47.529  26.129  32.765  1.00  0.00     0.131 A 
ATOM     81  C   UNL A   1      47.189  24.028  34.533  1.00  0.00     0.055 A 
ATOM     82  C   UNL A   1      48.649  25.499  33.311  1.00  0.00     0.041 A 
ATOM     83  F   UNL A   1      47.740  27.169  31.942  1.00  0.00    -0.206 F 
ATOM     84  C   UNL A   1      48.481  24.454  34.215  1.00  0.00     0.022 A 
BRANCH  81  85
ATOM     85  S   UNL A   1      46.934  22.789  35.834  1.00  0.00     0.124 S 
ATOM     86  O   UNL A   1      48.117  21.948  35.687  1.00  0.00    -0.237 OA
ATOM     87  O   UNL A   1      46.880  23.609  37.039  1.00  0.00    -0.237 OA
ATOM     88  O   UNL A   1      45.672  22.155  35.459  1.00  0.00    -0.744 OA
ENDBRANCH  81  85
ENDBRANCH  55  78
ENDBRANCH  29  30
ENDBRANCH  21  24
ENDBRANCH  19  20
ENDBRANCH   1  19
TORSDOF 16
ENDMDL
