MODEL 1
REMARK VINA RESULT:     -12.3      0.000      0.000
REMARK SMILES Cc1ccc(C(C)C)c(OCC(=O)Nc2nc(CC(=O)NCCCCNC(=O)c3ccc(-c4c5nc(c(-c6cc(S(=O)(=O)[O-])ccc6F)c6ccc([nH]6)c(-c6cc(S(=O)(=O)[O-])ccc6F)c6nc(c(-c7cc(S(=O)(=O)[O-])ccc7F)c7ccc4[nH]7)C=C6)C=C5)cc3)cs2)c1
REMARK SMILES IDX 22 1 21 2 19 3 20 4 18 6 17 7 15 8 16 9 93 10 92 11 14 12
REMARK SMILES IDX 12 13 13 14 11 16 10 17 9 18 1 19 2 20 3 21 94 22 4 23 5 24
REMARK SMILES IDX 6 25 7 26 8 27 23 28 24 29 25 30 26 31 27 32 28 34 29 35
REMARK SMILES IDX 30 36 91 37 31 38 90 39 32 40 33 41 34 42 84 43 35 44 89 45
REMARK SMILES IDX 83 46 85 47 36 48 88 49 82 50 81 51 37 53 69 54 49 55 68 56
REMARK SMILES IDX 50 57 53 58 67 59 86 60 51 61 52 62 66 64 87 65 54 66 38 67
REMARK SMILES IDX 39 68 47 69 40 70 46 71 48 72 45 73 41 74 42 75 43 76 44 77
REMARK SMILES IDX 70 78 71 79 79 80 72 81 78 82 80 83 77 84 73 85 74 86 75 87
REMARK SMILES IDX 76 88 55 89 56 90 64 91 57 92 63 93 65 94 62 95 58 96 59 97
REMARK SMILES IDX 60 98 61 99
REMARK H PARENT 21 5 14 15 26 33 85 52 53 63
REMARK Flexibility Score: inf
ROOT
ATOM      1  C   UNL A   1      36.583  22.810  25.484  1.00  0.00     0.116 C 
ENDROOT
BRANCH   1   2
ATOM      2  N   UNL A   1      35.464  22.794  26.423  1.00  0.00    -0.356 N 
ATOM      3  C   UNL A   1      34.417  21.920  26.516  1.00  0.00     0.226 C 
ATOM      4  O   UNL A   1      33.582  22.093  27.408  1.00  0.00    -0.275 OA
ATOM      5  H   UNL A   1      35.463  23.520  27.088  1.00  0.00     0.163 HD
BRANCH   3   6
ATOM      6  C   UNL A   1      34.287  20.758  25.545  1.00  0.00     0.157 C 
BRANCH   6   7
ATOM      7  C   UNL A   1      33.565  21.147  24.300  1.00  0.00     0.063 A 
ATOM      8  C   UNL A   1      33.047  22.662  22.795  1.00  0.00     0.189 A 
ATOM      9  N   UNL A   1      33.953  22.315  23.665  1.00  0.00    -0.224 NA
ATOM     10  S   UNL A   1      31.825  21.512  22.483  1.00  0.00    -0.105 S 
ATOM     11  C   UNL A   1      32.490  20.507  23.708  1.00  0.00     0.093 A 
BRANCH   8  12
ATOM     12  N   UNL A   1      32.934  23.820  22.095  1.00  0.00    -0.299 N 
ATOM     13  C   UNL A   1      32.055  24.833  22.336  1.00  0.00     0.264 C 
ATOM     14  O   UNL A   1      32.105  25.820  21.589  1.00  0.00    -0.271 OA
ATOM     15  H   UNL A   1      33.550  23.941  21.336  1.00  0.00     0.172 HD
BRANCH  13  16
ATOM     16  C   UNL A   1      31.153  24.842  23.581  1.00  0.00     0.329 C 
BRANCH  16  17
ATOM     17  O   UNL A   1      31.349  25.843  24.557  1.00  0.00    -0.483 OA
BRANCH  17  18
ATOM     18  C   UNL A   1      30.928  27.120  24.300  1.00  0.00     0.123 A 
ATOM     19  C   UNL A   1      28.238  29.077  22.437  1.00  0.00     0.044 C 
ATOM     20  C   UNL A   1      29.447  28.757  23.265  1.00  0.00    -0.047 A 
ATOM     21  C   UNL A   1      30.124  29.780  23.928  1.00  0.00     0.004 A 
ATOM     22  C   UNL A   1      29.862  27.431  23.447  1.00  0.00     0.050 A 
ATOM     23  C   UNL A   1      31.183  29.482  24.784  1.00  0.00     0.008 A 
ATOM     24  C   UNL A   1      31.594  28.155  24.992  1.00  0.00    -0.003 A 
BRANCH  24  25
ATOM     25  C   UNL A   1      32.690  27.861  26.009  1.00  0.00     0.017 C 
ATOM     26  C   UNL A   1      34.042  28.446  25.594  1.00  0.00     0.012 C 
ATOM     27  C   UNL A   1      32.296  28.374  27.397  1.00  0.00     0.012 C 
ENDBRANCH  24  25
ENDBRANCH  17  18
ENDBRANCH  16  17
ENDBRANCH  13  16
ENDBRANCH   8  12
ENDBRANCH   6   7
ENDBRANCH   3   6
ENDBRANCH   1   2
BRANCH   1  28
ATOM     28  C   UNL A   1      37.281  21.450  25.340  1.00  0.00     0.023 C 
BRANCH  28  29
ATOM     29  C   UNL A   1      38.752  21.408  25.752  1.00  0.00     0.023 C 
BRANCH  29  30
ATOM     30  C   UNL A   1      39.243  22.674  26.439  1.00  0.00     0.116 C 
BRANCH  30  31
ATOM     31  N   UNL A   1      40.680  22.890  26.407  1.00  0.00    -0.352 N 
ATOM     32  C   UNL A   1      41.376  24.089  26.499  1.00  0.00     0.251 C 
ATOM     33  H   UNL A   1      41.233  22.082  26.307  1.00  0.00     0.163 HD
ATOM     34  O   UNL A   1      42.575  24.144  26.287  1.00  0.00    -0.269 OA
BRANCH  32  35
ATOM     35  C   UNL A   1      40.658  25.299  26.986  1.00  0.00     0.039 A 
ATOM     36  C   UNL A   1      40.786  26.472  26.230  1.00  0.00     0.014 A 
ATOM     37  C   UNL A   1      40.073  25.346  28.246  1.00  0.00     0.014 A 
ATOM     38  C   UNL A   1      40.545  27.707  26.830  1.00  0.00     0.010 A 
ATOM     39  C   UNL A   1      39.947  26.564  28.879  1.00  0.00     0.010 A 
ATOM     40  C   UNL A   1      40.232  27.744  28.187  1.00  0.00    -0.014 A 
BRANCH  40  41
ATOM     41  C   UNL A   1      40.291  28.953  28.998  1.00  0.00     0.031 A 
ATOM     42  C   UNL A   1      39.189  29.931  28.972  1.00  0.00     0.074 A 
ATOM     43  C   UNL A   1      41.331  29.141  29.839  1.00  0.00     0.049 A 
ATOM     44  N   UNL A   1      39.328  31.184  29.243  1.00  0.00    -0.248 NA
ATOM     45  C   UNL A   1      37.826  29.568  28.604  1.00  0.00     0.031 C 
ATOM     46  C   UNL A   1      41.465  30.146  30.891  1.00  0.00     0.029 A 
ATOM     47  N   UNL A   1      42.603  28.599  29.716  1.00  0.00    -0.354 N 
ATOM     48  C   UNL A   1      38.069  31.718  29.385  1.00  0.00     0.074 A 
ATOM     49  C   UNL A   1      37.170  30.692  28.907  1.00  0.00     0.031 C 
ATOM     50  C   UNL A   1      42.771  30.342  31.134  1.00  0.00     0.029 A 
ATOM     51  C   UNL A   1      43.512  29.577  30.147  1.00  0.00     0.049 A 
ATOM     52  H   UNL A   1      42.825  27.698  29.387  1.00  0.00     0.167 HD
ATOM     53  C   UNL A   1      37.912  32.907  30.032  1.00  0.00     0.034 A 
ATOM     54  C   UNL A   1      44.439  30.086  29.284  1.00  0.00     0.034 A 
ATOM     55  C   UNL A   1      39.195  33.463  30.461  1.00  0.00     0.049 A 
ATOM     56  C   UNL A   1      44.315  31.586  29.095  1.00  0.00     0.074 A 
ATOM     57  C   UNL A   1      39.842  33.506  31.685  1.00  0.00     0.029 A 
ATOM     58  N   UNL A   1      40.138  33.838  29.509  1.00  0.00    -0.354 N 
ATOM     59  N   UNL A   1      43.245  32.279  29.375  1.00  0.00    -0.248 NA
ATOM     60  C   UNL A   1      45.394  32.419  28.580  1.00  0.00     0.031 C 
ATOM     61  C   UNL A   1      41.191  33.882  31.460  1.00  0.00     0.029 A 
ATOM     62  C   UNL A   1      41.359  34.092  30.102  1.00  0.00     0.049 A 
ATOM     63  H   UNL A   1      39.958  33.912  28.544  1.00  0.00     0.167 HD
ATOM     64  C   UNL A   1      43.463  33.610  29.101  1.00  0.00     0.074 A 
ATOM     65  C   UNL A   1      44.830  33.640  28.610  1.00  0.00     0.031 C 
ATOM     66  C   UNL A   1      42.492  34.557  29.308  1.00  0.00     0.034 A 
BRANCH  53  67
ATOM     67  C   UNL A   1      36.578  33.394  30.552  1.00  0.00     0.023 A 
ATOM     68  C   UNL A   1      35.726  34.127  29.700  1.00  0.00     0.031 A 
ATOM     69  C   UNL A   1      36.104  33.209  31.864  1.00  0.00     0.131 A 
ATOM     70  C   UNL A   1      34.552  34.736  30.179  1.00  0.00     0.055 A 
ATOM     71  C   UNL A   1      34.969  33.864  32.361  1.00  0.00     0.041 A 
ATOM     72  F   UNL A   1      36.693  32.348  32.707  1.00  0.00    -0.206 F 
ATOM     73  C   UNL A   1      34.193  34.649  31.520  1.00  0.00     0.022 A 
BRANCH  70  74
ATOM     74  S   UNL A   1      33.489  35.634  29.016  1.00  0.00     0.124 S 
ATOM     75  O   UNL A   1      34.437  36.055  27.989  1.00  0.00    -0.237 OA
ATOM     76  O   UNL A   1      32.525  34.612  28.624  1.00  0.00    -0.237 OA
ATOM     77  O   UNL A   1      32.939  36.719  29.828  1.00  0.00    -0.744 OA
ENDBRANCH  70  74
ENDBRANCH  53  67
BRANCH  54  78
ATOM     78  C   UNL A   1      44.880  29.098  28.246  1.00  0.00     0.023 A 
ATOM     79  C   UNL A   1      45.783  28.089  28.660  1.00  0.00     0.031 A 
ATOM     80  C   UNL A   1      44.175  28.883  27.056  1.00  0.00     0.131 A 
ATOM     81  C   UNL A   1      45.809  26.844  28.017  1.00  0.00     0.055 A 
ATOM     82  C   UNL A   1      44.281  27.671  26.356  1.00  0.00     0.041 A 
ATOM     83  F   UNL A   1      43.283  29.782  26.617  1.00  0.00    -0.206 F 
ATOM     84  C   UNL A   1      45.064  26.629  26.861  1.00  0.00     0.022 A 
BRANCH  81  85
ATOM     85  S   UNL A   1      46.564  25.438  28.899  1.00  0.00     0.124 S 
ATOM     86  O   UNL A   1      47.456  26.114  29.833  1.00  0.00    -0.237 OA
ATOM     87  O   UNL A   1      45.402  24.762  29.473  1.00  0.00    -0.237 OA
ATOM     88  O   UNL A   1      47.226  24.678  27.842  1.00  0.00    -0.744 OA
ENDBRANCH  81  85
ENDBRANCH  54  78
BRANCH  66  89
ATOM     89  C   UNL A   1      42.512  36.023  28.883  1.00  0.00     0.023 A 
ATOM     90  C   UNL A   1      43.088  37.056  29.634  1.00  0.00     0.031 A 
ATOM     91  C   UNL A   1      41.973  36.427  27.631  1.00  0.00     0.131 A 
ATOM     92  C   UNL A   1      43.076  38.393  29.184  1.00  0.00     0.055 A 
ATOM     93  C   UNL A   1      42.011  37.744  27.159  1.00  0.00     0.041 A 
ATOM     94  F   UNL A   1      41.392  35.561  26.788  1.00  0.00    -0.206 F 
ATOM     95  C   UNL A   1      42.558  38.742  27.942  1.00  0.00     0.022 A 
BRANCH  92  96
ATOM     96  S   UNL A   1      43.727  39.676  30.286  1.00  0.00     0.124 S 
ATOM     97  O   UNL A   1      42.606  40.608  30.360  1.00  0.00    -0.237 OA
ATOM     98  O   UNL A   1      44.007  38.927  31.508  1.00  0.00    -0.237 OA
ATOM     99  O   UNL A   1      44.906  40.176  29.581  1.00  0.00    -0.744 OA
ENDBRANCH  92  96
ENDBRANCH  66  89
ENDBRANCH  40  41
ENDBRANCH  32  35
ENDBRANCH  30  31
ENDBRANCH  29  30
ENDBRANCH  28  29
ENDBRANCH   1  28
TORSDOF 20
ENDMDL
MODEL 2
REMARK VINA RESULT:     -11.9      2.612      3.830
REMARK SMILES Cc1ccc(C(C)C)c(OCC(=O)Nc2nc(CC(=O)NCCCCNC(=O)c3ccc(-c4c5nc(c(-c6cc(S(=O)(=O)[O-])ccc6F)c6ccc([nH]6)c(-c6cc(S(=O)(=O)[O-])ccc6F)c6nc(c(-c7cc(S(=O)(=O)[O-])ccc7F)c7ccc4[nH]7)C=C6)C=C5)cc3)cs2)c1
REMARK SMILES IDX 22 1 21 2 19 3 20 4 18 6 17 7 15 8 16 9 93 10 92 11 14 12
REMARK SMILES IDX 12 13 13 14 11 16 10 17 9 18 1 19 2 20 3 21 94 22 4 23 5 24
REMARK SMILES IDX 6 25 7 26 8 27 23 28 24 29 25 30 26 31 27 32 28 34 29 35
REMARK SMILES IDX 30 36 91 37 31 38 90 39 32 40 33 41 34 42 84 43 35 44 89 45
REMARK SMILES IDX 83 46 85 47 36 48 88 49 82 50 81 51 37 53 69 54 49 55 68 56
REMARK SMILES IDX 50 57 53 58 67 59 86 60 51 61 52 62 66 64 87 65 54 66 38 67
REMARK SMILES IDX 39 68 47 69 40 70 46 71 48 72 45 73 41 74 42 75 43 76 44 77
REMARK SMILES IDX 70 78 71 79 79 80 72 81 78 82 80 83 77 84 73 85 74 86 75 87
REMARK SMILES IDX 76 88 55 89 56 90 64 91 57 92 63 93 65 94 62 95 58 96 59 97
REMARK SMILES IDX 60 98 61 99
REMARK H PARENT 21 5 14 15 26 33 85 52 53 63
REMARK Flexibility Score: inf
ROOT
ATOM      1  C   UNL A   1      37.413  23.476  25.423  1.00  0.00     0.116 C 
ENDROOT
BRANCH   1   2
ATOM      2  N   UNL A   1      37.192  22.048  25.205  1.00  0.00    -0.356 N 
ATOM      3  C   UNL A   1      36.026  21.336  25.209  1.00  0.00     0.226 C 
ATOM      4  O   UNL A   1      36.075  20.124  24.985  1.00  0.00    -0.275 OA
ATOM      5  H   UNL A   1      38.004  21.519  25.029  1.00  0.00     0.163 HD
BRANCH   3   6
ATOM      6  C   UNL A   1      34.697  22.023  25.480  1.00  0.00     0.157 C 
BRANCH   6   7
ATOM      7  C   UNL A   1      33.786  21.964  24.301  1.00  0.00     0.063 A 
ATOM      8  C   UNL A   1      33.151  22.740  22.346  1.00  0.00     0.189 A 
ATOM      9  N   UNL A   1      34.170  22.635  23.152  1.00  0.00    -0.224 NA
ATOM     10  S   UNL A   1      31.764  21.838  22.765  1.00  0.00    -0.105 S 
ATOM     11  C   UNL A   1      32.544  21.358  24.219  1.00  0.00     0.093 A 
BRANCH   8  12
ATOM     12  N   UNL A   1      33.034  23.473  21.208  1.00  0.00    -0.299 N 
ATOM     13  C   UNL A   1      33.014  24.833  21.117  1.00  0.00     0.264 C 
ATOM     14  O   UNL A   1      32.905  25.325  19.986  1.00  0.00    -0.271 OA
ATOM     15  H   UNL A   1      32.957  22.972  20.365  1.00  0.00     0.172 HD
BRANCH  13  16
ATOM     16  C   UNL A   1      33.287  25.730  22.335  1.00  0.00     0.329 C 
BRANCH  16  17
ATOM     17  O   UNL A   1      32.229  26.503  22.863  1.00  0.00    -0.483 OA
BRANCH  17  18
ATOM     18  C   UNL A   1      31.866  26.335  24.171  1.00  0.00     0.123 A 
ATOM     19  C   UNL A   1      31.411  23.651  26.841  1.00  0.00     0.044 C 
ATOM     20  C   UNL A   1      31.426  24.983  26.152  1.00  0.00    -0.047 A 
ATOM     21  C   UNL A   1      31.190  26.145  26.886  1.00  0.00     0.004 A 
ATOM     22  C   UNL A   1      31.753  25.085  24.793  1.00  0.00     0.050 A 
ATOM     23  C   UNL A   1      31.306  27.395  26.279  1.00  0.00     0.008 A 
ATOM     24  C   UNL A   1      31.654  27.511  24.922  1.00  0.00    -0.003 A 
BRANCH  24  25
ATOM     25  C   UNL A   1      31.867  28.894  24.320  1.00  0.00     0.017 C 
ATOM     26  C   UNL A   1      30.558  29.675  24.179  1.00  0.00     0.012 C 
ATOM     27  C   UNL A   1      32.875  29.698  25.146  1.00  0.00     0.012 C 
ENDBRANCH  24  25
ENDBRANCH  17  18
ENDBRANCH  16  17
ENDBRANCH  13  16
ENDBRANCH   8  12
ENDBRANCH   6   7
ENDBRANCH   3   6
ENDBRANCH   1   2
BRANCH   1  28
ATOM     28  C   UNL A   1      38.436  23.775  26.528  1.00  0.00     0.023 C 
BRANCH  28  29
ATOM     29  C   UNL A   1      39.832  23.187  26.323  1.00  0.00     0.023 C 
BRANCH  29  30
ATOM     30  C   UNL A   1      40.031  21.818  26.960  1.00  0.00     0.116 C 
BRANCH  30  31
ATOM     31  N   UNL A   1      41.014  20.963  26.318  1.00  0.00    -0.352 N 
ATOM     32  C   UNL A   1      42.369  21.201  26.119  1.00  0.00     0.251 C 
ATOM     33  H   UNL A   1      40.678  20.102  25.979  1.00  0.00     0.163 HD
ATOM     34  O   UNL A   1      43.043  20.471  25.412  1.00  0.00    -0.269 OA
BRANCH  32  35
ATOM     35  C   UNL A   1      43.023  22.299  26.882  1.00  0.00     0.039 A 
ATOM     36  C   UNL A   1      42.939  22.252  28.280  1.00  0.00     0.014 A 
ATOM     37  C   UNL A   1      43.504  23.442  26.253  1.00  0.00     0.014 A 
ATOM     38  C   UNL A   1      43.108  23.423  29.018  1.00  0.00     0.010 A 
ATOM     39  C   UNL A   1      43.557  24.622  26.964  1.00  0.00     0.010 A 
ATOM     40  C   UNL A   1      43.309  24.622  28.338  1.00  0.00    -0.014 A 
BRANCH  40  41
ATOM     41  C   UNL A   1      43.163  25.934  28.954  1.00  0.00     0.031 A 
ATOM     42  C   UNL A   1      41.903  26.687  28.831  1.00  0.00     0.074 A 
ATOM     43  C   UNL A   1      44.167  26.432  29.708  1.00  0.00     0.049 A 
ATOM     44  N   UNL A   1      41.818  27.972  28.903  1.00  0.00    -0.248 NA
ATOM     45  C   UNL A   1      40.621  26.037  28.586  1.00  0.00     0.031 C 
ATOM     46  C   UNL A   1      44.137  27.597  30.588  1.00  0.00     0.029 A 
ATOM     47  N   UNL A   1      45.514  26.110  29.609  1.00  0.00    -0.354 N 
ATOM     48  C   UNL A   1      40.486  28.292  29.021  1.00  0.00     0.074 A 
ATOM     49  C   UNL A   1      39.779  27.062  28.744  1.00  0.00     0.031 C 
ATOM     50  C   UNL A   1      45.390  28.055  30.739  1.00  0.00     0.029 A 
ATOM     51  C   UNL A   1      46.240  27.287  29.845  1.00  0.00     0.049 A 
ATOM     52  H   UNL A   1      45.890  25.221  29.410  1.00  0.00     0.167 HD
ATOM     53  C   UNL A   1      40.128  29.522  29.487  1.00  0.00     0.034 A 
ATOM     54  C   UNL A   1      47.043  27.810  28.874  1.00  0.00     0.034 A 
ATOM     55  C   UNL A   1      41.297  30.354  29.767  1.00  0.00     0.049 A 
ATOM     56  C   UNL A   1      46.647  29.216  28.467  1.00  0.00     0.074 A 
ATOM     57  C   UNL A   1      41.948  30.702  30.940  1.00  0.00     0.029 A 
ATOM     58  N   UNL A   1      42.139  30.736  28.727  1.00  0.00    -0.354 N 
ATOM     59  N   UNL A   1      45.474  29.745  28.687  1.00  0.00    -0.248 NA
ATOM     60  C   UNL A   1      47.548  30.134  27.782  1.00  0.00     0.031 C 
ATOM     61  C   UNL A   1      43.203  31.269  30.598  1.00  0.00     0.029 A 
ATOM     62  C   UNL A   1      43.305  31.290  29.219  1.00  0.00     0.049 A 
ATOM     63  H   UNL A   1      41.932  30.625  27.772  1.00  0.00     0.167 HD
ATOM     64  C   UNL A   1      45.443  31.034  28.206  1.00  0.00     0.074 A 
ATOM     65  C   UNL A   1      46.773  31.226  27.654  1.00  0.00     0.031 C 
ATOM     66  C   UNL A   1      44.321  31.816  28.312  1.00  0.00     0.034 A 
BRANCH  53  67
ATOM     67  C   UNL A   1      38.738  29.842  29.988  1.00  0.00     0.023 A 
ATOM     68  C   UNL A   1      37.850  30.562  29.162  1.00  0.00     0.031 A 
ATOM     69  C   UNL A   1      38.240  29.508  31.262  1.00  0.00     0.131 A 
ATOM     70  C   UNL A   1      36.609  31.021  29.639  1.00  0.00     0.055 A 
ATOM     71  C   UNL A   1      37.032  30.016  31.761  1.00  0.00     0.041 A 
ATOM     72  F   UNL A   1      38.878  28.639  32.058  1.00  0.00    -0.206 F 
ATOM     73  C   UNL A   1      36.215  30.793  30.953  1.00  0.00     0.022 A 
BRANCH  70  74
ATOM     74  S   UNL A   1      35.506  31.911  28.507  1.00  0.00     0.124 S 
ATOM     75  O   UNL A   1      36.357  33.001  28.037  1.00  0.00    -0.237 OA
ATOM     76  O   UNL A   1      35.174  30.883  27.527  1.00  0.00    -0.237 OA
ATOM     77  O   UNL A   1      34.398  32.323  29.368  1.00  0.00    -0.744 OA
ENDBRANCH  70  74
ENDBRANCH  53  67
BRANCH  54  78
ATOM     78  C   UNL A   1      47.636  26.764  27.977  1.00  0.00     0.023 A 
ATOM     79  C   UNL A   1      47.313  26.838  26.601  1.00  0.00     0.031 A 
ATOM     80  C   UNL A   1      48.754  26.002  28.336  1.00  0.00     0.131 A 
ATOM     81  C   UNL A   1      48.196  26.344  25.631  1.00  0.00     0.055 A 
ATOM     82  C   UNL A   1      49.581  25.420  27.363  1.00  0.00     0.041 A 
ATOM     83  F   UNL A   1      49.136  25.909  29.618  1.00  0.00    -0.206 F 
ATOM     84  C   UNL A   1      49.330  25.629  26.005  1.00  0.00     0.022 A 
BRANCH  81  85
ATOM     85  S   UNL A   1      48.005  26.934  23.916  1.00  0.00     0.124 S 
ATOM     86  O   UNL A   1      46.690  27.561  23.959  1.00  0.00    -0.237 OA
ATOM     87  O   UNL A   1      49.152  27.825  23.757  1.00  0.00    -0.237 OA
ATOM     88  O   UNL A   1      48.090  25.715  23.116  1.00  0.00    -0.744 OA
ENDBRANCH  81  85
ENDBRANCH  54  78
BRANCH  66  89
ATOM     89  C   UNL A   1      44.067  33.178  27.671  1.00  0.00     0.023 A 
ATOM     90  C   UNL A   1      43.927  34.375  28.385  1.00  0.00     0.031 A 
ATOM     91  C   UNL A   1      44.011  33.320  26.257  1.00  0.00     0.131 A 
ATOM     92  C   UNL A   1      43.697  35.604  27.732  1.00  0.00     0.055 A 
ATOM     93  C   UNL A   1      43.839  34.546  25.606  1.00  0.00     0.041 A 
ATOM     94  F   UNL A   1      44.136  32.273  25.427  1.00  0.00    -0.206 F 
ATOM     95  C   UNL A   1      43.671  35.702  26.345  1.00  0.00     0.022 A 
BRANCH  92  96
ATOM     96  S   UNL A   1      43.396  37.074  28.748  1.00  0.00     0.124 S 
ATOM     97  O   UNL A   1      42.027  37.422  28.378  1.00  0.00    -0.237 OA
ATOM     98  O   UNL A   1      43.572  36.559  30.103  1.00  0.00    -0.237 OA
ATOM     99  O   UNL A   1      44.419  38.019  28.305  1.00  0.00    -0.744 OA
ENDBRANCH  92  96
ENDBRANCH  66  89
ENDBRANCH  40  41
ENDBRANCH  32  35
ENDBRANCH  30  31
ENDBRANCH  29  30
ENDBRANCH  28  29
ENDBRANCH   1  28
TORSDOF 20
ENDMDL
MODEL 3
REMARK VINA RESULT:     -11.6      4.516     10.132
REMARK SMILES Cc1ccc(C(C)C)c(OCC(=O)Nc2nc(CC(=O)NCCCCNC(=O)c3ccc(-c4c5nc(c(-c6cc(S(=O)(=O)[O-])ccc6F)c6ccc([nH]6)c(-c6cc(S(=O)(=O)[O-])ccc6F)c6nc(c(-c7cc(S(=O)(=O)[O-])ccc7F)c7ccc4[nH]7)C=C6)C=C5)cc3)cs2)c1
REMARK SMILES IDX 22 1 21 2 19 3 20 4 18 6 17 7 15 8 16 9 93 10 92 11 14 12
REMARK SMILES IDX 12 13 13 14 11 16 10 17 9 18 1 19 2 20 3 21 94 22 4 23 5 24
REMARK SMILES IDX 6 25 7 26 8 27 23 28 24 29 25 30 26 31 27 32 28 34 29 35
REMARK SMILES IDX 30 36 91 37 31 38 90 39 32 40 33 41 34 42 84 43 35 44 89 45
REMARK SMILES IDX 83 46 85 47 36 48 88 49 82 50 81 51 37 53 69 54 49 55 68 56
REMARK SMILES IDX 50 57 53 58 67 59 86 60 51 61 52 62 66 64 87 65 54 66 38 67
REMARK SMILES IDX 39 68 47 69 40 70 46 71 48 72 45 73 41 74 42 75 43 76 44 77
REMARK SMILES IDX 70 78 71 79 79 80 72 81 78 82 80 83 77 84 73 85 74 86 75 87
REMARK SMILES IDX 76 88 55 89 56 90 64 91 57 92 63 93 65 94 62 95 58 96 59 97
REMARK SMILES IDX 60 98 61 99
REMARK H PARENT 21 5 14 15 26 33 85 52 53 63
REMARK Flexibility Score: inf
ROOT
ATOM      1  C   UNL A   1      33.290  31.872  27.634  1.00  0.00     0.116 C 
ENDROOT
BRANCH   1   2
ATOM      2  N   UNL A   1      33.819  30.510  27.655  1.00  0.00    -0.356 N 
ATOM      3  C   UNL A   1      33.748  29.534  26.701  1.00  0.00     0.226 C 
ATOM      4  O   UNL A   1      34.285  28.446  26.931  1.00  0.00    -0.275 OA
ATOM      5  H   UNL A   1      34.297  30.257  28.478  1.00  0.00     0.163 HD
BRANCH   3   6
ATOM      6  C   UNL A   1      33.029  29.782  25.386  1.00  0.00     0.157 C 
BRANCH   6   7
ATOM      7  C   UNL A   1      32.051  28.701  25.070  1.00  0.00     0.063 A 
ATOM      8  C   UNL A   1      30.950  26.896  25.668  1.00  0.00     0.189 A 
ATOM      9  N   UNL A   1      31.531  27.971  26.125  1.00  0.00    -0.224 NA
ATOM     10  S   UNL A   1      30.749  26.812  23.976  1.00  0.00    -0.105 S 
ATOM     11  C   UNL A   1      31.625  28.282  23.822  1.00  0.00     0.093 A 
BRANCH   8  12
ATOM     12  N   UNL A   1      30.477  25.823  26.354  1.00  0.00    -0.299 N 
ATOM     13  C   UNL A   1      31.164  24.685  26.655  1.00  0.00     0.264 C 
ATOM     14  O   UNL A   1      30.564  23.813  27.297  1.00  0.00    -0.271 OA
ATOM     15  H   UNL A   1      29.545  25.874  26.667  1.00  0.00     0.172 HD
BRANCH  13  16
ATOM     16  C   UNL A   1      32.667  24.548  26.368  1.00  0.00     0.329 C 
BRANCH  16  17
ATOM     17  O   UNL A   1      33.168  23.297  25.946  1.00  0.00    -0.483 OA
BRANCH  17  18
ATOM     18  C   UNL A   1      34.366  23.244  25.285  1.00  0.00     0.123 A 
ATOM     19  C   UNL A   1      38.108  22.826  25.881  1.00  0.00     0.044 C 
ATOM     20  C   UNL A   1      36.794  23.042  25.192  1.00  0.00    -0.047 A 
ATOM     21  C   UNL A   1      36.737  23.064  23.799  1.00  0.00     0.004 A 
ATOM     22  C   UNL A   1      35.606  23.143  25.928  1.00  0.00     0.050 A 
ATOM     23  C   UNL A   1      35.508  23.157  23.148  1.00  0.00     0.008 A 
ATOM     24  C   UNL A   1      34.307  23.238  23.874  1.00  0.00    -0.003 A 
BRANCH  24  25
ATOM     25  C   UNL A   1      32.979  23.240  23.128  1.00  0.00     0.017 C 
ATOM     26  C   UNL A   1      32.978  24.209  21.945  1.00  0.00     0.012 C 
ATOM     27  C   UNL A   1      32.619  21.829  22.655  1.00  0.00     0.012 C 
ENDBRANCH  24  25
ENDBRANCH  17  18
ENDBRANCH  16  17
ENDBRANCH  13  16
ENDBRANCH   8  12
ENDBRANCH   6   7
ENDBRANCH   3   6
ENDBRANCH   1   2
BRANCH   1  28
ATOM     28  C   UNL A   1      34.244  32.908  28.245  1.00  0.00     0.023 C 
BRANCH  28  29
ATOM     29  C   UNL A   1      35.165  32.397  29.353  1.00  0.00     0.023 C 
BRANCH  29  30
ATOM     30  C   UNL A   1      34.530  32.391  30.736  1.00  0.00     0.116 C 
BRANCH  30  31
ATOM     31  N   UNL A   1      34.140  33.691  31.255  1.00  0.00    -0.352 N 
ATOM     32  C   UNL A   1      34.820  34.500  32.159  1.00  0.00     0.251 C 
ATOM     33  H   UNL A   1      33.284  34.046  30.925  1.00  0.00     0.163 HD
ATOM     34  O   UNL A   1      34.296  35.491  32.640  1.00  0.00    -0.269 OA
BRANCH  32  35
ATOM     35  C   UNL A   1      36.252  34.212  32.443  1.00  0.00     0.039 A 
ATOM     36  C   UNL A   1      37.204  34.735  31.558  1.00  0.00     0.014 A 
ATOM     37  C   UNL A   1      36.635  33.282  33.404  1.00  0.00     0.014 A 
ATOM     38  C   UNL A   1      38.469  34.153  31.486  1.00  0.00     0.010 A 
ATOM     39  C   UNL A   1      37.839  32.628  33.257  1.00  0.00     0.010 A 
ATOM     40  C   UNL A   1      38.736  33.030  32.265  1.00  0.00    -0.014 A 
BRANCH  40  41
ATOM     41  C   UNL A   1      39.869  32.141  32.040  1.00  0.00     0.031 A 
ATOM     42  C   UNL A   1      39.701  30.879  31.299  1.00  0.00     0.074 A 
ATOM     43  C   UNL A   1      41.100  32.515  32.451  1.00  0.00     0.049 A 
ATOM     44  N   UNL A   1      40.458  29.847  31.447  1.00  0.00    -0.248 NA
ATOM     45  C   UNL A   1      38.626  30.673  30.336  1.00  0.00     0.031 C 
ATOM     46  C   UNL A   1      42.382  31.896  32.124  1.00  0.00     0.029 A 
ATOM     47  N   UNL A   1      41.397  33.399  33.479  1.00  0.00    -0.354 N 
ATOM     48  C   UNL A   1      40.180  28.979  30.418  1.00  0.00     0.074 A 
ATOM     49  C   UNL A   1      38.984  29.503  29.798  1.00  0.00     0.031 C 
ATOM     50  C   UNL A   1      43.268  32.206  33.085  1.00  0.00     0.029 A 
ATOM     51  C   UNL A   1      42.542  32.910  34.128  1.00  0.00     0.049 A 
ATOM     52  H   UNL A   1      40.898  34.215  33.711  1.00  0.00     0.167 HD
ATOM     53  C   UNL A   1      41.072  27.997  30.106  1.00  0.00     0.034 A 
ATOM     54  C   UNL A   1      42.487  32.542  35.441  1.00  0.00     0.034 A 
ATOM     55  C   UNL A   1      42.230  28.016  30.998  1.00  0.00     0.049 A 
ATOM     56  C   UNL A   1      42.849  31.087  35.666  1.00  0.00     0.074 A 
ATOM     57  C   UNL A   1      43.526  28.485  30.852  1.00  0.00     0.029 A 
ATOM     58  N   UNL A   1      42.062  27.754  32.354  1.00  0.00    -0.354 N 
ATOM     59  N   UNL A   1      42.830  30.169  34.738  1.00  0.00    -0.248 NA
ATOM     60  C   UNL A   1      43.266  30.557  36.959  1.00  0.00     0.031 C 
ATOM     61  C   UNL A   1      44.127  28.532  32.136  1.00  0.00     0.029 A 
ATOM     62  C   UNL A   1      43.207  28.068  33.059  1.00  0.00     0.049 A 
ATOM     63  H   UNL A   1      41.238  27.395  32.755  1.00  0.00     0.167 HD
ATOM     64  C   UNL A   1      43.221  28.959  35.265  1.00  0.00     0.074 A 
ATOM     65  C   UNL A   1      43.489  29.264  36.661  1.00  0.00     0.031 C 
ATOM     66  C   UNL A   1      43.288  27.825  34.497  1.00  0.00     0.034 A 
BRANCH  53  67
ATOM     67  C   UNL A   1      41.040  27.239  28.797  1.00  0.00     0.023 A 
ATOM     68  C   UNL A   1      42.061  27.450  27.847  1.00  0.00     0.031 A 
ATOM     69  C   UNL A   1      40.032  26.336  28.409  1.00  0.00     0.131 A 
ATOM     70  C   UNL A   1      41.991  26.893  26.557  1.00  0.00     0.055 A 
ATOM     71  C   UNL A   1      39.927  25.829  27.106  1.00  0.00     0.041 A 
ATOM     72  F   UNL A   1      39.134  25.869  29.288  1.00  0.00    -0.206 F 
ATOM     73  C   UNL A   1      40.903  26.121  26.165  1.00  0.00     0.022 A 
BRANCH  70  74
ATOM     74  S   UNL A   1      43.359  27.181  25.400  1.00  0.00     0.124 S 
ATOM     75  O   UNL A   1      42.688  27.838  24.282  1.00  0.00    -0.237 OA
ATOM     76  O   UNL A   1      44.261  28.012  26.190  1.00  0.00    -0.237 OA
ATOM     77  O   UNL A   1      43.852  25.834  25.116  1.00  0.00    -0.744 OA
ENDBRANCH  70  74
ENDBRANCH  53  67
BRANCH  54  78
ATOM     78  C   UNL A   1      41.494  33.339  36.233  1.00  0.00     0.023 A 
ATOM     79  C   UNL A   1      40.155  32.880  36.233  1.00  0.00     0.031 A 
ATOM     80  C   UNL A   1      41.870  34.229  37.245  1.00  0.00     0.131 A 
ATOM     81  C   UNL A   1      39.308  33.141  37.319  1.00  0.00     0.055 A 
ATOM     82  C   UNL A   1      40.984  34.571  38.279  1.00  0.00     0.041 A 
ATOM     83  F   UNL A   1      43.128  34.683  37.325  1.00  0.00    -0.206 F 
ATOM     84  C   UNL A   1      39.714  33.991  38.344  1.00  0.00     0.022 A 
BRANCH  81  85
ATOM     85  S   UNL A   1      37.823  32.103  37.520  1.00  0.00     0.124 S 
ATOM     86  O   UNL A   1      37.970  31.152  36.424  1.00  0.00    -0.237 OA
ATOM     87  O   UNL A   1      37.986  31.574  38.873  1.00  0.00    -0.237 OA
ATOM     88  O   UNL A   1      36.716  33.045  37.385  1.00  0.00    -0.744 OA
ENDBRANCH  81  85
ENDBRANCH  54  78
BRANCH  66  89
ATOM     89  C   UNL A   1      43.518  26.391  34.966  1.00  0.00     0.023 A 
ATOM     90  C   UNL A   1      44.778  25.830  35.205  1.00  0.00     0.031 A 
ATOM     91  C   UNL A   1      42.421  25.531  35.248  1.00  0.00     0.131 A 
ATOM     92  C   UNL A   1      44.924  24.496  35.641  1.00  0.00     0.055 A 
ATOM     93  C   UNL A   1      42.563  24.227  35.734  1.00  0.00     0.041 A 
ATOM     94  F   UNL A   1      41.148  25.916  35.079  1.00  0.00    -0.206 F 
ATOM     95  C   UNL A   1      43.824  23.695  35.926  1.00  0.00     0.022 A 
BRANCH  92  96
ATOM     96  S   UNL A   1      46.599  23.820  35.795  1.00  0.00     0.124 S 
ATOM     97  O   UNL A   1      46.820  23.258  34.466  1.00  0.00    -0.237 OA
ATOM     98  O   UNL A   1      47.386  25.006  36.118  1.00  0.00    -0.237 OA
ATOM     99  O   UNL A   1      46.481  22.839  36.872  1.00  0.00    -0.744 OA
ENDBRANCH  92  96
ENDBRANCH  66  89
ENDBRANCH  40  41
ENDBRANCH  32  35
ENDBRANCH  30  31
ENDBRANCH  29  30
ENDBRANCH  28  29
ENDBRANCH   1  28
TORSDOF 20
ENDMDL
