MODEL 1
REMARK VINA RESULT:     -11.5      0.000      0.000
REMARK SMILES O=C(C[C@H]1C[N@@H+](Cc2ccncc2)CCO1)NCCCCNC(=O)c1ccc(-c2c3nc(c(-c4cc(S(=O)(=O)[O-])ccc4F)c4ccc([nH]4)c(-c4cc(S(=O)(=O)[O-])ccc4F)c4nc(c(-c5cc(S(=O)(=O)[O-])ccc5F)c5ccc2[nH]5)C=C4)C=C3)cc1
REMARK SMILES IDX 19 1 18 2 17 3 1 4 2 5 3 7 4 8 5 9 16 10 6 11 15 12 14 13
REMARK SMILES IDX 7 15 8 16 9 17 13 18 10 19 12 20 11 21 20 22 21 23 22 24
REMARK SMILES IDX 23 25 24 27 25 28 26 29 87 30 27 31 86 32 28 33 29 34 30 35
REMARK SMILES IDX 80 36 31 37 85 38 79 39 81 40 32 41 84 42 78 43 77 44 33 46
REMARK SMILES IDX 65 47 45 48 64 49 46 50 49 51 63 52 82 53 47 54 48 55 62 57
REMARK SMILES IDX 83 58 50 59 34 60 35 61 43 62 36 63 42 64 44 65 41 66 37 67
REMARK SMILES IDX 38 68 39 69 40 70 66 71 67 72 75 73 68 74 74 75 76 76 73 77
REMARK SMILES IDX 69 78 70 79 71 80 72 81 51 82 52 83 60 84 53 85 59 86 61 87
REMARK SMILES IDX 58 88 54 89 55 90 56 91 57 92
REMARK H PARENT 17 6 6 14 22 26 81 45 49 56
REMARK Flexibility Score: inf
ROOT
ATOM      1  C   UNL A   1      31.480  27.499  26.086  1.00  0.00     0.023 C 
ENDROOT
BRANCH   1   2
ATOM      2  C   UNL A   1      30.542  26.283  26.028  1.00  0.00     0.116 C 
BRANCH   2   3
ATOM      3  N   UNL A   1      31.236  25.011  25.926  1.00  0.00    -0.356 N 
ATOM      4  O   UNL A   1      29.851  23.779  27.251  1.00  0.00    -0.275 OA
ATOM      5  C   UNL A   1      30.814  23.827  26.488  1.00  0.00     0.222 C 
ATOM      6  H   UNL A   1      32.077  24.994  25.414  1.00  0.00     0.163 HD
BRANCH   5   7
ATOM      7  C   UNL A   1      31.668  22.582  26.215  1.00  0.00     0.138 C 
BRANCH   7   8
ATOM      8  C   UNL A   1      33.020  22.459  26.926  1.00  0.00     0.182 C 
ATOM      9  C   UNL A   1      33.702  21.078  26.988  1.00  0.00     0.295 C 
ATOM     10  O   UNL A   1      33.967  23.434  26.412  1.00  0.00    -0.366 OA
ATOM     11  N   UNL A   1      34.332  20.617  25.750  1.00  0.00    -0.327 N 
ATOM     12  C   UNL A   1      34.658  23.025  25.215  1.00  0.00     0.222 C 
ATOM     13  C   UNL A   1      35.294  21.627  25.318  1.00  0.00     0.291 C 
ATOM     14  H   UNL A   1      34.786  19.747  26.027  1.00  0.00     0.348 HD
BRANCH  11  15
ATOM     15  C   UNL A   1      33.610  19.885  24.707  1.00  0.00     0.299 C 
BRANCH  15  16
ATOM     16  C   UNL A   1      33.491  18.373  24.741  1.00  0.00     0.009 A 
ATOM     17  C   UNL A   1      34.239  17.583  23.862  1.00  0.00     0.029 A 
ATOM     18  C   UNL A   1      32.710  17.694  25.685  1.00  0.00     0.029 A 
ATOM     19  C   UNL A   1      34.088  16.204  23.884  1.00  0.00     0.111 A 
ATOM     20  C   UNL A   1      32.604  16.309  25.620  1.00  0.00     0.111 A 
ATOM     21  N   UNL A   1      33.265  15.550  24.728  1.00  0.00    -0.265 NA
ENDBRANCH  15  16
ENDBRANCH  11  15
ENDBRANCH   7   8
ENDBRANCH   5   7
ENDBRANCH   2   3
ENDBRANCH   1   2
BRANCH   1  22
ATOM     22  C   UNL A   1      32.175  27.999  24.805  1.00  0.00     0.023 C 
BRANCH  22  23
ATOM     23  C   UNL A   1      33.242  29.088  24.927  1.00  0.00     0.116 C 
BRANCH  23  24
ATOM     24  N   UNL A   1      32.696  30.311  25.479  1.00  0.00    -0.352 N 
ATOM     25  C   UNL A   1      32.995  30.973  26.649  1.00  0.00     0.251 C 
ATOM     26  H   UNL A   1      31.999  30.738  24.930  1.00  0.00     0.163 HD
ATOM     27  O   UNL A   1      32.211  31.835  27.043  1.00  0.00    -0.269 OA
BRANCH  25  28
ATOM     28  C   UNL A   1      34.218  30.679  27.448  1.00  0.00     0.039 A 
ATOM     29  C   UNL A   1      35.159  31.702  27.627  1.00  0.00     0.014 A 
ATOM     30  C   UNL A   1      34.512  29.400  27.931  1.00  0.00     0.014 A 
ATOM     31  C   UNL A   1      36.359  31.460  28.312  1.00  0.00     0.010 A 
ATOM     32  C   UNL A   1      35.692  29.170  28.657  1.00  0.00     0.010 A 
ATOM     33  C   UNL A   1      36.633  30.195  28.853  1.00  0.00    -0.014 A 
BRANCH  33  34
ATOM     34  C   UNL A   1      37.890  29.937  29.617  1.00  0.00     0.031 A 
ATOM     35  C   UNL A   1      38.949  29.008  29.074  1.00  0.00     0.074 A 
ATOM     36  C   UNL A   1      38.075  30.507  30.826  1.00  0.00     0.049 A 
ATOM     37  N   UNL A   1      40.067  28.607  29.628  1.00  0.00    -0.248 NA
ATOM     38  C   UNL A   1      38.704  28.444  27.740  1.00  0.00     0.031 C 
ATOM     39  C   UNL A   1      37.132  31.416  31.480  1.00  0.00     0.029 A 
ATOM     40  N   UNL A   1      39.109  30.401  31.726  1.00  0.00    -0.354 N 
ATOM     41  C   UNL A   1      40.656  27.735  28.717  1.00  0.00     0.074 A 
ATOM     42  C   UNL A   1      39.742  27.631  27.597  1.00  0.00     0.031 C 
ATOM     43  C   UNL A   1      37.634  31.790  32.668  1.00  0.00     0.029 A 
ATOM     44  C   UNL A   1      38.910  31.116  32.886  1.00  0.00     0.049 A 
ATOM     45  H   UNL A   1      39.916  29.863  31.556  1.00  0.00     0.167 HD
ATOM     46  C   UNL A   1      41.851  27.095  28.795  1.00  0.00     0.034 A 
ATOM     47  C   UNL A   1      39.656  31.207  34.007  1.00  0.00     0.034 A 
ATOM     48  C   UNL A   1      42.762  27.208  29.912  1.00  0.00     0.049 A 
ATOM     49  C   UNL A   1      40.960  30.453  34.091  1.00  0.00     0.074 A 
ATOM     50  C   UNL A   1      44.014  26.635  30.066  1.00  0.00     0.029 A 
ATOM     51  N   UNL A   1      42.518  27.932  31.072  1.00  0.00    -0.354 N 
ATOM     52  N   UNL A   1      41.515  29.659  33.205  1.00  0.00    -0.248 NA
ATOM     53  C   UNL A   1      41.740  30.615  35.325  1.00  0.00     0.031 C 
ATOM     54  C   UNL A   1      44.495  26.954  31.341  1.00  0.00     0.029 A 
ATOM     55  C   UNL A   1      43.581  27.792  31.956  1.00  0.00     0.049 A 
ATOM     56  H   UNL A   1      41.710  28.466  31.244  1.00  0.00     0.167 HD
ATOM     57  C   UNL A   1      42.725  29.254  33.764  1.00  0.00     0.074 A 
ATOM     58  C   UNL A   1      42.824  29.900  35.056  1.00  0.00     0.031 C 
ATOM     59  C   UNL A   1      43.670  28.426  33.251  1.00  0.00     0.034 A 
BRANCH  46  60
ATOM     60  C   UNL A   1      42.231  26.184  27.649  1.00  0.00     0.023 A 
ATOM     61  C   UNL A   1      41.738  24.871  27.554  1.00  0.00     0.031 A 
ATOM     62  C   UNL A   1      43.111  26.628  26.645  1.00  0.00     0.131 A 
ATOM     63  C   UNL A   1      42.186  24.025  26.528  1.00  0.00     0.055 A 
ATOM     64  C   UNL A   1      43.489  25.807  25.580  1.00  0.00     0.041 A 
ATOM     65  F   UNL A   1      43.629  27.865  26.689  1.00  0.00    -0.206 F 
ATOM     66  C   UNL A   1      43.039  24.492  25.525  1.00  0.00     0.022 A 
BRANCH  63  67
ATOM     67  S   UNL A   1      41.760  22.263  26.605  1.00  0.00     0.124 S 
ATOM     68  O   UNL A   1      42.440  21.850  27.832  1.00  0.00    -0.237 OA
ATOM     69  O   UNL A   1      40.299  22.297  26.668  1.00  0.00    -0.237 OA
ATOM     70  O   UNL A   1      42.319  21.719  25.376  1.00  0.00    -0.744 OA
ENDBRANCH  63  67
ENDBRANCH  46  60
BRANCH  47  71
ATOM     71  C   UNL A   1      39.183  32.025  35.160  1.00  0.00     0.023 A 
ATOM     72  C   UNL A   1      39.666  33.326  35.375  1.00  0.00     0.031 A 
ATOM     73  C   UNL A   1      38.273  31.497  36.094  1.00  0.00     0.131 A 
ATOM     74  C   UNL A   1      39.272  34.038  36.519  1.00  0.00     0.055 A 
ATOM     75  C   UNL A   1      37.843  32.231  37.202  1.00  0.00     0.041 A 
ATOM     76  F   UNL A   1      37.778  30.259  35.936  1.00  0.00    -0.206 F 
ATOM     77  C   UNL A   1      38.354  33.505  37.426  1.00  0.00     0.022 A 
BRANCH  74  78
ATOM     78  S   UNL A   1      40.046  35.646  36.851  1.00  0.00     0.124 S 
ATOM     79  O   UNL A   1      39.426  36.017  38.117  1.00  0.00    -0.237 OA
ATOM     80  O   UNL A   1      41.460  35.293  36.907  1.00  0.00    -0.237 OA
ATOM     81  O   UNL A   1      39.653  36.455  35.700  1.00  0.00    -0.744 OA
ENDBRANCH  74  78
ENDBRANCH  47  71
BRANCH  59  82
ATOM     82  C   UNL A   1      44.920  28.212  34.074  1.00  0.00     0.023 A 
ATOM     83  C   UNL A   1      45.047  27.131  34.964  1.00  0.00     0.031 A 
ATOM     84  C   UNL A   1      45.994  29.116  33.977  1.00  0.00     0.131 A 
ATOM     85  C   UNL A   1      46.197  27.011  35.760  1.00  0.00     0.055 A 
ATOM     86  C   UNL A   1      47.159  28.958  34.728  1.00  0.00     0.041 A 
ATOM     87  F   UNL A   1      45.927  30.169  33.147  1.00  0.00    -0.206 F 
ATOM     88  C   UNL A   1      47.260  27.908  35.636  1.00  0.00     0.022 A 
BRANCH  85  89
ATOM     89  S   UNL A   1      46.249  25.715  37.028  1.00  0.00     0.124 S 
ATOM     90  O   UNL A   1      45.180  26.129  37.931  1.00  0.00    -0.237 OA
ATOM     91  O   UNL A   1      45.993  24.506  36.252  1.00  0.00    -0.237 OA
ATOM     92  O   UNL A   1      47.600  25.823  37.577  1.00  0.00    -0.744 OA
ENDBRANCH  85  89
ENDBRANCH  59  82
ENDBRANCH  33  34
ENDBRANCH  25  28
ENDBRANCH  23  24
ENDBRANCH  22  23
ENDBRANCH   1  22
TORSDOF 17
ENDMDL
MODEL 2
REMARK VINA RESULT:     -11.4      2.023      7.976
REMARK SMILES O=C(C[C@H]1C[N@@H+](Cc2ccncc2)CCO1)NCCCCNC(=O)c1ccc(-c2c3nc(c(-c4cc(S(=O)(=O)[O-])ccc4F)c4ccc([nH]4)c(-c4cc(S(=O)(=O)[O-])ccc4F)c4nc(c(-c5cc(S(=O)(=O)[O-])ccc5F)c5ccc2[nH]5)C=C4)C=C3)cc1
REMARK SMILES IDX 19 1 18 2 17 3 1 4 2 5 3 7 4 8 5 9 16 10 6 11 15 12 14 13
REMARK SMILES IDX 7 15 8 16 9 17 13 18 10 19 12 20 11 21 20 22 21 23 22 24
REMARK SMILES IDX 23 25 24 27 25 28 26 29 87 30 27 31 86 32 28 33 29 34 30 35
REMARK SMILES IDX 80 36 31 37 85 38 79 39 81 40 32 41 84 42 78 43 77 44 33 46
REMARK SMILES IDX 65 47 45 48 64 49 46 50 49 51 63 52 82 53 47 54 48 55 62 57
REMARK SMILES IDX 83 58 50 59 34 60 35 61 43 62 36 63 42 64 44 65 41 66 37 67
REMARK SMILES IDX 38 68 39 69 40 70 66 71 67 72 75 73 68 74 74 75 76 76 73 77
REMARK SMILES IDX 69 78 70 79 71 80 72 81 51 82 52 83 60 84 53 85 59 86 61 87
REMARK SMILES IDX 58 88 54 89 55 90 56 91 57 92
REMARK H PARENT 17 6 6 14 22 26 81 45 49 56
REMARK Flexibility Score: inf
ROOT
ATOM      1  C   UNL A   1      31.598  27.650  25.848  1.00  0.00     0.023 C 
ENDROOT
BRANCH   1   2
ATOM      2  C   UNL A   1      30.754  26.450  26.307  1.00  0.00     0.116 C 
BRANCH   2   3
ATOM      3  N   UNL A   1      31.420  25.169  26.147  1.00  0.00    -0.356 N 
ATOM      4  O   UNL A   1      29.890  23.871  27.225  1.00  0.00    -0.275 OA
ATOM      5  C   UNL A   1      30.918  23.955  26.557  1.00  0.00     0.222 C 
ATOM      6  H   UNL A   1      32.302  25.170  25.711  1.00  0.00     0.163 HD
BRANCH   5   7
ATOM      7  C   UNL A   1      31.760  22.710  26.244  1.00  0.00     0.138 C 
BRANCH   7   8
ATOM      8  C   UNL A   1      33.115  22.557  26.941  1.00  0.00     0.182 C 
ATOM      9  C   UNL A   1      33.738  21.151  27.049  1.00  0.00     0.295 C 
ATOM     10  O   UNL A   1      34.096  23.469  26.375  1.00  0.00    -0.366 OA
ATOM     11  N   UNL A   1      34.329  20.614  25.822  1.00  0.00    -0.327 N 
ATOM     12  C   UNL A   1      34.750  22.983  25.187  1.00  0.00     0.222 C 
ATOM     13  C   UNL A   1      35.327  21.564  25.337  1.00  0.00     0.291 C 
ATOM     14  H   UNL A   1      34.750  19.737  26.128  1.00  0.00     0.348 HD
BRANCH  11  15
ATOM     15  C   UNL A   1      33.561  19.874  24.819  1.00  0.00     0.299 C 
BRANCH  15  16
ATOM     16  C   UNL A   1      33.518  18.358  24.818  1.00  0.00     0.009 A 
ATOM     17  C   UNL A   1      34.329  17.626  23.944  1.00  0.00     0.029 A 
ATOM     18  C   UNL A   1      32.748  17.619  25.725  1.00  0.00     0.029 A 
ATOM     19  C   UNL A   1      34.248  16.241  23.932  1.00  0.00     0.111 A 
ATOM     20  C   UNL A   1      32.714  16.232  25.628  1.00  0.00     0.111 A 
ATOM     21  N   UNL A   1      33.437  15.528  24.739  1.00  0.00    -0.265 NA
ENDBRANCH  15  16
ENDBRANCH  11  15
ENDBRANCH   7   8
ENDBRANCH   5   7
ENDBRANCH   2   3
ENDBRANCH   1   2
BRANCH   1  22
ATOM     22  C   UNL A   1      32.661  28.248  26.789  1.00  0.00     0.023 C 
BRANCH  22  23
ATOM     23  C   UNL A   1      33.699  29.210  26.206  1.00  0.00     0.116 C 
BRANCH  23  24
ATOM     24  N   UNL A   1      33.605  30.524  26.808  1.00  0.00    -0.352 N 
ATOM     25  C   UNL A   1      34.366  31.108  27.796  1.00  0.00     0.251 C 
ATOM     26  H   UNL A   1      32.882  31.091  26.454  1.00  0.00     0.163 HD
ATOM     27  O   UNL A   1      33.929  32.123  28.339  1.00  0.00    -0.269 OA
BRANCH  25  28
ATOM     28  C   UNL A   1      35.680  30.557  28.230  1.00  0.00     0.039 A 
ATOM     29  C   UNL A   1      35.710  29.698  29.336  1.00  0.00     0.014 A 
ATOM     30  C   UNL A   1      36.890  30.947  27.645  1.00  0.00     0.014 A 
ATOM     31  C   UNL A   1      36.928  29.206  29.828  1.00  0.00     0.010 A 
ATOM     32  C   UNL A   1      38.104  30.417  28.109  1.00  0.00     0.010 A 
ATOM     33  C   UNL A   1      38.141  29.544  29.208  1.00  0.00    -0.014 A 
BRANCH  33  34
ATOM     34  C   UNL A   1      39.440  28.994  29.701  1.00  0.00     0.031 A 
ATOM     35  C   UNL A   1      40.181  29.660  30.834  1.00  0.00     0.074 A 
ATOM     36  C   UNL A   1      39.984  27.912  29.106  1.00  0.00     0.049 A 
ATOM     37  N   UNL A   1      41.353  29.371  31.345  1.00  0.00    -0.248 NA
ATOM     38  C   UNL A   1      39.523  30.814  31.460  1.00  0.00     0.031 C 
ATOM     39  C   UNL A   1      39.385  27.174  27.993  1.00  0.00     0.029 A 
ATOM     40  N   UNL A   1      41.164  27.249  29.345  1.00  0.00    -0.354 N 
ATOM     41  C   UNL A   1      41.579  30.312  32.345  1.00  0.00     0.074 A 
ATOM     42  C   UNL A   1      40.441  31.209  32.331  1.00  0.00     0.031 C 
ATOM     43  C   UNL A   1      40.196  26.159  27.653  1.00  0.00     0.029 A 
ATOM     44  C   UNL A   1      41.392  26.196  28.488  1.00  0.00     0.049 A 
ATOM     45  H   UNL A   1      41.789  27.504  30.062  1.00  0.00     0.167 HD
ATOM     46  C   UNL A   1      42.625  30.411  33.206  1.00  0.00     0.034 A 
ATOM     47  C   UNL A   1      42.449  25.365  28.370  1.00  0.00     0.034 A 
ATOM     48  C   UNL A   1      43.755  29.509  33.219  1.00  0.00     0.049 A 
ATOM     49  C   UNL A   1      43.620  25.520  29.307  1.00  0.00     0.074 A 
ATOM     50  C   UNL A   1      44.841  29.499  34.079  1.00  0.00     0.029 A 
ATOM     51  N   UNL A   1      43.953  28.463  32.327  1.00  0.00    -0.354 N 
ATOM     52  N   UNL A   1      43.800  26.396  30.267  1.00  0.00    -0.248 NA
ATOM     53  C   UNL A   1      44.727  24.567  29.147  1.00  0.00     0.031 C 
ATOM     54  C   UNL A   1      45.726  28.496  33.666  1.00  0.00     0.029 A 
ATOM     55  C   UNL A   1      45.158  27.826  32.596  1.00  0.00     0.049 A 
ATOM     56  H   UNL A   1      43.331  28.210  31.608  1.00  0.00     0.167 HD
ATOM     57  C   UNL A   1      45.026  26.077  30.847  1.00  0.00     0.074 A 
ATOM     58  C   UNL A   1      45.535  24.923  30.136  1.00  0.00     0.031 C 
ATOM     59  C   UNL A   1      45.670  26.683  31.877  1.00  0.00     0.034 A 
BRANCH  46  60
ATOM     60  C   UNL A   1      42.613  31.560  34.190  1.00  0.00     0.023 A 
ATOM     61  C   UNL A   1      41.925  31.477  35.414  1.00  0.00     0.031 A 
ATOM     62  C   UNL A   1      43.283  32.760  33.895  1.00  0.00     0.131 A 
ATOM     63  C   UNL A   1      41.858  32.595  36.258  1.00  0.00     0.055 A 
ATOM     64  C   UNL A   1      43.281  33.843  34.778  1.00  0.00     0.041 A 
ATOM     65  F   UNL A   1      43.942  32.908  32.735  1.00  0.00    -0.206 F 
ATOM     66  C   UNL A   1      42.553  33.770  35.961  1.00  0.00     0.022 A 
BRANCH  63  67
ATOM     67  S   UNL A   1      40.728  32.547  37.677  1.00  0.00     0.124 S 
ATOM     68  O   UNL A   1      39.627  31.743  37.147  1.00  0.00    -0.237 OA
ATOM     69  O   UNL A   1      41.546  31.906  38.706  1.00  0.00    -0.237 OA
ATOM     70  O   UNL A   1      40.411  33.947  37.914  1.00  0.00    -0.744 OA
ENDBRANCH  63  67
ENDBRANCH  46  60
BRANCH  47  71
ATOM     71  C   UNL A   1      42.468  24.320  27.306  1.00  0.00     0.023 A 
ATOM     72  C   UNL A   1      41.669  23.169  27.403  1.00  0.00     0.031 A 
ATOM     73  C   UNL A   1      43.325  24.435  26.196  1.00  0.00     0.131 A 
ATOM     74  C   UNL A   1      41.775  22.160  26.433  1.00  0.00     0.055 A 
ATOM     75  C   UNL A   1      43.387  23.453  25.206  1.00  0.00     0.041 A 
ATOM     76  F   UNL A   1      44.109  25.516  26.052  1.00  0.00    -0.206 F 
ATOM     77  C   UNL A   1      42.618  22.300  25.329  1.00  0.00     0.022 A 
BRANCH  74  78
ATOM     78  S   UNL A   1      40.854  20.616  26.682  1.00  0.00     0.124 S 
ATOM     79  O   UNL A   1      39.564  20.942  26.085  1.00  0.00    -0.237 OA
ATOM     80  O   UNL A   1      41.675  19.656  25.953  1.00  0.00    -0.237 OA
ATOM     81  O   UNL A   1      40.849  20.454  28.133  1.00  0.00    -0.744 OA
ENDBRANCH  74  78
ENDBRANCH  47  71
BRANCH  59  82
ATOM     82  C   UNL A   1      46.978  26.073  32.327  1.00  0.00     0.023 A 
ATOM     83  C   UNL A   1      47.032  25.083  33.323  1.00  0.00     0.031 A 
ATOM     84  C   UNL A   1      48.191  26.504  31.759  1.00  0.00     0.131 A 
ATOM     85  C   UNL A   1      48.274  24.596  33.760  1.00  0.00     0.055 A 
ATOM     86  C   UNL A   1      49.419  25.974  32.156  1.00  0.00     0.041 A 
ATOM     87  F   UNL A   1      48.201  27.450  30.806  1.00  0.00    -0.206 F 
ATOM     88  C   UNL A   1      49.467  25.023  33.171  1.00  0.00     0.022 A 
BRANCH  85  89
ATOM     89  S   UNL A   1      48.318  23.459  35.173  1.00  0.00     0.124 S 
ATOM     90  O   UNL A   1      47.331  22.455  34.787  1.00  0.00    -0.237 OA
ATOM     91  O   UNL A   1      49.708  23.016  35.175  1.00  0.00    -0.237 OA
ATOM     92  O   UNL A   1      47.936  24.301  36.305  1.00  0.00    -0.744 OA
ENDBRANCH  85  89
ENDBRANCH  59  82
ENDBRANCH  33  34
ENDBRANCH  25  28
ENDBRANCH  23  24
ENDBRANCH  22  23
ENDBRANCH   1  22
TORSDOF 17
ENDMDL
MODEL 3
REMARK VINA RESULT:     -11.4      2.519      8.146
REMARK SMILES O=C(C[C@H]1C[N@@H+](Cc2ccncc2)CCO1)NCCCCNC(=O)c1ccc(-c2c3nc(c(-c4cc(S(=O)(=O)[O-])ccc4F)c4ccc([nH]4)c(-c4cc(S(=O)(=O)[O-])ccc4F)c4nc(c(-c5cc(S(=O)(=O)[O-])ccc5F)c5ccc2[nH]5)C=C4)C=C3)cc1
REMARK SMILES IDX 19 1 18 2 17 3 1 4 2 5 3 7 4 8 5 9 16 10 6 11 15 12 14 13
REMARK SMILES IDX 7 15 8 16 9 17 13 18 10 19 12 20 11 21 20 22 21 23 22 24
REMARK SMILES IDX 23 25 24 27 25 28 26 29 87 30 27 31 86 32 28 33 29 34 30 35
REMARK SMILES IDX 80 36 31 37 85 38 79 39 81 40 32 41 84 42 78 43 77 44 33 46
REMARK SMILES IDX 65 47 45 48 64 49 46 50 49 51 63 52 82 53 47 54 48 55 62 57
REMARK SMILES IDX 83 58 50 59 34 60 35 61 43 62 36 63 42 64 44 65 41 66 37 67
REMARK SMILES IDX 38 68 39 69 40 70 66 71 67 72 75 73 68 74 74 75 76 76 73 77
REMARK SMILES IDX 69 78 70 79 71 80 72 81 51 82 52 83 60 84 53 85 59 86 61 87
REMARK SMILES IDX 58 88 54 89 55 90 56 91 57 92
REMARK H PARENT 17 6 6 14 22 26 81 45 49 56
REMARK Flexibility Score: inf
ROOT
ATOM      1  C   UNL A   1      31.588  27.668  25.922  1.00  0.00     0.023 C 
ENDROOT
BRANCH   1   2
ATOM      2  C   UNL A   1      30.758  26.461  26.388  1.00  0.00     0.116 C 
BRANCH   2   3
ATOM      3  N   UNL A   1      31.430  25.185  26.215  1.00  0.00    -0.356 N 
ATOM      4  O   UNL A   1      29.863  23.857  27.201  1.00  0.00    -0.275 OA
ATOM      5  C   UNL A   1      30.914  23.959  26.572  1.00  0.00     0.222 C 
ATOM      6  H   UNL A   1      32.327  25.197  25.811  1.00  0.00     0.163 HD
BRANCH   5   7
ATOM      7  C   UNL A   1      31.767  22.723  26.254  1.00  0.00     0.138 C 
BRANCH   7   8
ATOM      8  C   UNL A   1      33.107  22.561  26.978  1.00  0.00     0.182 C 
ATOM      9  C   UNL A   1      33.724  21.152  27.087  1.00  0.00     0.295 C 
ATOM     10  O   UNL A   1      34.102  23.475  26.441  1.00  0.00    -0.366 OA
ATOM     11  N   UNL A   1      34.339  20.624  25.868  1.00  0.00    -0.327 N 
ATOM     12  C   UNL A   1      34.780  22.997  25.263  1.00  0.00     0.222 C 
ATOM     13  C   UNL A   1      35.349  21.575  25.413  1.00  0.00     0.291 C 
ATOM     14  H   UNL A   1      34.751  19.743  26.175  1.00  0.00     0.348 HD
BRANCH  11  15
ATOM     15  C   UNL A   1      33.591  19.895  24.843  1.00  0.00     0.299 C 
BRANCH  15  16
ATOM     16  C   UNL A   1      33.540  18.379  24.831  1.00  0.00     0.009 A 
ATOM     17  C   UNL A   1      34.358  17.649  23.963  1.00  0.00     0.029 A 
ATOM     18  C   UNL A   1      32.754  17.638  25.723  1.00  0.00     0.029 A 
ATOM     19  C   UNL A   1      34.269  16.265  23.940  1.00  0.00     0.111 A 
ATOM     20  C   UNL A   1      32.714  16.253  25.616  1.00  0.00     0.111 A 
ATOM     21  N   UNL A   1      33.445  15.550  24.732  1.00  0.00    -0.265 NA
ENDBRANCH  15  16
ENDBRANCH  11  15
ENDBRANCH   7   8
ENDBRANCH   5   7
ENDBRANCH   2   3
ENDBRANCH   1   2
BRANCH   1  22
ATOM     22  C   UNL A   1      32.659  28.270  26.850  1.00  0.00     0.023 C 
BRANCH  22  23
ATOM     23  C   UNL A   1      33.707  29.209  26.249  1.00  0.00     0.116 C 
BRANCH  23  24
ATOM     24  N   UNL A   1      33.631  30.535  26.829  1.00  0.00    -0.352 N 
ATOM     25  C   UNL A   1      34.403  31.126  27.803  1.00  0.00     0.251 C 
ATOM     26  H   UNL A   1      32.913  31.104  26.469  1.00  0.00     0.163 HD
ATOM     27  O   UNL A   1      33.981  32.155  28.331  1.00  0.00    -0.269 OA
BRANCH  25  28
ATOM     28  C   UNL A   1      35.714  30.568  28.240  1.00  0.00     0.039 A 
ATOM     29  C   UNL A   1      35.733  29.691  29.333  1.00  0.00     0.014 A 
ATOM     30  C   UNL A   1      36.929  30.966  27.672  1.00  0.00     0.014 A 
ATOM     31  C   UNL A   1      36.947  29.190  29.827  1.00  0.00     0.010 A 
ATOM     32  C   UNL A   1      38.139  30.429  28.138  1.00  0.00     0.010 A 
ATOM     33  C   UNL A   1      38.165  29.537  29.224  1.00  0.00    -0.014 A 
BRANCH  33  34
ATOM     34  C   UNL A   1      39.460  28.979  29.719  1.00  0.00     0.031 A 
ATOM     35  C   UNL A   1      40.202  29.639  30.855  1.00  0.00     0.074 A 
ATOM     36  C   UNL A   1      39.998  27.894  29.125  1.00  0.00     0.049 A 
ATOM     37  N   UNL A   1      41.371  29.343  31.368  1.00  0.00    -0.248 NA
ATOM     38  C   UNL A   1      39.549  30.797  31.480  1.00  0.00     0.031 C 
ATOM     39  C   UNL A   1      39.397  27.161  28.009  1.00  0.00     0.029 A 
ATOM     40  N   UNL A   1      41.174  27.224  29.366  1.00  0.00    -0.354 N 
ATOM     41  C   UNL A   1      41.601  30.281  32.370  1.00  0.00     0.074 A 
ATOM     42  C   UNL A   1      40.468  31.185  32.354  1.00  0.00     0.031 C 
ATOM     43  C   UNL A   1      40.203  26.141  27.670  1.00  0.00     0.029 A 
ATOM     44  C   UNL A   1      41.397  26.170  28.508  1.00  0.00     0.049 A 
ATOM     45  H   UNL A   1      41.799  27.474  30.085  1.00  0.00     0.167 HD
ATOM     46  C   UNL A   1      42.645  30.373  33.233  1.00  0.00     0.034 A 
ATOM     47  C   UNL A   1      42.449  25.332  28.392  1.00  0.00     0.034 A 
ATOM     48  C   UNL A   1      43.769  29.464  33.249  1.00  0.00     0.049 A 
ATOM     49  C   UNL A   1      43.619  25.479  29.332  1.00  0.00     0.074 A 
ATOM     50  C   UNL A   1      44.853  29.447  34.111  1.00  0.00     0.029 A 
ATOM     51  N   UNL A   1      43.963  28.418  32.356  1.00  0.00    -0.354 N 
ATOM     52  N   UNL A   1      43.802  26.353  30.294  1.00  0.00    -0.248 NA
ATOM     53  C   UNL A   1      44.720  24.519  29.175  1.00  0.00     0.031 C 
ATOM     54  C   UNL A   1      45.733  28.439  33.699  1.00  0.00     0.029 A 
ATOM     55  C   UNL A   1      45.164  27.773  32.628  1.00  0.00     0.049 A 
ATOM     56  H   UNL A   1      43.341  28.169  31.635  1.00  0.00     0.167 HD
ATOM     57  C   UNL A   1      45.025  26.026  30.876  1.00  0.00     0.074 A 
ATOM     58  C   UNL A   1      45.528  24.870  30.166  1.00  0.00     0.031 C 
ATOM     59  C   UNL A   1      45.670  26.627  31.908  1.00  0.00     0.034 A 
BRANCH  46  60
ATOM     60  C   UNL A   1      42.638  31.521  34.218  1.00  0.00     0.023 A 
ATOM     61  C   UNL A   1      41.929  31.449  35.430  1.00  0.00     0.031 A 
ATOM     62  C   UNL A   1      43.334  32.710  33.935  1.00  0.00     0.131 A 
ATOM     63  C   UNL A   1      41.868  32.568  36.275  1.00  0.00     0.055 A 
ATOM     64  C   UNL A   1      43.337  33.791  34.820  1.00  0.00     0.041 A 
ATOM     65  F   UNL A   1      44.014  32.847  32.787  1.00  0.00    -0.206 F 
ATOM     66  C   UNL A   1      42.589  33.731  35.990  1.00  0.00     0.022 A 
BRANCH  63  67
ATOM     67  S   UNL A   1      40.715  32.539  37.675  1.00  0.00     0.124 S 
ATOM     68  O   UNL A   1      39.628  31.719  37.142  1.00  0.00    -0.237 OA
ATOM     69  O   UNL A   1      41.519  31.923  38.730  1.00  0.00    -0.237 OA
ATOM     70  O   UNL A   1      40.386  33.942  37.881  1.00  0.00    -0.744 OA
ENDBRANCH  63  67
ENDBRANCH  46  60
BRANCH  47  71
ATOM     71  C   UNL A   1      42.464  24.288  27.327  1.00  0.00     0.023 A 
ATOM     72  C   UNL A   1      41.650  23.147  27.416  1.00  0.00     0.031 A 
ATOM     73  C   UNL A   1      43.331  24.394  26.224  1.00  0.00     0.131 A 
ATOM     74  C   UNL A   1      41.752  22.138  26.447  1.00  0.00     0.055 A 
ATOM     75  C   UNL A   1      43.390  23.412  25.234  1.00  0.00     0.041 A 
ATOM     76  F   UNL A   1      44.129  25.465  26.089  1.00  0.00    -0.206 F 
ATOM     77  C   UNL A   1      42.605  22.268  25.350  1.00  0.00     0.022 A 
BRANCH  74  78
ATOM     78  S   UNL A   1      40.810  20.605  26.686  1.00  0.00     0.124 S 
ATOM     79  O   UNL A   1      40.883  20.436  28.133  1.00  0.00    -0.237 OA
ATOM     80  O   UNL A   1      39.504  20.967  26.147  1.00  0.00    -0.237 OA
ATOM     81  O   UNL A   1      41.556  19.623  25.903  1.00  0.00    -0.744 OA
ENDBRANCH  74  78
ENDBRANCH  47  71
BRANCH  59  82
ATOM     82  C   UNL A   1      46.973  26.009  32.361  1.00  0.00     0.023 A 
ATOM     83  C   UNL A   1      48.191  26.288  31.717  1.00  0.00     0.031 A 
ATOM     84  C   UNL A   1      46.990  25.114  33.446  1.00  0.00     0.131 A 
ATOM     85  C   UNL A   1      49.365  25.637  32.127  1.00  0.00     0.055 A 
ATOM     86  C   UNL A   1      48.171  24.515  33.888  1.00  0.00     0.041 A 
ATOM     87  F   UNL A   1      45.856  24.807  34.097  1.00  0.00    -0.206 F 
ATOM     88  C   UNL A   1      49.365  24.764  33.219  1.00  0.00     0.022 A 
BRANCH  85  89
ATOM     89  S   UNL A   1      50.880  25.875  31.159  1.00  0.00     0.124 S 
ATOM     90  O   UNL A   1      50.961  27.330  31.074  1.00  0.00    -0.237 OA
ATOM     91  O   UNL A   1      51.889  25.229  31.991  1.00  0.00    -0.237 OA
ATOM     92  O   UNL A   1      50.592  25.197  29.896  1.00  0.00    -0.744 OA
ENDBRANCH  85  89
ENDBRANCH  59  82
ENDBRANCH  33  34
ENDBRANCH  25  28
ENDBRANCH  23  24
ENDBRANCH  22  23
ENDBRANCH   1  22
TORSDOF 17
ENDMDL
