MODEL 1
REMARK VINA RESULT:     -11.7      0.000      0.000
REMARK SMILES CC(C)Cn1c([C@@H](O)[C@@H](O)C(=O)NCCCCNC(=O)c2ccc(-c3c4nc(c(-c5cc(S(=O)(=O)[O-])ccc5F)c5ccc([nH]5)c(-c5cc(S(=O)(=O)[O-])ccc5F)c5nc(c(-c6cc(S(=O)(=O)[O-])ccc6F)c6ccc3[nH]6)C=C5)C=C4)cc2)nc2cc(Cl)ccc21
REMARK SMILES IDX 15 1 14 2 13 3 11 4 12 5 9 7 7 8 6 9 5 10 91 11 84 12 85 13
REMARK SMILES IDX 90 14 86 15 89 16 87 17 88 18 4 19 2 20 1 21 3 22 8 23 10 25
REMARK SMILES IDX 16 27 17 28 18 29 19 30 20 32 21 33 22 34 83 35 23 36 82 37
REMARK SMILES IDX 24 38 25 39 26 40 76 41 27 42 81 43 75 44 77 45 28 46 80 47
REMARK SMILES IDX 74 48 73 49 29 51 61 52 41 53 60 54 42 55 45 56 59 57 78 58
REMARK SMILES IDX 43 59 44 60 58 62 79 63 46 64 30 65 31 66 39 67 32 68 38 69
REMARK SMILES IDX 40 70 37 71 33 72 34 73 35 74 36 75 62 76 63 77 71 78 64 79
REMARK SMILES IDX 70 80 72 81 69 82 65 83 66 84 67 85 68 86 47 87 48 88 56 89
REMARK SMILES IDX 49 90 55 91 57 92 54 93 50 94 51 95 52 96 53 97
REMARK H PARENT 13 6 8 24 10 26 18 31 77 50 45 61
REMARK Flexibility Score: inf
ROOT
ATOM      1  C   UNL A   1      31.753  28.754  27.155  1.00  0.00     0.023 C 
ENDROOT
BRANCH   1   2
ATOM      2  C   UNL A   1      31.438  27.582  26.228  1.00  0.00     0.116 C 
BRANCH   2   3
ATOM      3  N   UNL A   1      31.405  26.316  26.935  1.00  0.00    -0.354 N 
ATOM      4  C   UNL A   1      31.355  25.042  26.439  1.00  0.00     0.252 C 
ATOM      5  O   UNL A   1      31.504  24.112  27.239  1.00  0.00    -0.272 OA
ATOM      6  H   UNL A   1      31.420  26.384  27.918  1.00  0.00     0.163 HD
BRANCH   4   7
ATOM      7  C   UNL A   1      31.123  24.775  24.939  1.00  0.00     0.239 C 
BRANCH   7   8
ATOM      8  C   UNL A   1      32.464  24.541  24.226  1.00  0.00     0.219 C 
BRANCH   8   9
ATOM      9  C   UNL A   1      32.832  23.079  24.194  1.00  0.00     0.142 A 
ATOM     10  N   UNL A   1      33.924  22.523  24.841  1.00  0.00    -0.325 N 
ATOM     11  C   UNL A   1      33.883  21.157  24.641  1.00  0.00     0.068 A 
ATOM     12  N   UNL A   1      32.168  22.152  23.528  1.00  0.00    -0.230 NA
ATOM     13  C   UNL A   1      32.795  20.965  23.794  1.00  0.00     0.090 A 
ATOM     14  C   UNL A   1      34.665  20.090  25.103  1.00  0.00     0.030 A 
ATOM     15  C   UNL A   1      32.468  19.677  23.349  1.00  0.00     0.051 A 
ATOM     16  C   UNL A   1      34.317  18.804  24.665  1.00  0.00     0.023 A 
ATOM     17  C   UNL A   1      33.244  18.607  23.796  1.00  0.00     0.043 A 
ATOM     18  Cl  UNL A   1      32.864  17.011  23.268  1.00  0.00    -0.084 Cl
BRANCH  10  19
ATOM     19  C   UNL A   1      34.893  23.219  25.673  1.00  0.00     0.127 C 
BRANCH  19  20
ATOM     20  C   UNL A   1      36.105  23.825  24.934  1.00  0.00     0.003 C 
ATOM     21  C   UNL A   1      37.379  23.914  25.775  1.00  0.00     0.009 C 
ATOM     22  C   UNL A   1      36.395  22.992  23.681  1.00  0.00     0.009 C 
ENDBRANCH  19  20
ENDBRANCH  10  19
ENDBRANCH   8   9
BRANCH   8  23
ATOM     23  O   UNL A   1      32.400  24.990  22.871  1.00  0.00    -0.382 OA
ATOM     24  H   UNL A   1      33.153  25.573  22.688  1.00  0.00     0.211 HD
ENDBRANCH   8  23
ENDBRANCH   7   8
BRANCH   7  25
ATOM     25  O   UNL A   1      30.214  23.684  24.741  1.00  0.00    -0.380 OA
ATOM     26  H   UNL A   1      29.602  23.633  25.494  1.00  0.00     0.211 HD
ENDBRANCH   7  25
ENDBRANCH   4   7
ENDBRANCH   2   3
ENDBRANCH   1   2
BRANCH   1  27
ATOM     27  C   UNL A   1      33.212  29.220  27.160  1.00  0.00     0.023 C 
BRANCH  27  28
ATOM     28  C   UNL A   1      33.415  30.724  26.970  1.00  0.00     0.116 C 
BRANCH  28  29
ATOM     29  N   UNL A   1      33.677  31.440  28.202  1.00  0.00    -0.352 N 
ATOM     30  C   UNL A   1      34.803  31.710  28.931  1.00  0.00     0.251 C 
ATOM     31  H   UNL A   1      32.862  31.817  28.606  1.00  0.00     0.163 HD
ATOM     32  O   UNL A   1      34.666  32.547  29.829  1.00  0.00    -0.269 OA
BRANCH  30  33
ATOM     33  C   UNL A   1      36.116  31.023  28.780  1.00  0.00     0.039 A 
ATOM     34  C   UNL A   1      36.291  29.693  28.404  1.00  0.00     0.014 A 
ATOM     35  C   UNL A   1      37.250  31.767  29.165  1.00  0.00     0.014 A 
ATOM     36  C   UNL A   1      37.532  29.084  28.547  1.00  0.00     0.010 A 
ATOM     37  C   UNL A   1      38.498  31.167  29.291  1.00  0.00     0.010 A 
ATOM     38  C   UNL A   1      38.620  29.807  29.046  1.00  0.00    -0.014 A 
BRANCH  38  39
ATOM     39  C   UNL A   1      39.884  29.093  29.213  1.00  0.00     0.031 A 
ATOM     40  C   UNL A   1      40.202  28.739  30.624  1.00  0.00     0.074 A 
ATOM     41  C   UNL A   1      40.686  28.727  28.193  1.00  0.00     0.049 A 
ATOM     42  N   UNL A   1      41.154  29.207  31.364  1.00  0.00    -0.248 NA
ATOM     43  C   UNL A   1      39.246  27.886  31.344  1.00  0.00     0.031 C 
ATOM     44  C   UNL A   1      40.399  28.746  26.757  1.00  0.00     0.029 A 
ATOM     45  N   UNL A   1      41.928  28.167  28.244  1.00  0.00    -0.354 N 
ATOM     46  C   UNL A   1      41.036  28.562  32.594  1.00  0.00     0.074 A 
ATOM     47  C   UNL A   1      39.761  27.891  32.573  1.00  0.00     0.031 C 
ATOM     48  C   UNL A   1      41.325  28.004  26.105  1.00  0.00     0.029 A 
ATOM     49  C   UNL A   1      42.349  27.592  27.052  1.00  0.00     0.049 A 
ATOM     50  H   UNL A   1      42.482  28.171  29.058  1.00  0.00     0.167 HD
ATOM     51  C   UNL A   1      42.082  28.471  33.465  1.00  0.00     0.034 A 
ATOM     52  C   UNL A   1      43.419  26.773  26.872  1.00  0.00     0.034 A 
ATOM     53  C   UNL A   1      43.122  29.409  33.131  1.00  0.00     0.049 A 
ATOM     54  C   UNL A   1      44.339  26.955  28.021  1.00  0.00     0.074 A 
ATOM     55  C   UNL A   1      43.208  30.785  33.093  1.00  0.00     0.029 A 
ATOM     56  N   UNL A   1      44.195  28.943  32.412  1.00  0.00    -0.354 N 
ATOM     57  N   UNL A   1      45.038  28.033  28.226  1.00  0.00    -0.248 NA
ATOM     58  C   UNL A   1      44.128  26.110  29.186  1.00  0.00     0.031 C 
ATOM     59  C   UNL A   1      44.031  31.071  31.966  1.00  0.00     0.029 A 
ATOM     60  C   UNL A   1      44.457  29.857  31.423  1.00  0.00     0.049 A 
ATOM     61  H   UNL A   1      44.687  28.108  32.577  1.00  0.00     0.167 HD
ATOM     62  C   UNL A   1      44.937  28.249  29.591  1.00  0.00     0.074 A 
ATOM     63  C   UNL A   1      44.449  26.984  30.142  1.00  0.00     0.031 C 
ATOM     64  C   UNL A   1      44.975  29.509  30.115  1.00  0.00     0.034 A 
BRANCH  51  65
ATOM     65  C   UNL A   1      42.298  27.315  34.413  1.00  0.00     0.023 A 
ATOM     66  C   UNL A   1      43.061  26.182  34.073  1.00  0.00     0.031 A 
ATOM     67  C   UNL A   1      41.935  27.423  35.771  1.00  0.00     0.131 A 
ATOM     68  C   UNL A   1      43.422  25.222  35.026  1.00  0.00     0.055 A 
ATOM     69  C   UNL A   1      42.354  26.500  36.738  1.00  0.00     0.041 A 
ATOM     70  F   UNL A   1      41.212  28.464  36.214  1.00  0.00    -0.206 F 
ATOM     71  C   UNL A   1      43.105  25.391  36.368  1.00  0.00     0.022 A 
BRANCH  68  72
ATOM     72  S   UNL A   1      44.335  23.737  34.523  1.00  0.00     0.124 S 
ATOM     73  O   UNL A   1      44.634  23.118  35.815  1.00  0.00    -0.237 OA
ATOM     74  O   UNL A   1      43.342  23.044  33.707  1.00  0.00    -0.237 OA
ATOM     75  O   UNL A   1      45.477  24.267  33.792  1.00  0.00    -0.744 OA
ENDBRANCH  68  72
ENDBRANCH  51  65
BRANCH  52  76
ATOM     76  C   UNL A   1      43.413  25.503  26.102  1.00  0.00     0.023 A 
ATOM     77  C   UNL A   1      42.543  24.469  26.489  1.00  0.00     0.031 A 
ATOM     78  C   UNL A   1      44.471  25.166  25.239  1.00  0.00     0.131 A 
ATOM     79  C   UNL A   1      42.777  23.150  26.083  1.00  0.00     0.055 A 
ATOM     80  C   UNL A   1      44.690  23.850  24.812  1.00  0.00     0.041 A 
ATOM     81  F   UNL A   1      45.363  26.096  24.861  1.00  0.00    -0.206 F 
ATOM     82  C   UNL A   1      43.850  22.830  25.250  1.00  0.00     0.022 A 
BRANCH  79  83
ATOM     83  S   UNL A   1      41.747  21.807  26.732  1.00  0.00     0.124 S 
ATOM     84  O   UNL A   1      42.487  20.619  26.313  1.00  0.00    -0.237 OA
ATOM     85  O   UNL A   1      41.763  22.088  28.162  1.00  0.00    -0.237 OA
ATOM     86  O   UNL A   1      40.465  22.003  26.059  1.00  0.00    -0.744 OA
ENDBRANCH  79  83
ENDBRANCH  52  76
BRANCH  64  87
ATOM     87  C   UNL A   1      45.352  30.665  29.211  1.00  0.00     0.023 A 
ATOM     88  C   UNL A   1      46.667  31.150  29.304  1.00  0.00     0.031 A 
ATOM     89  C   UNL A   1      44.440  31.416  28.442  1.00  0.00     0.131 A 
ATOM     90  C   UNL A   1      47.027  32.352  28.686  1.00  0.00     0.055 A 
ATOM     91  C   UNL A   1      44.823  32.579  27.764  1.00  0.00     0.041 A 
ATOM     92  F   UNL A   1      43.139  31.105  28.388  1.00  0.00    -0.206 F 
ATOM     93  C   UNL A   1      46.119  33.062  27.897  1.00  0.00     0.022 A 
BRANCH  90  94
ATOM     94  S   UNL A   1      48.638  33.104  29.028  1.00  0.00     0.124 S 
ATOM     95  O   UNL A   1      48.646  34.243  28.115  1.00  0.00    -0.237 OA
ATOM     96  O   UNL A   1      48.530  33.438  30.446  1.00  0.00    -0.237 OA
ATOM     97  O   UNL A   1      49.595  32.046  28.717  1.00  0.00    -0.744 OA
ENDBRANCH  90  94
ENDBRANCH  64  87
ENDBRANCH  38  39
ENDBRANCH  30  33
ENDBRANCH  28  29
ENDBRANCH  27  28
ENDBRANCH   1  27
TORSDOF 20
ENDMDL
MODEL 2
REMARK VINA RESULT:     -11.6      3.568      8.906
REMARK SMILES CC(C)Cn1c([C@@H](O)[C@@H](O)C(=O)NCCCCNC(=O)c2ccc(-c3c4nc(c(-c5cc(S(=O)(=O)[O-])ccc5F)c5ccc([nH]5)c(-c5cc(S(=O)(=O)[O-])ccc5F)c5nc(c(-c6cc(S(=O)(=O)[O-])ccc6F)c6ccc3[nH]6)C=C5)C=C4)cc2)nc2cc(Cl)ccc21
REMARK SMILES IDX 15 1 14 2 13 3 11 4 12 5 9 7 7 8 6 9 5 10 91 11 84 12 85 13
REMARK SMILES IDX 90 14 86 15 89 16 87 17 88 18 4 19 2 20 1 21 3 22 8 23 10 25
REMARK SMILES IDX 16 27 17 28 18 29 19 30 20 32 21 33 22 34 83 35 23 36 82 37
REMARK SMILES IDX 24 38 25 39 26 40 76 41 27 42 81 43 75 44 77 45 28 46 80 47
REMARK SMILES IDX 74 48 73 49 29 51 61 52 41 53 60 54 42 55 45 56 59 57 78 58
REMARK SMILES IDX 43 59 44 60 58 62 79 63 46 64 30 65 31 66 39 67 32 68 38 69
REMARK SMILES IDX 40 70 37 71 33 72 34 73 35 74 36 75 62 76 63 77 71 78 64 79
REMARK SMILES IDX 70 80 72 81 69 82 65 83 66 84 67 85 68 86 47 87 48 88 56 89
REMARK SMILES IDX 49 90 55 91 57 92 54 93 50 94 51 95 52 96 53 97
REMARK H PARENT 13 6 8 24 10 26 18 31 77 50 45 61
REMARK Flexibility Score: inf
ROOT
ATOM      1  C   UNL A   1      35.923  22.834  23.988  1.00  0.00     0.023 C 
ENDROOT
BRANCH   1   2
ATOM      2  C   UNL A   1      34.528  22.515  24.520  1.00  0.00     0.116 C 
BRANCH   2   3
ATOM      3  N   UNL A   1      33.704  21.843  23.535  1.00  0.00    -0.354 N 
ATOM      4  C   UNL A   1      32.565  22.274  22.910  1.00  0.00     0.252 C 
ATOM      5  O   UNL A   1      32.130  21.587  21.979  1.00  0.00    -0.272 OA
ATOM      6  H   UNL A   1      34.008  20.942  23.278  1.00  0.00     0.163 HD
BRANCH   4   7
ATOM      7  C   UNL A   1      31.852  23.568  23.349  1.00  0.00     0.239 C 
BRANCH   7   8
ATOM      8  C   UNL A   1      32.369  24.764  22.534  1.00  0.00     0.219 C 
BRANCH   8   9
ATOM      9  C   UNL A   1      32.720  25.934  23.418  1.00  0.00     0.142 A 
ATOM     10  N   UNL A   1      32.166  27.199  23.313  1.00  0.00    -0.325 N 
ATOM     11  C   UNL A   1      32.678  27.971  24.338  1.00  0.00     0.068 A 
ATOM     12  N   UNL A   1      33.613  25.899  24.390  1.00  0.00    -0.230 NA
ATOM     13  C   UNL A   1      33.598  27.138  24.969  1.00  0.00     0.090 A 
ATOM     14  C   UNL A   1      32.437  29.281  24.774  1.00  0.00     0.030 A 
ATOM     15  C   UNL A   1      34.345  27.611  26.057  1.00  0.00     0.051 A 
ATOM     16  C   UNL A   1      33.176  29.735  25.875  1.00  0.00     0.023 A 
ATOM     17  C   UNL A   1      34.119  28.916  26.496  1.00  0.00     0.043 A 
ATOM     18  Cl  UNL A   1      35.019  29.524  27.833  1.00  0.00    -0.084 Cl
BRANCH  10  19
ATOM     19  C   UNL A   1      31.150  27.632  22.367  1.00  0.00     0.127 C 
BRANCH  19  20
ATOM     20  C   UNL A   1      29.692  27.573  22.871  1.00  0.00     0.003 C 
ATOM     21  C   UNL A   1      29.495  26.738  24.137  1.00  0.00     0.009 C 
ATOM     22  C   UNL A   1      29.197  28.999  23.136  1.00  0.00     0.009 C 
ENDBRANCH  19  20
ENDBRANCH  10  19
ENDBRANCH   8   9
BRANCH   8  23
ATOM     23  O   UNL A   1      33.552  24.409  21.813  1.00  0.00    -0.382 OA
ATOM     24  H   UNL A   1      33.380  24.469  20.861  1.00  0.00     0.211 HD
ENDBRANCH   8  23
ENDBRANCH   7   8
BRANCH   7  25
ATOM     25  O   UNL A   1      30.427  23.432  23.255  1.00  0.00    -0.380 OA
ATOM     26  H   UNL A   1      30.144  23.626  22.347  1.00  0.00     0.211 HD
ENDBRANCH   7  25
ENDBRANCH   4   7
ENDBRANCH   2   3
ENDBRANCH   1   2
BRANCH   1  27
ATOM     27  C   UNL A   1      37.061  21.986  24.565  1.00  0.00     0.023 C 
BRANCH  27  28
ATOM     28  C   UNL A   1      37.838  22.635  25.712  1.00  0.00     0.116 C 
BRANCH  28  29
ATOM     29  N   UNL A   1      39.149  22.060  25.931  1.00  0.00    -0.352 N 
ATOM     30  C   UNL A   1      40.276  22.470  26.591  1.00  0.00     0.251 C 
ATOM     31  H   UNL A   1      39.253  21.176  25.512  1.00  0.00     0.163 HD
ATOM     32  O   UNL A   1      41.142  21.605  26.749  1.00  0.00    -0.269 OA
BRANCH  30  33
ATOM     33  C   UNL A   1      40.556  23.863  27.038  1.00  0.00     0.039 A 
ATOM     34  C   UNL A   1      41.509  24.229  27.986  1.00  0.00     0.014 A 
ATOM     35  C   UNL A   1      39.696  24.859  26.532  1.00  0.00     0.014 A 
ATOM     36  C   UNL A   1      41.509  25.513  28.518  1.00  0.00     0.010 A 
ATOM     37  C   UNL A   1      39.705  26.151  27.047  1.00  0.00     0.010 A 
ATOM     38  C   UNL A   1      40.568  26.455  28.089  1.00  0.00    -0.014 A 
BRANCH  38  39
ATOM     39  C   UNL A   1      40.596  27.771  28.723  1.00  0.00     0.031 A 
ATOM     40  C   UNL A   1      41.632  28.690  28.176  1.00  0.00     0.074 A 
ATOM     41  C   UNL A   1      39.737  28.165  29.686  1.00  0.00     0.049 A 
ATOM     42  N   UNL A   1      42.691  29.136  28.770  1.00  0.00    -0.248 NA
ATOM     43  C   UNL A   1      41.563  29.017  26.745  1.00  0.00     0.031 C 
ATOM     44  C   UNL A   1      38.510  27.505  30.135  1.00  0.00     0.029 A 
ATOM     45  N   UNL A   1      39.747  29.314  30.418  1.00  0.00    -0.354 N 
ATOM     46  C   UNL A   1      43.331  29.960  27.846  1.00  0.00     0.074 A 
ATOM     47  C   UNL A   1      42.683  29.720  26.580  1.00  0.00     0.031 C 
ATOM     48  C   UNL A   1      37.779  28.374  30.873  1.00  0.00     0.029 A 
ATOM     49  C   UNL A   1      38.555  29.587  31.077  1.00  0.00     0.049 A 
ATOM     50  H   UNL A   1      40.535  29.902  30.478  1.00  0.00     0.167 HD
ATOM     51  C   UNL A   1      44.219  30.921  28.230  1.00  0.00     0.034 A 
ATOM     52  C   UNL A   1      38.201  30.754  31.677  1.00  0.00     0.034 A 
ATOM     53  C   UNL A   1      44.667  30.708  29.580  1.00  0.00     0.049 A 
ATOM     54  C   UNL A   1      39.435  31.531  31.940  1.00  0.00     0.074 A 
ATOM     55  C   UNL A   1      45.386  29.718  30.217  1.00  0.00     0.029 A 
ATOM     56  N   UNL A   1      44.061  31.433  30.576  1.00  0.00    -0.354 N 
ATOM     57  N   UNL A   1      40.327  31.197  32.828  1.00  0.00    -0.248 NA
ATOM     58  C   UNL A   1      39.896  32.430  30.894  1.00  0.00     0.031 C 
ATOM     59  C   UNL A   1      44.792  29.601  31.505  1.00  0.00     0.029 A 
ATOM     60  C   UNL A   1      43.792  30.571  31.609  1.00  0.00     0.049 A 
ATOM     61  H   UNL A   1      43.856  32.395  30.553  1.00  0.00     0.167 HD
ATOM     62  C   UNL A   1      41.538  31.435  32.198  1.00  0.00     0.074 A 
ATOM     63  C   UNL A   1      41.213  32.282  31.051  1.00  0.00     0.031 C 
ATOM     64  C   UNL A   1      42.646  30.691  32.488  1.00  0.00     0.034 A 
BRANCH  51  65
ATOM     65  C   UNL A   1      44.427  32.225  27.496  1.00  0.00     0.023 A 
ATOM     66  C   UNL A   1      43.771  33.417  27.858  1.00  0.00     0.031 A 
ATOM     67  C   UNL A   1      45.469  32.362  26.555  1.00  0.00     0.131 A 
ATOM     68  C   UNL A   1      44.128  34.653  27.305  1.00  0.00     0.055 A 
ATOM     69  C   UNL A   1      45.873  33.606  26.054  1.00  0.00     0.041 A 
ATOM     70  F   UNL A   1      46.170  31.295  26.138  1.00  0.00    -0.206 F 
ATOM     71  C   UNL A   1      45.201  34.763  26.430  1.00  0.00     0.022 A 
BRANCH  68  72
ATOM     72  S   UNL A   1      43.197  36.149  27.740  1.00  0.00     0.124 S 
ATOM     73  O   UNL A   1      42.359  35.670  28.840  1.00  0.00    -0.237 OA
ATOM     74  O   UNL A   1      44.271  37.063  28.118  1.00  0.00    -0.237 OA
ATOM     75  O   UNL A   1      42.499  36.489  26.509  1.00  0.00    -0.744 OA
ENDBRANCH  68  72
ENDBRANCH  51  65
BRANCH  52  76
ATOM     76  C   UNL A   1      36.894  31.440  31.523  1.00  0.00     0.023 A 
ATOM     77  C   UNL A   1      36.460  31.814  30.239  1.00  0.00     0.031 A 
ATOM     78  C   UNL A   1      36.248  32.038  32.621  1.00  0.00     0.131 A 
ATOM     79  C   UNL A   1      35.476  32.797  30.075  1.00  0.00     0.055 A 
ATOM     80  C   UNL A   1      35.245  33.002  32.456  1.00  0.00     0.041 A 
ATOM     81  F   UNL A   1      36.637  31.757  33.874  1.00  0.00    -0.206 F 
ATOM     82  C   UNL A   1      34.868  33.400  31.177  1.00  0.00     0.022 A 
BRANCH  79  83
ATOM     83  S   UNL A   1      35.056  33.389  28.414  1.00  0.00     0.124 S 
ATOM     84  O   UNL A   1      36.240  33.017  27.644  1.00  0.00    -0.237 OA
ATOM     85  O   UNL A   1      33.849  32.624  28.126  1.00  0.00    -0.237 OA
ATOM     86  O   UNL A   1      34.869  34.826  28.601  1.00  0.00    -0.744 OA
ENDBRANCH  79  83
ENDBRANCH  52  76
BRANCH  64  87
ATOM     87  C   UNL A   1      42.601  29.743  33.669  1.00  0.00     0.023 A 
ATOM     88  C   UNL A   1      43.178  30.186  34.871  1.00  0.00     0.031 A 
ATOM     89  C   UNL A   1      42.215  28.389  33.600  1.00  0.00     0.131 A 
ATOM     90  C   UNL A   1      43.390  29.297  35.930  1.00  0.00     0.055 A 
ATOM     91  C   UNL A   1      42.360  27.520  34.688  1.00  0.00     0.041 A 
ATOM     92  F   UNL A   1      41.767  27.841  32.464  1.00  0.00    -0.206 F 
ATOM     93  C   UNL A   1      42.965  27.968  35.855  1.00  0.00     0.022 A 
BRANCH  90  94
ATOM     94  S   UNL A   1      44.369  29.807  37.364  1.00  0.00     0.124 S 
ATOM     95  O   UNL A   1      43.487  30.774  38.010  1.00  0.00    -0.237 OA
ATOM     96  O   UNL A   1      44.549  28.545  38.081  1.00  0.00    -0.237 OA
ATOM     97  O   UNL A   1      45.587  30.361  36.781  1.00  0.00    -0.744 OA
ENDBRANCH  90  94
ENDBRANCH  64  87
ENDBRANCH  38  39
ENDBRANCH  30  33
ENDBRANCH  28  29
ENDBRANCH  27  28
ENDBRANCH   1  27
TORSDOF 20
ENDMDL
MODEL 3
REMARK VINA RESULT:     -11.5      3.384      8.628
REMARK SMILES CC(C)Cn1c([C@@H](O)[C@@H](O)C(=O)NCCCCNC(=O)c2ccc(-c3c4nc(c(-c5cc(S(=O)(=O)[O-])ccc5F)c5ccc([nH]5)c(-c5cc(S(=O)(=O)[O-])ccc5F)c5nc(c(-c6cc(S(=O)(=O)[O-])ccc6F)c6ccc3[nH]6)C=C5)C=C4)cc2)nc2cc(Cl)ccc21
REMARK SMILES IDX 15 1 14 2 13 3 11 4 12 5 9 7 7 8 6 9 5 10 91 11 84 12 85 13
REMARK SMILES IDX 90 14 86 15 89 16 87 17 88 18 4 19 2 20 1 21 3 22 8 23 10 25
REMARK SMILES IDX 16 27 17 28 18 29 19 30 20 32 21 33 22 34 83 35 23 36 82 37
REMARK SMILES IDX 24 38 25 39 26 40 76 41 27 42 81 43 75 44 77 45 28 46 80 47
REMARK SMILES IDX 74 48 73 49 29 51 61 52 41 53 60 54 42 55 45 56 59 57 78 58
REMARK SMILES IDX 43 59 44 60 58 62 79 63 46 64 30 65 31 66 39 67 32 68 38 69
REMARK SMILES IDX 40 70 37 71 33 72 34 73 35 74 36 75 62 76 63 77 71 78 64 79
REMARK SMILES IDX 70 80 72 81 69 82 65 83 66 84 67 85 68 86 47 87 48 88 56 89
REMARK SMILES IDX 49 90 55 91 57 92 54 93 50 94 51 95 52 96 53 97
REMARK H PARENT 13 6 8 24 10 26 18 31 77 50 45 61
REMARK Flexibility Score: inf
ROOT
ATOM      1  C   UNL A   1      36.264  21.932  24.229  1.00  0.00     0.023 C 
ENDROOT
BRANCH   1   2
ATOM      2  C   UNL A   1      35.159  22.475  25.131  1.00  0.00     0.116 C 
BRANCH   2   3
ATOM      3  N   UNL A   1      34.012  21.590  25.188  1.00  0.00    -0.354 N 
ATOM      4  C   UNL A   1      32.894  21.662  25.974  1.00  0.00     0.252 C 
ATOM      5  O   UNL A   1      31.970  20.881  25.723  1.00  0.00    -0.272 OA
ATOM      6  H   UNL A   1      34.043  20.824  24.570  1.00  0.00     0.163 HD
BRANCH   4   7
ATOM      7  C   UNL A   1      32.788  22.681  27.125  1.00  0.00     0.239 C 
BRANCH   7   8
ATOM      8  C   UNL A   1      31.751  23.762  26.787  1.00  0.00     0.219 C 
BRANCH   8   9
ATOM      9  C   UNL A   1      32.027  24.405  25.452  1.00  0.00     0.142 A 
ATOM     10  N   UNL A   1      32.683  25.613  25.275  1.00  0.00    -0.325 N 
ATOM     11  C   UNL A   1      32.812  25.828  23.917  1.00  0.00     0.068 A 
ATOM     12  N   UNL A   1      31.660  23.903  24.287  1.00  0.00    -0.230 NA
ATOM     13  C   UNL A   1      32.138  24.760  23.333  1.00  0.00     0.090 A 
ATOM     14  C   UNL A   1      33.437  26.823  23.153  1.00  0.00     0.030 A 
ATOM     15  C   UNL A   1      32.037  24.669  21.938  1.00  0.00     0.051 A 
ATOM     16  C   UNL A   1      33.346  26.710  21.758  1.00  0.00     0.023 A 
ATOM     17  C   UNL A   1      32.649  25.657  21.166  1.00  0.00     0.043 A 
ATOM     18  Cl  UNL A   1      32.545  25.570  19.448  1.00  0.00    -0.084 Cl
BRANCH  10  19
ATOM     19  C   UNL A   1      33.237  26.466  26.315  1.00  0.00     0.127 C 
BRANCH  19  20
ATOM     20  C   UNL A   1      32.682  27.905  26.373  1.00  0.00     0.003 C 
ATOM     21  C   UNL A   1      31.758  28.178  27.560  1.00  0.00     0.009 C 
ATOM     22  C   UNL A   1      33.853  28.891  26.418  1.00  0.00     0.009 C 
ENDBRANCH  19  20
ENDBRANCH  10  19
ENDBRANCH   8   9
BRANCH   8  23
ATOM     23  O   UNL A   1      30.439  23.199  26.722  1.00  0.00    -0.382 OA
ATOM     24  H   UNL A   1      30.415  22.515  26.035  1.00  0.00     0.211 HD
ENDBRANCH   8  23
ENDBRANCH   7   8
BRANCH   7  25
ATOM     25  O   UNL A   1      32.496  22.028  28.369  1.00  0.00    -0.380 OA
ATOM     26  H   UNL A   1      32.788  22.590  29.105  1.00  0.00     0.211 HD
ENDBRANCH   7  25
ENDBRANCH   4   7
ENDBRANCH   2   3
ENDBRANCH   1   2
BRANCH   1  27
ATOM     27  C   UNL A   1      37.387  21.170  24.942  1.00  0.00     0.023 C 
BRANCH  27  28
ATOM     28  C   UNL A   1      38.127  21.962  26.021  1.00  0.00     0.116 C 
BRANCH  28  29
ATOM     29  N   UNL A   1      39.562  22.015  25.828  1.00  0.00    -0.352 N 
ATOM     30  C   UNL A   1      40.578  22.733  26.397  1.00  0.00     0.251 C 
ATOM     31  H   UNL A   1      39.877  21.395  25.131  1.00  0.00     0.163 HD
ATOM     32  O   UNL A   1      41.719  22.347  26.123  1.00  0.00    -0.269 OA
BRANCH  30  33
ATOM     33  C   UNL A   1      40.411  23.959  27.225  1.00  0.00     0.039 A 
ATOM     34  C   UNL A   1      39.329  24.835  27.159  1.00  0.00     0.014 A 
ATOM     35  C   UNL A   1      41.503  24.302  28.049  1.00  0.00     0.014 A 
ATOM     36  C   UNL A   1      39.396  26.077  27.780  1.00  0.00     0.010 A 
ATOM     37  C   UNL A   1      41.565  25.535  28.689  1.00  0.00     0.010 A 
ATOM     38  C   UNL A   1      40.539  26.448  28.496  1.00  0.00    -0.014 A 
BRANCH  38  39
ATOM     39  C   UNL A   1      40.560  27.785  29.084  1.00  0.00     0.031 A 
ATOM     40  C   UNL A   1      41.564  28.702  28.477  1.00  0.00     0.074 A 
ATOM     41  C   UNL A   1      39.722  28.196  30.057  1.00  0.00     0.049 A 
ATOM     42  N   UNL A   1      42.631  29.186  29.025  1.00  0.00    -0.248 NA
ATOM     43  C   UNL A   1      41.449  28.980  27.039  1.00  0.00     0.031 C 
ATOM     44  C   UNL A   1      38.520  27.531  30.564  1.00  0.00     0.029 A 
ATOM     45  N   UNL A   1      39.732  29.369  30.751  1.00  0.00    -0.354 N 
ATOM     46  C   UNL A   1      43.229  29.990  28.056  1.00  0.00     0.074 A 
ATOM     47  C   UNL A   1      42.551  29.697  26.819  1.00  0.00     0.031 C 
ATOM     48  C   UNL A   1      37.795  28.411  31.293  1.00  0.00     0.029 A 
ATOM     49  C   UNL A   1      38.554  29.644  31.434  1.00  0.00     0.049 A 
ATOM     50  H   UNL A   1      40.510  29.973  30.768  1.00  0.00     0.167 HD
ATOM     51  C   UNL A   1      44.111  30.978  28.383  1.00  0.00     0.034 A 
ATOM     52  C   UNL A   1      38.196  30.824  32.005  1.00  0.00     0.034 A 
ATOM     53  C   UNL A   1      44.601  30.818  29.726  1.00  0.00     0.049 A 
ATOM     54  C   UNL A   1      39.423  31.631  32.207  1.00  0.00     0.074 A 
ATOM     55  C   UNL A   1      45.355  29.862  30.374  1.00  0.00     0.029 A 
ATOM     56  N   UNL A   1      44.009  31.566  30.715  1.00  0.00    -0.354 N 
ATOM     57  N   UNL A   1      40.345  31.342  33.080  1.00  0.00    -0.248 NA
ATOM     58  C   UNL A   1      39.838  32.502  31.118  1.00  0.00     0.031 C 
ATOM     59  C   UNL A   1      44.799  29.779  31.683  1.00  0.00     0.029 A 
ATOM     60  C   UNL A   1      43.786  30.734  31.782  1.00  0.00     0.049 A 
ATOM     61  H   UNL A   1      43.787  32.523  30.666  1.00  0.00     0.167 HD
ATOM     62  C   UNL A   1      41.534  31.579  32.408  1.00  0.00     0.074 A 
ATOM     63  C   UNL A   1      41.161  32.382  31.243  1.00  0.00     0.031 C 
ATOM     64  C   UNL A   1      42.663  30.864  32.690  1.00  0.00     0.034 A 
BRANCH  51  65
ATOM     65  C   UNL A   1      44.275  32.260  27.601  1.00  0.00     0.023 A 
ATOM     66  C   UNL A   1      43.659  33.468  27.979  1.00  0.00     0.031 A 
ATOM     67  C   UNL A   1      45.242  32.361  26.580  1.00  0.00     0.131 A 
ATOM     68  C   UNL A   1      43.984  34.686  27.368  1.00  0.00     0.055 A 
ATOM     69  C   UNL A   1      45.619  33.587  26.016  1.00  0.00     0.041 A 
ATOM     70  F   UNL A   1      45.899  31.275  26.140  1.00  0.00    -0.206 F 
ATOM     71  C   UNL A   1      44.989  34.761  26.411  1.00  0.00     0.022 A 
BRANCH  68  72
ATOM     72  S   UNL A   1      43.104  36.203  27.832  1.00  0.00     0.124 S 
ATOM     73  O   UNL A   1      44.161  36.974  28.487  1.00  0.00    -0.237 OA
ATOM     74  O   UNL A   1      42.672  36.702  26.530  1.00  0.00    -0.237 OA
ATOM     75  O   UNL A   1      42.034  35.727  28.698  1.00  0.00    -0.744 OA
ENDBRANCH  68  72
ENDBRANCH  51  65
BRANCH  52  76
ATOM     76  C   UNL A   1      36.873  31.482  31.866  1.00  0.00     0.023 A 
ATOM     77  C   UNL A   1      36.360  31.732  30.581  1.00  0.00     0.031 A 
ATOM     78  C   UNL A   1      36.284  32.174  32.940  1.00  0.00     0.131 A 
ATOM     79  C   UNL A   1      35.355  32.686  30.386  1.00  0.00     0.055 A 
ATOM     80  C   UNL A   1      35.260  33.111  32.747  1.00  0.00     0.041 A 
ATOM     81  F   UNL A   1      36.749  32.014  34.189  1.00  0.00    -0.206 F 
ATOM     82  C   UNL A   1      34.804  33.385  31.461  1.00  0.00     0.022 A 
BRANCH  79  83
ATOM     83  S   UNL A   1      34.830  33.118  28.705  1.00  0.00     0.124 S 
ATOM     84  O   UNL A   1      36.096  33.117  27.976  1.00  0.00    -0.237 OA
ATOM     85  O   UNL A   1      33.920  32.024  28.391  1.00  0.00    -0.237 OA
ATOM     86  O   UNL A   1      34.214  34.433  28.867  1.00  0.00    -0.744 OA
ENDBRANCH  79  83
ENDBRANCH  52  76
BRANCH  64  87
ATOM     87  C   UNL A   1      42.668  29.956  33.902  1.00  0.00     0.023 A 
ATOM     88  C   UNL A   1      43.464  30.345  34.993  1.00  0.00     0.031 A 
ATOM     89  C   UNL A   1      42.108  28.663  33.942  1.00  0.00     0.131 A 
ATOM     90  C   UNL A   1      43.711  29.459  36.046  1.00  0.00     0.055 A 
ATOM     91  C   UNL A   1      42.296  27.806  35.033  1.00  0.00     0.041 A 
ATOM     92  F   UNL A   1      41.435  28.155  32.903  1.00  0.00    -0.206 F 
ATOM     93  C   UNL A   1      43.115  28.196  36.085  1.00  0.00     0.022 A 
BRANCH  90  94
ATOM     94  S   UNL A   1      44.943  29.866  37.309  1.00  0.00     0.124 S 
ATOM     95  O   UNL A   1      45.701  30.934  36.664  1.00  0.00    -0.237 OA
ATOM     96  O   UNL A   1      44.108  30.282  38.434  1.00  0.00    -0.237 OA
ATOM     97  O   UNL A   1      45.668  28.616  37.511  1.00  0.00    -0.744 OA
ENDBRANCH  90  94
ENDBRANCH  64  87
ENDBRANCH  38  39
ENDBRANCH  30  33
ENDBRANCH  28  29
ENDBRANCH  27  28
ENDBRANCH   1  27
TORSDOF 20
ENDMDL
