MODEL 1
REMARK VINA RESULT:     -12.1      0.000      0.000
REMARK SMILES C[C@]1(C(=O)N2CCC(CC(=O)NCCCCNC(=O)c3ccc(-c4c5nc(c(-c6cc(S(=O)(=O)[O-])ccc6F)c6ccc([nH]6)c(-c6cc(S(=O)(=O)[O-])ccc6F)c6nc(c(-c7cc(S(=O)(=O)[O-])ccc7F)c7ccc4[nH]7)C=C6)C=C5)cc3)CC2)CCC[NH2+]C1
REMARK SMILES IDX 15 1 14 2 13 3 12 4 10 5 11 6 9 8 8 9 3 10 4 11 5 12 6 13
REMARK SMILES IDX 84 14 7 15 83 16 2 17 1 18 85 19 89 20 86 21 88 22 87 23
REMARK SMILES IDX 16 26 17 27 18 28 19 30 20 31 21 32 82 33 22 34 81 35 23 36
REMARK SMILES IDX 24 37 25 38 75 39 26 40 80 41 74 42 76 43 27 44 79 45 73 46
REMARK SMILES IDX 72 47 28 49 60 50 40 51 59 52 41 53 44 54 58 55 77 56 42 57
REMARK SMILES IDX 43 58 57 60 78 61 45 62 29 63 30 64 38 65 31 66 37 67 39 68
REMARK SMILES IDX 36 69 32 70 33 71 34 72 35 73 61 74 62 75 70 76 63 77 69 78
REMARK SMILES IDX 71 79 68 80 64 81 65 82 66 83 67 84 46 85 47 86 55 87 48 88
REMARK SMILES IDX 54 89 56 90 53 91 49 92 50 93 51 94 52 95
REMARK H PARENT 12 7 88 24 88 25 17 29 76 48 44 59
REMARK Flexibility Score: inf
ROOT
ATOM      1  C   UNL A   1      35.582  23.302  26.205  1.00  0.00     0.023 C 
ENDROOT
BRANCH   1   2
ATOM      2  C   UNL A   1      35.361  21.835  26.526  1.00  0.00     0.023 C 
BRANCH   2   3
ATOM      3  C   UNL A   1      34.065  21.504  27.272  1.00  0.00     0.116 C 
BRANCH   3   4
ATOM      4  N   UNL A   1      33.317  20.470  26.577  1.00  0.00    -0.356 N 
ATOM      5  C   UNL A   1      32.679  20.493  25.374  1.00  0.00     0.220 C 
ATOM      6  O   UNL A   1      32.008  19.510  25.050  1.00  0.00    -0.275 OA
ATOM      7  H   UNL A   1      33.264  19.611  27.055  1.00  0.00     0.163 HD
BRANCH   5   8
ATOM      8  C   UNL A   1      32.794  21.686  24.441  1.00  0.00     0.103 C 
BRANCH   8   9
ATOM      9  C   UNL A   1      31.586  22.646  24.490  1.00  0.00     0.002 C 
ATOM     10  C   UNL A   1      30.725  26.837  24.606  1.00  0.00     0.234 C 
ATOM     11  O   UNL A   1      29.772  27.359  24.024  1.00  0.00    -0.274 OA
ATOM     12  N   UNL A   1      30.870  25.460  24.606  1.00  0.00    -0.342 N 
ATOM     13  C   UNL A   1      30.580  24.719  23.390  1.00  0.00     0.120 C 
ATOM     14  C   UNL A   1      30.712  24.688  25.814  1.00  0.00     0.120 C 
ATOM     15  C   UNL A   1      31.575  23.564  23.252  1.00  0.00     0.026 C 
ATOM     16  C   UNL A   1      31.603  23.465  25.785  1.00  0.00     0.026 C 
BRANCH  10  17
ATOM     17  C   UNL A   1      31.804  27.671  25.357  1.00  0.00     0.095 C 
ATOM     18  C   UNL A   1      31.521  27.649  26.870  1.00  0.00     0.028 C 
ATOM     19  C   UNL A   1      33.255  27.197  25.097  1.00  0.00     0.028 C 
ATOM     20  C   UNL A   1      31.695  29.138  24.855  1.00  0.00     0.277 C 
ATOM     21  C   UNL A   1      33.684  27.420  23.648  1.00  0.00     0.063 C 
ATOM     22  N   UNL A   1      32.106  29.306  23.454  1.00  0.00    -0.345 N 
ATOM     23  C   UNL A   1      33.479  28.871  23.224  1.00  0.00     0.260 C 
ATOM     24  H   UNL A   1      31.484  28.757  22.861  1.00  0.00     0.346 HD
ATOM     25  H   UNL A   1      32.053  30.300  23.232  1.00  0.00     0.346 HD
ENDBRANCH  10  17
ENDBRANCH   8   9
ENDBRANCH   5   8
ENDBRANCH   3   4
ENDBRANCH   2   3
ENDBRANCH   1   2
BRANCH   1  26
ATOM     26  C   UNL A   1      37.015  23.669  25.880  1.00  0.00     0.116 C 
BRANCH  26  27
ATOM     27  N   UNL A   1      37.947  22.555  25.994  1.00  0.00    -0.352 N 
ATOM     28  C   UNL A   1      39.263  22.583  26.397  1.00  0.00     0.251 C 
ATOM     29  H   UNL A   1      37.590  21.671  25.751  1.00  0.00     0.163 HD
ATOM     30  O   UNL A   1      39.947  21.565  26.342  1.00  0.00    -0.269 OA
BRANCH  28  31
ATOM     31  C   UNL A   1      39.843  23.866  26.846  1.00  0.00     0.039 A 
ATOM     32  C   UNL A   1      40.202  24.825  25.898  1.00  0.00     0.014 A 
ATOM     33  C   UNL A   1      39.940  24.149  28.211  1.00  0.00     0.014 A 
ATOM     34  C   UNL A   1      40.584  26.100  26.324  1.00  0.00     0.010 A 
ATOM     35  C   UNL A   1      40.199  25.447  28.624  1.00  0.00     0.010 A 
ATOM     36  C   UNL A   1      40.545  26.432  27.688  1.00  0.00    -0.014 A 
BRANCH  36  37
ATOM     37  C   UNL A   1      40.925  27.782  28.177  1.00  0.00     0.031 A 
ATOM     38  C   UNL A   1      42.385  28.142  28.274  1.00  0.00     0.074 A 
ATOM     39  C   UNL A   1      39.980  28.642  28.604  1.00  0.00     0.049 A 
ATOM     40  N   UNL A   1      42.948  29.208  28.782  1.00  0.00    -0.248 NA
ATOM     41  C   UNL A   1      43.342  27.138  27.781  1.00  0.00     0.031 C 
ATOM     42  C   UNL A   1      38.537  28.381  28.621  1.00  0.00     0.029 A 
ATOM     43  N   UNL A   1      40.091  29.910  29.115  1.00  0.00    -0.354 N 
ATOM     44  C   UNL A   1      44.319  28.983  28.701  1.00  0.00     0.074 A 
ATOM     45  C   UNL A   1      44.496  27.648  28.175  1.00  0.00     0.031 C 
ATOM     46  C   UNL A   1      37.899  29.468  29.084  1.00  0.00     0.029 A 
ATOM     47  C   UNL A   1      38.883  30.488  29.433  1.00  0.00     0.049 A 
ATOM     48  H   UNL A   1      40.955  30.365  29.242  1.00  0.00     0.167 HD
ATOM     49  C   UNL A   1      45.337  29.826  29.001  1.00  0.00     0.034 A 
ATOM     50  C   UNL A   1      38.607  31.703  29.945  1.00  0.00     0.034 A 
ATOM     51  C   UNL A   1      45.137  31.171  29.480  1.00  0.00     0.049 A 
ATOM     52  C   UNL A   1      39.751  32.644  30.228  1.00  0.00     0.074 A 
ATOM     53  C   UNL A   1      46.084  32.138  29.766  1.00  0.00     0.029 A 
ATOM     54  N   UNL A   1      43.896  31.742  29.734  1.00  0.00    -0.354 N 
ATOM     55  N   UNL A   1      41.043  32.436  30.103  1.00  0.00    -0.248 NA
ATOM     56  C   UNL A   1      39.399  33.988  30.701  1.00  0.00     0.031 C 
ATOM     57  C   UNL A   1      45.418  33.277  30.237  1.00  0.00     0.029 A 
ATOM     58  C   UNL A   1      44.053  33.044  30.182  1.00  0.00     0.049 A 
ATOM     59  H   UNL A   1      43.030  31.288  29.613  1.00  0.00     0.167 HD
ATOM     60  C   UNL A   1      41.654  33.638  30.450  1.00  0.00     0.074 A 
ATOM     61  C   UNL A   1      40.589  34.566  30.772  1.00  0.00     0.031 C 
ATOM     62  C   UNL A   1      42.975  33.951  30.496  1.00  0.00     0.034 A 
BRANCH  49  63
ATOM     63  C   UNL A   1      46.743  29.300  28.826  1.00  0.00     0.023 A 
ATOM     64  C   UNL A   1      47.319  29.147  27.551  1.00  0.00     0.031 A 
ATOM     65  C   UNL A   1      47.495  28.884  29.938  1.00  0.00     0.131 A 
ATOM     66  C   UNL A   1      48.557  28.502  27.413  1.00  0.00     0.055 A 
ATOM     67  C   UNL A   1      48.769  28.329  29.799  1.00  0.00     0.041 A 
ATOM     68  F   UNL A   1      46.993  28.984  31.179  1.00  0.00    -0.206 F 
ATOM     69  C   UNL A   1      49.299  28.116  28.530  1.00  0.00     0.022 A 
BRANCH  66  70
ATOM     70  S   UNL A   1      49.098  28.021  25.749  1.00  0.00     0.124 S 
ATOM     71  O   UNL A   1      47.932  28.386  24.946  1.00  0.00    -0.237 OA
ATOM     72  O   UNL A   1      50.289  28.839  25.555  1.00  0.00    -0.237 OA
ATOM     73  O   UNL A   1      49.337  26.585  25.868  1.00  0.00    -0.744 OA
ENDBRANCH  66  70
ENDBRANCH  49  63
BRANCH  50  74
ATOM     74  C   UNL A   1      37.198  32.116  30.205  1.00  0.00     0.023 A 
ATOM     75  C   UNL A   1      36.449  32.783  29.222  1.00  0.00     0.031 A 
ATOM     76  C   UNL A   1      36.592  31.887  31.452  1.00  0.00     0.131 A 
ATOM     77  C   UNL A   1      35.157  33.244  29.518  1.00  0.00     0.055 A 
ATOM     78  C   UNL A   1      35.288  32.304  31.726  1.00  0.00     0.041 A 
ATOM     79  F   UNL A   1      37.259  31.242  32.424  1.00  0.00    -0.206 F 
ATOM     80  C   UNL A   1      34.567  33.000  30.760  1.00  0.00     0.022 A 
BRANCH  77  81
ATOM     81  S   UNL A   1      34.284  34.238  28.276  1.00  0.00     0.124 S 
ATOM     82  O   UNL A   1      35.286  34.340  27.220  1.00  0.00    -0.237 OA
ATOM     83  O   UNL A   1      33.124  33.405  27.983  1.00  0.00    -0.237 OA
ATOM     84  O   UNL A   1      33.992  35.483  28.983  1.00  0.00    -0.744 OA
ENDBRANCH  77  81
ENDBRANCH  50  74
BRANCH  62  85
ATOM     85  C   UNL A   1      43.325  35.373  30.856  1.00  0.00     0.023 A 
ATOM     86  C   UNL A   1      43.314  35.824  32.186  1.00  0.00     0.031 A 
ATOM     87  C   UNL A   1      43.652  36.293  29.845  1.00  0.00     0.131 A 
ATOM     88  C   UNL A   1      43.562  37.175  32.466  1.00  0.00     0.055 A 
ATOM     89  C   UNL A   1      43.958  37.623  30.136  1.00  0.00     0.041 A 
ATOM     90  F   UNL A   1      43.678  35.914  28.557  1.00  0.00    -0.206 F 
ATOM     91  C   UNL A   1      43.899  38.074  31.451  1.00  0.00     0.022 A 
BRANCH  88  92
ATOM     92  S   UNL A   1      43.336  37.766  34.166  1.00  0.00     0.124 S 
ATOM     93  O   UNL A   1      42.248  36.916  34.641  1.00  0.00    -0.237 OA
ATOM     94  O   UNL A   1      44.645  37.517  34.759  1.00  0.00    -0.237 OA
ATOM     95  O   UNL A   1      42.991  39.177  33.994  1.00  0.00    -0.744 OA
ENDBRANCH  88  92
ENDBRANCH  62  85
ENDBRANCH  36  37
ENDBRANCH  28  31
ENDBRANCH  26  27
ENDBRANCH   1  26
TORSDOF 16
ENDMDL
MODEL 2
REMARK VINA RESULT:     -12.0      4.996      8.397
REMARK SMILES C[C@]1(C(=O)N2CCC(CC(=O)NCCCCNC(=O)c3ccc(-c4c5nc(c(-c6cc(S(=O)(=O)[O-])ccc6F)c6ccc([nH]6)c(-c6cc(S(=O)(=O)[O-])ccc6F)c6nc(c(-c7cc(S(=O)(=O)[O-])ccc7F)c7ccc4[nH]7)C=C6)C=C5)cc3)CC2)CCC[NH2+]C1
REMARK SMILES IDX 15 1 14 2 13 3 12 4 10 5 11 6 9 8 8 9 3 10 4 11 5 12 6 13
REMARK SMILES IDX 84 14 7 15 83 16 2 17 1 18 85 19 89 20 86 21 88 22 87 23
REMARK SMILES IDX 16 26 17 27 18 28 19 30 20 31 21 32 82 33 22 34 81 35 23 36
REMARK SMILES IDX 24 37 25 38 75 39 26 40 80 41 74 42 76 43 27 44 79 45 73 46
REMARK SMILES IDX 72 47 28 49 60 50 40 51 59 52 41 53 44 54 58 55 77 56 42 57
REMARK SMILES IDX 43 58 57 60 78 61 45 62 29 63 30 64 38 65 31 66 37 67 39 68
REMARK SMILES IDX 36 69 32 70 33 71 34 72 35 73 61 74 62 75 70 76 63 77 69 78
REMARK SMILES IDX 71 79 68 80 64 81 65 82 66 83 67 84 46 85 47 86 55 87 48 88
REMARK SMILES IDX 54 89 56 90 53 91 49 92 50 93 51 94 52 95
REMARK H PARENT 12 7 88 24 88 25 17 29 76 48 44 59
REMARK Flexibility Score: inf
ROOT
ATOM      1  C   UNL A   1      31.497  31.946  26.696  1.00  0.00     0.023 C 
ENDROOT
BRANCH   1   2
ATOM      2  C   UNL A   1      31.649  30.436  26.701  1.00  0.00     0.023 C 
BRANCH   2   3
ATOM      3  C   UNL A   1      32.518  29.850  25.583  1.00  0.00     0.116 C 
BRANCH   3   4
ATOM      4  N   UNL A   1      31.767  29.751  24.342  1.00  0.00    -0.356 N 
ATOM      5  C   UNL A   1      31.092  28.702  23.794  1.00  0.00     0.220 C 
ATOM      6  O   UNL A   1      30.627  28.837  22.660  1.00  0.00    -0.275 OA
ATOM      7  H   UNL A   1      31.743  30.580  23.811  1.00  0.00     0.163 HD
BRANCH   5   8
ATOM      8  C   UNL A   1      30.901  27.401  24.554  1.00  0.00     0.103 C 
BRANCH   8   9
ATOM      9  C   UNL A   1      31.123  26.132  23.703  1.00  0.00     0.002 C 
ATOM     10  C   UNL A   1      33.313  22.457  23.797  1.00  0.00     0.234 C 
ATOM     11  O   UNL A   1      32.876  21.385  23.373  1.00  0.00    -0.274 OA
ATOM     12  N   UNL A   1      32.582  23.621  23.630  1.00  0.00    -0.342 N 
ATOM     13  C   UNL A   1      31.140  23.582  23.808  1.00  0.00     0.120 C 
ATOM     14  C   UNL A   1      33.037  24.674  22.756  1.00  0.00     0.120 C 
ATOM     15  C   UNL A   1      30.678  24.877  24.478  1.00  0.00     0.026 C 
ATOM     16  C   UNL A   1      32.589  26.024  23.272  1.00  0.00     0.026 C 
BRANCH  10  17
ATOM     17  C   UNL A   1      34.680  22.568  24.535  1.00  0.00     0.095 C 
ATOM     18  C   UNL A   1      35.778  22.983  23.539  1.00  0.00     0.028 C 
ATOM     19  C   UNL A   1      34.668  23.552  25.730  1.00  0.00     0.028 C 
ATOM     20  C   UNL A   1      35.027  21.160  25.094  1.00  0.00     0.277 C 
ATOM     21  C   UNL A   1      33.772  23.068  26.869  1.00  0.00     0.063 C 
ATOM     22  N   UNL A   1      34.134  20.728  26.178  1.00  0.00    -0.345 N 
ATOM     23  C   UNL A   1      34.143  21.654  27.304  1.00  0.00     0.260 C 
ATOM     24  H   UNL A   1      33.184  20.662  25.815  1.00  0.00     0.346 HD
ATOM     25  H   UNL A   1      34.468  19.825  26.515  1.00  0.00     0.346 HD
ENDBRANCH  10  17
ENDBRANCH   8   9
ENDBRANCH   5   8
ENDBRANCH   3   4
ENDBRANCH   2   3
ENDBRANCH   1   2
BRANCH   1  26
ATOM     26  C   UNL A   1      32.758  32.708  27.047  1.00  0.00     0.116 C 
BRANCH  26  27
ATOM     27  N   UNL A   1      32.508  34.000  27.672  1.00  0.00    -0.352 N 
ATOM     28  C   UNL A   1      33.182  34.583  28.722  1.00  0.00     0.251 C 
ATOM     29  H   UNL A   1      31.761  34.520  27.297  1.00  0.00     0.163 HD
ATOM     30  O   UNL A   1      32.780  35.640  29.202  1.00  0.00    -0.269 OA
BRANCH  28  31
ATOM     31  C   UNL A   1      34.359  33.890  29.285  1.00  0.00     0.039 A 
ATOM     32  C   UNL A   1      35.640  34.331  28.949  1.00  0.00     0.014 A 
ATOM     33  C   UNL A   1      34.185  32.866  30.220  1.00  0.00     0.014 A 
ATOM     34  C   UNL A   1      36.745  33.794  29.614  1.00  0.00     0.010 A 
ATOM     35  C   UNL A   1      35.270  32.426  30.962  1.00  0.00     0.010 A 
ATOM     36  C   UNL A   1      36.565  32.868  30.654  1.00  0.00    -0.014 A 
BRANCH  36  37
ATOM     37  C   UNL A   1      37.715  32.290  31.396  1.00  0.00     0.031 A 
ATOM     38  C   UNL A   1      38.498  31.163  30.774  1.00  0.00     0.074 A 
ATOM     39  C   UNL A   1      38.002  32.714  32.643  1.00  0.00     0.049 A 
ATOM     40  N   UNL A   1      39.453  30.432  31.284  1.00  0.00    -0.248 NA
ATOM     41  C   UNL A   1      38.110  30.772  29.408  1.00  0.00     0.031 C 
ATOM     42  C   UNL A   1      37.273  33.753  33.377  1.00  0.00     0.029 A 
ATOM     43  N   UNL A   1      38.980  32.316  33.518  1.00  0.00    -0.354 N 
ATOM     44  C   UNL A   1      39.753  29.477  30.317  1.00  0.00     0.074 A 
ATOM     45  C   UNL A   1      38.820  29.671  29.231  1.00  0.00     0.031 C 
ATOM     46  C   UNL A   1      37.853  33.933  34.575  1.00  0.00     0.029 A 
ATOM     47  C   UNL A   1      38.966  32.999  34.713  1.00  0.00     0.049 A 
ATOM     48  H   UNL A   1      39.631  31.608  33.311  1.00  0.00     0.167 HD
ATOM     49  C   UNL A   1      40.739  28.547  30.318  1.00  0.00     0.034 A 
ATOM     50  C   UNL A   1      39.765  32.883  35.791  1.00  0.00     0.034 A 
ATOM     51  C   UNL A   1      41.689  28.401  31.393  1.00  0.00     0.049 A 
ATOM     52  C   UNL A   1      40.887  31.875  35.754  1.00  0.00     0.074 A 
ATOM     53  C   UNL A   1      42.765  27.537  31.486  1.00  0.00     0.029 A 
ATOM     54  N   UNL A   1      41.680  29.151  32.562  1.00  0.00    -0.354 N 
ATOM     55  N   UNL A   1      41.188  31.009  34.814  1.00  0.00    -0.248 NA
ATOM     56  C   UNL A   1      41.786  31.845  36.914  1.00  0.00     0.031 C 
ATOM     57  C   UNL A   1      43.377  27.732  32.730  1.00  0.00     0.029 A 
ATOM     58  C   UNL A   1      42.725  28.764  33.386  1.00  0.00     0.049 A 
ATOM     59  H   UNL A   1      41.027  29.857  32.775  1.00  0.00     0.167 HD
ATOM     60  C   UNL A   1      42.335  30.354  35.256  1.00  0.00     0.074 A 
ATOM     61  C   UNL A   1      42.676  30.939  36.538  1.00  0.00     0.031 C 
ATOM     62  C   UNL A   1      43.045  29.363  34.659  1.00  0.00     0.034 A 
BRANCH  49  63
ATOM     63  C   UNL A   1      40.818  27.623  29.125  1.00  0.00     0.023 A 
ATOM     64  C   UNL A   1      41.760  27.823  28.099  1.00  0.00     0.031 A 
ATOM     65  C   UNL A   1      39.901  26.569  28.975  1.00  0.00     0.131 A 
ATOM     66  C   UNL A   1      41.698  27.051  26.929  1.00  0.00     0.055 A 
ATOM     67  C   UNL A   1      39.906  25.743  27.848  1.00  0.00     0.041 A 
ATOM     68  F   UNL A   1      38.963  26.339  29.908  1.00  0.00    -0.206 F 
ATOM     69  C   UNL A   1      40.795  25.995  26.807  1.00  0.00     0.022 A 
BRANCH  66  70
ATOM     70  S   UNL A   1      42.697  27.565  25.504  1.00  0.00     0.124 S 
ATOM     71  O   UNL A   1      42.020  28.795  25.100  1.00  0.00    -0.237 OA
ATOM     72  O   UNL A   1      44.023  27.727  26.090  1.00  0.00    -0.237 OA
ATOM     73  O   UNL A   1      42.559  26.450  24.569  1.00  0.00    -0.744 OA
ENDBRANCH  66  70
ENDBRANCH  49  63
BRANCH  50  74
ATOM     74  C   UNL A   1      39.558  33.749  36.988  1.00  0.00     0.023 A 
ATOM     75  C   UNL A   1      38.928  33.249  38.139  1.00  0.00     0.031 A 
ATOM     76  C   UNL A   1      39.950  35.098  36.985  1.00  0.00     0.131 A 
ATOM     77  C   UNL A   1      38.662  34.104  39.220  1.00  0.00     0.055 A 
ATOM     78  C   UNL A   1      39.727  35.934  38.082  1.00  0.00     0.041 A 
ATOM     79  F   UNL A   1      40.569  35.624  35.914  1.00  0.00    -0.206 F 
ATOM     80  C   UNL A   1      39.066  35.441  39.203  1.00  0.00     0.022 A 
BRANCH  77  81
ATOM     81  S   UNL A   1      37.706  33.461  40.621  1.00  0.00     0.124 S 
ATOM     82  O   UNL A   1      36.548  32.880  39.949  1.00  0.00    -0.237 OA
ATOM     83  O   UNL A   1      38.643  32.516  41.218  1.00  0.00    -0.237 OA
ATOM     84  O   UNL A   1      37.431  34.653  41.420  1.00  0.00    -0.744 OA
ENDBRANCH  77  81
ENDBRANCH  50  74
BRANCH  62  85
ATOM     85  C   UNL A   1      44.291  28.897  35.370  1.00  0.00     0.023 A 
ATOM     86  C   UNL A   1      44.260  27.856  36.313  1.00  0.00     0.031 A 
ATOM     87  C   UNL A   1      45.523  29.522  35.111  1.00  0.00     0.131 A 
ATOM     88  C   UNL A   1      45.426  27.513  37.011  1.00  0.00     0.055 A 
ATOM     89  C   UNL A   1      46.693  29.136  35.766  1.00  0.00     0.041 A 
ATOM     90  F   UNL A   1      45.609  30.521  34.219  1.00  0.00    -0.206 F 
ATOM     91  C   UNL A   1      46.646  28.136  36.733  1.00  0.00     0.022 A 
BRANCH  88  92
ATOM     92  S   UNL A   1      45.307  26.313  38.366  1.00  0.00     0.124 S 
ATOM     93  O   UNL A   1      44.812  25.125  37.677  1.00  0.00    -0.237 OA
ATOM     94  O   UNL A   1      46.683  26.246  38.844  1.00  0.00    -0.237 OA
ATOM     95  O   UNL A   1      44.359  26.934  39.290  1.00  0.00    -0.744 OA
ENDBRANCH  88  92
ENDBRANCH  62  85
ENDBRANCH  36  37
ENDBRANCH  28  31
ENDBRANCH  26  27
ENDBRANCH   1  26
TORSDOF 16
ENDMDL
MODEL 3
REMARK VINA RESULT:     -12.0      3.923      9.852
REMARK SMILES C[C@]1(C(=O)N2CCC(CC(=O)NCCCCNC(=O)c3ccc(-c4c5nc(c(-c6cc(S(=O)(=O)[O-])ccc6F)c6ccc([nH]6)c(-c6cc(S(=O)(=O)[O-])ccc6F)c6nc(c(-c7cc(S(=O)(=O)[O-])ccc7F)c7ccc4[nH]7)C=C6)C=C5)cc3)CC2)CCC[NH2+]C1
REMARK SMILES IDX 15 1 14 2 13 3 12 4 10 5 11 6 9 8 8 9 3 10 4 11 5 12 6 13
REMARK SMILES IDX 84 14 7 15 83 16 2 17 1 18 85 19 89 20 86 21 88 22 87 23
REMARK SMILES IDX 16 26 17 27 18 28 19 30 20 31 21 32 82 33 22 34 81 35 23 36
REMARK SMILES IDX 24 37 25 38 75 39 26 40 80 41 74 42 76 43 27 44 79 45 73 46
REMARK SMILES IDX 72 47 28 49 60 50 40 51 59 52 41 53 44 54 58 55 77 56 42 57
REMARK SMILES IDX 43 58 57 60 78 61 45 62 29 63 30 64 38 65 31 66 37 67 39 68
REMARK SMILES IDX 36 69 32 70 33 71 34 72 35 73 61 74 62 75 70 76 63 77 69 78
REMARK SMILES IDX 71 79 68 80 64 81 65 82 66 83 67 84 46 85 47 86 55 87 48 88
REMARK SMILES IDX 54 89 56 90 53 91 49 92 50 93 51 94 52 95
REMARK H PARENT 12 7 88 24 88 25 17 29 76 48 44 59
REMARK Flexibility Score: inf
ROOT
ATOM      1  C   UNL A   1      32.940  28.159  26.731  1.00  0.00     0.023 C 
ENDROOT
BRANCH   1   2
ATOM      2  C   UNL A   1      32.765  26.919  25.875  1.00  0.00     0.023 C 
BRANCH   2   3
ATOM      3  C   UNL A   1      31.892  27.089  24.627  1.00  0.00     0.116 C 
BRANCH   3   4
ATOM      4  N   UNL A   1      32.692  26.991  23.418  1.00  0.00    -0.356 N 
ATOM      5  C   UNL A   1      33.002  25.914  22.643  1.00  0.00     0.220 C 
ATOM      6  O   UNL A   1      33.805  26.071  21.721  1.00  0.00    -0.275 OA
ATOM      7  H   UNL A   1      33.072  27.844  23.108  1.00  0.00     0.163 HD
BRANCH   5   8
ATOM      8  C   UNL A   1      32.371  24.554  22.891  1.00  0.00     0.103 C 
BRANCH   8   9
ATOM      9  C   UNL A   1      33.128  23.684  23.918  1.00  0.00     0.002 C 
ATOM     10  C   UNL A   1      34.238  19.604  24.578  1.00  0.00     0.234 C 
ATOM     11  O   UNL A   1      35.312  19.255  25.073  1.00  0.00    -0.274 OA
ATOM     12  N   UNL A   1      33.913  20.947  24.499  1.00  0.00    -0.342 N 
ATOM     13  C   UNL A   1      34.945  21.904  24.138  1.00  0.00     0.120 C 
ATOM     14  C   UNL A   1      32.843  21.508  25.286  1.00  0.00     0.120 C 
ATOM     15  C   UNL A   1      34.337  22.996  23.255  1.00  0.00     0.026 C 
ATOM     16  C   UNL A   1      32.184  22.655  24.549  1.00  0.00     0.026 C 
BRANCH  10  17
ATOM     17  C   UNL A   1      33.205  18.582  24.020  1.00  0.00     0.095 C 
ATOM     18  C   UNL A   1      32.246  19.289  23.045  1.00  0.00     0.028 C 
ATOM     19  C   UNL A   1      33.847  17.362  23.317  1.00  0.00     0.028 C 
ATOM     20  C   UNL A   1      32.379  18.045  25.222  1.00  0.00     0.277 C 
ATOM     21  C   UNL A   1      34.622  16.475  24.291  1.00  0.00     0.063 C 
ATOM     22  N   UNL A   1      33.164  17.208  26.141  1.00  0.00    -0.345 N 
ATOM     23  C   UNL A   1      33.752  16.054  25.471  1.00  0.00     0.260 C 
ATOM     24  H   UNL A   1      33.913  17.772  26.541  1.00  0.00     0.346 HD
ATOM     25  H   UNL A   1      32.532  16.861  26.862  1.00  0.00     0.346 HD
ENDBRANCH  10  17
ENDBRANCH   8   9
ENDBRANCH   5   8
ENDBRANCH   3   4
ENDBRANCH   2   3
ENDBRANCH   1   2
BRANCH   1  26
ATOM     26  C   UNL A   1      33.825  29.227  26.123  1.00  0.00     0.116 C 
BRANCH  26  27
ATOM     27  N   UNL A   1      33.713  30.524  26.777  1.00  0.00    -0.352 N 
ATOM     28  C   UNL A   1      34.550  31.079  27.719  1.00  0.00     0.251 C 
ATOM     29  H   UNL A   1      32.939  31.073  26.512  1.00  0.00     0.163 HD
ATOM     30  O   UNL A   1      34.259  32.147  28.250  1.00  0.00    -0.269 OA
BRANCH  28  31
ATOM     31  C   UNL A   1      35.770  30.342  28.109  1.00  0.00     0.039 A 
ATOM     32  C   UNL A   1      36.907  30.424  27.304  1.00  0.00     0.014 A 
ATOM     33  C   UNL A   1      35.810  29.650  29.322  1.00  0.00     0.014 A 
ATOM     34  C   UNL A   1      38.109  29.875  27.758  1.00  0.00     0.010 A 
ATOM     35  C   UNL A   1      37.028  29.216  29.823  1.00  0.00     0.010 A 
ATOM     36  C   UNL A   1      38.187  29.304  29.039  1.00  0.00    -0.014 A 
BRANCH  36  37
ATOM     37  C   UNL A   1      39.452  28.728  29.564  1.00  0.00     0.031 A 
ATOM     38  C   UNL A   1      40.123  29.386  30.742  1.00  0.00     0.074 A 
ATOM     39  C   UNL A   1      40.031  27.681  28.945  1.00  0.00     0.049 A 
ATOM     40  N   UNL A   1      41.284  29.132  31.287  1.00  0.00    -0.248 NA
ATOM     41  C   UNL A   1      39.412  30.521  31.351  1.00  0.00     0.031 C 
ATOM     42  C   UNL A   1      39.510  27.001  27.755  1.00  0.00     0.029 A 
ATOM     43  N   UNL A   1      41.193  27.009  29.225  1.00  0.00    -0.354 N 
ATOM     44  C   UNL A   1      41.454  30.096  32.276  1.00  0.00     0.074 A 
ATOM     45  C   UNL A   1      40.318  30.986  32.194  1.00  0.00     0.031 C 
ATOM     46  C   UNL A   1      40.331  25.989  27.432  1.00  0.00     0.029 A 
ATOM     47  C   UNL A   1      41.455  25.969  28.363  1.00  0.00     0.049 A 
ATOM     48  H   UNL A   1      41.786  27.248  29.975  1.00  0.00     0.167 HD
ATOM     49  C   UNL A   1      42.446  30.208  33.192  1.00  0.00     0.034 A 
ATOM     50  C   UNL A   1      42.485  25.101  28.332  1.00  0.00     0.034 A 
ATOM     51  C   UNL A   1      43.546  29.281  33.285  1.00  0.00     0.049 A 
ATOM     52  C   UNL A   1      43.555  25.212  29.389  1.00  0.00     0.074 A 
ATOM     53  C   UNL A   1      44.581  29.255  34.203  1.00  0.00     0.029 A 
ATOM     54  N   UNL A   1      43.746  28.205  32.431  1.00  0.00    -0.354 N 
ATOM     55  N   UNL A   1      43.679  26.101  30.349  1.00  0.00    -0.248 NA
ATOM     56  C   UNL A   1      44.609  24.192  29.372  1.00  0.00     0.031 C 
ATOM     57  C   UNL A   1      45.431  28.192  33.874  1.00  0.00     0.029 A 
ATOM     58  C   UNL A   1      44.892  27.514  32.793  1.00  0.00     0.049 A 
ATOM     59  H   UNL A   1      43.159  27.966  31.676  1.00  0.00     0.167 HD
ATOM     60  C   UNL A   1      44.809  25.724  31.069  1.00  0.00     0.074 A 
ATOM     61  C   UNL A   1      45.316  24.520  30.442  1.00  0.00     0.031 C 
ATOM     62  C   UNL A   1      45.377  26.315  32.152  1.00  0.00     0.034 A 
BRANCH  49  63
ATOM     63  C   UNL A   1      42.377  31.379  34.145  1.00  0.00     0.023 A 
ATOM     64  C   UNL A   1      41.535  31.362  35.273  1.00  0.00     0.031 A 
ATOM     65  C   UNL A   1      43.108  32.552  33.892  1.00  0.00     0.131 A 
ATOM     66  C   UNL A   1      41.368  32.524  36.041  1.00  0.00     0.055 A 
ATOM     67  C   UNL A   1      43.009  33.674  34.718  1.00  0.00     0.041 A 
ATOM     68  F   UNL A   1      43.913  32.638  32.821  1.00  0.00    -0.206 F 
ATOM     69  C   UNL A   1      42.120  33.672  35.789  1.00  0.00     0.022 A 
BRANCH  66  70
ATOM     70  S   UNL A   1      40.028  32.563  37.264  1.00  0.00     0.124 S 
ATOM     71  O   UNL A   1      39.474  33.898  37.047  1.00  0.00    -0.237 OA
ATOM     72  O   UNL A   1      39.187  31.447  36.848  1.00  0.00    -0.237 OA
ATOM     73  O   UNL A   1      40.721  32.384  38.538  1.00  0.00    -0.744 OA
ENDBRANCH  66  70
ENDBRANCH  49  63
BRANCH  50  74
ATOM     74  C   UNL A   1      42.553  24.038  27.288  1.00  0.00     0.023 A 
ATOM     75  C   UNL A   1      41.709  22.917  27.345  1.00  0.00     0.031 A 
ATOM     76  C   UNL A   1      43.488  24.107  26.242  1.00  0.00     0.131 A 
ATOM     77  C   UNL A   1      41.851  21.885  26.404  1.00  0.00     0.055 A 
ATOM     78  C   UNL A   1      43.593  23.100  25.279  1.00  0.00     0.041 A 
ATOM     79  F   UNL A   1      44.310  25.163  26.133  1.00  0.00    -0.206 F 
ATOM     80  C   UNL A   1      42.780  21.973  25.366  1.00  0.00     0.022 A 
BRANCH  77  81
ATOM     81  S   UNL A   1      40.852  20.383  26.606  1.00  0.00     0.124 S 
ATOM     82  O   UNL A   1      40.869  20.208  28.055  1.00  0.00    -0.237 OA
ATOM     83  O   UNL A   1      39.578  20.787  26.023  1.00  0.00    -0.237 OA
ATOM     84  O   UNL A   1      41.593  19.379  25.846  1.00  0.00    -0.744 OA
ENDBRANCH  77  81
ENDBRANCH  50  74
BRANCH  62  85
ATOM     85  C   UNL A   1      46.576  25.625  32.752  1.00  0.00     0.023 A 
ATOM     86  C   UNL A   1      47.863  25.772  32.209  1.00  0.00     0.031 A 
ATOM     87  C   UNL A   1      46.419  24.791  33.873  1.00  0.00     0.131 A 
ATOM     88  C   UNL A   1      48.934  25.044  32.747  1.00  0.00     0.055 A 
ATOM     89  C   UNL A   1      47.500  24.117  34.442  1.00  0.00     0.041 A 
ATOM     90  F   UNL A   1      45.211  24.616  34.432  1.00  0.00    -0.206 F 
ATOM     91  C   UNL A   1      48.764  24.229  33.869  1.00  0.00     0.022 A 
BRANCH  88  92
ATOM     92  S   UNL A   1      50.534  25.095  31.895  1.00  0.00     0.124 S 
ATOM     93  O   UNL A   1      50.167  25.632  30.588  1.00  0.00    -0.237 OA
ATOM     94  O   UNL A   1      51.315  25.983  32.751  1.00  0.00    -0.237 OA
ATOM     95  O   UNL A   1      50.966  23.699  31.893  1.00  0.00    -0.744 OA
ENDBRANCH  88  92
ENDBRANCH  62  85
ENDBRANCH  36  37
ENDBRANCH  28  31
ENDBRANCH  26  27
ENDBRANCH   1  26
TORSDOF 16
ENDMDL
