MODEL 1
REMARK VINA RESULT:     -11.3      0.000      0.000
REMARK SMILES O=C(CCN1C(=O)/C(=C/c2cc(Br)cc(Br)c2O)SC1=S)NCCCCNC(=O)c1ccc(-c2c3nc(c(-c4cc(S(=O)(=O)[O-])ccc4F)c4ccc([nH]4)c(-c4cc(S(=O)(=O)[O-])ccc4F)c4nc(c(-c5cc(S(=O)(=O)[O-])ccc5F)c5ccc2[nH]5)C=C4)C=C3)cc1
REMARK SMILES IDX 24 1 23 2 22 3 1 4 2 5 3 7 4 8 5 9 6 10 20 11 7 12 8 13
REMARK SMILES IDX 19 14 21 15 9 16 10 17 11 18 17 19 12 20 15 21 13 22 14 23
REMARK SMILES IDX 16 24 18 25 25 27 26 28 27 29 28 30 29 32 30 33 31 34 92 35
REMARK SMILES IDX 32 36 91 37 33 38 34 39 35 40 85 41 36 42 90 43 84 44 86 45
REMARK SMILES IDX 37 46 89 47 83 48 82 49 38 51 70 52 50 53 69 54 51 55 54 56
REMARK SMILES IDX 68 57 87 58 52 59 53 60 67 62 88 63 55 64 39 65 40 66 48 67
REMARK SMILES IDX 41 68 47 69 49 70 46 71 42 72 43 73 44 74 45 75 71 76 72 77
REMARK SMILES IDX 80 78 73 79 79 80 81 81 78 82 74 83 75 84 76 85 77 86 56 87
REMARK SMILES IDX 57 88 65 89 58 90 64 91 66 92 63 93 59 94 60 95 61 96 62 97
REMARK H PARENT 22 6 18 26 27 31 86 50 54 61
REMARK Flexibility Score: inf
ROOT
ATOM      1  C   UNL A   1      38.029  21.630  25.419  1.00  0.00     0.023 C 
ENDROOT
BRANCH   1   2
ATOM      2  C   UNL A   1      36.507  21.600  25.563  1.00  0.00     0.116 C 
BRANCH   2   3
ATOM      3  N   UNL A   1      35.818  22.075  24.374  1.00  0.00    -0.356 N 
ATOM      4  O   UNL A   1      34.592  23.705  25.443  1.00  0.00    -0.275 OA
ATOM      5  C   UNL A   1      34.928  23.128  24.413  1.00  0.00     0.221 C 
ATOM      6  H   UNL A   1      35.993  21.632  23.513  1.00  0.00     0.163 HD
BRANCH   5   7
ATOM      7  C   UNL A   1      34.393  23.546  23.062  1.00  0.00     0.122 C 
BRANCH   7   8
ATOM      8  C   UNL A   1      32.930  23.129  22.877  1.00  0.00     0.137 C 
BRANCH   8   9
ATOM      9  N   UNL A   1      31.992  24.194  23.247  1.00  0.00    -0.292 N 
ATOM     10  C   UNL A   1      31.886  25.284  22.404  1.00  0.00     0.266 C 
ATOM     11  C   UNL A   1      31.231  24.229  24.399  1.00  0.00     0.148 C 
ATOM     12  O   UNL A   1      32.456  25.416  21.326  1.00  0.00    -0.268 OA
ATOM     13  C   UNL A   1      31.086  26.351  23.046  1.00  0.00     0.081 C 
ATOM     14  S   UNL A   1      30.468  25.810  24.550  1.00  0.00    -0.054 SA
ATOM     15  S   UNL A   1      31.034  23.036  25.544  1.00  0.00    -0.052 S 
ATOM     16  C   UNL A   1      31.062  27.578  22.515  1.00  0.00     0.033 C 
BRANCH  16  17
ATOM     17  C   UNL A   1      30.618  28.782  23.217  1.00  0.00     0.020 A 
ATOM     18  C   UNL A   1      31.329  29.117  24.375  1.00  0.00     0.027 A 
ATOM     19  C   UNL A   1      29.591  29.620  22.769  1.00  0.00     0.137 A 
ATOM     20  C   UNL A   1      31.043  30.288  25.058  1.00  0.00     0.019 A 
ATOM     21  C   UNL A   1      29.271  30.773  23.491  1.00  0.00     0.061 A 
ATOM     22  Br  UNL A   1      32.136  30.737  26.531  1.00  0.00    -0.051 Br
ATOM     23  C   UNL A   1      30.016  31.115  24.621  1.00  0.00     0.035 A 
ATOM     24  Br  UNL A   1      27.884  31.940  22.942  1.00  0.00    -0.047 Br
BRANCH  19  25
ATOM     25  O   UNL A   1      28.923  29.334  21.611  1.00  0.00    -0.506 OA
ATOM     26  H   UNL A   1      29.099  28.534  21.154  1.00  0.00     0.293 HD
ENDBRANCH  19  25
ENDBRANCH  16  17
ENDBRANCH   8   9
ENDBRANCH   7   8
ENDBRANCH   5   7
ENDBRANCH   2   3
ENDBRANCH   1   2
BRANCH   1  27
ATOM     27  C   UNL A   1      38.679  20.305  25.000  1.00  0.00     0.023 C 
BRANCH  27  28
ATOM     28  C   UNL A   1      39.185  19.414  26.138  1.00  0.00     0.116 C 
BRANCH  28  29
ATOM     29  N   UNL A   1      40.487  18.829  25.864  1.00  0.00    -0.352 N 
ATOM     30  C   UNL A   1      41.751  19.378  25.852  1.00  0.00     0.251 C 
ATOM     31  H   UNL A   1      40.461  17.868  25.648  1.00  0.00     0.163 HD
ATOM     32  O   UNL A   1      42.682  18.680  25.451  1.00  0.00    -0.269 OA
BRANCH  30  33
ATOM     33  C   UNL A   1      42.019  20.781  26.271  1.00  0.00     0.039 A 
ATOM     34  C   UNL A   1      42.248  21.045  27.629  1.00  0.00     0.014 A 
ATOM     35  C   UNL A   1      42.006  21.848  25.376  1.00  0.00     0.014 A 
ATOM     36  C   UNL A   1      42.544  22.347  28.071  1.00  0.00     0.010 A 
ATOM     37  C   UNL A   1      42.378  23.130  25.807  1.00  0.00     0.010 A 
ATOM     38  C   UNL A   1      42.670  23.404  27.159  1.00  0.00    -0.014 A 
BRANCH  38  39
ATOM     39  C   UNL A   1      43.135  24.778  27.557  1.00  0.00     0.031 A 
ATOM     40  C   UNL A   1      42.153  25.792  28.100  1.00  0.00     0.074 A 
ATOM     41  C   UNL A   1      44.388  25.200  27.263  1.00  0.00     0.049 A 
ATOM     42  N   UNL A   1      42.308  27.080  28.292  1.00  0.00    -0.248 NA
ATOM     43  C   UNL A   1      40.816  25.292  28.448  1.00  0.00     0.031 C 
ATOM     44  C   UNL A   1      45.461  24.381  26.698  1.00  0.00     0.029 A 
ATOM     45  N   UNL A   1      44.932  26.468  27.284  1.00  0.00    -0.354 N 
ATOM     46  C   UNL A   1      41.094  27.540  28.791  1.00  0.00     0.074 A 
ATOM     47  C   UNL A   1      40.184  26.413  28.762  1.00  0.00     0.031 C 
ATOM     48  C   UNL A   1      46.476  25.174  26.317  1.00  0.00     0.029 A 
ATOM     49  C   UNL A   1      46.150  26.557  26.643  1.00  0.00     0.049 A 
ATOM     50  H   UNL A   1      44.492  27.236  27.716  1.00  0.00     0.167 HD
ATOM     51  C   UNL A   1      40.775  28.764  29.287  1.00  0.00     0.034 A 
ATOM     52  C   UNL A   1      46.920  27.619  26.331  1.00  0.00     0.034 A 
ATOM     53  C   UNL A   1      41.684  29.885  29.331  1.00  0.00     0.049 A 
ATOM     54  C   UNL A   1      46.530  28.995  26.804  1.00  0.00     0.074 A 
ATOM     55  C   UNL A   1      41.503  31.116  29.939  1.00  0.00     0.029 A 
ATOM     56  N   UNL A   1      42.929  29.927  28.723  1.00  0.00    -0.354 N 
ATOM     57  N   UNL A   1      45.436  29.377  27.415  1.00  0.00    -0.248 NA
ATOM     58  C   UNL A   1      47.511  30.070  26.600  1.00  0.00     0.031 C 
ATOM     59  C   UNL A   1      42.603  31.926  29.635  1.00  0.00     0.029 A 
ATOM     60  C   UNL A   1      43.510  31.173  28.911  1.00  0.00     0.049 A 
ATOM     61  H   UNL A   1      43.341  29.182  28.229  1.00  0.00     0.167 HD
ATOM     62  C   UNL A   1      45.634  30.718  27.739  1.00  0.00     0.074 A 
ATOM     63  C   UNL A   1      46.942  31.081  27.238  1.00  0.00     0.031 C 
ATOM     64  C   UNL A   1      44.815  31.555  28.423  1.00  0.00     0.034 A 
BRANCH  51  65
ATOM     65  C   UNL A   1      39.386  28.945  29.856  1.00  0.00     0.023 A 
ATOM     66  C   UNL A   1      38.357  29.524  29.091  1.00  0.00     0.031 A 
ATOM     67  C   UNL A   1      39.080  28.542  31.168  1.00  0.00     0.131 A 
ATOM     68  C   UNL A   1      37.106  29.773  29.671  1.00  0.00     0.055 A 
ATOM     69  C   UNL A   1      37.801  28.706  31.708  1.00  0.00     0.041 A 
ATOM     70  F   UNL A   1      40.018  27.989  31.951  1.00  0.00    -0.206 F 
ATOM     71  C   UNL A   1      36.811  29.343  30.965  1.00  0.00     0.022 A 
BRANCH  68  72
ATOM     72  S   UNL A   1      35.930  30.809  28.758  1.00  0.00     0.124 S 
ATOM     73  O   UNL A   1      35.149  29.803  28.041  1.00  0.00    -0.237 OA
ATOM     74  O   UNL A   1      35.234  31.515  29.827  1.00  0.00    -0.237 OA
ATOM     75  O   UNL A   1      36.787  31.639  27.916  1.00  0.00    -0.744 OA
ENDBRANCH  68  72
ENDBRANCH  51  65
BRANCH  52  76
ATOM     76  C   UNL A   1      48.185  27.436  25.562  1.00  0.00     0.023 A 
ATOM     77  C   UNL A   1      48.229  27.720  24.189  1.00  0.00     0.031 A 
ATOM     78  C   UNL A   1      49.336  26.905  26.169  1.00  0.00     0.131 A 
ATOM     79  C   UNL A   1      49.377  27.408  23.448  1.00  0.00     0.055 A 
ATOM     80  C   UNL A   1      50.494  26.640  25.434  1.00  0.00     0.041 A 
ATOM     81  F   UNL A   1      49.347  26.629  27.482  1.00  0.00    -0.206 F 
ATOM     82  C   UNL A   1      50.513  26.877  24.061  1.00  0.00     0.022 A 
BRANCH  79  83
ATOM     83  S   UNL A   1      49.323  27.622  21.648  1.00  0.00     0.124 S 
ATOM     84  O   UNL A   1      50.239  26.578  21.200  1.00  0.00    -0.237 OA
ATOM     85  O   UNL A   1      47.910  27.404  21.361  1.00  0.00    -0.237 OA
ATOM     86  O   UNL A   1      49.792  28.992  21.455  1.00  0.00    -0.744 OA
ENDBRANCH  79  83
ENDBRANCH  52  76
BRANCH  64  87
ATOM     87  C   UNL A   1      45.342  32.930  28.761  1.00  0.00     0.023 A 
ATOM     88  C   UNL A   1      45.261  34.010  27.863  1.00  0.00     0.031 A 
ATOM     89  C   UNL A   1      45.951  33.159  30.009  1.00  0.00     0.131 A 
ATOM     90  C   UNL A   1      45.826  35.250  28.206  1.00  0.00     0.055 A 
ATOM     91  C   UNL A   1      46.451  34.411  30.371  1.00  0.00     0.041 A 
ATOM     92  F   UNL A   1      46.068  32.166  30.905  1.00  0.00    -0.206 F 
ATOM     93  C   UNL A   1      46.401  35.462  29.461  1.00  0.00     0.022 A 
BRANCH  90  94
ATOM     94  S   UNL A   1      45.885  36.560  26.951  1.00  0.00     0.124 S 
ATOM     95  O   UNL A   1      46.870  37.477  27.515  1.00  0.00    -0.237 OA
ATOM     96  O   UNL A   1      46.302  35.831  25.758  1.00  0.00    -0.237 OA
ATOM     97  O   UNL A   1      44.514  37.066  26.919  1.00  0.00    -0.744 OA
ENDBRANCH  90  94
ENDBRANCH  64  87
ENDBRANCH  38  39
ENDBRANCH  30  33
ENDBRANCH  28  29
ENDBRANCH  27  28
ENDBRANCH   1  27
TORSDOF 18
ENDMDL
MODEL 2
REMARK VINA RESULT:     -11.3      2.295      7.640
REMARK SMILES O=C(CCN1C(=O)/C(=C/c2cc(Br)cc(Br)c2O)SC1=S)NCCCCNC(=O)c1ccc(-c2c3nc(c(-c4cc(S(=O)(=O)[O-])ccc4F)c4ccc([nH]4)c(-c4cc(S(=O)(=O)[O-])ccc4F)c4nc(c(-c5cc(S(=O)(=O)[O-])ccc5F)c5ccc2[nH]5)C=C4)C=C3)cc1
REMARK SMILES IDX 24 1 23 2 22 3 1 4 2 5 3 7 4 8 5 9 6 10 20 11 7 12 8 13
REMARK SMILES IDX 19 14 21 15 9 16 10 17 11 18 17 19 12 20 15 21 13 22 14 23
REMARK SMILES IDX 16 24 18 25 25 27 26 28 27 29 28 30 29 32 30 33 31 34 92 35
REMARK SMILES IDX 32 36 91 37 33 38 34 39 35 40 85 41 36 42 90 43 84 44 86 45
REMARK SMILES IDX 37 46 89 47 83 48 82 49 38 51 70 52 50 53 69 54 51 55 54 56
REMARK SMILES IDX 68 57 87 58 52 59 53 60 67 62 88 63 55 64 39 65 40 66 48 67
REMARK SMILES IDX 41 68 47 69 49 70 46 71 42 72 43 73 44 74 45 75 71 76 72 77
REMARK SMILES IDX 80 78 73 79 79 80 81 81 78 82 74 83 75 84 76 85 77 86 56 87
REMARK SMILES IDX 57 88 65 89 58 90 64 91 66 92 63 93 59 94 60 95 61 96 62 97
REMARK H PARENT 22 6 18 26 27 31 86 50 54 61
REMARK Flexibility Score: inf
ROOT
ATOM      1  C   UNL A   1      39.652  22.837  26.944  1.00  0.00     0.023 C 
ENDROOT
BRANCH   1   2
ATOM      2  C   UNL A   1      38.627  23.845  26.425  1.00  0.00     0.116 C 
BRANCH   2   3
ATOM      3  N   UNL A   1      37.266  23.335  26.463  1.00  0.00    -0.356 N 
ATOM      4  O   UNL A   1      37.093  22.942  24.201  1.00  0.00    -0.275 OA
ATOM      5  C   UNL A   1      36.617  22.889  25.330  1.00  0.00     0.221 C 
ATOM      6  H   UNL A   1      36.792  23.306  27.325  1.00  0.00     0.163 HD
BRANCH   5   7
ATOM      7  C   UNL A   1      35.248  22.298  25.585  1.00  0.00     0.122 C 
BRANCH   7   8
ATOM      8  C   UNL A   1      34.449  22.140  24.287  1.00  0.00     0.137 C 
BRANCH   8   9
ATOM      9  N   UNL A   1      33.394  23.151  24.153  1.00  0.00    -0.292 N 
ATOM     10  C   UNL A   1      33.674  24.284  23.413  1.00  0.00     0.266 C 
ATOM     11  C   UNL A   1      32.147  23.093  24.744  1.00  0.00     0.148 C 
ATOM     12  O   UNL A   1      34.710  24.497  22.792  1.00  0.00    -0.268 OA
ATOM     13  C   UNL A   1      32.597  25.284  23.583  1.00  0.00     0.081 C 
ATOM     14  S   UNL A   1      31.324  24.636  24.530  1.00  0.00    -0.054 SA
ATOM     15  S   UNL A   1      31.458  21.828  25.581  1.00  0.00    -0.052 S 
ATOM     16  C   UNL A   1      32.778  26.539  23.158  1.00  0.00     0.033 C 
BRANCH  16  17
ATOM     17  C   UNL A   1      31.967  27.685  23.568  1.00  0.00     0.020 A 
ATOM     18  C   UNL A   1      32.277  28.245  24.812  1.00  0.00     0.027 A 
ATOM     19  C   UNL A   1      30.969  28.264  22.777  1.00  0.00     0.137 A 
ATOM     20  C   UNL A   1      31.626  29.388  25.246  1.00  0.00     0.019 A 
ATOM     21  C   UNL A   1      30.278  29.386  23.243  1.00  0.00     0.061 A 
ATOM     22  Br  UNL A   1      32.196  30.161  26.873  1.00  0.00    -0.051 Br
ATOM     23  C   UNL A   1      30.626  29.958  24.468  1.00  0.00     0.035 A 
ATOM     24  Br  UNL A   1      28.909  30.209  22.224  1.00  0.00    -0.047 Br
BRANCH  19  25
ATOM     25  O   UNL A   1      30.691  27.760  21.538  1.00  0.00    -0.506 OA
ATOM     26  H   UNL A   1      31.247  27.967  20.812  1.00  0.00     0.293 HD
ENDBRANCH  19  25
ENDBRANCH  16  17
ENDBRANCH   8   9
ENDBRANCH   7   8
ENDBRANCH   5   7
ENDBRANCH   2   3
ENDBRANCH   1   2
BRANCH   1  27
ATOM     27  C   UNL A   1      39.766  21.536  26.139  1.00  0.00     0.023 C 
BRANCH  27  28
ATOM     28  C   UNL A   1      40.459  20.366  26.842  1.00  0.00     0.116 C 
BRANCH  28  29
ATOM     29  N   UNL A   1      41.617  19.873  26.114  1.00  0.00    -0.352 N 
ATOM     30  C   UNL A   1      42.765  20.504  25.688  1.00  0.00     0.251 C 
ATOM     31  H   UNL A   1      41.572  18.917  25.884  1.00  0.00     0.163 HD
ATOM     32  O   UNL A   1      43.538  19.876  24.965  1.00  0.00    -0.269 OA
BRANCH  30  33
ATOM     33  C   UNL A   1      43.083  21.916  26.042  1.00  0.00     0.039 A 
ATOM     34  C   UNL A   1      43.117  22.874  25.019  1.00  0.00     0.014 A 
ATOM     35  C   UNL A   1      43.392  22.314  27.341  1.00  0.00     0.014 A 
ATOM     36  C   UNL A   1      43.374  24.226  25.306  1.00  0.00     0.010 A 
ATOM     37  C   UNL A   1      43.570  23.673  27.634  1.00  0.00     0.010 A 
ATOM     38  C   UNL A   1      43.550  24.660  26.626  1.00  0.00    -0.014 A 
BRANCH  38  39
ATOM     39  C   UNL A   1      43.672  26.112  27.003  1.00  0.00     0.031 A 
ATOM     40  C   UNL A   1      45.034  26.740  27.199  1.00  0.00     0.074 A 
ATOM     41  C   UNL A   1      42.582  26.831  27.360  1.00  0.00     0.049 A 
ATOM     42  N   UNL A   1      45.347  27.898  27.728  1.00  0.00    -0.248 NA
ATOM     43  C   UNL A   1      46.192  25.949  26.762  1.00  0.00     0.031 C 
ATOM     44  C   UNL A   1      41.191  26.383  27.281  1.00  0.00     0.029 A 
ATOM     45  N   UNL A   1      42.486  28.058  27.985  1.00  0.00    -0.354 N 
ATOM     46  C   UNL A   1      46.735  27.977  27.680  1.00  0.00     0.074 A 
ATOM     47  C   UNL A   1      47.202  26.701  27.173  1.00  0.00     0.031 C 
ATOM     48  C   UNL A   1      40.403  27.251  27.936  1.00  0.00     0.029 A 
ATOM     49  C   UNL A   1      41.220  28.343  28.452  1.00  0.00     0.049 A 
ATOM     50  H   UNL A   1      43.249  28.672  28.087  1.00  0.00     0.167 HD
ATOM     51  C   UNL A   1      47.548  29.026  27.967  1.00  0.00     0.034 A 
ATOM     52  C   UNL A   1      40.756  29.350  29.220  1.00  0.00     0.034 A 
ATOM     53  C   UNL A   1      47.085  30.302  28.457  1.00  0.00     0.049 A 
ATOM     54  C   UNL A   1      41.673  30.477  29.615  1.00  0.00     0.074 A 
ATOM     55  C   UNL A   1      47.811  31.468  28.642  1.00  0.00     0.029 A 
ATOM     56  N   UNL A   1      45.790  30.578  28.869  1.00  0.00    -0.354 N 
ATOM     57  N   UNL A   1      42.963  30.598  29.419  1.00  0.00    -0.248 NA
ATOM     58  C   UNL A   1      41.056  31.633  30.280  1.00  0.00     0.031 C 
ATOM     59  C   UNL A   1      46.975  32.421  29.234  1.00  0.00     0.029 A 
ATOM     60  C   UNL A   1      45.705  31.881  29.339  1.00  0.00     0.049 A 
ATOM     61  H   UNL A   1      45.040  29.941  28.833  1.00  0.00     0.167 HD
ATOM     62  C   UNL A   1      43.294  31.876  29.864  1.00  0.00     0.074 A 
ATOM     63  C   UNL A   1      42.073  32.477  30.356  1.00  0.00     0.031 C 
ATOM     64  C   UNL A   1      44.497  32.501  29.830  1.00  0.00     0.034 A 
BRANCH  51  65
ATOM     65  C   UNL A   1      49.029  28.846  27.723  1.00  0.00     0.023 A 
ATOM     66  C   UNL A   1      49.583  29.029  26.443  1.00  0.00     0.031 A 
ATOM     67  C   UNL A   1      49.900  28.488  28.768  1.00  0.00     0.131 A 
ATOM     68  C   UNL A   1      50.940  28.760  26.219  1.00  0.00     0.055 A 
ATOM     69  C   UNL A   1      51.271  28.315  28.556  1.00  0.00     0.041 A 
ATOM     70  F   UNL A   1      49.434  28.292  30.011  1.00  0.00    -0.206 F 
ATOM     71  C   UNL A   1      51.794  28.432  27.272  1.00  0.00     0.022 A 
BRANCH  68  72
ATOM     72  S   UNL A   1      51.528  28.693  24.505  1.00  0.00     0.124 S 
ATOM     73  O   UNL A   1      50.323  28.262  23.798  1.00  0.00    -0.237 OA
ATOM     74  O   UNL A   1      51.955  30.065  24.262  1.00  0.00    -0.237 OA
ATOM     75  O   UNL A   1      52.602  27.703  24.551  1.00  0.00    -0.744 OA
ENDBRANCH  68  72
ENDBRANCH  51  65
BRANCH  52  76
ATOM     76  C   UNL A   1      39.326  29.383  29.639  1.00  0.00     0.023 A 
ATOM     77  C   UNL A   1      38.396  30.160  28.933  1.00  0.00     0.031 A 
ATOM     78  C   UNL A   1      38.888  28.704  30.789  1.00  0.00     0.131 A 
ATOM     79  C   UNL A   1      37.088  30.299  29.419  1.00  0.00     0.055 A 
ATOM     80  C   UNL A   1      37.570  28.808  31.243  1.00  0.00     0.041 A 
ATOM     81  F   UNL A   1      39.737  27.937  31.491  1.00  0.00    -0.206 F 
ATOM     82  C   UNL A   1      36.666  29.622  30.565  1.00  0.00     0.022 A 
BRANCH  79  83
ATOM     83  S   UNL A   1      35.976  31.457  28.577  1.00  0.00     0.124 S 
ATOM     84  O   UNL A   1      34.866  31.537  29.521  1.00  0.00    -0.237 OA
ATOM     85  O   UNL A   1      36.810  32.648  28.464  1.00  0.00    -0.237 OA
ATOM     86  O   UNL A   1      35.678  30.785  27.315  1.00  0.00    -0.744 OA
ENDBRANCH  79  83
ENDBRANCH  52  76
BRANCH  64  87
ATOM     87  C   UNL A   1      44.546  33.951  30.251  1.00  0.00     0.023 A 
ATOM     88  C   UNL A   1      44.825  34.343  31.573  1.00  0.00     0.031 A 
ATOM     89  C   UNL A   1      44.294  34.963  29.306  1.00  0.00     0.131 A 
ATOM     90  C   UNL A   1      44.793  35.704  31.922  1.00  0.00     0.055 A 
ATOM     91  C   UNL A   1      44.331  36.317  29.644  1.00  0.00     0.041 A 
ATOM     92  F   UNL A   1      44.012  34.652  28.031  1.00  0.00    -0.206 F 
ATOM     93  C   UNL A   1      44.568  36.693  30.962  1.00  0.00     0.022 A 
BRANCH  90  94
ATOM     94  S   UNL A   1      44.956  36.162  33.670  1.00  0.00     0.124 S 
ATOM     95  O   UNL A   1      44.222  37.422  33.724  1.00  0.00    -0.237 OA
ATOM     96  O   UNL A   1      44.333  35.031  34.349  1.00  0.00    -0.237 OA
ATOM     97  O   UNL A   1      46.401  36.278  33.862  1.00  0.00    -0.744 OA
ENDBRANCH  90  94
ENDBRANCH  64  87
ENDBRANCH  38  39
ENDBRANCH  30  33
ENDBRANCH  28  29
ENDBRANCH  27  28
ENDBRANCH   1  27
TORSDOF 18
ENDMDL
MODEL 3
REMARK VINA RESULT:     -11.0      2.360      2.668
REMARK SMILES O=C(CCN1C(=O)/C(=C/c2cc(Br)cc(Br)c2O)SC1=S)NCCCCNC(=O)c1ccc(-c2c3nc(c(-c4cc(S(=O)(=O)[O-])ccc4F)c4ccc([nH]4)c(-c4cc(S(=O)(=O)[O-])ccc4F)c4nc(c(-c5cc(S(=O)(=O)[O-])ccc5F)c5ccc2[nH]5)C=C4)C=C3)cc1
REMARK SMILES IDX 24 1 23 2 22 3 1 4 2 5 3 7 4 8 5 9 6 10 20 11 7 12 8 13
REMARK SMILES IDX 19 14 21 15 9 16 10 17 11 18 17 19 12 20 15 21 13 22 14 23
REMARK SMILES IDX 16 24 18 25 25 27 26 28 27 29 28 30 29 32 30 33 31 34 92 35
REMARK SMILES IDX 32 36 91 37 33 38 34 39 35 40 85 41 36 42 90 43 84 44 86 45
REMARK SMILES IDX 37 46 89 47 83 48 82 49 38 51 70 52 50 53 69 54 51 55 54 56
REMARK SMILES IDX 68 57 87 58 52 59 53 60 67 62 88 63 55 64 39 65 40 66 48 67
REMARK SMILES IDX 41 68 47 69 49 70 46 71 42 72 43 73 44 74 45 75 71 76 72 77
REMARK SMILES IDX 80 78 73 79 79 80 81 81 78 82 74 83 75 84 76 85 77 86 56 87
REMARK SMILES IDX 57 88 65 89 58 90 64 91 66 92 63 93 59 94 60 95 61 96 62 97
REMARK H PARENT 22 6 18 26 27 31 86 50 54 61
REMARK Flexibility Score: inf
ROOT
ATOM      1  C   UNL A   1      36.603  19.567  24.920  1.00  0.00     0.023 C 
ENDROOT
BRANCH   1   2
ATOM      2  C   UNL A   1      36.032  20.896  25.414  1.00  0.00     0.116 C 
BRANCH   2   3
ATOM      3  N   UNL A   1      35.456  21.695  24.345  1.00  0.00    -0.356 N 
ATOM      4  O   UNL A   1      35.799  23.734  25.356  1.00  0.00    -0.275 OA
ATOM      5  C   UNL A   1      35.418  23.073  24.396  1.00  0.00     0.221 C 
ATOM      6  H   UNL A   1      35.080  21.237  23.558  1.00  0.00     0.163 HD
BRANCH   5   7
ATOM      7  C   UNL A   1      34.877  23.731  23.146  1.00  0.00     0.122 C 
BRANCH   7   8
ATOM      8  C   UNL A   1      33.434  23.302  22.858  1.00  0.00     0.137 C 
BRANCH   8   9
ATOM      9  N   UNL A   1      32.455  24.309  23.284  1.00  0.00    -0.292 N 
ATOM     10  C   UNL A   1      32.208  25.371  22.435  1.00  0.00     0.266 C 
ATOM     11  C   UNL A   1      31.784  24.315  24.491  1.00  0.00     0.148 C 
ATOM     12  O   UNL A   1      32.683  25.520  21.314  1.00  0.00    -0.268 OA
ATOM     13  C   UNL A   1      31.388  26.393  23.121  1.00  0.00     0.081 C 
ATOM     14  S   UNL A   1      30.926  25.843  24.677  1.00  0.00    -0.054 SA
ATOM     15  S   UNL A   1      31.760  23.135  25.666  1.00  0.00    -0.052 S 
ATOM     16  C   UNL A   1      31.236  27.605  22.575  1.00  0.00     0.033 C 
BRANCH  16  17
ATOM     17  C   UNL A   1      30.765  28.790  23.292  1.00  0.00     0.020 A 
ATOM     18  C   UNL A   1      31.449  29.110  24.469  1.00  0.00     0.027 A 
ATOM     19  C   UNL A   1      29.737  29.624  22.839  1.00  0.00     0.137 A 
ATOM     20  C   UNL A   1      31.136  30.264  25.169  1.00  0.00     0.019 A 
ATOM     21  C   UNL A   1      29.389  30.759  23.577  1.00  0.00     0.061 A 
ATOM     22  Br  UNL A   1      32.194  30.697  26.672  1.00  0.00    -0.051 Br
ATOM     23  C   UNL A   1      30.107  31.087  24.728  1.00  0.00     0.035 A 
ATOM     24  Br  UNL A   1      27.999  31.921  23.023  1.00  0.00    -0.047 Br
BRANCH  19  25
ATOM     25  O   UNL A   1      29.095  29.353  21.663  1.00  0.00    -0.506 OA
ATOM     26  H   UNL A   1      28.198  29.080  21.671  1.00  0.00     0.293 HD
ENDBRANCH  19  25
ENDBRANCH  16  17
ENDBRANCH   8   9
ENDBRANCH   7   8
ENDBRANCH   5   7
ENDBRANCH   2   3
ENDBRANCH   1   2
BRANCH   1  27
ATOM     27  C   UNL A   1      38.116  19.550  24.667  1.00  0.00     0.023 C 
BRANCH  27  28
ATOM     28  C   UNL A   1      39.003  19.925  25.857  1.00  0.00     0.116 C 
BRANCH  28  29
ATOM     29  N   UNL A   1      40.237  19.159  25.908  1.00  0.00    -0.352 N 
ATOM     30  C   UNL A   1      41.540  19.540  26.145  1.00  0.00     0.251 C 
ATOM     31  H   UNL A   1      40.121  18.195  25.744  1.00  0.00     0.163 HD
ATOM     32  O   UNL A   1      42.425  18.699  25.996  1.00  0.00    -0.269 OA
BRANCH  30  33
ATOM     33  C   UNL A   1      41.911  20.928  26.536  1.00  0.00     0.039 A 
ATOM     34  C   UNL A   1      42.265  21.178  27.870  1.00  0.00     0.014 A 
ATOM     35  C   UNL A   1      41.876  21.996  25.643  1.00  0.00     0.014 A 
ATOM     36  C   UNL A   1      42.659  22.463  28.282  1.00  0.00     0.010 A 
ATOM     37  C   UNL A   1      42.344  23.257  26.038  1.00  0.00     0.010 A 
ATOM     38  C   UNL A   1      42.760  23.514  27.361  1.00  0.00    -0.014 A 
BRANCH  38  39
ATOM     39  C   UNL A   1      43.324  24.864  27.715  1.00  0.00     0.031 A 
ATOM     40  C   UNL A   1      42.404  26.001  28.098  1.00  0.00     0.074 A 
ATOM     41  C   UNL A   1      44.633  25.144  27.516  1.00  0.00     0.049 A 
ATOM     42  N   UNL A   1      42.669  27.279  28.224  1.00  0.00    -0.248 NA
ATOM     43  C   UNL A   1      40.998  25.655  28.348  1.00  0.00     0.031 C 
ATOM     44  C   UNL A   1      45.665  24.190  27.107  1.00  0.00     0.029 A 
ATOM     45  N   UNL A   1      45.298  26.353  27.510  1.00  0.00    -0.354 N 
ATOM     46  C   UNL A   1      41.468  27.886  28.576  1.00  0.00     0.074 A 
ATOM     47  C   UNL A   1      40.455  26.850  28.530  1.00  0.00     0.031 C 
ATOM     48  C   UNL A   1      46.784  24.855  26.777  1.00  0.00     0.029 A 
ATOM     49  C   UNL A   1      46.571  26.282  26.984  1.00  0.00     0.049 A 
ATOM     50  H   UNL A   1      44.901  27.188  27.850  1.00  0.00     0.167 HD
ATOM     51  C   UNL A   1      41.230  29.166  28.962  1.00  0.00     0.034 A 
ATOM     52  C   UNL A   1      47.468  27.242  26.681  1.00  0.00     0.034 A 
ATOM     53  C   UNL A   1      42.240  30.197  29.023  1.00  0.00     0.049 A 
ATOM     54  C   UNL A   1      47.177  28.678  27.029  1.00  0.00     0.074 A 
ATOM     55  C   UNL A   1      42.130  31.480  29.533  1.00  0.00     0.029 A 
ATOM     56  N   UNL A   1      43.532  30.079  28.534  1.00  0.00    -0.354 N 
ATOM     57  N   UNL A   1      46.077  29.204  27.508  1.00  0.00    -0.248 NA
ATOM     58  C   UNL A   1      48.276  29.639  26.852  1.00  0.00     0.031 C 
ATOM     59  C   UNL A   1      43.327  32.160  29.285  1.00  0.00     0.029 A 
ATOM     60  C   UNL A   1      44.216  31.275  28.699  1.00  0.00     0.049 A 
ATOM     61  H   UNL A   1      43.909  29.265  28.129  1.00  0.00     0.167 HD
ATOM     62  C   UNL A   1      46.379  30.540  27.766  1.00  0.00     0.074 A 
ATOM     63  C   UNL A   1      47.756  30.743  27.369  1.00  0.00     0.031 C 
ATOM     64  C   UNL A   1      45.590  31.496  28.315  1.00  0.00     0.034 A 
BRANCH  51  65
ATOM     65  C   UNL A   1      39.822  29.517  29.384  1.00  0.00     0.023 A 
ATOM     66  C   UNL A   1      39.479  29.639  30.743  1.00  0.00     0.031 A 
ATOM     67  C   UNL A   1      38.809  29.730  28.432  1.00  0.00     0.131 A 
ATOM     68  C   UNL A   1      38.148  29.865  31.115  1.00  0.00     0.055 A 
ATOM     69  C   UNL A   1      37.502  30.050  28.808  1.00  0.00     0.041 A 
ATOM     70  F   UNL A   1      39.069  29.622  27.120  1.00  0.00    -0.206 F 
ATOM     71  C   UNL A   1      37.161  30.100  30.156  1.00  0.00     0.022 A 
BRANCH  68  72
ATOM     72  S   UNL A   1      37.704  29.688  32.864  1.00  0.00     0.124 S 
ATOM     73  O   UNL A   1      38.901  30.206  33.524  1.00  0.00    -0.237 OA
ATOM     74  O   UNL A   1      36.508  30.514  32.972  1.00  0.00    -0.237 OA
ATOM     75  O   UNL A   1      37.489  28.252  33.019  1.00  0.00    -0.744 OA
ENDBRANCH  68  72
ENDBRANCH  51  65
BRANCH  52  76
ATOM     76  C   UNL A   1      48.771  26.887  26.049  1.00  0.00     0.023 A 
ATOM     77  C   UNL A   1      49.892  26.604  26.843  1.00  0.00     0.031 A 
ATOM     78  C   UNL A   1      48.932  26.901  24.653  1.00  0.00     0.131 A 
ATOM     79  C   UNL A   1      51.144  26.413  26.243  1.00  0.00     0.055 A 
ATOM     80  C   UNL A   1      50.173  26.664  24.057  1.00  0.00     0.041 A 
ATOM     81  F   UNL A   1      47.886  27.154  23.850  1.00  0.00    -0.206 F 
ATOM     82  C   UNL A   1      51.292  26.433  24.854  1.00  0.00     0.022 A 
BRANCH  79  83
ATOM     83  S   UNL A   1      52.594  26.231  27.316  1.00  0.00     0.124 S 
ATOM     84  O   UNL A   1      51.973  25.962  28.608  1.00  0.00    -0.237 OA
ATOM     85  O   UNL A   1      53.291  25.112  26.692  1.00  0.00    -0.237 OA
ATOM     86  O   UNL A   1      53.266  27.524  27.200  1.00  0.00    -0.744 OA
ENDBRANCH  79  83
ENDBRANCH  52  76
BRANCH  64  87
ATOM     87  C   UNL A   1      46.220  32.837  28.615  1.00  0.00     0.023 A 
ATOM     88  C   UNL A   1      46.775  33.145  29.870  1.00  0.00     0.031 A 
ATOM     89  C   UNL A   1      46.251  33.833  27.621  1.00  0.00     0.131 A 
ATOM     90  C   UNL A   1      47.288  34.431  30.113  1.00  0.00     0.055 A 
ATOM     91  C   UNL A   1      46.824  35.087  27.847  1.00  0.00     0.041 A 
ATOM     92  F   UNL A   1      45.728  33.603  26.406  1.00  0.00    -0.206 F 
ATOM     93  C   UNL A   1      47.334  35.395  29.104  1.00  0.00     0.022 A 
BRANCH  90  94
ATOM     94  S   UNL A   1      47.810  34.860  31.797  1.00  0.00     0.124 S 
ATOM     95  O   UNL A   1      46.754  34.259  32.605  1.00  0.00    -0.237 OA
ATOM     96  O   UNL A   1      49.121  34.227  31.889  1.00  0.00    -0.237 OA
ATOM     97  O   UNL A   1      47.828  36.322  31.789  1.00  0.00    -0.744 OA
ENDBRANCH  90  94
ENDBRANCH  64  87
ENDBRANCH  38  39
ENDBRANCH  30  33
ENDBRANCH  28  29
ENDBRANCH  27  28
ENDBRANCH   1  27
TORSDOF 18
ENDMDL
