MODEL 1
REMARK VINA RESULT:     -11.8      0.000      0.000
REMARK SMILES Cc1nn(CC(F)F)c2c1c(C(F)(F)F)cc(=O)n2CC(=O)NCCCCNC(=O)c1ccc(-c2c3nc(c(-c4cc(S(=O)(=O)[O-])ccc4F)c4ccc([nH]4)c(-c4cc(S(=O)(=O)[O-])ccc4F)c4nc(c(-c5cc(S(=O)(=O)[O-])ccc5F)c5ccc2[nH]5)C=C4)C=C3)cc1
REMARK SMILES IDX 25 1 24 2 23 3 21 4 22 5 20 7 19 8 1 9 2 10 3 11 10 12 4 13
REMARK SMILES IDX 9 14 11 15 16 16 17 17 18 18 5 19 6 20 7 21 8 22 12 23 13 24
REMARK SMILES IDX 14 25 15 26 26 27 27 28 28 29 29 30 30 32 31 33 32 34 93 35
REMARK SMILES IDX 33 36 92 37 34 38 35 39 36 40 86 41 37 42 91 43 85 44 87 45
REMARK SMILES IDX 38 46 90 47 84 48 83 49 39 51 71 52 51 53 70 54 52 55 55 56
REMARK SMILES IDX 69 57 88 58 53 59 54 60 68 62 89 63 56 64 40 65 41 66 49 67
REMARK SMILES IDX 42 68 48 69 50 70 47 71 43 72 44 73 45 74 46 75 72 76 73 77
REMARK SMILES IDX 81 78 74 79 80 80 82 81 79 82 75 83 76 84 77 85 78 86 57 87
REMARK SMILES IDX 58 88 66 89 59 90 65 91 67 92 64 93 60 94 61 95 62 96 63 97
REMARK H PARENT 23 6 28 31 87 50 55 61
REMARK Flexibility Score: inf
ROOT
ATOM      1  C   UNL A   1      35.369  22.441  24.371  1.00  0.00     0.023 C 
ENDROOT
BRANCH   1   2
ATOM      2  C   UNL A   1      35.280  23.913  24.764  1.00  0.00     0.116 C 
BRANCH   2   3
ATOM      3  N   UNL A   1      34.049  24.234  25.454  1.00  0.00    -0.355 N 
ATOM      4  C   UNL A   1      33.125  25.187  25.164  1.00  0.00     0.240 C 
ATOM      5  O   UNL A   1      32.001  25.048  25.661  1.00  0.00    -0.273 OA
ATOM      6  H   UNL A   1      33.854  23.683  26.247  1.00  0.00     0.163 HD
BRANCH   4   7
ATOM      7  C   UNL A   1      33.390  26.324  24.168  1.00  0.00     0.227 C 
BRANCH   7   8
ATOM      8  N   UNL A   1      32.310  27.289  23.949  1.00  0.00    -0.283 N 
ATOM      9  C   UNL A   1      30.486  31.743  25.420  1.00  0.00     0.069 C 
ATOM     10  C   UNL A   1      31.208  30.451  25.283  1.00  0.00     0.069 A 
ATOM     11  N   UNL A   1      32.133  30.151  26.201  1.00  0.00    -0.175 NA
ATOM     12  C   UNL A   1      31.088  29.402  24.343  1.00  0.00     0.053 A 
ATOM     13  N   UNL A   1      32.661  28.972  25.811  1.00  0.00    -0.243 N 
ATOM     14  C   UNL A   1      32.068  28.474  24.671  1.00  0.00     0.142 A 
ATOM     15  C   UNL A   1      30.239  29.139  23.228  1.00  0.00     0.074 A 
ATOM     16  C   UNL A   1      30.362  27.977  22.567  1.00  0.00     0.085 A 
ATOM     17  C   UNL A   1      31.392  26.971  22.935  1.00  0.00     0.253 A 
ATOM     18  O   UNL A   1      31.397  25.917  22.301  1.00  0.00    -0.269 OA
BRANCH  13  19
ATOM     19  C   UNL A   1      33.693  28.444  26.669  1.00  0.00     0.219 C 
BRANCH  19  20
ATOM     20  C   UNL A   1      34.602  29.518  27.208  1.00  0.00     0.363 C 
ATOM     21  F   UNL A   1      34.985  29.246  28.482  1.00  0.00    -0.208 F 
ATOM     22  F   UNL A   1      35.748  29.544  26.476  1.00  0.00    -0.208 F 
ENDBRANCH  19  20
ENDBRANCH  13  19
BRANCH  15  23
ATOM     23  C   UNL A   1      29.215  30.156  22.838  1.00  0.00     0.417 C 
ATOM     24  F   UNL A   1      28.356  30.444  23.850  1.00  0.00    -0.166 F 
ATOM     25  F   UNL A   1      29.777  31.321  22.435  1.00  0.00    -0.166 F 
ATOM     26  F   UNL A   1      28.440  29.730  21.803  1.00  0.00    -0.166 F 
ENDBRANCH  15  23
ENDBRANCH   7   8
ENDBRANCH   4   7
ENDBRANCH   2   3
ENDBRANCH   1   2
BRANCH   1  27
ATOM     27  C   UNL A   1      36.753  21.793  24.552  1.00  0.00     0.023 C 
BRANCH  27  28
ATOM     28  C   UNL A   1      37.491  22.159  25.842  1.00  0.00     0.116 C 
BRANCH  28  29
ATOM     29  N   UNL A   1      38.863  21.693  25.879  1.00  0.00    -0.352 N 
ATOM     30  C   UNL A   1      40.043  22.167  26.383  1.00  0.00     0.251 C 
ATOM     31  H   UNL A   1      38.971  20.823  25.433  1.00  0.00     0.163 HD
ATOM     32  O   UNL A   1      40.991  21.379  26.315  1.00  0.00    -0.269 OA
BRANCH  30  33
ATOM     33  C   UNL A   1      40.275  23.523  26.958  1.00  0.00     0.039 A 
ATOM     34  C   UNL A   1      41.283  23.866  27.856  1.00  0.00     0.014 A 
ATOM     35  C   UNL A   1      39.355  24.524  26.579  1.00  0.00     0.014 A 
ATOM     36  C   UNL A   1      41.348  25.157  28.385  1.00  0.00     0.010 A 
ATOM     37  C   UNL A   1      39.416  25.816  27.106  1.00  0.00     0.010 A 
ATOM     38  C   UNL A   1      40.403  26.129  28.032  1.00  0.00    -0.014 A 
BRANCH  38  39
ATOM     39  C   UNL A   1      40.572  27.474  28.590  1.00  0.00     0.031 A 
ATOM     40  C   UNL A   1      41.748  28.234  28.082  1.00  0.00     0.074 A 
ATOM     41  C   UNL A   1      39.726  28.094  29.435  1.00  0.00     0.049 A 
ATOM     42  N   UNL A   1      42.811  28.580  28.731  1.00  0.00    -0.248 NA
ATOM     43  C   UNL A   1      41.783  28.566  26.652  1.00  0.00     0.031 C 
ATOM     44  C   UNL A   1      38.369  27.701  29.815  1.00  0.00     0.029 A 
ATOM     45  N   UNL A   1      39.891  29.295  30.070  1.00  0.00    -0.354 N 
ATOM     46  C   UNL A   1      43.584  29.332  27.846  1.00  0.00     0.074 A 
ATOM     47  C   UNL A   1      42.967  29.171  26.551  1.00  0.00     0.031 C 
ATOM     48  C   UNL A   1      37.760  28.746  30.421  1.00  0.00     0.029 A 
ATOM     49  C   UNL A   1      38.725  29.820  30.604  1.00  0.00     0.049 A 
ATOM     50  H   UNL A   1      40.762  29.747  30.140  1.00  0.00     0.167 HD
ATOM     51  C   UNL A   1      44.572  30.171  28.276  1.00  0.00     0.034 A 
ATOM     52  C   UNL A   1      38.541  31.075  31.086  1.00  0.00     0.034 A 
ATOM     53  C   UNL A   1      44.923  29.911  29.648  1.00  0.00     0.049 A 
ATOM     54  C   UNL A   1      39.862  31.650  31.436  1.00  0.00     0.074 A 
ATOM     55  C   UNL A   1      45.384  28.809  30.341  1.00  0.00     0.029 A 
ATOM     56  N   UNL A   1      44.497  30.799  30.606  1.00  0.00    -0.354 N 
ATOM     57  N   UNL A   1      40.586  31.272  32.451  1.00  0.00    -0.248 NA
ATOM     58  C   UNL A   1      40.568  32.402  30.410  1.00  0.00     0.031 C 
ATOM     59  C   UNL A   1      44.752  28.886  31.614  1.00  0.00     0.029 A 
ATOM     60  C   UNL A   1      43.989  30.055  31.637  1.00  0.00     0.049 A 
ATOM     61  H   UNL A   1      44.549  31.781  30.560  1.00  0.00     0.167 HD
ATOM     62  C   UNL A   1      41.887  31.311  31.976  1.00  0.00     0.074 A 
ATOM     63  C   UNL A   1      41.825  32.132  30.769  1.00  0.00     0.031 C 
ATOM     64  C   UNL A   1      42.841  30.445  32.430  1.00  0.00     0.034 A 
BRANCH  51  65
ATOM     65  C   UNL A   1      45.005  31.431  27.560  1.00  0.00     0.023 A 
ATOM     66  C   UNL A   1      44.185  32.566  27.451  1.00  0.00     0.031 A 
ATOM     67  C   UNL A   1      46.351  31.610  27.170  1.00  0.00     0.131 A 
ATOM     68  C   UNL A   1      44.680  33.792  26.982  1.00  0.00     0.055 A 
ATOM     69  C   UNL A   1      46.864  32.850  26.770  1.00  0.00     0.041 A 
ATOM     70  F   UNL A   1      47.231  30.598  27.229  1.00  0.00    -0.206 F 
ATOM     71  C   UNL A   1      46.026  33.952  26.677  1.00  0.00     0.022 A 
BRANCH  68  72
ATOM     72  S   UNL A   1      43.562  35.206  26.784  1.00  0.00     0.124 S 
ATOM     73  O   UNL A   1      42.760  35.123  28.005  1.00  0.00    -0.237 OA
ATOM     74  O   UNL A   1      44.508  36.321  26.726  1.00  0.00    -0.237 OA
ATOM     75  O   UNL A   1      42.865  34.921  25.543  1.00  0.00    -0.744 OA
ENDBRANCH  68  72
ENDBRANCH  51  65
BRANCH  52  76
ATOM     76  C   UNL A   1      37.353  31.933  30.866  1.00  0.00     0.023 A 
ATOM     77  C   UNL A   1      36.689  32.501  31.968  1.00  0.00     0.031 A 
ATOM     78  C   UNL A   1      36.683  31.953  29.630  1.00  0.00     0.131 A 
ATOM     79  C   UNL A   1      35.392  33.011  31.838  1.00  0.00     0.055 A 
ATOM     80  C   UNL A   1      35.390  32.476  29.498  1.00  0.00     0.041 A 
ATOM     81  F   UNL A   1      37.240  31.401  28.542  1.00  0.00    -0.206 F 
ATOM     82  C   UNL A   1      34.732  32.997  30.608  1.00  0.00     0.022 A 
BRANCH  79  83
ATOM     83  S   UNL A   1      34.518  33.642  33.296  1.00  0.00     0.124 S 
ATOM     84  O   UNL A   1      34.555  35.087  33.083  1.00  0.00    -0.237 OA
ATOM     85  O   UNL A   1      33.209  33.017  33.152  1.00  0.00    -0.237 OA
ATOM     86  O   UNL A   1      35.332  33.166  34.411  1.00  0.00    -0.744 OA
ENDBRANCH  79  83
ENDBRANCH  52  76
BRANCH  64  87
ATOM     87  C   UNL A   1      42.582  29.610  33.664  1.00  0.00     0.023 A 
ATOM     88  C   UNL A   1      43.298  29.955  34.828  1.00  0.00     0.031 A 
ATOM     89  C   UNL A   1      41.883  28.388  33.673  1.00  0.00     0.131 A 
ATOM     90  C   UNL A   1      43.348  29.079  35.919  1.00  0.00     0.055 A 
ATOM     91  C   UNL A   1      41.868  27.554  34.797  1.00  0.00     0.041 A 
ATOM     92  F   UNL A   1      41.277  27.912  32.576  1.00  0.00    -0.206 F 
ATOM     93  C   UNL A   1      42.620  27.888  35.918  1.00  0.00     0.022 A 
BRANCH  90  94
ATOM     94  S   UNL A   1      44.500  29.381  37.284  1.00  0.00     0.124 S 
ATOM     95  O   UNL A   1      44.384  28.152  38.064  1.00  0.00    -0.237 OA
ATOM     96  O   UNL A   1      45.771  29.560  36.583  1.00  0.00    -0.237 OA
ATOM     97  O   UNL A   1      43.979  30.582  37.930  1.00  0.00    -0.744 OA
ENDBRANCH  90  94
ENDBRANCH  64  87
ENDBRANCH  38  39
ENDBRANCH  30  33
ENDBRANCH  28  29
ENDBRANCH  27  28
ENDBRANCH   1  27
TORSDOF 18
ENDMDL
MODEL 2
REMARK VINA RESULT:     -11.7      2.378      3.150
REMARK SMILES Cc1nn(CC(F)F)c2c1c(C(F)(F)F)cc(=O)n2CC(=O)NCCCCNC(=O)c1ccc(-c2c3nc(c(-c4cc(S(=O)(=O)[O-])ccc4F)c4ccc([nH]4)c(-c4cc(S(=O)(=O)[O-])ccc4F)c4nc(c(-c5cc(S(=O)(=O)[O-])ccc5F)c5ccc2[nH]5)C=C4)C=C3)cc1
REMARK SMILES IDX 25 1 24 2 23 3 21 4 22 5 20 7 19 8 1 9 2 10 3 11 10 12 4 13
REMARK SMILES IDX 9 14 11 15 16 16 17 17 18 18 5 19 6 20 7 21 8 22 12 23 13 24
REMARK SMILES IDX 14 25 15 26 26 27 27 28 28 29 29 30 30 32 31 33 32 34 93 35
REMARK SMILES IDX 33 36 92 37 34 38 35 39 36 40 86 41 37 42 91 43 85 44 87 45
REMARK SMILES IDX 38 46 90 47 84 48 83 49 39 51 71 52 51 53 70 54 52 55 55 56
REMARK SMILES IDX 69 57 88 58 53 59 54 60 68 62 89 63 56 64 40 65 41 66 49 67
REMARK SMILES IDX 42 68 48 69 50 70 47 71 43 72 44 73 45 74 46 75 72 76 73 77
REMARK SMILES IDX 81 78 74 79 80 80 82 81 79 82 75 83 76 84 77 85 78 86 57 87
REMARK SMILES IDX 58 88 66 89 59 90 65 91 67 92 64 93 60 94 61 95 62 96 63 97
REMARK H PARENT 23 6 28 31 87 50 55 61
REMARK Flexibility Score: inf
ROOT
ATOM      1  C   UNL A   1      37.994  22.948  25.929  1.00  0.00     0.023 C 
ENDROOT
BRANCH   1   2
ATOM      2  C   UNL A   1      36.541  23.037  25.469  1.00  0.00     0.116 C 
BRANCH   2   3
ATOM      3  N   UNL A   1      35.626  22.375  26.373  1.00  0.00    -0.355 N 
ATOM      4  C   UNL A   1      34.384  21.879  26.128  1.00  0.00     0.240 C 
ATOM      5  O   UNL A   1      33.941  21.052  26.933  1.00  0.00    -0.273 OA
ATOM      6  H   UNL A   1      35.949  22.267  27.296  1.00  0.00     0.163 HD
BRANCH   4   7
ATOM      7  C   UNL A   1      33.594  22.211  24.854  1.00  0.00     0.227 C 
BRANCH   7   8
ATOM      8  N   UNL A   1      33.458  23.626  24.499  1.00  0.00    -0.283 N 
ATOM      9  C   UNL A   1      31.835  28.089  26.162  1.00  0.00     0.069 C 
ATOM     10  C   UNL A   1      32.120  26.649  25.934  1.00  0.00     0.069 A 
ATOM     11  N   UNL A   1      31.624  25.768  26.810  1.00  0.00    -0.175 NA
ATOM     12  C   UNL A   1      32.822  25.979  24.907  1.00  0.00     0.053 A 
ATOM     13  N   UNL A   1      32.072  24.562  26.403  1.00  0.00    -0.243 N 
ATOM     14  C   UNL A   1      32.823  24.634  25.250  1.00  0.00     0.142 A 
ATOM     15  C   UNL A   1      33.471  26.382  23.702  1.00  0.00     0.074 A 
ATOM     16  C   UNL A   1      34.005  25.447  22.900  1.00  0.00     0.085 A 
ATOM     17  C   UNL A   1      33.981  24.004  23.253  1.00  0.00     0.253 A 
ATOM     18  O   UNL A   1      34.455  23.218  22.433  1.00  0.00    -0.269 OA
BRANCH  13  19
ATOM     19  C   UNL A   1      31.651  23.443  27.211  1.00  0.00     0.219 C 
BRANCH  19  20
ATOM     20  C   UNL A   1      30.309  22.901  26.792  1.00  0.00     0.363 C 
ATOM     21  F   UNL A   1      29.323  23.810  27.001  1.00  0.00    -0.208 F 
ATOM     22  F   UNL A   1      30.318  22.668  25.451  1.00  0.00    -0.208 F 
ENDBRANCH  19  20
ENDBRANCH  13  19
BRANCH  15  23
ATOM     23  C   UNL A   1      33.518  27.833  23.350  1.00  0.00     0.417 C 
ATOM     24  F   UNL A   1      32.281  28.383  23.241  1.00  0.00    -0.166 F 
ATOM     25  F   UNL A   1      34.209  28.559  24.262  1.00  0.00    -0.166 F 
ATOM     26  F   UNL A   1      34.127  28.050  22.152  1.00  0.00    -0.166 F 
ENDBRANCH  15  23
ENDBRANCH   7   8
ENDBRANCH   4   7
ENDBRANCH   2   3
ENDBRANCH   1   2
BRANCH   1  27
ATOM     27  C   UNL A   1      38.694  21.608  25.648  1.00  0.00     0.023 C 
BRANCH  27  28
ATOM     28  C   UNL A   1      39.978  21.353  26.442  1.00  0.00     0.116 C 
BRANCH  28  29
ATOM     29  N   UNL A   1      41.188  21.638  25.699  1.00  0.00    -0.352 N 
ATOM     30  C   UNL A   1      42.108  22.650  25.679  1.00  0.00     0.251 C 
ATOM     31  H   UNL A   1      41.400  20.930  25.049  1.00  0.00     0.163 HD
ATOM     32  O   UNL A   1      43.096  22.442  24.967  1.00  0.00    -0.269 OA
BRANCH  30  33
ATOM     33  C   UNL A   1      42.002  23.952  26.399  1.00  0.00     0.039 A 
ATOM     34  C   UNL A   1      42.734  24.321  27.525  1.00  0.00     0.014 A 
ATOM     35  C   UNL A   1      41.040  24.858  25.906  1.00  0.00     0.014 A 
ATOM     36  C   UNL A   1      42.486  25.542  28.158  1.00  0.00     0.010 A 
ATOM     37  C   UNL A   1      40.788  26.079  26.536  1.00  0.00     0.010 A 
ATOM     38  C   UNL A   1      41.498  26.414  27.681  1.00  0.00    -0.014 A 
BRANCH  38  39
ATOM     39  C   UNL A   1      41.337  27.698  28.370  1.00  0.00     0.031 A 
ATOM     40  C   UNL A   1      42.249  28.785  27.916  1.00  0.00     0.074 A 
ATOM     41  C   UNL A   1      40.400  27.991  29.292  1.00  0.00     0.049 A 
ATOM     42  N   UNL A   1      43.215  29.338  28.575  1.00  0.00    -0.248 NA
ATOM     43  C   UNL A   1      42.129  29.246  26.528  1.00  0.00     0.031 C 
ATOM     44  C   UNL A   1      39.212  27.220  29.658  1.00  0.00     0.029 A 
ATOM     45  N   UNL A   1      40.276  29.129  30.042  1.00  0.00    -0.354 N 
ATOM     46  C   UNL A   1      43.721  30.347  27.755  1.00  0.00     0.074 A 
ATOM     47  C   UNL A   1      43.107  30.149  26.464  1.00  0.00     0.031 C 
ATOM     48  C   UNL A   1      38.381  28.006  30.381  1.00  0.00     0.029 A 
ATOM     49  C   UNL A   1      39.040  29.275  30.651  1.00  0.00     0.049 A 
ATOM     50  H   UNL A   1      41.001  29.787  30.139  1.00  0.00     0.167 HD
ATOM     51  C   UNL A   1      44.476  31.373  28.248  1.00  0.00     0.034 A 
ATOM     52  C   UNL A   1      38.558  30.387  31.262  1.00  0.00     0.034 A 
ATOM     53  C   UNL A   1      44.948  31.089  29.577  1.00  0.00     0.049 A 
ATOM     54  C   UNL A   1      39.698  31.255  31.641  1.00  0.00     0.074 A 
ATOM     55  C   UNL A   1      45.712  30.089  30.145  1.00  0.00     0.029 A 
ATOM     56  N   UNL A   1      44.351  31.740  30.630  1.00  0.00    -0.354 N 
ATOM     57  N   UNL A   1      40.543  30.989  32.596  1.00  0.00    -0.248 NA
ATOM     58  C   UNL A   1      40.134  32.259  30.683  1.00  0.00     0.031 C 
ATOM     59  C   UNL A   1      45.143  29.878  31.432  1.00  0.00     0.029 A 
ATOM     60  C   UNL A   1      44.103  30.796  31.591  1.00  0.00     0.049 A 
ATOM     61  H   UNL A   1      44.142  32.700  30.684  1.00  0.00     0.167 HD
ATOM     62  C   UNL A   1      41.765  31.415  32.101  1.00  0.00     0.074 A 
ATOM     63  C   UNL A   1      41.434  32.299  30.985  1.00  0.00     0.031 C 
ATOM     64  C   UNL A   1      42.932  30.794  32.443  1.00  0.00     0.034 A 
BRANCH  51  65
ATOM     65  C   UNL A   1      44.531  32.763  27.655  1.00  0.00     0.023 A 
ATOM     66  C   UNL A   1      43.677  33.801  28.063  1.00  0.00     0.031 A 
ATOM     67  C   UNL A   1      45.607  33.149  26.824  1.00  0.00     0.131 A 
ATOM     68  C   UNL A   1      43.888  35.130  27.666  1.00  0.00     0.055 A 
ATOM     69  C   UNL A   1      45.860  34.485  26.486  1.00  0.00     0.041 A 
ATOM     70  F   UNL A   1      46.490  32.247  26.369  1.00  0.00    -0.206 F 
ATOM     71  C   UNL A   1      44.997  35.485  26.910  1.00  0.00     0.022 A 
BRANCH  68  72
ATOM     72  S   UNL A   1      42.711  36.420  28.155  1.00  0.00     0.124 S 
ATOM     73  O   UNL A   1      43.568  37.328  28.919  1.00  0.00    -0.237 OA
ATOM     74  O   UNL A   1      42.267  36.920  26.854  1.00  0.00    -0.237 OA
ATOM     75  O   UNL A   1      41.707  35.700  28.916  1.00  0.00    -0.744 OA
ENDBRANCH  68  72
ENDBRANCH  51  65
BRANCH  52  76
ATOM     76  C   UNL A   1      37.179  30.917  31.156  1.00  0.00     0.023 A 
ATOM     77  C   UNL A   1      36.628  31.183  29.890  1.00  0.00     0.031 A 
ATOM     78  C   UNL A   1      36.511  31.452  32.273  1.00  0.00     0.131 A 
ATOM     79  C   UNL A   1      35.495  31.995  29.756  1.00  0.00     0.055 A 
ATOM     80  C   UNL A   1      35.371  32.253  32.140  1.00  0.00     0.041 A 
ATOM     81  F   UNL A   1      36.996  31.268  33.510  1.00  0.00    -0.206 F 
ATOM     82  C   UNL A   1      34.864  32.540  30.875  1.00  0.00     0.022 A 
BRANCH  79  83
ATOM     83  S   UNL A   1      34.869  32.409  28.106  1.00  0.00     0.124 S 
ATOM     84  O   UNL A   1      34.764  31.095  27.473  1.00  0.00    -0.237 OA
ATOM     85  O   UNL A   1      33.603  33.058  28.422  1.00  0.00    -0.237 OA
ATOM     86  O   UNL A   1      35.909  33.273  27.555  1.00  0.00    -0.744 OA
ENDBRANCH  79  83
ENDBRANCH  52  76
BRANCH  64  87
ATOM     87  C   UNL A   1      42.959  29.809  33.591  1.00  0.00     0.023 A 
ATOM     88  C   UNL A   1      43.643  30.208  34.757  1.00  0.00     0.031 A 
ATOM     89  C   UNL A   1      42.575  28.458  33.498  1.00  0.00     0.131 A 
ATOM     90  C   UNL A   1      43.969  29.273  35.746  1.00  0.00     0.055 A 
ATOM     91  C   UNL A   1      42.830  27.544  34.527  1.00  0.00     0.041 A 
ATOM     92  F   UNL A   1      42.033  27.953  32.380  1.00  0.00    -0.206 F 
ATOM     93  C   UNL A   1      43.549  27.946  35.648  1.00  0.00     0.022 A 
BRANCH  90  94
ATOM     94  S   UNL A   1      45.099  29.719  37.091  1.00  0.00     0.124 S 
ATOM     95  O   UNL A   1      44.277  29.490  38.275  1.00  0.00    -0.237 OA
ATOM     96  O   UNL A   1      46.197  28.773  36.899  1.00  0.00    -0.237 OA
ATOM     97  O   UNL A   1      45.436  31.115  36.824  1.00  0.00    -0.744 OA
ENDBRANCH  90  94
ENDBRANCH  64  87
ENDBRANCH  38  39
ENDBRANCH  30  33
ENDBRANCH  28  29
ENDBRANCH  27  28
ENDBRANCH   1  27
TORSDOF 18
ENDMDL
MODEL 3
REMARK VINA RESULT:     -11.4      3.278      9.079
REMARK SMILES Cc1nn(CC(F)F)c2c1c(C(F)(F)F)cc(=O)n2CC(=O)NCCCCNC(=O)c1ccc(-c2c3nc(c(-c4cc(S(=O)(=O)[O-])ccc4F)c4ccc([nH]4)c(-c4cc(S(=O)(=O)[O-])ccc4F)c4nc(c(-c5cc(S(=O)(=O)[O-])ccc5F)c5ccc2[nH]5)C=C4)C=C3)cc1
REMARK SMILES IDX 25 1 24 2 23 3 21 4 22 5 20 7 19 8 1 9 2 10 3 11 10 12 4 13
REMARK SMILES IDX 9 14 11 15 16 16 17 17 18 18 5 19 6 20 7 21 8 22 12 23 13 24
REMARK SMILES IDX 14 25 15 26 26 27 27 28 28 29 29 30 30 32 31 33 32 34 93 35
REMARK SMILES IDX 33 36 92 37 34 38 35 39 36 40 86 41 37 42 91 43 85 44 87 45
REMARK SMILES IDX 38 46 90 47 84 48 83 49 39 51 71 52 51 53 70 54 52 55 55 56
REMARK SMILES IDX 69 57 88 58 53 59 54 60 68 62 89 63 56 64 40 65 41 66 49 67
REMARK SMILES IDX 42 68 48 69 50 70 47 71 43 72 44 73 45 74 46 75 72 76 73 77
REMARK SMILES IDX 81 78 74 79 80 80 82 81 79 82 75 83 76 84 77 85 78 86 57 87
REMARK SMILES IDX 58 88 66 89 59 90 65 91 67 92 64 93 60 94 61 95 62 96 63 97
REMARK H PARENT 23 6 28 31 87 50 55 61
REMARK Flexibility Score: inf
ROOT
ATOM      1  C   UNL A   1      32.471  31.328  26.984  1.00  0.00     0.023 C 
ENDROOT
BRANCH   1   2
ATOM      2  C   UNL A   1      32.087  30.116  26.140  1.00  0.00     0.116 C 
BRANCH   2   3
ATOM      3  N   UNL A   1      33.169  29.656  25.298  1.00  0.00    -0.355 N 
ATOM      4  C   UNL A   1      33.184  28.638  24.396  1.00  0.00     0.240 C 
ATOM      5  O   UNL A   1      34.083  28.653  23.548  1.00  0.00    -0.273 OA
ATOM      6  H   UNL A   1      34.016  30.150  25.390  1.00  0.00     0.163 HD
BRANCH   4   7
ATOM      7  C   UNL A   1      32.078  27.576  24.326  1.00  0.00     0.227 C 
BRANCH   7   8
ATOM      8  N   UNL A   1      32.369  26.266  24.913  1.00  0.00    -0.283 N 
ATOM      9  C   UNL A   1      34.895  21.972  24.206  1.00  0.00     0.069 C 
ATOM     10  C   UNL A   1      34.210  23.284  24.074  1.00  0.00     0.069 A 
ATOM     11  N   UNL A   1      34.271  23.903  22.890  1.00  0.00    -0.175 NA
ATOM     12  C   UNL A   1      33.438  24.038  24.986  1.00  0.00     0.053 A 
ATOM     13  N   UNL A   1      33.626  25.076  23.063  1.00  0.00    -0.243 N 
ATOM     14  C   UNL A   1      33.108  25.218  24.331  1.00  0.00     0.142 A 
ATOM     15  C   UNL A   1      32.980  23.842  26.322  1.00  0.00     0.074 A 
ATOM     16  C   UNL A   1      32.189  24.768  26.888  1.00  0.00     0.085 A 
ATOM     17  C   UNL A   1      31.811  26.017  26.177  1.00  0.00     0.253 A 
ATOM     18  O   UNL A   1      31.045  26.783  26.760  1.00  0.00    -0.269 OA
BRANCH  13  19
ATOM     19  C   UNL A   1      33.562  25.922  21.896  1.00  0.00     0.219 C 
BRANCH  19  20
ATOM     20  C   UNL A   1      32.415  25.567  20.985  1.00  0.00     0.363 C 
ATOM     21  F   UNL A   1      31.313  26.306  21.270  1.00  0.00    -0.208 F 
ATOM     22  F   UNL A   1      32.748  25.877  19.703  1.00  0.00    -0.208 F 
ENDBRANCH  19  20
ENDBRANCH  13  19
BRANCH  15  23
ATOM     23  C   UNL A   1      33.373  22.598  27.051  1.00  0.00     0.417 C 
ATOM     24  F   UNL A   1      32.875  22.555  28.314  1.00  0.00    -0.166 F 
ATOM     25  F   UNL A   1      32.962  21.477  26.411  1.00  0.00    -0.166 F 
ATOM     26  F   UNL A   1      34.724  22.487  27.181  1.00  0.00    -0.166 F 
ENDBRANCH  15  23
ENDBRANCH   7   8
ENDBRANCH   4   7
ENDBRANCH   2   3
ENDBRANCH   1   2
BRANCH   1  27
ATOM     27  C   UNL A   1      33.843  31.244  27.675  1.00  0.00     0.023 C 
BRANCH  27  28
ATOM     28  C   UNL A   1      34.688  32.519  27.623  1.00  0.00     0.116 C 
BRANCH  28  29
ATOM     29  N   UNL A   1      34.861  33.155  28.914  1.00  0.00    -0.352 N 
ATOM     30  C   UNL A   1      35.816  33.138  29.893  1.00  0.00     0.251 C 
ATOM     31  H   UNL A   1      34.106  33.744  29.141  1.00  0.00     0.163 HD
ATOM     32  O   UNL A   1      35.639  33.948  30.807  1.00  0.00    -0.269 OA
BRANCH  30  33
ATOM     33  C   UNL A   1      36.997  32.228  29.956  1.00  0.00     0.039 A 
ATOM     34  C   UNL A   1      38.327  32.626  30.066  1.00  0.00     0.014 A 
ATOM     35  C   UNL A   1      36.723  30.848  29.851  1.00  0.00     0.014 A 
ATOM     36  C   UNL A   1      39.352  31.677  30.036  1.00  0.00     0.010 A 
ATOM     37  C   UNL A   1      37.745  29.896  29.820  1.00  0.00     0.010 A 
ATOM     38  C   UNL A   1      39.068  30.313  29.890  1.00  0.00    -0.014 A 
BRANCH  38  39
ATOM     39  C   UNL A   1      40.196  29.378  29.921  1.00  0.00     0.031 A 
ATOM     40  C   UNL A   1      40.567  28.868  31.271  1.00  0.00     0.074 A 
ATOM     41  C   UNL A   1      40.851  28.889  28.850  1.00  0.00     0.049 A 
ATOM     42  N   UNL A   1      41.643  29.113  31.944  1.00  0.00    -0.248 NA
ATOM     43  C   UNL A   1      39.575  28.065  31.996  1.00  0.00     0.031 C 
ATOM     44  C   UNL A   1      40.476  28.974  27.439  1.00  0.00     0.029 A 
ATOM     45  N   UNL A   1      41.973  28.107  28.827  1.00  0.00    -0.354 N 
ATOM     46  C   UNL A   1      41.556  28.353  33.111  1.00  0.00     0.074 A 
ATOM     47  C   UNL A   1      40.207  27.842  33.148  1.00  0.00     0.031 C 
ATOM     48  C   UNL A   1      41.219  28.092  26.731  1.00  0.00     0.029 A 
ATOM     49  C   UNL A   1      42.214  27.494  27.608  1.00  0.00     0.049 A 
ATOM     50  H   UNL A   1      42.559  27.990  29.610  1.00  0.00     0.167 HD
ATOM     51  C   UNL A   1      42.653  28.060  33.870  1.00  0.00     0.034 A 
ATOM     52  C   UNL A   1      43.109  26.507  27.355  1.00  0.00     0.034 A 
ATOM     53  C   UNL A   1      43.774  28.892  33.521  1.00  0.00     0.049 A 
ATOM     54  C   UNL A   1      44.143  26.515  28.416  1.00  0.00     0.074 A 
ATOM     55  C   UNL A   1      44.002  30.254  33.492  1.00  0.00     0.029 A 
ATOM     56  N   UNL A   1      44.797  28.331  32.795  1.00  0.00    -0.354 N 
ATOM     57  N   UNL A   1      45.060  27.432  28.547  1.00  0.00    -0.248 NA
ATOM     58  C   UNL A   1      43.918  25.685  29.590  1.00  0.00     0.031 C 
ATOM     59  C   UNL A   1      44.834  30.463  32.356  1.00  0.00     0.029 A 
ATOM     60  C   UNL A   1      45.104  29.214  31.794  1.00  0.00     0.049 A 
ATOM     61  H   UNL A   1      45.228  27.462  32.963  1.00  0.00     0.167 HD
ATOM     62  C   UNL A   1      45.175  27.609  29.916  1.00  0.00     0.074 A 
ATOM     63  C   UNL A   1      44.550  26.425  30.504  1.00  0.00     0.031 C 
ATOM     64  C   UNL A   1      45.499  28.820  30.458  1.00  0.00     0.034 A 
BRANCH  51  65
ATOM     65  C   UNL A   1      42.809  26.814  34.713  1.00  0.00     0.023 A 
ATOM     66  C   UNL A   1      43.620  25.732  34.332  1.00  0.00     0.031 A 
ATOM     67  C   UNL A   1      42.330  26.780  36.042  1.00  0.00     0.131 A 
ATOM     68  C   UNL A   1      43.926  24.690  35.220  1.00  0.00     0.055 A 
ATOM     69  C   UNL A   1      42.694  25.778  36.951  1.00  0.00     0.041 A 
ATOM     70  F   UNL A   1      41.546  27.757  36.522  1.00  0.00    -0.206 F 
ATOM     71  C   UNL A   1      43.499  24.725  36.541  1.00  0.00     0.022 A 
BRANCH  68  72
ATOM     72  S   UNL A   1      44.911  23.276  34.655  1.00  0.00     0.124 S 
ATOM     73  O   UNL A   1      43.873  22.372  34.158  1.00  0.00    -0.237 OA
ATOM     74  O   UNL A   1      45.750  23.895  33.629  1.00  0.00    -0.237 OA
ATOM     75  O   UNL A   1      45.612  22.845  35.851  1.00  0.00    -0.744 OA
ENDBRANCH  68  72
ENDBRANCH  51  65
BRANCH  52  76
ATOM     76  C   UNL A   1      42.884  25.318  26.498  1.00  0.00     0.023 A 
ATOM     77  C   UNL A   1      41.901  24.378  26.854  1.00  0.00     0.031 A 
ATOM     78  C   UNL A   1      43.816  24.934  25.517  1.00  0.00     0.131 A 
ATOM     79  C   UNL A   1      41.895  23.097  26.288  1.00  0.00     0.055 A 
ATOM     80  C   UNL A   1      43.802  23.658  24.942  1.00  0.00     0.041 A 
ATOM     81  F   UNL A   1      44.803  25.766  25.151  1.00  0.00    -0.206 F 
ATOM     82  C   UNL A   1      42.846  22.726  25.336  1.00  0.00     0.022 A 
BRANCH  79  83
ATOM     83  S   UNL A   1      40.681  21.870  26.841  1.00  0.00     0.124 S 
ATOM     84  O   UNL A   1      40.988  20.721  25.991  1.00  0.00    -0.237 OA
ATOM     85  O   UNL A   1      41.027  21.721  28.249  1.00  0.00    -0.237 OA
ATOM     86  O   UNL A   1      39.399  22.512  26.565  1.00  0.00    -0.744 OA
ENDBRANCH  79  83
ENDBRANCH  52  76
BRANCH  64  87
ATOM     87  C   UNL A   1      46.021  29.931  29.573  1.00  0.00     0.023 A 
ATOM     88  C   UNL A   1      45.080  30.589  28.756  1.00  0.00     0.031 A 
ATOM     89  C   UNL A   1      47.383  30.186  29.327  1.00  0.00     0.131 A 
ATOM     90  C   UNL A   1      45.503  31.416  27.709  1.00  0.00     0.055 A 
ATOM     91  C   UNL A   1      47.799  31.078  28.332  1.00  0.00     0.041 A 
ATOM     92  F   UNL A   1      48.354  29.517  29.964  1.00  0.00    -0.206 F 
ATOM     93  C   UNL A   1      46.858  31.681  27.504  1.00  0.00     0.022 A 
BRANCH  90  94
ATOM     94  S   UNL A   1      44.315  32.018  26.481  1.00  0.00     0.124 S 
ATOM     95  O   UNL A   1      43.728  33.171  27.157  1.00  0.00    -0.237 OA
ATOM     96  O   UNL A   1      45.177  32.332  25.343  1.00  0.00    -0.237 OA
ATOM     97  O   UNL A   1      43.413  30.889  26.276  1.00  0.00    -0.744 OA
ENDBRANCH  90  94
ENDBRANCH  64  87
ENDBRANCH  38  39
ENDBRANCH  30  33
ENDBRANCH  28  29
ENDBRANCH  27  28
ENDBRANCH   1  27
TORSDOF 18
ENDMDL
