MODEL 1
REMARK VINA RESULT:     -11.5      0.000      0.000
REMARK SMILES CC(C)(CC(=O)NCCCCNC(=O)c1ccc(-c2c3nc(c(-c4cc(S(=O)(=O)[O-])ccc4F)c4ccc([nH]4)c(-c4cc(S(=O)(=O)[O-])ccc4F)c4nc(c(-c5cc(S(=O)(=O)[O-])ccc5F)c5ccc2[nH]5)C=C4)C=C3)cc1)NC(=O)c1nc(C(C)(C)C)n[nH]1
REMARK SMILES IDX 9 1 8 2 7 3 5 4 6 5 4 7 2 8 1 9 3 10 78 11 79 12 80 14 81 15
REMARK SMILES IDX 82 16 89 17 83 18 88 19 84 21 85 22 86 23 87 24 10 25 11 26
REMARK SMILES IDX 12 27 13 28 14 30 15 31 16 32 77 33 17 34 76 35 18 36 19 37
REMARK SMILES IDX 20 38 70 39 21 40 75 41 69 42 71 43 22 44 74 45 68 46 67 47
REMARK SMILES IDX 23 49 55 50 35 51 54 52 36 53 39 54 53 55 72 56 37 57 38 58
REMARK SMILES IDX 52 60 73 61 40 62 24 63 25 64 33 65 26 66 32 67 34 68 31 69
REMARK SMILES IDX 27 70 28 71 29 72 30 73 56 74 57 75 65 76 58 77 64 78 66 79
REMARK SMILES IDX 63 80 59 81 60 82 61 83 62 84 41 85 42 86 50 87 43 88 49 89
REMARK SMILES IDX 51 90 48 91 44 92 45 93 46 94 47 95
REMARK H PARENT 7 6 78 13 89 20 12 29 71 48 39 59
REMARK Flexibility Score: inf
ROOT
ATOM      1  C   UNL A   1      35.312  23.777  24.108  1.00  0.00     0.023 C 
ENDROOT
BRANCH   1   2
ATOM      2  C   UNL A   1      34.102  23.551  23.225  1.00  0.00     0.116 C 
BRANCH   2   3
ATOM      3  N   UNL A   1      33.611  24.835  22.767  1.00  0.00    -0.356 N 
ATOM      4  C   UNL A   1      32.368  25.364  22.933  1.00  0.00     0.222 C 
ATOM      5  O   UNL A   1      32.033  26.327  22.244  1.00  0.00    -0.275 OA
ATOM      6  H   UNL A   1      34.256  25.393  22.275  1.00  0.00     0.163 HD
BRANCH   4   7
ATOM      7  C   UNL A   1      31.466  24.850  24.035  1.00  0.00     0.127 C 
BRANCH   7   8
ATOM      8  C   UNL A   1      31.537  25.482  25.457  1.00  0.00     0.044 C 
ATOM      9  C   UNL A   1      32.938  25.996  25.817  1.00  0.00     0.035 C 
ATOM     10  C   UNL A   1      30.689  26.785  25.350  1.00  0.00     0.035 C 
BRANCH   8  11
ATOM     11  N   UNL A   1      30.872  24.649  26.488  1.00  0.00    -0.344 N 
ATOM     12  C   UNL A   1      30.764  23.310  26.815  1.00  0.00     0.289 C 
ATOM     13  H   UNL A   1      30.363  25.208  27.121  1.00  0.00     0.164 HD
ATOM     14  O   UNL A   1      29.813  23.034  27.551  1.00  0.00    -0.266 OA
BRANCH  12  15
ATOM     15  C   UNL A   1      31.756  22.326  26.443  1.00  0.00     0.214 A 
ATOM     16  N   UNL A   1      31.668  21.454  25.447  1.00  0.00    -0.207 NA
ATOM     17  N   UNL A   1      32.825  21.974  27.208  1.00  0.00    -0.255 N 
ATOM     18  C   UNL A   1      32.755  20.621  25.620  1.00  0.00     0.156 A 
ATOM     19  N   UNL A   1      33.503  20.942  26.689  1.00  0.00    -0.158 NA
ATOM     20  H   UNL A   1      33.072  22.426  28.047  1.00  0.00     0.192 HD
BRANCH  18  21
ATOM     21  C   UNL A   1      33.066  19.404  24.754  1.00  0.00     0.024 C 
ATOM     22  C   UNL A   1      34.592  19.203  24.683  1.00  0.00     0.019 C 
ATOM     23  C   UNL A   1      32.462  18.082  25.283  1.00  0.00     0.019 C 
ATOM     24  C   UNL A   1      32.530  19.625  23.321  1.00  0.00     0.019 C 
ENDBRANCH  18  21
ENDBRANCH  12  15
ENDBRANCH   8  11
ENDBRANCH   7   8
ENDBRANCH   4   7
ENDBRANCH   2   3
ENDBRANCH   1   2
BRANCH   1  25
ATOM     25  C   UNL A   1      36.158  22.543  24.327  1.00  0.00     0.023 C 
BRANCH  25  26
ATOM     26  C   UNL A   1      36.611  22.328  25.752  1.00  0.00     0.116 C 
BRANCH  26  27
ATOM     27  N   UNL A   1      37.680  21.345  25.857  1.00  0.00    -0.352 N 
ATOM     28  C   UNL A   1      39.010  21.482  26.177  1.00  0.00     0.251 C 
ATOM     29  H   UNL A   1      37.401  20.420  25.667  1.00  0.00     0.163 HD
ATOM     30  O   UNL A   1      39.744  20.506  26.052  1.00  0.00    -0.269 OA
BRANCH  28  31
ATOM     31  C   UNL A   1      39.568  22.780  26.627  1.00  0.00     0.039 A 
ATOM     32  C   UNL A   1      40.529  22.781  27.642  1.00  0.00     0.014 A 
ATOM     33  C   UNL A   1      39.146  23.995  26.089  1.00  0.00     0.014 A 
ATOM     34  C   UNL A   1      41.084  23.988  28.076  1.00  0.00     0.010 A 
ATOM     35  C   UNL A   1      39.804  25.175  26.413  1.00  0.00     0.010 A 
ATOM     36  C   UNL A   1      40.750  25.196  27.443  1.00  0.00    -0.014 A 
BRANCH  36  37
ATOM     37  C   UNL A   1      41.333  26.491  27.884  1.00  0.00     0.031 A 
ATOM     38  C   UNL A   1      42.756  26.842  27.523  1.00  0.00     0.074 A 
ATOM     39  C   UNL A   1      40.594  27.333  28.635  1.00  0.00     0.049 A 
ATOM     40  N   UNL A   1      43.448  27.911  27.825  1.00  0.00    -0.248 NA
ATOM     41  C   UNL A   1      43.516  25.842  26.757  1.00  0.00     0.031 C 
ATOM     42  C   UNL A   1      39.231  27.071  29.103  1.00  0.00     0.029 A 
ATOM     43  N   UNL A   1      40.880  28.580  29.130  1.00  0.00    -0.354 N 
ATOM     44  C   UNL A   1      44.722  27.701  27.305  1.00  0.00     0.074 A 
ATOM     45  C   UNL A   1      44.730  26.368  26.745  1.00  0.00     0.031 C 
ATOM     46  C   UNL A   1      38.782  28.145  29.770  1.00  0.00     0.029 A 
ATOM     47  C   UNL A   1      39.837  29.151  29.823  1.00  0.00     0.049 A 
ATOM     48  H   UNL A   1      41.749  29.023  29.003  1.00  0.00     0.167 HD
ATOM     49  C   UNL A   1      45.779  28.550  27.267  1.00  0.00     0.034 A 
ATOM     50  C   UNL A   1      39.742  30.350  30.429  1.00  0.00     0.034 A 
ATOM     51  C   UNL A   1      45.742  29.885  27.813  1.00  0.00     0.049 A 
ATOM     52  C   UNL A   1      40.923  31.285  30.360  1.00  0.00     0.074 A 
ATOM     53  C   UNL A   1      46.726  30.857  27.781  1.00  0.00     0.029 A 
ATOM     54  N   UNL A   1      44.663  30.435  28.495  1.00  0.00    -0.354 N 
ATOM     55  N   UNL A   1      42.100  31.095  29.807  1.00  0.00    -0.248 NA
ATOM     56  C   UNL A   1      40.752  32.604  30.977  1.00  0.00     0.031 C 
ATOM     57  C   UNL A   1      46.273  31.963  28.509  1.00  0.00     0.029 A 
ATOM     58  C   UNL A   1      44.970  31.721  28.915  1.00  0.00     0.049 A 
ATOM     59  H   UNL A   1      43.807  29.979  28.656  1.00  0.00     0.167 HD
ATOM     60  C   UNL A   1      42.798  32.287  29.984  1.00  0.00     0.074 A 
ATOM     61  C   UNL A   1      41.897  33.193  30.668  1.00  0.00     0.031 C 
ATOM     62  C   UNL A   1      44.067  32.606  29.615  1.00  0.00     0.034 A 
BRANCH  49  63
ATOM     63  C   UNL A   1      47.060  28.046  26.636  1.00  0.00     0.023 A 
ATOM     64  C   UNL A   1      47.301  28.152  25.254  1.00  0.00     0.031 A 
ATOM     65  C   UNL A   1      48.042  27.421  27.423  1.00  0.00     0.131 A 
ATOM     66  C   UNL A   1      48.447  27.568  24.692  1.00  0.00     0.055 A 
ATOM     67  C   UNL A   1      49.225  26.923  26.872  1.00  0.00     0.041 A 
ATOM     68  F   UNL A   1      47.863  27.264  28.745  1.00  0.00    -0.206 F 
ATOM     69  C   UNL A   1      49.426  26.979  25.496  1.00  0.00     0.022 A 
BRANCH  66  70
ATOM     70  S   UNL A   1      48.563  27.443  22.885  1.00  0.00     0.124 S 
ATOM     71  O   UNL A   1      49.876  28.032  22.633  1.00  0.00    -0.237 OA
ATOM     72  O   UNL A   1      48.452  26.007  22.661  1.00  0.00    -0.237 OA
ATOM     73  O   UNL A   1      47.431  28.239  22.413  1.00  0.00    -0.744 OA
ENDBRANCH  66  70
ENDBRANCH  49  63
BRANCH  50  74
ATOM     74  C   UNL A   1      38.492  30.740  31.143  1.00  0.00     0.023 A 
ATOM     75  C   UNL A   1      37.454  31.417  30.478  1.00  0.00     0.031 A 
ATOM     76  C   UNL A   1      38.327  30.471  32.513  1.00  0.00     0.131 A 
ATOM     77  C   UNL A   1      36.324  31.843  31.195  1.00  0.00     0.055 A 
ATOM     78  C   UNL A   1      37.175  30.844  33.207  1.00  0.00     0.041 A 
ATOM     79  F   UNL A   1      39.284  29.822  33.196  1.00  0.00    -0.206 F 
ATOM     80  C   UNL A   1      36.171  31.547  32.551  1.00  0.00     0.022 A 
BRANCH  77  81
ATOM     81  S   UNL A   1      35.094  32.872  30.345  1.00  0.00     0.124 S 
ATOM     82  O   UNL A   1      35.886  34.039  29.977  1.00  0.00    -0.237 OA
ATOM     83  O   UNL A   1      34.681  32.005  29.247  1.00  0.00    -0.237 OA
ATOM     84  O   UNL A   1      34.079  33.103  31.370  1.00  0.00    -0.744 OA
ENDBRANCH  77  81
ENDBRANCH  50  74
BRANCH  62  85
ATOM     85  C   UNL A   1      44.526  34.015  29.911  1.00  0.00     0.023 A 
ATOM     86  C   UNL A   1      44.309  35.071  29.008  1.00  0.00     0.031 A 
ATOM     87  C   UNL A   1      45.238  34.294  31.092  1.00  0.00     0.131 A 
ATOM     88  C   UNL A   1      44.877  36.330  29.255  1.00  0.00     0.055 A 
ATOM     89  C   UNL A   1      45.729  35.570  31.372  1.00  0.00     0.041 A 
ATOM     90  F   UNL A   1      45.479  33.326  31.991  1.00  0.00    -0.206 F 
ATOM     91  C   UNL A   1      45.569  36.591  30.440  1.00  0.00     0.022 A 
BRANCH  88  92
ATOM     92  S   UNL A   1      44.833  37.573  27.935  1.00  0.00     0.124 S 
ATOM     93  O   UNL A   1      46.249  37.885  27.767  1.00  0.00    -0.237 OA
ATOM     94  O   UNL A   1      44.207  36.840  26.839  1.00  0.00    -0.237 OA
ATOM     95  O   UNL A   1      44.025  38.649  28.505  1.00  0.00    -0.744 OA
ENDBRANCH  88  92
ENDBRANCH  62  85
ENDBRANCH  36  37
ENDBRANCH  28  31
ENDBRANCH  26  27
ENDBRANCH  25  26
ENDBRANCH   1  25
TORSDOF 18
ENDMDL
MODEL 2
REMARK VINA RESULT:     -11.4      4.937      9.774
REMARK SMILES CC(C)(CC(=O)NCCCCNC(=O)c1ccc(-c2c3nc(c(-c4cc(S(=O)(=O)[O-])ccc4F)c4ccc([nH]4)c(-c4cc(S(=O)(=O)[O-])ccc4F)c4nc(c(-c5cc(S(=O)(=O)[O-])ccc5F)c5ccc2[nH]5)C=C4)C=C3)cc1)NC(=O)c1nc(C(C)(C)C)n[nH]1
REMARK SMILES IDX 9 1 8 2 7 3 5 4 6 5 4 7 2 8 1 9 3 10 78 11 79 12 80 14 81 15
REMARK SMILES IDX 82 16 89 17 83 18 88 19 84 21 85 22 86 23 87 24 10 25 11 26
REMARK SMILES IDX 12 27 13 28 14 30 15 31 16 32 77 33 17 34 76 35 18 36 19 37
REMARK SMILES IDX 20 38 70 39 21 40 75 41 69 42 71 43 22 44 74 45 68 46 67 47
REMARK SMILES IDX 23 49 55 50 35 51 54 52 36 53 39 54 53 55 72 56 37 57 38 58
REMARK SMILES IDX 52 60 73 61 40 62 24 63 25 64 33 65 26 66 32 67 34 68 31 69
REMARK SMILES IDX 27 70 28 71 29 72 30 73 56 74 57 75 65 76 58 77 64 78 66 79
REMARK SMILES IDX 63 80 59 81 60 82 61 83 62 84 41 85 42 86 50 87 43 88 49 89
REMARK SMILES IDX 51 90 48 91 44 92 45 93 46 94 47 95
REMARK H PARENT 7 6 78 13 89 20 12 29 71 48 39 59
REMARK Flexibility Score: inf
ROOT
ATOM      1  C   UNL A   1      31.616  27.414  26.335  1.00  0.00     0.023 C 
ENDROOT
BRANCH   1   2
ATOM      2  C   UNL A   1      30.841  26.158  25.996  1.00  0.00     0.116 C 
BRANCH   2   3
ATOM      3  N   UNL A   1      31.421  25.042  26.716  1.00  0.00    -0.356 N 
ATOM      4  C   UNL A   1      31.417  23.727  26.366  1.00  0.00     0.222 C 
ATOM      5  O   UNL A   1      31.697  22.883  27.217  1.00  0.00    -0.275 OA
ATOM      6  H   UNL A   1      31.871  25.263  27.563  1.00  0.00     0.163 HD
BRANCH   4   7
ATOM      7  C   UNL A   1      31.196  23.327  24.923  1.00  0.00     0.127 C 
BRANCH   7   8
ATOM      8  C   UNL A   1      32.416  23.117  23.978  1.00  0.00     0.044 C 
ATOM      9  C   UNL A   1      32.111  22.176  22.804  1.00  0.00     0.035 C 
ATOM     10  C   UNL A   1      32.625  24.499  23.291  1.00  0.00     0.035 C 
BRANCH   8  11
ATOM     11  N   UNL A   1      33.672  22.837  24.718  1.00  0.00    -0.344 N 
ATOM     12  C   UNL A   1      34.188  21.842  25.526  1.00  0.00     0.289 C 
ATOM     13  H   UNL A   1      34.322  23.567  24.599  1.00  0.00     0.164 HD
ATOM     14  O   UNL A   1      35.149  22.188  26.219  1.00  0.00    -0.266 OA
BRANCH  12  15
ATOM     15  C   UNL A   1      33.736  20.469  25.472  1.00  0.00     0.214 A 
ATOM     16  N   UNL A   1      34.434  19.425  25.048  1.00  0.00    -0.207 NA
ATOM     17  N   UNL A   1      32.442  20.072  25.616  1.00  0.00    -0.255 N 
ATOM     18  C   UNL A   1      33.520  18.391  25.009  1.00  0.00     0.156 A 
ATOM     19  N   UNL A   1      32.284  18.763  25.385  1.00  0.00    -0.158 NA
ATOM     20  H   UNL A   1      31.707  20.678  25.863  1.00  0.00     0.192 HD
BRANCH  18  21
ATOM     21  C   UNL A   1      33.823  16.978  24.521  1.00  0.00     0.024 C 
ATOM     22  C   UNL A   1      33.854  16.964  22.980  1.00  0.00     0.019 C 
ATOM     23  C   UNL A   1      35.182  16.420  25.004  1.00  0.00     0.019 C 
ATOM     24  C   UNL A   1      32.719  16.007  25.000  1.00  0.00     0.019 C 
ENDBRANCH  18  21
ENDBRANCH  12  15
ENDBRANCH   8  11
ENDBRANCH   7   8
ENDBRANCH   4   7
ENDBRANCH   2   3
ENDBRANCH   1   2
BRANCH   1  25
ATOM     25  C   UNL A   1      31.939  28.283  25.141  1.00  0.00     0.023 C 
BRANCH  25  26
ATOM     26  C   UNL A   1      33.109  29.220  25.335  1.00  0.00     0.116 C 
BRANCH  26  27
ATOM     27  N   UNL A   1      32.709  30.513  25.872  1.00  0.00    -0.352 N 
ATOM     28  C   UNL A   1      33.232  31.272  26.892  1.00  0.00     0.251 C 
ATOM     29  H   UNL A   1      31.927  30.913  25.427  1.00  0.00     0.163 HD
ATOM     30  O   UNL A   1      32.615  32.270  27.252  1.00  0.00    -0.269 OA
BRANCH  28  31
ATOM     31  C   UNL A   1      34.490  30.887  27.577  1.00  0.00     0.039 A 
ATOM     32  C   UNL A   1      35.466  31.866  27.787  1.00  0.00     0.014 A 
ATOM     33  C   UNL A   1      34.738  29.579  27.991  1.00  0.00     0.014 A 
ATOM     34  C   UNL A   1      36.654  31.537  28.443  1.00  0.00     0.010 A 
ATOM     35  C   UNL A   1      35.849  29.288  28.774  1.00  0.00     0.010 A 
ATOM     36  C   UNL A   1      36.845  30.250  28.972  1.00  0.00    -0.014 A 
BRANCH  36  37
ATOM     37  C   UNL A   1      38.100  29.879  29.679  1.00  0.00     0.031 A 
ATOM     38  C   UNL A   1      38.374  30.414  31.063  1.00  0.00     0.074 A 
ATOM     39  C   UNL A   1      39.002  29.089  29.063  1.00  0.00     0.049 A 
ATOM     40  N   UNL A   1      39.413  30.220  31.836  1.00  0.00    -0.248 NA
ATOM     41  C   UNL A   1      37.369  31.321  31.640  1.00  0.00     0.031 C 
ATOM     42  C   UNL A   1      38.878  28.567  27.701  1.00  0.00     0.029 A 
ATOM     43  N   UNL A   1      40.199  28.582  29.503  1.00  0.00    -0.354 N 
ATOM     44  C   UNL A   1      39.193  30.994  32.972  1.00  0.00     0.074 A 
ATOM     45  C   UNL A   1      37.965  31.725  32.750  1.00  0.00     0.031 C 
ATOM     46  C   UNL A   1      39.926  27.772  27.437  1.00  0.00     0.029 A 
ATOM     47  C   UNL A   1      40.822  27.766  28.587  1.00  0.00     0.049 A 
ATOM     48  H   UNL A   1      40.576  28.783  30.390  1.00  0.00     0.167 HD
ATOM     49  C   UNL A   1      39.926  31.065  34.111  1.00  0.00     0.034 A 
ATOM     50  C   UNL A   1      41.984  27.088  28.668  1.00  0.00     0.034 A 
ATOM     51  C   UNL A   1      41.137  30.310  34.322  1.00  0.00     0.049 A 
ATOM     52  C   UNL A   1      42.775  27.169  29.948  1.00  0.00     0.074 A 
ATOM     53  C   UNL A   1      41.932  30.252  35.453  1.00  0.00     0.029 A 
ATOM     54  N   UNL A   1      41.731  29.481  33.377  1.00  0.00    -0.354 N 
ATOM     55  N   UNL A   1      42.519  27.854  31.040  1.00  0.00    -0.248 NA
ATOM     56  C   UNL A   1      43.999  26.363  30.015  1.00  0.00     0.031 C 
ATOM     57  C   UNL A   1      43.045  29.453  35.165  1.00  0.00     0.029 A 
ATOM     58  C   UNL A   1      42.899  28.934  33.889  1.00  0.00     0.049 A 
ATOM     59  H   UNL A   1      41.376  29.309  32.475  1.00  0.00     0.167 HD
ATOM     60  C   UNL A   1      43.538  27.536  31.935  1.00  0.00     0.074 A 
ATOM     61  C   UNL A   1      44.390  26.577  31.262  1.00  0.00     0.031 C 
ATOM     62  C   UNL A   1      43.750  27.993  33.197  1.00  0.00     0.034 A 
BRANCH  49  63
ATOM     63  C   UNL A   1      39.447  32.007  35.196  1.00  0.00     0.023 A 
ATOM     64  C   UNL A   1      38.832  31.538  36.371  1.00  0.00     0.031 A 
ATOM     65  C   UNL A   1      39.576  33.398  35.038  1.00  0.00     0.131 A 
ATOM     66  C   UNL A   1      38.296  32.447  37.297  1.00  0.00     0.055 A 
ATOM     67  C   UNL A   1      39.124  34.297  36.007  1.00  0.00     0.041 A 
ATOM     68  F   UNL A   1      40.130  33.912  33.928  1.00  0.00    -0.206 F 
ATOM     69  C   UNL A   1      38.464  33.824  37.137  1.00  0.00     0.022 A 
BRANCH  66  70
ATOM     70  S   UNL A   1      37.237  31.811  38.626  1.00  0.00     0.124 S 
ATOM     71  O   UNL A   1      36.054  32.656  38.490  1.00  0.00    -0.237 OA
ATOM     72  O   UNL A   1      37.071  30.411  38.254  1.00  0.00    -0.237 OA
ATOM     73  O   UNL A   1      38.025  32.046  39.835  1.00  0.00    -0.744 OA
ENDBRANCH  66  70
ENDBRANCH  49  63
BRANCH  50  74
ATOM     74  C   UNL A   1      42.465  26.273  27.515  1.00  0.00     0.023 A 
ATOM     75  C   UNL A   1      42.261  24.884  27.469  1.00  0.00     0.031 A 
ATOM     76  C   UNL A   1      43.168  26.868  26.452  1.00  0.00     0.131 A 
ATOM     77  C   UNL A   1      42.796  24.131  26.411  1.00  0.00     0.055 A 
ATOM     78  C   UNL A   1      43.646  26.123  25.372  1.00  0.00     0.041 A 
ATOM     79  F   UNL A   1      43.387  28.193  26.441  1.00  0.00    -0.206 F 
ATOM     80  C   UNL A   1      43.473  24.744  25.355  1.00  0.00     0.022 A 
BRANCH  77  81
ATOM     81  S   UNL A   1      42.671  22.322  26.482  1.00  0.00     0.124 S 
ATOM     82  O   UNL A   1      42.400  22.097  27.897  1.00  0.00    -0.237 OA
ATOM     83  O   UNL A   1      41.565  22.059  25.567  1.00  0.00    -0.237 OA
ATOM     84  O   UNL A   1      43.982  21.873  26.017  1.00  0.00    -0.744 OA
ENDBRANCH  77  81
ENDBRANCH  50  74
BRANCH  62  85
ATOM     85  C   UNL A   1      44.933  27.415  33.938  1.00  0.00     0.023 A 
ATOM     86  C   UNL A   1      44.832  26.229  34.687  1.00  0.00     0.031 A 
ATOM     87  C   UNL A   1      46.168  28.089  33.936  1.00  0.00     0.131 A 
ATOM     88  C   UNL A   1      45.912  25.806  35.476  1.00  0.00     0.055 A 
ATOM     89  C   UNL A   1      47.266  27.616  34.657  1.00  0.00     0.041 A 
ATOM     90  F   UNL A   1      46.326  29.227  33.242  1.00  0.00    -0.206 F 
ATOM     91  C   UNL A   1      47.134  26.481  35.451  1.00  0.00     0.022 A 
BRANCH  88  92
ATOM     92  S   UNL A   1      45.645  24.453  36.655  1.00  0.00     0.124 S 
ATOM     93  O   UNL A   1      44.924  23.480  35.839  1.00  0.00    -0.237 OA
ATOM     94  O   UNL A   1      47.009  24.089  37.024  1.00  0.00    -0.237 OA
ATOM     95  O   UNL A   1      44.859  25.076  37.718  1.00  0.00    -0.744 OA
ENDBRANCH  88  92
ENDBRANCH  62  85
ENDBRANCH  36  37
ENDBRANCH  28  31
ENDBRANCH  26  27
ENDBRANCH  25  26
ENDBRANCH   1  25
TORSDOF 18
ENDMDL
MODEL 3
REMARK VINA RESULT:     -11.4      2.254      8.363
REMARK SMILES CC(C)(CC(=O)NCCCCNC(=O)c1ccc(-c2c3nc(c(-c4cc(S(=O)(=O)[O-])ccc4F)c4ccc([nH]4)c(-c4cc(S(=O)(=O)[O-])ccc4F)c4nc(c(-c5cc(S(=O)(=O)[O-])ccc5F)c5ccc2[nH]5)C=C4)C=C3)cc1)NC(=O)c1nc(C(C)(C)C)n[nH]1
REMARK SMILES IDX 9 1 8 2 7 3 5 4 6 5 4 7 2 8 1 9 3 10 78 11 79 12 80 14 81 15
REMARK SMILES IDX 82 16 89 17 83 18 88 19 84 21 85 22 86 23 87 24 10 25 11 26
REMARK SMILES IDX 12 27 13 28 14 30 15 31 16 32 77 33 17 34 76 35 18 36 19 37
REMARK SMILES IDX 20 38 70 39 21 40 75 41 69 42 71 43 22 44 74 45 68 46 67 47
REMARK SMILES IDX 23 49 55 50 35 51 54 52 36 53 39 54 53 55 72 56 37 57 38 58
REMARK SMILES IDX 52 60 73 61 40 62 24 63 25 64 33 65 26 66 32 67 34 68 31 69
REMARK SMILES IDX 27 70 28 71 29 72 30 73 56 74 57 75 65 76 58 77 64 78 66 79
REMARK SMILES IDX 63 80 59 81 60 82 61 83 62 84 41 85 42 86 50 87 43 88 49 89
REMARK SMILES IDX 51 90 48 91 44 92 45 93 46 94 47 95
REMARK H PARENT 7 6 78 13 89 20 12 29 71 48 39 59
REMARK Flexibility Score: inf
ROOT
ATOM      1  C   UNL A   1      36.739  20.296  24.666  1.00  0.00     0.023 C 
ENDROOT
BRANCH   1   2
ATOM      2  C   UNL A   1      36.587  21.573  25.467  1.00  0.00     0.116 C 
BRANCH   2   3
ATOM      3  N   UNL A   1      35.615  21.352  26.519  1.00  0.00    -0.356 N 
ATOM      4  C   UNL A   1      34.363  21.875  26.626  1.00  0.00     0.222 C 
ATOM      5  O   UNL A   1      33.783  21.816  27.710  1.00  0.00    -0.275 OA
ATOM      6  H   UNL A   1      35.896  20.750  27.246  1.00  0.00     0.163 HD
BRANCH   4   7
ATOM      7  C   UNL A   1      33.656  22.405  25.397  1.00  0.00     0.127 C 
BRANCH   7   8
ATOM      8  C   UNL A   1      32.283  21.807  24.971  1.00  0.00     0.044 C 
ATOM      9  C   UNL A   1      31.915  22.122  23.514  1.00  0.00     0.035 C 
ATOM     10  C   UNL A   1      32.510  20.265  24.964  1.00  0.00     0.035 C 
BRANCH   8  11
ATOM     11  N   UNL A   1      31.215  22.054  25.972  1.00  0.00    -0.344 N 
ATOM     12  C   UNL A   1      30.690  23.125  26.670  1.00  0.00     0.289 C 
ATOM     13  H   UNL A   1      30.748  21.218  26.205  1.00  0.00     0.164 HD
ATOM     14  O   UNL A   1      30.038  22.817  27.672  1.00  0.00    -0.266 OA
BRANCH  12  15
ATOM     15  C   UNL A   1      30.775  24.490  26.201  1.00  0.00     0.214 A 
ATOM     16  N   UNL A   1      31.683  25.391  26.553  1.00  0.00    -0.207 NA
ATOM     17  N   UNL A   1      29.793  25.137  25.515  1.00  0.00    -0.255 N 
ATOM     18  C   UNL A   1      31.231  26.571  25.998  1.00  0.00     0.156 A 
ATOM     19  N   UNL A   1      30.076  26.432  25.325  1.00  0.00    -0.158 NA
ATOM     20  H   UNL A   1      28.970  24.703  25.195  1.00  0.00     0.192 HD
BRANCH  18  21
ATOM     21  C   UNL A   1      31.904  27.930  26.173  1.00  0.00     0.024 C 
ATOM     22  C   UNL A   1      33.424  27.777  25.974  1.00  0.00     0.019 C 
ATOM     23  C   UNL A   1      31.424  29.007  25.173  1.00  0.00     0.019 C 
ATOM     24  C   UNL A   1      31.645  28.465  27.600  1.00  0.00     0.019 C 
ENDBRANCH  18  21
ENDBRANCH  12  15
ENDBRANCH   8  11
ENDBRANCH   7   8
ENDBRANCH   4   7
ENDBRANCH   2   3
ENDBRANCH   1   2
BRANCH   1  25
ATOM     25  C   UNL A   1      37.916  19.443  25.078  1.00  0.00     0.023 C 
BRANCH  25  26
ATOM     26  C   UNL A   1      39.045  20.196  25.742  1.00  0.00     0.116 C 
BRANCH  26  27
ATOM     27  N   UNL A   1      40.164  19.334  26.093  1.00  0.00    -0.352 N 
ATOM     28  C   UNL A   1      41.454  19.629  26.466  1.00  0.00     0.251 C 
ATOM     29  H   UNL A   1      39.962  18.371  26.056  1.00  0.00     0.163 HD
ATOM     30  O   UNL A   1      42.258  18.707  26.568  1.00  0.00    -0.269 OA
BRANCH  28  31
ATOM     31  C   UNL A   1      41.890  21.027  26.707  1.00  0.00     0.039 A 
ATOM     32  C   UNL A   1      42.021  21.887  25.613  1.00  0.00     0.014 A 
ATOM     33  C   UNL A   1      42.197  21.497  27.983  1.00  0.00     0.014 A 
ATOM     34  C   UNL A   1      42.415  23.213  25.811  1.00  0.00     0.010 A 
ATOM     35  C   UNL A   1      42.441  22.849  28.195  1.00  0.00     0.010 A 
ATOM     36  C   UNL A   1      42.598  23.717  27.110  1.00  0.00    -0.014 A 
BRANCH  36  37
ATOM     37  C   UNL A   1      43.012  25.126  27.344  1.00  0.00     0.031 A 
ATOM     38  C   UNL A   1      42.060  26.093  28.005  1.00  0.00     0.074 A 
ATOM     39  C   UNL A   1      44.227  25.540  26.934  1.00  0.00     0.049 A 
ATOM     40  N   UNL A   1      42.227  27.361  28.283  1.00  0.00    -0.248 NA
ATOM     41  C   UNL A   1      40.729  25.579  28.365  1.00  0.00     0.031 C 
ATOM     42  C   UNL A   1      45.205  24.714  26.223  1.00  0.00     0.029 A 
ATOM     43  N   UNL A   1      44.851  26.756  27.060  1.00  0.00    -0.354 N 
ATOM     44  C   UNL A   1      41.021  27.795  28.827  1.00  0.00     0.074 A 
ATOM     45  C   UNL A   1      40.106  26.677  28.761  1.00  0.00     0.031 C 
ATOM     46  C   UNL A   1      46.324  25.429  26.025  1.00  0.00     0.029 A 
ATOM     47  C   UNL A   1      46.127  26.777  26.546  1.00  0.00     0.049 A 
ATOM     48  H   UNL A   1      44.425  27.538  27.479  1.00  0.00     0.167 HD
ATOM     49  C   UNL A   1      40.713  29.001  29.364  1.00  0.00     0.034 A 
ATOM     50  C   UNL A   1      47.036  27.771  26.503  1.00  0.00     0.034 A 
ATOM     51  C   UNL A   1      41.648  30.097  29.440  1.00  0.00     0.049 A 
ATOM     52  C   UNL A   1      46.678  29.099  27.120  1.00  0.00     0.074 A 
ATOM     53  C   UNL A   1      41.472  31.344  30.013  1.00  0.00     0.029 A 
ATOM     54  N   UNL A   1      42.938  30.078  28.922  1.00  0.00    -0.354 N 
ATOM     55  N   UNL A   1      45.555  29.473  27.690  1.00  0.00    -0.248 NA
ATOM     56  C   UNL A   1      47.721  30.130  27.108  1.00  0.00     0.031 C 
ATOM     57  C   UNL A   1      42.623  32.103  29.774  1.00  0.00     0.029 A 
ATOM     58  C   UNL A   1      43.556  31.301  29.135  1.00  0.00     0.049 A 
ATOM     59  H   UNL A   1      43.352  29.309  28.469  1.00  0.00     0.167 HD
ATOM     60  C   UNL A   1      45.770  30.775  28.133  1.00  0.00     0.074 A 
ATOM     61  C   UNL A   1      47.138  31.105  27.787  1.00  0.00     0.031 C 
ATOM     62  C   UNL A   1      44.916  31.622  28.767  1.00  0.00     0.034 A 
BRANCH  49  63
ATOM     63  C   UNL A   1      39.304  29.198  29.883  1.00  0.00     0.023 A 
ATOM     64  C   UNL A   1      38.332  29.904  29.149  1.00  0.00     0.031 A 
ATOM     65  C   UNL A   1      38.934  28.702  31.144  1.00  0.00     0.131 A 
ATOM     66  C   UNL A   1      37.075  30.166  29.716  1.00  0.00     0.055 A 
ATOM     67  C   UNL A   1      37.651  28.885  31.665  1.00  0.00     0.041 A 
ATOM     68  F   UNL A   1      39.822  28.041  31.907  1.00  0.00    -0.206 F 
ATOM     69  C   UNL A   1      36.717  29.636  30.957  1.00  0.00     0.022 A 
BRANCH  66  70
ATOM     70  S   UNL A   1      35.974  31.343  28.881  1.00  0.00     0.124 S 
ATOM     71  O   UNL A   1      35.075  31.726  29.967  1.00  0.00    -0.237 OA
ATOM     72  O   UNL A   1      36.901  32.371  28.424  1.00  0.00    -0.237 OA
ATOM     73  O   UNL A   1      35.355  30.545  27.825  1.00  0.00    -0.744 OA
ENDBRANCH  66  70
ENDBRANCH  49  63
BRANCH  50  74
ATOM     74  C   UNL A   1      48.367  27.551  25.866  1.00  0.00     0.023 A 
ATOM     75  C   UNL A   1      48.543  27.695  24.479  1.00  0.00     0.031 A 
ATOM     76  C   UNL A   1      49.479  27.160  26.632  1.00  0.00     0.131 A 
ATOM     77  C   UNL A   1      49.787  27.402  23.897  1.00  0.00     0.055 A 
ATOM     78  C   UNL A   1      50.730  26.928  26.056  1.00  0.00     0.041 A 
ATOM     79  F   UNL A   1      49.369  27.012  27.962  1.00  0.00    -0.206 F 
ATOM     80  C   UNL A   1      50.885  27.035  24.678  1.00  0.00     0.022 A 
BRANCH  77  81
ATOM     81  S   UNL A   1      49.926  27.421  22.088  1.00  0.00     0.124 S 
ATOM     82  O   UNL A   1      51.214  26.770  21.882  1.00  0.00    -0.237 OA
ATOM     83  O   UNL A   1      48.750  26.658  21.686  1.00  0.00    -0.237 OA
ATOM     84  O   UNL A   1      49.885  28.844  21.759  1.00  0.00    -0.744 OA
ENDBRANCH  77  81
ENDBRANCH  50  74
BRANCH  62  85
ATOM     85  C   UNL A   1      45.469  32.972  29.164  1.00  0.00     0.023 A 
ATOM     86  C   UNL A   1      46.084  33.183  30.410  1.00  0.00     0.031 A 
ATOM     87  C   UNL A   1      45.332  34.075  28.301  1.00  0.00     0.131 A 
ATOM     88  C   UNL A   1      46.453  34.481  30.797  1.00  0.00     0.055 A 
ATOM     89  C   UNL A   1      45.778  35.348  28.658  1.00  0.00     0.041 A 
ATOM     90  F   UNL A   1      44.751  33.935  27.098  1.00  0.00    -0.206 F 
ATOM     91  C   UNL A   1      46.321  35.561  29.922  1.00  0.00     0.022 A 
BRANCH  88  92
ATOM     92  S   UNL A   1      46.959  34.761  32.516  1.00  0.00     0.124 S 
ATOM     93  O   UNL A   1      48.414  34.808  32.398  1.00  0.00    -0.237 OA
ATOM     94  O   UNL A   1      46.303  36.026  32.831  1.00  0.00    -0.237 OA
ATOM     95  O   UNL A   1      46.432  33.594  33.222  1.00  0.00    -0.744 OA
ENDBRANCH  88  92
ENDBRANCH  62  85
ENDBRANCH  36  37
ENDBRANCH  28  31
ENDBRANCH  26  27
ENDBRANCH  25  26
ENDBRANCH   1  25
TORSDOF 18
ENDMDL
