MODEL 1
REMARK VINA RESULT:     -11.8      0.000      0.000
REMARK SMILES O=C(NCCCCNC(=O)[C@H]1CC[C@@H](CNC(=O)[C@H]2CCSC2)CC1)c1ccc(-c2c3nc(c(-c4cc(S(=O)(=O)[O-])ccc4F)c4ccc([nH]4)c(-c4cc(S(=O)(=O)[O-])ccc4F)c4nc(c(-c5cc(S(=O)(=O)[O-])ccc5F)c5ccc2[nH]5)C=C4)C=C3)cc1
REMARK SMILES IDX 5 1 4 2 3 3 1 4 2 5 26 7 27 8 88 9 28 10 87 11 29 12 30 13
REMARK SMILES IDX 31 14 81 15 32 16 86 17 80 18 82 19 33 20 85 21 79 22 78 23
REMARK SMILES IDX 34 25 66 26 46 27 65 28 47 29 50 30 64 31 83 32 48 33 49 34
REMARK SMILES IDX 63 36 84 37 51 38 35 39 36 40 44 41 37 42 43 43 45 44 42 45
REMARK SMILES IDX 38 46 39 47 40 48 41 49 67 50 68 51 76 52 69 53 75 54 77 55
REMARK SMILES IDX 74 56 70 57 71 58 72 59 73 60 52 61 53 62 61 63 54 64 60 65
REMARK SMILES IDX 62 66 59 67 55 68 56 69 57 70 58 71 6 72 7 73 8 74 9 75
REMARK SMILES IDX 10 77 11 78 25 79 12 80 24 81 13 82 14 83 15 84 16 85 17 86
REMARK SMILES IDX 18 88 19 89 20 90 23 91 21 92 22 93
REMARK H PARENT 3 6 82 24 50 35 8 76 16 87
REMARK Flexibility Score: inf
ROOT
ATOM      1  C   UNL A   1      35.714  21.145  25.571  1.00  0.00     0.023 C 
ENDROOT
BRANCH   1   2
ATOM      2  C   UNL A   1      37.146  21.521  25.198  1.00  0.00     0.116 C 
BRANCH   2   3
ATOM      3  N   UNL A   1      38.115  20.450  25.394  1.00  0.00    -0.352 N 
ATOM      4  O   UNL A   1      40.090  19.555  26.044  1.00  0.00    -0.269 OA
ATOM      5  C   UNL A   1      39.344  20.528  26.011  1.00  0.00     0.251 C 
ATOM      6  H   UNL A   1      37.862  19.565  25.044  1.00  0.00     0.163 HD
BRANCH   5   7
ATOM      7  C   UNL A   1      39.764  21.821  26.591  1.00  0.00     0.039 A 
ATOM      8  C   UNL A   1      39.248  23.015  26.087  1.00  0.00     0.014 A 
ATOM      9  C   UNL A   1      40.745  21.834  27.587  1.00  0.00     0.014 A 
ATOM     10  C   UNL A   1      39.832  24.220  26.456  1.00  0.00     0.010 A 
ATOM     11  C   UNL A   1      41.273  23.054  28.015  1.00  0.00     0.010 A 
ATOM     12  C   UNL A   1      40.858  24.255  27.417  1.00  0.00    -0.014 A 
BRANCH  12  13
ATOM     13  C   UNL A   1      41.480  25.558  27.762  1.00  0.00     0.031 A 
ATOM     14  C   UNL A   1      42.853  25.917  27.258  1.00  0.00     0.074 A 
ATOM     15  C   UNL A   1      40.771  26.444  28.490  1.00  0.00     0.049 A 
ATOM     16  N   UNL A   1      43.531  27.025  27.426  1.00  0.00    -0.248 NA
ATOM     17  C   UNL A   1      43.560  24.896  26.472  1.00  0.00     0.031 C 
ATOM     18  C   UNL A   1      39.432  26.203  29.031  1.00  0.00     0.029 A 
ATOM     19  N   UNL A   1      41.057  27.728  28.873  1.00  0.00    -0.354 N 
ATOM     20  C   UNL A   1      44.755  26.825  26.792  1.00  0.00     0.074 A 
ATOM     21  C   UNL A   1      44.732  25.478  26.262  1.00  0.00     0.031 C 
ATOM     22  C   UNL A   1      38.991  27.321  29.627  1.00  0.00     0.029 A 
ATOM     23  C   UNL A   1      40.036  28.335  29.565  1.00  0.00     0.049 A 
ATOM     24  H   UNL A   1      41.913  28.172  28.672  1.00  0.00     0.167 HD
ATOM     25  C   UNL A   1      45.793  27.688  26.663  1.00  0.00     0.034 A 
ATOM     26  C   UNL A   1      39.953  29.568  30.099  1.00  0.00     0.034 A 
ATOM     27  C   UNL A   1      45.789  29.036  27.184  1.00  0.00     0.049 A 
ATOM     28  C   UNL A   1      41.120  30.505  29.943  1.00  0.00     0.074 A 
ATOM     29  C   UNL A   1      46.774  30.005  27.084  1.00  0.00     0.029 A 
ATOM     30  N   UNL A   1      44.749  29.607  27.907  1.00  0.00    -0.354 N 
ATOM     31  N   UNL A   1      42.266  30.302  29.335  1.00  0.00    -0.248 NA
ATOM     32  C   UNL A   1      40.978  31.836  30.542  1.00  0.00     0.031 C 
ATOM     33  C   UNL A   1      46.355  31.137  27.794  1.00  0.00     0.029 A 
ATOM     34  C   UNL A   1      45.079  30.903  28.280  1.00  0.00     0.049 A 
ATOM     35  H   UNL A   1      43.901  29.157  28.125  1.00  0.00     0.167 HD
ATOM     36  C   UNL A   1      42.975  31.492  29.460  1.00  0.00     0.074 A 
ATOM     37  C   UNL A   1      42.117  32.411  30.183  1.00  0.00     0.031 C 
ATOM     38  C   UNL A   1      44.219  31.800  29.016  1.00  0.00     0.034 A 
BRANCH  25  39
ATOM     39  C   UNL A   1      47.039  27.180  25.974  1.00  0.00     0.023 A 
ATOM     40  C   UNL A   1      48.045  26.484  26.667  1.00  0.00     0.031 A 
ATOM     41  C   UNL A   1      47.236  27.422  24.602  1.00  0.00     0.131 A 
ATOM     42  C   UNL A   1      49.229  26.118  26.006  1.00  0.00     0.055 A 
ATOM     43  C   UNL A   1      48.382  26.987  23.931  1.00  0.00     0.041 A 
ATOM     44  F   UNL A   1      46.322  28.099  23.889  1.00  0.00    -0.206 F 
ATOM     45  C   UNL A   1      49.394  26.344  24.637  1.00  0.00     0.022 A 
BRANCH  42  46
ATOM     46  S   UNL A   1      50.609  25.471  26.991  1.00  0.00     0.124 S 
ATOM     47  O   UNL A   1      51.624  25.245  25.965  1.00  0.00    -0.237 OA
ATOM     48  O   UNL A   1      50.872  26.562  27.920  1.00  0.00    -0.237 OA
ATOM     49  O   UNL A   1      50.061  24.256  27.591  1.00  0.00    -0.744 OA
ENDBRANCH  42  46
ENDBRANCH  25  39
BRANCH  26  50
ATOM     50  C   UNL A   1      38.729  29.981  30.839  1.00  0.00     0.023 A 
ATOM     51  C   UNL A   1      37.736  30.758  30.223  1.00  0.00     0.031 A 
ATOM     52  C   UNL A   1      38.543  29.615  32.185  1.00  0.00     0.131 A 
ATOM     53  C   UNL A   1      36.618  31.174  30.960  1.00  0.00     0.055 A 
ATOM     54  C   UNL A   1      37.405  29.988  32.900  1.00  0.00     0.041 A 
ATOM     55  F   UNL A   1      39.460  28.864  32.817  1.00  0.00    -0.206 F 
ATOM     56  C   UNL A   1      36.440  30.784  32.290  1.00  0.00     0.022 A 
BRANCH  53  57
ATOM     57  S   UNL A   1      35.427  32.293  30.175  1.00  0.00     0.124 S 
ATOM     58  O   UNL A   1      34.448  32.481  31.239  1.00  0.00    -0.237 OA
ATOM     59  O   UNL A   1      36.262  33.448  29.858  1.00  0.00    -0.237 OA
ATOM     60  O   UNL A   1      34.957  31.532  29.020  1.00  0.00    -0.744 OA
ENDBRANCH  53  57
ENDBRANCH  26  50
BRANCH  38  61
ATOM     61  C   UNL A   1      44.698  33.207  29.272  1.00  0.00     0.023 A 
ATOM     62  C   UNL A   1      44.540  34.226  28.316  1.00  0.00     0.031 A 
ATOM     63  C   UNL A   1      45.359  33.521  30.472  1.00  0.00     0.131 A 
ATOM     64  C   UNL A   1      45.096  35.493  28.547  1.00  0.00     0.055 A 
ATOM     65  C   UNL A   1      45.860  34.799  30.721  1.00  0.00     0.041 A 
ATOM     66  F   UNL A   1      45.540  32.585  31.417  1.00  0.00    -0.206 F 
ATOM     67  C   UNL A   1      45.744  35.790  29.749  1.00  0.00     0.022 A 
BRANCH  64  68
ATOM     68  S   UNL A   1      45.058  36.718  27.209  1.00  0.00     0.124 S 
ATOM     69  O   UNL A   1      45.911  36.094  26.202  1.00  0.00    -0.237 OA
ATOM     70  O   UNL A   1      43.636  36.784  26.888  1.00  0.00    -0.237 OA
ATOM     71  O   UNL A   1      45.610  37.921  27.830  1.00  0.00    -0.744 OA
ENDBRANCH  64  68
ENDBRANCH  38  61
ENDBRANCH  12  13
ENDBRANCH   5   7
ENDBRANCH   2   3
ENDBRANCH   1   2
BRANCH   1  72
ATOM     72  C   UNL A   1      35.071  22.001  26.665  1.00  0.00     0.023 C 
BRANCH  72  73
ATOM     73  C   UNL A   1      33.877  21.352  27.363  1.00  0.00     0.116 C 
BRANCH  73  74
ATOM     74  N   UNL A   1      32.809  22.297  27.618  1.00  0.00    -0.356 N 
ATOM     75  C   UNL A   1      32.097  23.152  26.849  1.00  0.00     0.223 C 
ATOM     76  H   UNL A   1      32.542  22.324  28.566  1.00  0.00     0.163 HD
ATOM     77  O   UNL A   1      31.215  23.788  27.444  1.00  0.00    -0.275 OA
BRANCH  75  78
ATOM     78  C   UNL A   1      32.274  23.379  25.337  1.00  0.00     0.078 C 
ATOM     79  C   UNL A   1      30.874  23.261  24.690  1.00  0.00     0.014 C 
ATOM     80  C   UNL A   1      33.024  24.617  24.848  1.00  0.00     0.014 C 
ATOM     81  C   UNL A   1      30.873  23.498  23.181  1.00  0.00     0.006 C 
ATOM     82  C   UNL A   1      32.969  24.816  23.336  1.00  0.00     0.006 C 
ATOM     83  C   UNL A   1      31.536  24.828  22.798  1.00  0.00     0.008 C 
BRANCH  83  84
ATOM     84  C   UNL A   1      30.691  26.013  23.300  1.00  0.00     0.119 C 
BRANCH  84  85
ATOM     85  N   UNL A   1      31.133  27.297  22.781  1.00  0.00    -0.356 N 
ATOM     86  C   UNL A   1      31.933  28.244  23.341  1.00  0.00     0.223 C 
ATOM     87  H   UNL A   1      30.800  27.515  21.880  1.00  0.00     0.163 HD
ATOM     88  O   UNL A   1      32.288  29.184  22.625  1.00  0.00    -0.275 OA
BRANCH  86  89
ATOM     89  C   UNL A   1      32.335  28.208  24.807  1.00  0.00     0.089 C 
ATOM     90  C   UNL A   1      33.841  28.405  24.986  1.00  0.00     0.025 C 
ATOM     91  C   UNL A   1      31.558  29.181  25.690  1.00  0.00     0.083 C 
ATOM     92  C   UNL A   1      34.088  28.750  26.439  1.00  0.00     0.070 C 
ATOM     93  S   UNL A   1      32.759  29.900  26.849  1.00  0.00    -0.161 SA
ENDBRANCH  86  89
ENDBRANCH  84  85
ENDBRANCH  83  84
ENDBRANCH  75  78
ENDBRANCH  73  74
ENDBRANCH  72  73
ENDBRANCH   1  72
TORSDOF 17
ENDMDL
MODEL 2
REMARK VINA RESULT:     -11.7      5.076     10.538
REMARK SMILES O=C(NCCCCNC(=O)[C@H]1CC[C@@H](CNC(=O)[C@H]2CCSC2)CC1)c1ccc(-c2c3nc(c(-c4cc(S(=O)(=O)[O-])ccc4F)c4ccc([nH]4)c(-c4cc(S(=O)(=O)[O-])ccc4F)c4nc(c(-c5cc(S(=O)(=O)[O-])ccc5F)c5ccc2[nH]5)C=C4)C=C3)cc1
REMARK SMILES IDX 5 1 4 2 3 3 1 4 2 5 26 7 27 8 88 9 28 10 87 11 29 12 30 13
REMARK SMILES IDX 31 14 81 15 32 16 86 17 80 18 82 19 33 20 85 21 79 22 78 23
REMARK SMILES IDX 34 25 66 26 46 27 65 28 47 29 50 30 64 31 83 32 48 33 49 34
REMARK SMILES IDX 63 36 84 37 51 38 35 39 36 40 44 41 37 42 43 43 45 44 42 45
REMARK SMILES IDX 38 46 39 47 40 48 41 49 67 50 68 51 76 52 69 53 75 54 77 55
REMARK SMILES IDX 74 56 70 57 71 58 72 59 73 60 52 61 53 62 61 63 54 64 60 65
REMARK SMILES IDX 62 66 59 67 55 68 56 69 57 70 58 71 6 72 7 73 8 74 9 75
REMARK SMILES IDX 10 77 11 78 25 79 12 80 24 81 13 82 14 83 15 84 16 85 17 86
REMARK SMILES IDX 18 88 19 89 20 90 23 91 21 92 22 93
REMARK H PARENT 3 6 82 24 50 35 8 76 16 87
REMARK Flexibility Score: inf
ROOT
ATOM      1  C   UNL A   1      31.411  30.323  25.502  1.00  0.00     0.023 C 
ENDROOT
BRANCH   1   2
ATOM      2  C   UNL A   1      32.185  30.795  26.730  1.00  0.00     0.116 C 
BRANCH   2   3
ATOM      3  N   UNL A   1      32.055  32.220  27.006  1.00  0.00    -0.352 N 
ATOM      4  O   UNL A   1      32.695  34.219  27.854  1.00  0.00    -0.269 OA
ATOM      5  C   UNL A   1      32.969  33.045  27.624  1.00  0.00     0.251 C 
ATOM      6  H   UNL A   1      31.215  32.644  26.716  1.00  0.00     0.163 HD
BRANCH   5   7
ATOM      7  C   UNL A   1      34.265  32.476  28.048  1.00  0.00     0.039 A 
ATOM      8  C   UNL A   1      34.351  31.135  28.422  1.00  0.00     0.014 A 
ATOM      9  C   UNL A   1      35.377  33.316  28.150  1.00  0.00     0.014 A 
ATOM     10  C   UNL A   1      35.498  30.676  29.056  1.00  0.00     0.010 A 
ATOM     11  C   UNL A   1      36.558  32.827  28.714  1.00  0.00     0.010 A 
ATOM     12  C   UNL A   1      36.612  31.518  29.219  1.00  0.00    -0.014 A 
BRANCH  12  13
ATOM     13  C   UNL A   1      37.810  31.002  29.931  1.00  0.00     0.031 A 
ATOM     14  C   UNL A   1      38.078  31.377  31.364  1.00  0.00     0.074 A 
ATOM     15  C   UNL A   1      38.626  30.143  29.290  1.00  0.00     0.049 A 
ATOM     16  N   UNL A   1      39.049  30.988  32.153  1.00  0.00    -0.248 NA
ATOM     17  C   UNL A   1      37.140  32.320  31.991  1.00  0.00     0.031 C 
ATOM     18  C   UNL A   1      38.463  29.709  27.901  1.00  0.00     0.029 A 
ATOM     19  N   UNL A   1      39.731  29.457  29.724  1.00  0.00    -0.354 N 
ATOM     20  C   UNL A   1      38.857  31.658  33.358  1.00  0.00     0.074 A 
ATOM     21  C   UNL A   1      37.691  32.499  33.183  1.00  0.00     0.031 C 
ATOM     22  C   UNL A   1      39.398  28.790  27.615  1.00  0.00     0.029 A 
ATOM     23  C   UNL A   1      40.262  28.616  28.775  1.00  0.00     0.049 A 
ATOM     24  H   UNL A   1      40.107  29.560  30.628  1.00  0.00     0.167 HD
ATOM     25  C   UNL A   1      39.583  31.572  34.501  1.00  0.00     0.034 A 
ATOM     26  C   UNL A   1      41.332  27.800  28.830  1.00  0.00     0.034 A 
ATOM     27  C   UNL A   1      40.733  30.712  34.661  1.00  0.00     0.049 A 
ATOM     28  C   UNL A   1      42.120  27.725  30.109  1.00  0.00     0.074 A 
ATOM     29  C   UNL A   1      41.522  30.525  35.783  1.00  0.00     0.029 A 
ATOM     30  N   UNL A   1      41.261  29.896  33.668  1.00  0.00    -0.354 N 
ATOM     31  N   UNL A   1      41.921  28.360  31.240  1.00  0.00    -0.248 NA
ATOM     32  C   UNL A   1      43.275  26.821  30.116  1.00  0.00     0.031 C 
ATOM     33  C   UNL A   1      42.559  29.643  35.452  1.00  0.00     0.029 A 
ATOM     34  C   UNL A   1      42.379  29.224  34.144  1.00  0.00     0.049 A 
ATOM     35  H   UNL A   1      40.896  29.808  32.759  1.00  0.00     0.167 HD
ATOM     36  C   UNL A   1      42.915  27.914  32.104  1.00  0.00     0.074 A 
ATOM     37  C   UNL A   1      43.698  26.941  31.366  1.00  0.00     0.031 C 
ATOM     38  C   UNL A   1      43.159  28.271  33.390  1.00  0.00     0.034 A 
BRANCH  25  39
ATOM     39  C   UNL A   1      39.183  32.472  35.649  1.00  0.00     0.023 A 
ATOM     40  C   UNL A   1      39.629  33.801  35.746  1.00  0.00     0.031 A 
ATOM     41  C   UNL A   1      38.362  31.978  36.679  1.00  0.00     0.131 A 
ATOM     42  C   UNL A   1      39.312  34.566  36.880  1.00  0.00     0.055 A 
ATOM     43  C   UNL A   1      37.986  32.769  37.767  1.00  0.00     0.041 A 
ATOM     44  F   UNL A   1      37.920  30.711  36.653  1.00  0.00    -0.206 F 
ATOM     45  C   UNL A   1      38.474  34.068  37.880  1.00  0.00     0.022 A 
BRANCH  42  46
ATOM     46  S   UNL A   1      40.128  36.173  37.099  1.00  0.00     0.124 S 
ATOM     47  O   UNL A   1      39.312  36.778  38.150  1.00  0.00    -0.237 OA
ATOM     48  O   UNL A   1      41.481  35.791  37.481  1.00  0.00    -0.237 OA
ATOM     49  O   UNL A   1      40.002  36.803  35.786  1.00  0.00    -0.744 OA
ENDBRANCH  42  46
ENDBRANCH  25  39
BRANCH  26  50
ATOM     50  C   UNL A   1      41.724  27.001  27.637  1.00  0.00     0.023 A 
ATOM     51  C   UNL A   1      41.490  25.619  27.581  1.00  0.00     0.031 A 
ATOM     52  C   UNL A   1      42.355  27.611  26.537  1.00  0.00     0.131 A 
ATOM     53  C   UNL A   1      41.916  24.884  26.464  1.00  0.00     0.055 A 
ATOM     54  C   UNL A   1      42.732  26.885  25.407  1.00  0.00     0.041 A 
ATOM     55  F   UNL A   1      42.593  28.933  26.538  1.00  0.00    -0.206 F 
ATOM     56  C   UNL A   1      42.523  25.509  25.372  1.00  0.00     0.022 A 
BRANCH  53  57
ATOM     57  S   UNL A   1      41.726  23.081  26.487  1.00  0.00     0.124 S 
ATOM     58  O   UNL A   1      40.301  22.928  26.217  1.00  0.00    -0.237 OA
ATOM     59  O   UNL A   1      42.630  22.668  25.418  1.00  0.00    -0.237 OA
ATOM     60  O   UNL A   1      42.150  22.711  27.835  1.00  0.00    -0.744 OA
ENDBRANCH  53  57
ENDBRANCH  26  50
BRANCH  38  61
ATOM     61  C   UNL A   1      44.299  27.567  34.082  1.00  0.00     0.023 A 
ATOM     62  C   UNL A   1      44.138  26.297  34.664  1.00  0.00     0.031 A 
ATOM     63  C   UNL A   1      45.551  28.194  34.196  1.00  0.00     0.131 A 
ATOM     64  C   UNL A   1      45.190  25.724  35.393  1.00  0.00     0.055 A 
ATOM     65  C   UNL A   1      46.613  27.593  34.873  1.00  0.00     0.041 A 
ATOM     66  F   UNL A   1      45.758  29.408  33.662  1.00  0.00    -0.206 F 
ATOM     67  C   UNL A   1      46.432  26.358  35.490  1.00  0.00     0.022 A 
BRANCH  64  68
ATOM     68  S   UNL A   1      44.882  24.187  36.306  1.00  0.00     0.124 S 
ATOM     69  O   UNL A   1      45.988  23.343  35.862  1.00  0.00    -0.237 OA
ATOM     70  O   UNL A   1      44.937  24.632  37.694  1.00  0.00    -0.237 OA
ATOM     71  O   UNL A   1      43.560  23.771  35.841  1.00  0.00    -0.744 OA
ENDBRANCH  64  68
ENDBRANCH  38  61
ENDBRANCH  12  13
ENDBRANCH   5   7
ENDBRANCH   2   3
ENDBRANCH   1   2
BRANCH   1  72
ATOM     72  C   UNL A   1      31.394  28.809  25.274  1.00  0.00     0.023 C 
BRANCH  72  73
ATOM     73  C   UNL A   1      31.788  27.976  26.493  1.00  0.00     0.116 C 
BRANCH  73  74
ATOM     74  N   UNL A   1      30.983  26.779  26.623  1.00  0.00    -0.356 N 
ATOM     75  C   UNL A   1      31.094  25.509  26.172  1.00  0.00     0.223 C 
ATOM     76  H   UNL A   1      30.171  26.921  27.161  1.00  0.00     0.163 HD
ATOM     77  O   UNL A   1      30.194  24.738  26.534  1.00  0.00    -0.275 OA
BRANCH  75  78
ATOM     78  C   UNL A   1      32.224  24.954  25.285  1.00  0.00     0.078 C 
ATOM     79  C   UNL A   1      33.157  24.126  26.199  1.00  0.00     0.014 C 
ATOM     80  C   UNL A   1      31.869  24.203  24.002  1.00  0.00     0.014 C 
ATOM     81  C   UNL A   1      34.321  23.471  25.457  1.00  0.00     0.006 C 
ATOM     82  C   UNL A   1      33.067  23.550  23.317  1.00  0.00     0.006 C 
ATOM     83  C   UNL A   1      33.854  22.634  24.258  1.00  0.00     0.008 C 
BRANCH  83  84
ATOM     84  C   UNL A   1      33.061  21.405  24.739  1.00  0.00     0.119 C 
BRANCH  84  85
ATOM     85  N   UNL A   1      32.671  20.513  23.660  1.00  0.00    -0.356 N 
ATOM     86  C   UNL A   1      32.624  19.154  23.616  1.00  0.00     0.223 C 
ATOM     87  H   UNL A   1      32.396  20.965  22.829  1.00  0.00     0.163 HD
ATOM     88  O   UNL A   1      32.102  18.635  22.625  1.00  0.00    -0.275 OA
BRANCH  86  89
ATOM     89  C   UNL A   1      33.241  18.281  24.697  1.00  0.00     0.089 C 
ATOM     90  C   UNL A   1      32.330  17.110  25.068  1.00  0.00     0.025 C 
ATOM     91  C   UNL A   1      34.647  17.785  24.371  1.00  0.00     0.083 C 
ATOM     92  C   UNL A   1      33.166  16.102  25.828  1.00  0.00     0.070 C 
ATOM     93  S   UNL A   1      34.727  16.055  24.923  1.00  0.00    -0.161 SA
ENDBRANCH  86  89
ENDBRANCH  84  85
ENDBRANCH  83  84
ENDBRANCH  75  78
ENDBRANCH  73  74
ENDBRANCH  72  73
ENDBRANCH   1  72
TORSDOF 17
ENDMDL
MODEL 3
REMARK VINA RESULT:     -11.6      5.347      8.745
REMARK SMILES O=C(NCCCCNC(=O)[C@H]1CC[C@@H](CNC(=O)[C@H]2CCSC2)CC1)c1ccc(-c2c3nc(c(-c4cc(S(=O)(=O)[O-])ccc4F)c4ccc([nH]4)c(-c4cc(S(=O)(=O)[O-])ccc4F)c4nc(c(-c5cc(S(=O)(=O)[O-])ccc5F)c5ccc2[nH]5)C=C4)C=C3)cc1
REMARK SMILES IDX 5 1 4 2 3 3 1 4 2 5 26 7 27 8 88 9 28 10 87 11 29 12 30 13
REMARK SMILES IDX 31 14 81 15 32 16 86 17 80 18 82 19 33 20 85 21 79 22 78 23
REMARK SMILES IDX 34 25 66 26 46 27 65 28 47 29 50 30 64 31 83 32 48 33 49 34
REMARK SMILES IDX 63 36 84 37 51 38 35 39 36 40 44 41 37 42 43 43 45 44 42 45
REMARK SMILES IDX 38 46 39 47 40 48 41 49 67 50 68 51 76 52 69 53 75 54 77 55
REMARK SMILES IDX 74 56 70 57 71 58 72 59 73 60 52 61 53 62 61 63 54 64 60 65
REMARK SMILES IDX 62 66 59 67 55 68 56 69 57 70 58 71 6 72 7 73 8 74 9 75
REMARK SMILES IDX 10 77 11 78 25 79 12 80 24 81 13 82 14 83 15 84 16 85 17 86
REMARK SMILES IDX 18 88 19 89 20 90 23 91 21 92 22 93
REMARK H PARENT 3 6 82 24 50 35 8 76 16 87
REMARK Flexibility Score: inf
ROOT
ATOM      1  C   UNL A   1      31.373  31.818  26.618  1.00  0.00     0.023 C 
ENDROOT
BRANCH   1   2
ATOM      2  C   UNL A   1      32.527  32.815  26.549  1.00  0.00     0.116 C 
BRANCH   2   3
ATOM      3  N   UNL A   1      32.321  34.023  27.337  1.00  0.00    -0.352 N 
ATOM      4  O   UNL A   1      32.724  35.469  29.031  1.00  0.00    -0.269 OA
ATOM      5  C   UNL A   1      33.056  34.461  28.416  1.00  0.00     0.251 C 
ATOM      6  H   UNL A   1      31.566  34.595  27.067  1.00  0.00     0.163 HD
BRANCH   5   7
ATOM      7  C   UNL A   1      34.225  33.665  28.847  1.00  0.00     0.039 A 
ATOM      8  C   UNL A   1      34.045  32.388  29.378  1.00  0.00     0.014 A 
ATOM      9  C   UNL A   1      35.497  34.241  28.795  1.00  0.00     0.014 A 
ATOM     10  C   UNL A   1      35.107  31.755  30.010  1.00  0.00     0.010 A 
ATOM     11  C   UNL A   1      36.581  33.564  29.361  1.00  0.00     0.010 A 
ATOM     12  C   UNL A   1      36.386  32.339  30.019  1.00  0.00    -0.014 A 
BRANCH  12  13
ATOM     13  C   UNL A   1      37.490  31.649  30.733  1.00  0.00     0.031 A 
ATOM     14  C   UNL A   1      38.378  30.665  30.018  1.00  0.00     0.074 A 
ATOM     15  C   UNL A   1      37.725  31.962  32.022  1.00  0.00     0.049 A 
ATOM     16  N   UNL A   1      39.412  30.003  30.472  1.00  0.00    -0.248 NA
ATOM     17  C   UNL A   1      38.055  30.378  28.612  1.00  0.00     0.031 C 
ATOM     18  C   UNL A   1      36.929  32.901  32.816  1.00  0.00     0.029 A 
ATOM     19  N   UNL A   1      38.710  31.553  32.883  1.00  0.00    -0.354 N 
ATOM     20  C   UNL A   1      39.848  29.201  29.420  1.00  0.00     0.074 A 
ATOM     21  C   UNL A   1      38.944  29.442  28.315  1.00  0.00     0.031 C 
ATOM     22  C   UNL A   1      37.490  33.040  34.026  1.00  0.00     0.029 A 
ATOM     23  C   UNL A   1      38.645  32.155  34.117  1.00  0.00     0.049 A 
ATOM     24  H   UNL A   1      39.398  30.892  32.639  1.00  0.00     0.167 HD
ATOM     25  C   UNL A   1      40.904  28.351  29.383  1.00  0.00     0.034 A 
ATOM     26  C   UNL A   1      39.424  32.005  35.206  1.00  0.00     0.034 A 
ATOM     27  C   UNL A   1      41.806  28.139  30.493  1.00  0.00     0.049 A 
ATOM     28  C   UNL A   1      40.587  31.055  35.138  1.00  0.00     0.074 A 
ATOM     29  C   UNL A   1      42.925  27.325  30.553  1.00  0.00     0.029 A 
ATOM     30  N   UNL A   1      41.691  28.743  31.738  1.00  0.00    -0.354 N 
ATOM     31  N   UNL A   1      40.989  30.311  34.134  1.00  0.00    -0.248 NA
ATOM     32  C   UNL A   1      41.404  30.930  36.350  1.00  0.00     0.031 C 
ATOM     33  C   UNL A   1      43.450  27.392  31.850  1.00  0.00     0.029 A 
ATOM     34  C   UNL A   1      42.702  28.301  32.581  1.00  0.00     0.049 A 
ATOM     35  H   UNL A   1      40.993  29.390  31.988  1.00  0.00     0.167 HD
ATOM     36  C   UNL A   1      42.121  29.643  34.588  1.00  0.00     0.074 A 
ATOM     37  C   UNL A   1      42.348  30.091  35.948  1.00  0.00     0.031 C 
ATOM     38  C   UNL A   1      42.904  28.744  33.941  1.00  0.00     0.034 A 
BRANCH  25  39
ATOM     39  C   UNL A   1      41.109  27.550  28.117  1.00  0.00     0.023 A 
ATOM     40  C   UNL A   1      40.766  26.189  28.032  1.00  0.00     0.031 A 
ATOM     41  C   UNL A   1      41.683  28.154  26.984  1.00  0.00     0.131 A 
ATOM     42  C   UNL A   1      41.066  25.462  26.869  1.00  0.00     0.055 A 
ATOM     43  C   UNL A   1      41.908  27.444  25.802  1.00  0.00     0.041 A 
ATOM     44  F   UNL A   1      42.050  29.445  27.010  1.00  0.00    -0.206 F 
ATOM     45  C   UNL A   1      41.613  26.085  25.745  1.00  0.00     0.022 A 
BRANCH  42  46
ATOM     46  S   UNL A   1      40.863  23.659  26.896  1.00  0.00     0.124 S 
ATOM     47  O   UNL A   1      41.222  23.341  28.276  1.00  0.00    -0.237 OA
ATOM     48  O   UNL A   1      39.457  23.494  26.548  1.00  0.00    -0.237 OA
ATOM     49  O   UNL A   1      41.815  23.191  25.890  1.00  0.00    -0.744 OA
ENDBRANCH  42  46
ENDBRANCH  25  39
BRANCH  26  50
ATOM     50  C   UNL A   1      39.120  32.763  36.451  1.00  0.00     0.023 A 
ATOM     51  C   UNL A   1      38.310  32.211  37.455  1.00  0.00     0.031 A 
ATOM     52  C   UNL A   1      39.626  34.060  36.647  1.00  0.00     0.131 A 
ATOM     53  C   UNL A   1      37.999  32.968  38.595  1.00  0.00     0.055 A 
ATOM     54  C   UNL A   1      39.356  34.790  37.804  1.00  0.00     0.041 A 
ATOM     55  F   UNL A   1      40.414  34.629  35.719  1.00  0.00    -0.206 F 
ATOM     56  C   UNL A   1      38.528  34.248  38.782  1.00  0.00     0.022 A 
BRANCH  53  57
ATOM     57  S   UNL A   1      36.837  32.280  39.804  1.00  0.00     0.124 S 
ATOM     58  O   UNL A   1      37.340  30.920  39.962  1.00  0.00    -0.237 OA
ATOM     59  O   UNL A   1      37.025  33.171  40.945  1.00  0.00    -0.237 OA
ATOM     60  O   UNL A   1      35.543  32.395  39.135  1.00  0.00    -0.744 OA
ENDBRANCH  53  57
ENDBRANCH  26  50
BRANCH  38  61
ATOM     61  C   UNL A   1      44.102  28.225  34.696  1.00  0.00     0.023 A 
ATOM     62  C   UNL A   1      43.976  27.241  35.693  1.00  0.00     0.031 A 
ATOM     63  C   UNL A   1      45.379  28.751  34.443  1.00  0.00     0.131 A 
ATOM     64  C   UNL A   1      45.096  26.865  36.448  1.00  0.00     0.055 A 
ATOM     65  C   UNL A   1      46.502  28.330  35.157  1.00  0.00     0.041 A 
ATOM     66  F   UNL A   1      45.555  29.694  33.503  1.00  0.00    -0.206 F 
ATOM     67  C   UNL A   1      46.361  27.394  36.177  1.00  0.00     0.022 A 
BRANCH  64  68
ATOM     68  S   UNL A   1      44.860  25.754  37.863  1.00  0.00     0.124 S 
ATOM     69  O   UNL A   1      46.127  25.895  38.575  1.00  0.00    -0.237 OA
ATOM     70  O   UNL A   1      43.691  26.330  38.520  1.00  0.00    -0.237 OA
ATOM     71  O   UNL A   1      44.641  24.449  37.242  1.00  0.00    -0.744 OA
ENDBRANCH  64  68
ENDBRANCH  38  61
ENDBRANCH  12  13
ENDBRANCH   5   7
ENDBRANCH   2   3
ENDBRANCH   1   2
BRANCH   1  72
ATOM     72  C   UNL A   1      31.778  30.346  26.729  1.00  0.00     0.023 C 
BRANCH  72  73
ATOM     73  C   UNL A   1      31.861  29.606  25.394  1.00  0.00     0.116 C 
BRANCH  73  74
ATOM     74  N   UNL A   1      30.840  30.039  24.462  1.00  0.00    -0.356 N 
ATOM     75  C   UNL A   1      30.072  29.415  23.541  1.00  0.00     0.223 C 
ATOM     76  H   UNL A   1      30.666  31.007  24.510  1.00  0.00     0.163 HD
ATOM     77  O   UNL A   1      29.264  30.142  22.946  1.00  0.00    -0.275 OA
BRANCH  75  78
ATOM     78  C   UNL A   1      30.106  27.915  23.193  1.00  0.00     0.078 C 
ATOM     79  C   UNL A   1      31.336  27.685  22.284  1.00  0.00     0.014 C 
ATOM     80  C   UNL A   1      30.030  26.884  24.319  1.00  0.00     0.014 C 
ATOM     81  C   UNL A   1      31.534  26.226  21.876  1.00  0.00     0.006 C 
ATOM     82  C   UNL A   1      30.258  25.447  23.856  1.00  0.00     0.006 C 
ATOM     83  C   UNL A   1      31.570  25.281  23.084  1.00  0.00     0.008 C 
BRANCH  83  84
ATOM     84  C   UNL A   1      32.829  25.540  23.932  1.00  0.00     0.119 C 
BRANCH  84  85
ATOM     85  N   UNL A   1      34.027  24.923  23.387  1.00  0.00    -0.356 N 
ATOM     86  C   UNL A   1      34.450  23.631  23.436  1.00  0.00     0.223 C 
ATOM     87  H   UNL A   1      34.628  25.538  22.907  1.00  0.00     0.163 HD
ATOM     88  O   UNL A   1      35.433  23.328  22.755  1.00  0.00    -0.275 OA
BRANCH  86  89
ATOM     89  C   UNL A   1      33.799  22.593  24.336  1.00  0.00     0.089 C 
ATOM     90  C   UNL A   1      32.746  21.774  23.588  1.00  0.00     0.025 C 
ATOM     91  C   UNL A   1      34.789  21.673  25.046  1.00  0.00     0.083 C 
ATOM     92  C   UNL A   1      32.450  20.542  24.416  1.00  0.00     0.070 C 
ATOM     93  S   UNL A   1      34.071  20.004  24.998  1.00  0.00    -0.161 SA
ENDBRANCH  86  89
ENDBRANCH  84  85
ENDBRANCH  83  84
ENDBRANCH  75  78
ENDBRANCH  73  74
ENDBRANCH  72  73
ENDBRANCH   1  72
TORSDOF 17
ENDMDL
