MODEL 1
REMARK VINA RESULT:     -12.8      0.000      0.000
REMARK SMILES C[C@H]1[C@H](C(=O)NCCCCNC(=O)c2ccc(-c3c4nc(c(-c5cc(S(=O)(=O)[O-])ccc5F)c5ccc([nH]5)c(-c5cc(S(=O)(=O)[O-])ccc5F)c5nc(c(-c6cc(S(=O)(=O)[O-])ccc6F)c6ccc3[nH]6)C=C5)C=C4)cc2)CC[N@@H+]1Cc1ccc(C(F)(F)F)cc1
REMARK SMILES IDX 8 1 7 2 6 3 4 4 5 5 3 7 1 8 2 9 79 10 77 11 78 12 80 14
REMARK SMILES IDX 81 15 82 16 90 17 83 18 89 19 84 20 85 21 86 22 87 23 88 24
REMARK SMILES IDX 9 25 10 26 11 27 12 28 13 30 14 31 15 32 76 33 16 34 75 35
REMARK SMILES IDX 17 36 18 37 19 38 69 39 20 40 74 41 68 42 70 43 21 44 73 45
REMARK SMILES IDX 67 46 66 47 22 49 54 50 34 51 53 52 35 53 38 54 52 55 71 56
REMARK SMILES IDX 36 57 37 58 51 60 72 61 39 62 23 63 24 64 32 65 25 66 31 67
REMARK SMILES IDX 33 68 30 69 26 70 27 71 28 72 29 73 55 74 56 75 64 76 57 77
REMARK SMILES IDX 63 78 65 79 62 80 58 81 59 82 60 83 61 84 40 85 41 86 49 87
REMARK SMILES IDX 42 88 48 89 50 90 47 91 43 92 44 93 45 94 46 95
REMARK H PARENT 6 6 79 13 11 29 70 48 38 59
REMARK Flexibility Score: inf
ROOT
ATOM      1  C   UNL A   1      35.051  21.459  26.096  1.00  0.00     0.023 C 
ENDROOT
BRANCH   1   2
ATOM      2  C   UNL A   1      33.578  21.077  25.908  1.00  0.00     0.116 C 
BRANCH   2   3
ATOM      3  N   UNL A   1      32.709  21.819  26.794  1.00  0.00    -0.356 N 
ATOM      4  C   UNL A   1      32.233  23.087  26.722  1.00  0.00     0.229 C 
ATOM      5  O   UNL A   1      31.457  23.430  27.623  1.00  0.00    -0.275 OA
ATOM      6  H   UNL A   1      32.412  21.316  27.587  1.00  0.00     0.163 HD
BRANCH   4   7
ATOM      7  C   UNL A   1      32.530  24.071  25.594  1.00  0.00     0.142 C 
ATOM      8  C   UNL A   1      30.643  24.655  24.046  1.00  0.00     0.076 C 
ATOM      9  C   UNL A   1      31.501  25.152  25.217  1.00  0.00     0.193 C 
ATOM     10  N   UNL A   1      32.285  26.320  24.753  1.00  0.00    -0.328 N 
ATOM     11  C   UNL A   1      33.837  24.831  25.742  1.00  0.00     0.081 C 
ATOM     12  C   UNL A   1      33.682  25.904  24.674  1.00  0.00     0.263 C 
ATOM     13  H   UNL A   1      31.955  26.576  23.822  1.00  0.00     0.348 HD
BRANCH  10  14
ATOM     14  C   UNL A   1      32.013  27.626  25.384  1.00  0.00     0.299 C 
BRANCH  14  15
ATOM     15  C   UNL A   1      31.144  28.637  24.654  1.00  0.00     0.006 A 
ATOM     16  C   UNL A   1      30.291  28.230  23.617  1.00  0.00     0.010 A 
ATOM     17  C   UNL A   1      31.173  30.005  24.960  1.00  0.00     0.010 A 
ATOM     18  C   UNL A   1      29.376  29.127  23.053  1.00  0.00     0.013 A 
ATOM     19  C   UNL A   1      30.222  30.888  24.442  1.00  0.00     0.013 A 
ATOM     20  C   UNL A   1      29.274  30.441  23.523  1.00  0.00     0.056 A 
BRANCH  20  21
ATOM     21  C   UNL A   1      28.111  31.314  23.119  1.00  0.00     0.416 C 
ATOM     22  F   UNL A   1      27.519  30.933  21.959  1.00  0.00    -0.166 F 
ATOM     23  F   UNL A   1      27.126  31.294  24.066  1.00  0.00    -0.166 F 
ATOM     24  F   UNL A   1      28.447  32.626  22.967  1.00  0.00    -0.166 F 
ENDBRANCH  20  21
ENDBRANCH  14  15
ENDBRANCH  10  14
ENDBRANCH   4   7
ENDBRANCH   2   3
ENDBRANCH   1   2
BRANCH   1  25
ATOM     25  C   UNL A   1      36.020  20.812  25.096  1.00  0.00     0.023 C 
BRANCH  25  26
ATOM     26  C   UNL A   1      37.396  21.473  24.990  1.00  0.00     0.116 C 
BRANCH  26  27
ATOM     27  N   UNL A   1      38.503  20.584  25.299  1.00  0.00    -0.352 N 
ATOM     28  C   UNL A   1      39.591  20.792  26.126  1.00  0.00     0.251 C 
ATOM     29  H   UNL A   1      38.474  19.705  24.855  1.00  0.00     0.163 HD
ATOM     30  O   UNL A   1      40.412  19.904  26.269  1.00  0.00    -0.269 OA
BRANCH  28  31
ATOM     31  C   UNL A   1      39.792  22.120  26.757  1.00  0.00     0.039 A 
ATOM     32  C   UNL A   1      40.770  22.220  27.754  1.00  0.00     0.014 A 
ATOM     33  C   UNL A   1      39.118  23.260  26.320  1.00  0.00     0.014 A 
ATOM     34  C   UNL A   1      41.172  23.478  28.201  1.00  0.00     0.010 A 
ATOM     35  C   UNL A   1      39.565  24.518  26.718  1.00  0.00     0.010 A 
ATOM     36  C   UNL A   1      40.629  24.636  27.623  1.00  0.00    -0.014 A 
BRANCH  36  37
ATOM     37  C   UNL A   1      41.253  25.962  27.857  1.00  0.00     0.031 A 
ATOM     38  C   UNL A   1      42.656  26.244  27.411  1.00  0.00     0.074 A 
ATOM     39  C   UNL A   1      40.561  26.881  28.561  1.00  0.00     0.049 A 
ATOM     40  N   UNL A   1      43.370  27.327  27.571  1.00  0.00    -0.248 NA
ATOM     41  C   UNL A   1      43.357  25.152  26.719  1.00  0.00     0.031 C 
ATOM     42  C   UNL A   1      39.213  26.684  29.105  1.00  0.00     0.029 A 
ATOM     43  N   UNL A   1      40.890  28.152  28.953  1.00  0.00    -0.354 N 
ATOM     44  C   UNL A   1      44.608  27.053  27.000  1.00  0.00     0.074 A 
ATOM     45  C   UNL A   1      44.560  25.678  26.543  1.00  0.00     0.031 C 
ATOM     46  C   UNL A   1      38.825  27.802  29.739  1.00  0.00     0.029 A 
ATOM     47  C   UNL A   1      39.904  28.780  29.680  1.00  0.00     0.049 A 
ATOM     48  H   UNL A   1      41.751  28.578  28.735  1.00  0.00     0.167 HD
ATOM     49  C   UNL A   1      45.674  27.880  26.857  1.00  0.00     0.034 A 
ATOM     50  C   UNL A   1      39.875  30.004  30.242  1.00  0.00     0.034 A 
ATOM     51  C   UNL A   1      45.701  29.243  27.332  1.00  0.00     0.049 A 
ATOM     52  C   UNL A   1      41.070  30.903  30.068  1.00  0.00     0.074 A 
ATOM     53  C   UNL A   1      46.706  30.186  27.203  1.00  0.00     0.029 A 
ATOM     54  N   UNL A   1      44.675  29.856  28.043  1.00  0.00    -0.354 N 
ATOM     55  N   UNL A   1      42.207  30.654  29.463  1.00  0.00    -0.248 NA
ATOM     56  C   UNL A   1      40.970  32.252  30.640  1.00  0.00     0.031 C 
ATOM     57  C   UNL A   1      46.313  31.346  27.882  1.00  0.00     0.029 A 
ATOM     58  C   UNL A   1      45.034  31.153  28.381  1.00  0.00     0.049 A 
ATOM     59  H   UNL A   1      43.817  29.431  28.274  1.00  0.00     0.167 HD
ATOM     60  C   UNL A   1      42.951  31.825  29.559  1.00  0.00     0.074 A 
ATOM     61  C   UNL A   1      42.125  32.783  30.266  1.00  0.00     0.031 C 
ATOM     62  C   UNL A   1      44.201  32.088  29.101  1.00  0.00     0.034 A 
BRANCH  49  63
ATOM     63  C   UNL A   1      46.900  27.311  26.183  1.00  0.00     0.023 A 
ATOM     64  C   UNL A   1      47.929  26.702  26.924  1.00  0.00     0.031 A 
ATOM     65  C   UNL A   1      47.066  27.413  24.792  1.00  0.00     0.131 A 
ATOM     66  C   UNL A   1      49.110  26.295  26.284  1.00  0.00     0.055 A 
ATOM     67  C   UNL A   1      48.210  26.933  24.148  1.00  0.00     0.041 A 
ATOM     68  F   UNL A   1      46.127  28.000  24.033  1.00  0.00    -0.206 F 
ATOM     69  C   UNL A   1      49.248  26.386  24.897  1.00  0.00     0.022 A 
BRANCH  66  70
ATOM     70  S   UNL A   1      50.517  25.784  27.307  1.00  0.00     0.124 S 
ATOM     71  O   UNL A   1      50.267  24.353  27.461  1.00  0.00    -0.237 OA
ATOM     72  O   UNL A   1      51.659  26.146  26.477  1.00  0.00    -0.237 OA
ATOM     73  O   UNL A   1      50.358  26.572  28.527  1.00  0.00    -0.744 OA
ENDBRANCH  66  70
ENDBRANCH  49  63
BRANCH  50  74
ATOM     74  C   UNL A   1      38.681  30.452  31.012  1.00  0.00     0.023 A 
ATOM     75  C   UNL A   1      37.625  31.128  30.381  1.00  0.00     0.031 A 
ATOM     76  C   UNL A   1      38.588  30.229  32.397  1.00  0.00     0.131 A 
ATOM     77  C   UNL A   1      36.540  31.594  31.139  1.00  0.00     0.055 A 
ATOM     78  C   UNL A   1      37.486  30.655  33.140  1.00  0.00     0.041 A 
ATOM     79  F   UNL A   1      39.564  29.574  33.046  1.00  0.00    -0.206 F 
ATOM     80  C   UNL A   1      36.458  31.352  32.513  1.00  0.00     0.022 A 
BRANCH  77  81
ATOM     81  S   UNL A   1      35.264  32.583  30.314  1.00  0.00     0.124 S 
ATOM     82  O   UNL A   1      35.985  33.816  30.020  1.00  0.00    -0.237 OA
ATOM     83  O   UNL A   1      34.929  31.746  29.165  1.00  0.00    -0.237 OA
ATOM     84  O   UNL A   1      34.215  32.698  31.325  1.00  0.00    -0.744 OA
ENDBRANCH  77  81
ENDBRANCH  50  74
BRANCH  62  85
ATOM     85  C   UNL A   1      44.724  33.483  29.327  1.00  0.00     0.023 A 
ATOM     86  C   UNL A   1      44.411  34.538  28.453  1.00  0.00     0.031 A 
ATOM     87  C   UNL A   1      45.567  33.752  30.419  1.00  0.00     0.131 A 
ATOM     88  C   UNL A   1      44.981  35.804  28.656  1.00  0.00     0.055 A 
ATOM     89  C   UNL A   1      46.087  35.027  30.647  1.00  0.00     0.041 A 
ATOM     90  F   UNL A   1      45.899  32.779  31.283  1.00  0.00    -0.206 F 
ATOM     91  C   UNL A   1      45.805  36.058  29.755  1.00  0.00     0.022 A 
BRANCH  88  92
ATOM     92  S   UNL A   1      44.698  37.094  27.413  1.00  0.00     0.124 S 
ATOM     93  O   UNL A   1      45.963  37.097  26.685  1.00  0.00    -0.237 OA
ATOM     94  O   UNL A   1      43.544  36.580  26.685  1.00  0.00    -0.237 OA
ATOM     95  O   UNL A   1      44.441  38.290  28.214  1.00  0.00    -0.744 OA
ENDBRANCH  88  92
ENDBRANCH  62  85
ENDBRANCH  36  37
ENDBRANCH  28  31
ENDBRANCH  26  27
ENDBRANCH  25  26
ENDBRANCH   1  25
TORSDOF 17
ENDMDL
MODEL 2
REMARK VINA RESULT:     -12.7      6.100      9.568
REMARK SMILES C[C@H]1[C@H](C(=O)NCCCCNC(=O)c2ccc(-c3c4nc(c(-c5cc(S(=O)(=O)[O-])ccc5F)c5ccc([nH]5)c(-c5cc(S(=O)(=O)[O-])ccc5F)c5nc(c(-c6cc(S(=O)(=O)[O-])ccc6F)c6ccc3[nH]6)C=C5)C=C4)cc2)CC[N@@H+]1Cc1ccc(C(F)(F)F)cc1
REMARK SMILES IDX 8 1 7 2 6 3 4 4 5 5 3 7 1 8 2 9 79 10 77 11 78 12 80 14
REMARK SMILES IDX 81 15 82 16 90 17 83 18 89 19 84 20 85 21 86 22 87 23 88 24
REMARK SMILES IDX 9 25 10 26 11 27 12 28 13 30 14 31 15 32 76 33 16 34 75 35
REMARK SMILES IDX 17 36 18 37 19 38 69 39 20 40 74 41 68 42 70 43 21 44 73 45
REMARK SMILES IDX 67 46 66 47 22 49 54 50 34 51 53 52 35 53 38 54 52 55 71 56
REMARK SMILES IDX 36 57 37 58 51 60 72 61 39 62 23 63 24 64 32 65 25 66 31 67
REMARK SMILES IDX 33 68 30 69 26 70 27 71 28 72 29 73 55 74 56 75 64 76 57 77
REMARK SMILES IDX 63 78 65 79 62 80 58 81 59 82 60 83 61 84 40 85 41 86 49 87
REMARK SMILES IDX 42 88 48 89 50 90 47 91 43 92 44 93 45 94 46 95
REMARK H PARENT 6 6 79 13 11 29 70 48 38 59
REMARK Flexibility Score: inf
ROOT
ATOM      1  C   UNL A   1      32.990  29.051  27.076  1.00  0.00     0.023 C 
ENDROOT
BRANCH   1   2
ATOM      2  C   UNL A   1      31.828  28.129  27.463  1.00  0.00     0.116 C 
BRANCH   2   3
ATOM      3  N   UNL A   1      31.182  27.557  26.302  1.00  0.00    -0.356 N 
ATOM      4  C   UNL A   1      31.387  26.383  25.656  1.00  0.00     0.229 C 
ATOM      5  O   UNL A   1      30.631  26.144  24.705  1.00  0.00    -0.275 OA
ATOM      6  H   UNL A   1      30.471  28.117  25.916  1.00  0.00     0.163 HD
BRANCH   4   7
ATOM      7  C   UNL A   1      32.417  25.331  26.056  1.00  0.00     0.142 C 
ATOM      8  C   UNL A   1      31.565  23.243  27.160  1.00  0.00     0.076 C 
ATOM      9  C   UNL A   1      32.115  23.834  25.855  1.00  0.00     0.193 C 
ATOM     10  N   UNL A   1      33.417  23.189  25.568  1.00  0.00    -0.328 N 
ATOM     11  C   UNL A   1      33.793  25.522  25.442  1.00  0.00     0.081 C 
ATOM     12  C   UNL A   1      34.457  24.193  25.771  1.00  0.00     0.263 C 
ATOM     13  H   UNL A   1      33.548  22.427  26.233  1.00  0.00     0.348 HD
BRANCH  10  14
ATOM     14  C   UNL A   1      33.520  22.359  24.352  1.00  0.00     0.299 C 
BRANCH  14  15
ATOM     15  C   UNL A   1      33.635  20.850  24.490  1.00  0.00     0.006 A 
ATOM     16  C   UNL A   1      32.504  20.032  24.355  1.00  0.00     0.010 A 
ATOM     17  C   UNL A   1      34.853  20.218  24.779  1.00  0.00     0.010 A 
ATOM     18  C   UNL A   1      32.632  18.637  24.322  1.00  0.00     0.013 A 
ATOM     19  C   UNL A   1      34.993  18.831  24.688  1.00  0.00     0.013 A 
ATOM     20  C   UNL A   1      33.890  18.028  24.400  1.00  0.00     0.056 A 
BRANCH  20  21
ATOM     21  C   UNL A   1      34.055  16.562  24.082  1.00  0.00     0.416 C 
ATOM     22  F   UNL A   1      35.025  15.952  24.810  1.00  0.00    -0.166 F 
ATOM     23  F   UNL A   1      32.905  15.870  24.335  1.00  0.00    -0.166 F 
ATOM     24  F   UNL A   1      34.348  16.323  22.773  1.00  0.00    -0.166 F 
ENDBRANCH  20  21
ENDBRANCH  14  15
ENDBRANCH  10  14
ENDBRANCH   4   7
ENDBRANCH   2   3
ENDBRANCH   1   2
BRANCH   1  25
ATOM     25  C   UNL A   1      32.598  30.514  26.820  1.00  0.00     0.023 C 
BRANCH  25  26
ATOM     26  C   UNL A   1      33.502  31.562  27.472  1.00  0.00     0.116 C 
BRANCH  26  27
ATOM     27  N   UNL A   1      32.887  32.872  27.603  1.00  0.00    -0.352 N 
ATOM     28  C   UNL A   1      33.277  33.952  28.373  1.00  0.00     0.251 C 
ATOM     29  H   UNL A   1      32.073  33.010  27.066  1.00  0.00     0.163 HD
ATOM     30  O   UNL A   1      32.629  34.982  28.331  1.00  0.00    -0.269 OA
BRANCH  28  31
ATOM     31  C   UNL A   1      34.424  33.815  29.305  1.00  0.00     0.039 A 
ATOM     32  C   UNL A   1      34.193  33.164  30.522  1.00  0.00     0.014 A 
ATOM     33  C   UNL A   1      35.713  34.220  28.960  1.00  0.00     0.014 A 
ATOM     34  C   UNL A   1      35.274  32.790  31.320  1.00  0.00     0.010 A 
ATOM     35  C   UNL A   1      36.796  33.789  29.722  1.00  0.00     0.010 A 
ATOM     36  C   UNL A   1      36.586  33.027  30.881  1.00  0.00    -0.014 A 
BRANCH  36  37
ATOM     37  C   UNL A   1      37.737  32.373  31.551  1.00  0.00     0.031 A 
ATOM     38  C   UNL A   1      38.461  31.232  30.902  1.00  0.00     0.074 A 
ATOM     39  C   UNL A   1      38.061  32.768  32.800  1.00  0.00     0.049 A 
ATOM     40  N   UNL A   1      39.456  30.519  31.362  1.00  0.00    -0.248 NA
ATOM     41  C   UNL A   1      37.984  30.822  29.573  1.00  0.00     0.031 C 
ATOM     42  C   UNL A   1      37.375  33.823  33.553  1.00  0.00     0.029 A 
ATOM     43  N   UNL A   1      39.034  32.330  33.660  1.00  0.00    -0.354 N 
ATOM     44  C   UNL A   1      39.729  29.573  30.380  1.00  0.00     0.074 A 
ATOM     45  C   UNL A   1      38.753  29.771  29.328  1.00  0.00     0.031 C 
ATOM     46  C   UNL A   1      37.962  33.963  34.752  1.00  0.00     0.029 A 
ATOM     47  C   UNL A   1      39.040  32.988  34.869  1.00  0.00     0.049 A 
ATOM     48  H   UNL A   1      39.670  31.612  33.435  1.00  0.00     0.167 HD
ATOM     49  C   UNL A   1      40.714  28.640  30.357  1.00  0.00     0.034 A 
ATOM     50  C   UNL A   1      39.823  32.822  35.953  1.00  0.00     0.034 A 
ATOM     51  C   UNL A   1      41.668  28.454  31.424  1.00  0.00     0.049 A 
ATOM     52  C   UNL A   1      40.909  31.781  35.902  1.00  0.00     0.074 A 
ATOM     53  C   UNL A   1      42.735  27.574  31.490  1.00  0.00     0.029 A 
ATOM     54  N   UNL A   1      41.662  29.155  32.625  1.00  0.00    -0.354 N 
ATOM     55  N   UNL A   1      41.201  30.941  34.936  1.00  0.00    -0.248 NA
ATOM     56  C   UNL A   1      41.780  31.677  37.079  1.00  0.00     0.031 C 
ATOM     57  C   UNL A   1      43.336  27.703  32.748  1.00  0.00     0.029 A 
ATOM     58  C   UNL A   1      42.687  28.710  33.446  1.00  0.00     0.049 A 
ATOM     59  H   UNL A   1      41.022  29.865  32.860  1.00  0.00     0.167 HD
ATOM     60  C   UNL A   1      42.307  30.224  35.380  1.00  0.00     0.074 A 
ATOM     61  C   UNL A   1      42.637  30.743  36.692  1.00  0.00     0.031 C 
ATOM     62  C   UNL A   1      42.990  29.230  34.759  1.00  0.00     0.034 A 
BRANCH  49  63
ATOM     63  C   UNL A   1      40.780  27.740  29.146  1.00  0.00     0.023 A 
ATOM     64  C   UNL A   1      41.729  27.946  28.128  1.00  0.00     0.031 A 
ATOM     65  C   UNL A   1      39.859  26.690  28.981  1.00  0.00     0.131 A 
ATOM     66  C   UNL A   1      41.684  27.171  26.958  1.00  0.00     0.055 A 
ATOM     67  C   UNL A   1      39.871  25.870  27.851  1.00  0.00     0.041 A 
ATOM     68  F   UNL A   1      38.919  26.456  29.910  1.00  0.00    -0.206 F 
ATOM     69  C   UNL A   1      40.775  26.119  26.823  1.00  0.00     0.022 A 
BRANCH  66  70
ATOM     70  S   UNL A   1      42.732  27.656  25.559  1.00  0.00     0.124 S 
ATOM     71  O   UNL A   1      41.991  28.791  25.015  1.00  0.00    -0.237 OA
ATOM     72  O   UNL A   1      43.998  27.971  26.208  1.00  0.00    -0.237 OA
ATOM     73  O   UNL A   1      42.744  26.465  24.712  1.00  0.00    -0.744 OA
ENDBRANCH  66  70
ENDBRANCH  49  63
BRANCH  50  74
ATOM     74  C   UNL A   1      39.614  33.656  37.169  1.00  0.00     0.023 A 
ATOM     75  C   UNL A   1      38.908  33.157  38.276  1.00  0.00     0.031 A 
ATOM     76  C   UNL A   1      40.099  34.973  37.235  1.00  0.00     0.131 A 
ATOM     77  C   UNL A   1      38.671  33.983  39.384  1.00  0.00     0.055 A 
ATOM     78  C   UNL A   1      39.899  35.777  38.358  1.00  0.00     0.041 A 
ATOM     79  F   UNL A   1      40.793  35.493  36.210  1.00  0.00    -0.206 F 
ATOM     80  C   UNL A   1      39.172  35.287  39.438  1.00  0.00     0.022 A 
BRANCH  77  81
ATOM     81  S   UNL A   1      37.638  33.351  40.735  1.00  0.00     0.124 S 
ATOM     82  O   UNL A   1      38.404  32.192  41.179  1.00  0.00    -0.237 OA
ATOM     83  O   UNL A   1      37.607  34.489  41.649  1.00  0.00    -0.237 OA
ATOM     84  O   UNL A   1      36.368  33.047  40.078  1.00  0.00    -0.744 OA
ENDBRANCH  77  81
ENDBRANCH  50  74
BRANCH  62  85
ATOM     85  C   UNL A   1      44.185  28.673  35.490  1.00  0.00     0.023 A 
ATOM     86  C   UNL A   1      44.057  27.633  36.427  1.00  0.00     0.031 A 
ATOM     87  C   UNL A   1      45.464  29.208  35.262  1.00  0.00     0.131 A 
ATOM     88  C   UNL A   1      45.182  27.197  37.142  1.00  0.00     0.055 A 
ATOM     89  C   UNL A   1      46.589  28.732  35.937  1.00  0.00     0.041 A 
ATOM     90  F   UNL A   1      45.641  30.205  34.379  1.00  0.00    -0.206 F 
ATOM     91  C   UNL A   1      46.449  27.729  36.893  1.00  0.00     0.022 A 
BRANCH  88  92
ATOM     92  S   UNL A   1      44.953  25.979  38.466  1.00  0.00     0.124 S 
ATOM     93  O   UNL A   1      46.328  25.703  38.867  1.00  0.00    -0.237 OA
ATOM     94  O   UNL A   1      44.143  26.714  39.431  1.00  0.00    -0.237 OA
ATOM     95  O   UNL A   1      44.267  24.873  37.800  1.00  0.00    -0.744 OA
ENDBRANCH  88  92
ENDBRANCH  62  85
ENDBRANCH  36  37
ENDBRANCH  28  31
ENDBRANCH  26  27
ENDBRANCH  25  26
ENDBRANCH   1  25
TORSDOF 17
ENDMDL
MODEL 3
REMARK VINA RESULT:     -12.6      5.625      8.411
REMARK SMILES C[C@H]1[C@H](C(=O)NCCCCNC(=O)c2ccc(-c3c4nc(c(-c5cc(S(=O)(=O)[O-])ccc5F)c5ccc([nH]5)c(-c5cc(S(=O)(=O)[O-])ccc5F)c5nc(c(-c6cc(S(=O)(=O)[O-])ccc6F)c6ccc3[nH]6)C=C5)C=C4)cc2)CC[N@@H+]1Cc1ccc(C(F)(F)F)cc1
REMARK SMILES IDX 8 1 7 2 6 3 4 4 5 5 3 7 1 8 2 9 79 10 77 11 78 12 80 14
REMARK SMILES IDX 81 15 82 16 90 17 83 18 89 19 84 20 85 21 86 22 87 23 88 24
REMARK SMILES IDX 9 25 10 26 11 27 12 28 13 30 14 31 15 32 76 33 16 34 75 35
REMARK SMILES IDX 17 36 18 37 19 38 69 39 20 40 74 41 68 42 70 43 21 44 73 45
REMARK SMILES IDX 67 46 66 47 22 49 54 50 34 51 53 52 35 53 38 54 52 55 71 56
REMARK SMILES IDX 36 57 37 58 51 60 72 61 39 62 23 63 24 64 32 65 25 66 31 67
REMARK SMILES IDX 33 68 30 69 26 70 27 71 28 72 29 73 55 74 56 75 64 76 57 77
REMARK SMILES IDX 63 78 65 79 62 80 58 81 59 82 60 83 61 84 40 85 41 86 49 87
REMARK SMILES IDX 42 88 48 89 50 90 47 91 43 92 44 93 45 94 46 95
REMARK H PARENT 6 6 79 13 11 29 70 48 38 59
REMARK Flexibility Score: inf
ROOT
ATOM      1  C   UNL A   1      33.259  29.076  24.777  1.00  0.00     0.023 C 
ENDROOT
BRANCH   1   2
ATOM      2  C   UNL A   1      33.293  28.956  23.249  1.00  0.00     0.116 C 
BRANCH   2   3
ATOM      3  N   UNL A   1      32.078  29.449  22.640  1.00  0.00    -0.356 N 
ATOM      4  C   UNL A   1      30.924  28.816  22.313  1.00  0.00     0.229 C 
ATOM      5  O   UNL A   1      30.026  29.525  21.841  1.00  0.00    -0.275 OA
ATOM      6  H   UNL A   1      32.090  30.410  22.427  1.00  0.00     0.163 HD
BRANCH   4   7
ATOM      7  C   UNL A   1      30.641  27.334  22.548  1.00  0.00     0.142 C 
ATOM      8  C   UNL A   1      32.101  25.677  21.354  1.00  0.00     0.076 C 
ATOM      9  C   UNL A   1      31.804  26.338  22.707  1.00  0.00     0.193 C 
ATOM     10  N   UNL A   1      31.323  25.291  23.637  1.00  0.00    -0.328 N 
ATOM     11  C   UNL A   1      29.730  27.040  23.727  1.00  0.00     0.081 C 
ATOM     12  C   UNL A   1      29.902  25.536  23.872  1.00  0.00     0.263 C 
ATOM     13  H   UNL A   1      31.439  24.384  23.185  1.00  0.00     0.348 HD
BRANCH  10  14
ATOM     14  C   UNL A   1      32.151  24.988  24.820  1.00  0.00     0.299 C 
BRANCH  14  15
ATOM     15  C   UNL A   1      33.350  24.066  24.670  1.00  0.00     0.006 A 
ATOM     16  C   UNL A   1      34.654  24.564  24.802  1.00  0.00     0.010 A 
ATOM     17  C   UNL A   1      33.211  22.702  24.373  1.00  0.00     0.010 A 
ATOM     18  C   UNL A   1      35.751  23.693  24.824  1.00  0.00     0.013 A 
ATOM     19  C   UNL A   1      34.295  21.825  24.453  1.00  0.00     0.013 A 
ATOM     20  C   UNL A   1      35.572  22.307  24.738  1.00  0.00     0.056 A 
BRANCH  20  21
ATOM     21  C   UNL A   1      36.710  21.364  25.044  1.00  0.00     0.416 C 
ATOM     22  F   UNL A   1      37.604  21.240  24.031  1.00  0.00    -0.166 F 
ATOM     23  F   UNL A   1      37.426  21.790  26.127  1.00  0.00    -0.166 F 
ATOM     24  F   UNL A   1      36.297  20.102  25.349  1.00  0.00    -0.166 F 
ENDBRANCH  20  21
ENDBRANCH  14  15
ENDBRANCH  10  14
ENDBRANCH   4   7
ENDBRANCH   2   3
ENDBRANCH   1   2
BRANCH   1  25
ATOM     25  C   UNL A   1      32.127  29.952  25.332  1.00  0.00     0.023 C 
BRANCH  25  26
ATOM     26  C   UNL A   1      32.184  30.228  26.836  1.00  0.00     0.116 C 
BRANCH  26  27
ATOM     27  N   UNL A   1      32.189  31.641  27.176  1.00  0.00    -0.352 N 
ATOM     28  C   UNL A   1      33.235  32.438  27.600  1.00  0.00     0.251 C 
ATOM     29  H   UNL A   1      31.319  32.097  27.093  1.00  0.00     0.163 HD
ATOM     30  O   UNL A   1      33.036  33.620  27.821  1.00  0.00    -0.269 OA
BRANCH  28  31
ATOM     31  C   UNL A   1      34.562  31.830  27.868  1.00  0.00     0.039 A 
ATOM     32  C   UNL A   1      35.654  32.695  28.001  1.00  0.00     0.014 A 
ATOM     33  C   UNL A   1      34.722  30.462  28.082  1.00  0.00     0.014 A 
ATOM     34  C   UNL A   1      36.864  32.208  28.494  1.00  0.00     0.010 A 
ATOM     35  C   UNL A   1      35.908  29.987  28.636  1.00  0.00     0.010 A 
ATOM     36  C   UNL A   1      36.970  30.866  28.893  1.00  0.00    -0.014 A 
BRANCH  36  37
ATOM     37  C   UNL A   1      38.130  30.406  29.695  1.00  0.00     0.031 A 
ATOM     38  C   UNL A   1      39.084  29.383  29.156  1.00  0.00     0.074 A 
ATOM     39  C   UNL A   1      38.257  30.862  30.958  1.00  0.00     0.049 A 
ATOM     40  N   UNL A   1      40.122  28.837  29.734  1.00  0.00    -0.248 NA
ATOM     41  C   UNL A   1      38.818  28.889  27.797  1.00  0.00     0.031 C 
ATOM     42  C   UNL A   1      37.343  31.806  31.608  1.00  0.00     0.029 A 
ATOM     43  N   UNL A   1      39.189  30.589  31.926  1.00  0.00    -0.354 N 
ATOM     44  C   UNL A   1      40.638  27.933  28.813  1.00  0.00     0.074 A 
ATOM     45  C   UNL A   1      39.759  27.966  27.661  1.00  0.00     0.031 C 
ATOM     46  C   UNL A   1      37.772  32.049  32.856  1.00  0.00     0.029 A 
ATOM     47  C   UNL A   1      38.968  31.255  33.110  1.00  0.00     0.049 A 
ATOM     48  H   UNL A   1      39.947  29.976  31.787  1.00  0.00     0.167 HD
ATOM     49  C   UNL A   1      41.751  27.164  28.916  1.00  0.00     0.034 A 
ATOM     50  C   UNL A   1      39.648  31.224  34.273  1.00  0.00     0.034 A 
ATOM     51  C   UNL A   1      42.604  27.140  30.080  1.00  0.00     0.049 A 
ATOM     52  C   UNL A   1      40.879  30.363  34.362  1.00  0.00     0.074 A 
ATOM     53  C   UNL A   1      43.780  26.437  30.279  1.00  0.00     0.029 A 
ATOM     54  N   UNL A   1      42.364  27.846  31.254  1.00  0.00    -0.354 N 
ATOM     55  N   UNL A   1      41.396  29.567  33.456  1.00  0.00    -0.248 NA
ATOM     56  C   UNL A   1      41.627  30.409  35.625  1.00  0.00     0.031 C 
ATOM     57  C   UNL A   1      44.218  26.672  31.589  1.00  0.00     0.029 A 
ATOM     58  C   UNL A   1      43.353  27.574  32.188  1.00  0.00     0.049 A 
ATOM     59  H   UNL A   1      41.602  28.452  31.402  1.00  0.00     0.167 HD
ATOM     60  C   UNL A   1      42.545  29.035  34.030  1.00  0.00     0.074 A 
ATOM     61  C   UNL A   1      42.652  29.615  35.353  1.00  0.00     0.031 C 
ATOM     62  C   UNL A   1      43.434  28.151  33.510  1.00  0.00     0.034 A 
BRANCH  49  63
ATOM     63  C   UNL A   1      42.080  26.270  27.744  1.00  0.00     0.023 A 
ATOM     64  C   UNL A   1      41.640  24.934  27.693  1.00  0.00     0.031 A 
ATOM     65  C   UNL A   1      42.876  26.740  26.685  1.00  0.00     0.131 A 
ATOM     66  C   UNL A   1      42.066  24.095  26.652  1.00  0.00     0.055 A 
ATOM     67  C   UNL A   1      43.231  25.921  25.610  1.00  0.00     0.041 A 
ATOM     68  F   UNL A   1      43.340  27.999  26.687  1.00  0.00    -0.206 F 
ATOM     69  C   UNL A   1      42.840  24.585  25.598  1.00  0.00     0.022 A 
BRANCH  66  70
ATOM     70  S   UNL A   1      41.717  22.319  26.776  1.00  0.00     0.124 S 
ATOM     71  O   UNL A   1      42.656  21.905  27.816  1.00  0.00    -0.237 OA
ATOM     72  O   UNL A   1      40.307  22.299  27.144  1.00  0.00    -0.237 OA
ATOM     73  O   UNL A   1      42.020  21.816  25.437  1.00  0.00    -0.744 OA
ENDBRANCH  66  70
ENDBRANCH  49  63
BRANCH  50  74
ATOM     74  C   UNL A   1      39.187  32.030  35.438  1.00  0.00     0.023 A 
ATOM     75  C   UNL A   1      38.505  31.431  36.508  1.00  0.00     0.031 A 
ATOM     76  C   UNL A   1      39.404  33.418  35.488  1.00  0.00     0.131 A 
ATOM     77  C   UNL A   1      38.027  32.221  37.563  1.00  0.00     0.055 A 
ATOM     78  C   UNL A   1      38.966  34.194  36.561  1.00  0.00     0.041 A 
ATOM     79  F   UNL A   1      40.064  34.038  34.496  1.00  0.00    -0.206 F 
ATOM     80  C   UNL A   1      38.262  33.598  37.603  1.00  0.00     0.022 A 
BRANCH  77  81
ATOM     81  S   UNL A   1      37.030  31.433  38.858  1.00  0.00     0.124 S 
ATOM     82  O   UNL A   1      36.882  30.079  38.337  1.00  0.00    -0.237 OA
ATOM     83  O   UNL A   1      37.887  31.580  40.030  1.00  0.00    -0.237 OA
ATOM     84  O   UNL A   1      35.806  32.231  38.879  1.00  0.00    -0.744 OA
ENDBRANCH  77  81
ENDBRANCH  50  74
BRANCH  62  85
ATOM     85  C   UNL A   1      44.616  27.794  34.374  1.00  0.00     0.023 A 
ATOM     86  C   UNL A   1      44.578  26.703  35.261  1.00  0.00     0.031 A 
ATOM     87  C   UNL A   1      45.785  28.572  34.327  1.00  0.00     0.131 A 
ATOM     88  C   UNL A   1      45.671  26.453  36.104  1.00  0.00     0.055 A 
ATOM     89  C   UNL A   1      46.890  28.284  35.129  1.00  0.00     0.041 A 
ATOM     90  F   UNL A   1      45.872  29.626  33.499  1.00  0.00    -0.206 F 
ATOM     91  C   UNL A   1      46.831  27.227  36.033  1.00  0.00     0.022 A 
BRANCH  88  92
ATOM     92  S   UNL A   1      45.522  25.150  37.356  1.00  0.00     0.124 S 
ATOM     93  O   UNL A   1      44.288  25.525  38.040  1.00  0.00    -0.237 OA
ATOM     94  O   UNL A   1      45.458  23.940  36.544  1.00  0.00    -0.237 OA
ATOM     95  O   UNL A   1      46.740  25.296  38.151  1.00  0.00    -0.744 OA
ENDBRANCH  88  92
ENDBRANCH  62  85
ENDBRANCH  36  37
ENDBRANCH  28  31
ENDBRANCH  26  27
ENDBRANCH  25  26
ENDBRANCH   1  25
TORSDOF 17
ENDMDL
