MODEL 1
REMARK VINA RESULT:     -11.8      0.000      0.000
REMARK SMILES CC[C@@H](C(=O)NCCCCNC(=O)c1ccc(-c2c3nc(c(-c4cc(S(=O)(=O)[O-])ccc4F)c4ccc([nH]4)c(-c4cc(S(=O)(=O)[O-])ccc4F)c4nc(c(-c5cc(S(=O)(=O)[O-])ccc5F)c5ccc2[nH]5)C=C4)C=C3)cc1)N1CCN(Cc2cccc(C)c2)C(=O)C1=O
REMARK SMILES IDX 8 1 7 2 6 3 4 4 5 5 3 7 2 8 1 9 77 10 78 11 91 12 79 13
REMARK SMILES IDX 89 14 92 15 80 16 90 17 81 18 82 19 83 20 88 21 84 22 86 23
REMARK SMILES IDX 85 24 87 25 9 26 10 27 11 28 12 29 13 31 14 32 15 33 76 34
REMARK SMILES IDX 16 35 75 36 17 37 18 38 19 39 69 40 20 41 74 42 68 43 70 44
REMARK SMILES IDX 21 45 73 46 67 47 66 48 22 50 54 51 34 52 53 53 35 54 38 55
REMARK SMILES IDX 52 56 71 57 36 58 37 59 51 61 72 62 39 63 23 64 24 65 32 66
REMARK SMILES IDX 25 67 31 68 33 69 30 70 26 71 27 72 28 73 29 74 55 75 56 76
REMARK SMILES IDX 64 77 57 78 63 79 65 80 62 81 58 82 59 83 60 84 61 85 40 86
REMARK SMILES IDX 41 87 49 88 42 89 48 90 50 91 47 92 43 93 44 94 45 95 46 96
REMARK H PARENT 6 6 11 30 70 49 38 60
REMARK Flexibility Score: inf
ROOT
ATOM      1  C   UNL A   1      32.806  29.817  25.909  1.00  0.00     0.023 C 
ENDROOT
BRANCH   1   2
ATOM      2  C   UNL A   1      33.492  28.542  26.410  1.00  0.00     0.116 C 
BRANCH   2   3
ATOM      3  N   UNL A   1      32.505  27.590  26.893  1.00  0.00    -0.354 N 
ATOM      4  C   UNL A   1      31.566  26.864  26.210  1.00  0.00     0.242 C 
ATOM      5  O   UNL A   1      30.701  26.273  26.862  1.00  0.00    -0.273 OA
ATOM      6  H   UNL A   1      32.514  27.443  27.867  1.00  0.00     0.163 HD
BRANCH   4   7
ATOM      7  C   UNL A   1      31.587  26.824  24.660  1.00  0.00     0.174 C 
BRANCH   7   8
ATOM      8  C   UNL A   1      30.247  27.322  24.071  1.00  0.00     0.032 C 
ATOM      9  C   UNL A   1      30.243  27.961  22.702  1.00  0.00     0.006 C 
ENDBRANCH   7   8
BRANCH   7  10
ATOM     10  N   UNL A   1      31.903  25.432  24.214  1.00  0.00    -0.321 N 
ATOM     11  C   UNL A   1      31.064  24.293  24.567  1.00  0.00     0.142 C 
ATOM     12  C   UNL A   1      32.933  25.196  23.279  1.00  0.00     0.312 C 
ATOM     13  C   UNL A   1      30.768  23.520  23.292  1.00  0.00     0.142 C 
ATOM     14  C   UNL A   1      33.149  23.681  22.848  1.00  0.00     0.312 C 
ATOM     15  O   UNL A   1      33.588  26.089  22.758  1.00  0.00    -0.263 OA
ATOM     16  N   UNL A   1      31.995  22.883  22.867  1.00  0.00    -0.328 N 
ATOM     17  O   UNL A   1      34.254  23.273  22.516  1.00  0.00    -0.263 OA
BRANCH  16  18
ATOM     18  C   UNL A   1      32.000  21.486  22.433  1.00  0.00     0.155 C 
BRANCH  18  19
ATOM     19  C   UNL A   1      32.402  20.506  23.522  1.00  0.00    -0.028 A 
ATOM     20  C   UNL A   1      32.467  20.912  24.860  1.00  0.00     0.005 A 
ATOM     21  C   UNL A   1      32.695  19.163  23.223  1.00  0.00     0.009 A 
ATOM     22  C   UNL A   1      32.798  19.998  25.865  1.00  0.00     0.001 A 
ATOM     23  C   UNL A   1      32.923  18.218  24.231  1.00  0.00    -0.051 A 
ATOM     24  C   UNL A   1      33.007  18.653  25.555  1.00  0.00     0.003 A 
ATOM     25  C   UNL A   1      33.081  16.764  23.892  1.00  0.00     0.044 C 
ENDBRANCH  18  19
ENDBRANCH  16  18
ENDBRANCH   7  10
ENDBRANCH   4   7
ENDBRANCH   2   3
ENDBRANCH   1   2
BRANCH   1  26
ATOM     26  C   UNL A   1      32.435  30.807  27.005  1.00  0.00     0.023 C 
BRANCH  26  27
ATOM     27  C   UNL A   1      33.528  31.816  27.307  1.00  0.00     0.116 C 
BRANCH  27  28
ATOM     28  N   UNL A   1      33.007  33.158  27.545  1.00  0.00    -0.352 N 
ATOM     29  C   UNL A   1      33.380  34.059  28.517  1.00  0.00     0.251 C 
ATOM     30  H   UNL A   1      32.298  33.457  26.932  1.00  0.00     0.163 HD
ATOM     31  O   UNL A   1      32.756  35.101  28.671  1.00  0.00    -0.269 OA
BRANCH  29  32
ATOM     32  C   UNL A   1      34.519  33.717  29.392  1.00  0.00     0.039 A 
ATOM     33  C   UNL A   1      34.333  32.810  30.437  1.00  0.00     0.014 A 
ATOM     34  C   UNL A   1      35.787  34.227  29.107  1.00  0.00     0.014 A 
ATOM     35  C   UNL A   1      35.442  32.346  31.149  1.00  0.00     0.010 A 
ATOM     36  C   UNL A   1      36.894  33.696  29.753  1.00  0.00     0.010 A 
ATOM     37  C   UNL A   1      36.734  32.754  30.783  1.00  0.00    -0.014 A 
BRANCH  37  38
ATOM     38  C   UNL A   1      37.952  32.261  31.474  1.00  0.00     0.031 A 
ATOM     39  C   UNL A   1      38.765  31.179  30.818  1.00  0.00     0.074 A 
ATOM     40  C   UNL A   1      38.254  32.685  32.716  1.00  0.00     0.049 A 
ATOM     41  N   UNL A   1      39.704  30.422  31.319  1.00  0.00    -0.248 NA
ATOM     42  C   UNL A   1      38.426  30.874  29.419  1.00  0.00     0.031 C 
ATOM     43  C   UNL A   1      37.524  33.707  33.468  1.00  0.00     0.029 A 
ATOM     44  N   UNL A   1      39.245  32.285  33.579  1.00  0.00    -0.354 N 
ATOM     45  C   UNL A   1      40.031  29.516  30.316  1.00  0.00     0.074 A 
ATOM     46  C   UNL A   1      39.152  29.790  29.199  1.00  0.00     0.031 C 
ATOM     47  C   UNL A   1      38.098  33.861  34.673  1.00  0.00     0.029 A 
ATOM     48  C   UNL A   1      39.200  32.913  34.802  1.00  0.00     0.049 A 
ATOM     49  H   UNL A   1      39.923  31.611  33.344  1.00  0.00     0.167 HD
ATOM     50  C   UNL A   1      40.988  28.557  30.322  1.00  0.00     0.034 A 
ATOM     51  C   UNL A   1      39.950  32.726  35.908  1.00  0.00     0.034 A 
ATOM     52  C   UNL A   1      41.885  28.336  31.428  1.00  0.00     0.049 A 
ATOM     53  C   UNL A   1      41.032  31.676  35.882  1.00  0.00     0.074 A 
ATOM     54  C   UNL A   1      42.927  27.432  31.530  1.00  0.00     0.029 A 
ATOM     55  N   UNL A   1      41.851  29.043  32.623  1.00  0.00    -0.354 N 
ATOM     56  N   UNL A   1      41.339  30.832  34.924  1.00  0.00    -0.248 NA
ATOM     57  C   UNL A   1      41.872  31.556  37.082  1.00  0.00     0.031 C 
ATOM     58  C   UNL A   1      43.497  27.565  32.801  1.00  0.00     0.029 A 
ATOM     59  C   UNL A   1      42.850  28.591  33.470  1.00  0.00     0.049 A 
ATOM     60  H   UNL A   1      41.211  29.759  32.838  1.00  0.00     0.167 HD
ATOM     61  C   UNL A   1      42.432  30.110  35.392  1.00  0.00     0.074 A 
ATOM     62  C   UNL A   1      42.729  30.613  36.718  1.00  0.00     0.031 C 
ATOM     63  C   UNL A   1      43.135  29.125  34.779  1.00  0.00     0.034 A 
BRANCH  50  64
ATOM     64  C   UNL A   1      41.083  27.669  29.104  1.00  0.00     0.023 A 
ATOM     65  C   UNL A   1      42.079  27.860  28.130  1.00  0.00     0.031 A 
ATOM     66  C   UNL A   1      40.132  26.658  28.884  1.00  0.00     0.131 A 
ATOM     67  C   UNL A   1      42.042  27.121  26.939  1.00  0.00     0.055 A 
ATOM     68  C   UNL A   1      40.158  25.862  27.736  1.00  0.00     0.041 A 
ATOM     69  F   UNL A   1      39.147  26.441  29.769  1.00  0.00    -0.206 F 
ATOM     70  C   UNL A   1      41.105  26.105  26.746  1.00  0.00     0.022 A 
BRANCH  67  71
ATOM     71  S   UNL A   1      43.136  27.622  25.581  1.00  0.00     0.124 S 
ATOM     72  O   UNL A   1      43.691  26.337  25.162  1.00  0.00    -0.237 OA
ATOM     73  O   UNL A   1      42.211  28.253  24.647  1.00  0.00    -0.237 OA
ATOM     74  O   UNL A   1      44.088  28.525  26.223  1.00  0.00    -0.744 OA
ENDBRANCH  67  71
ENDBRANCH  50  64
BRANCH  51  75
ATOM     75  C   UNL A   1      39.706  33.538  37.134  1.00  0.00     0.023 A 
ATOM     76  C   UNL A   1      40.460  34.694  37.393  1.00  0.00     0.031 A 
ATOM     77  C   UNL A   1      38.739  33.155  38.078  1.00  0.00     0.131 A 
ATOM     78  C   UNL A   1      40.266  35.402  38.589  1.00  0.00     0.055 A 
ATOM     79  C   UNL A   1      38.518  33.888  39.247  1.00  0.00     0.041 A 
ATOM     80  F   UNL A   1      37.984  32.063  37.874  1.00  0.00    -0.206 F 
ATOM     81  C   UNL A   1      39.295  35.012  39.513  1.00  0.00     0.022 A 
BRANCH  78  82
ATOM     82  S   UNL A   1      41.359  36.802  38.954  1.00  0.00     0.124 S 
ATOM     83  O   UNL A   1      42.225  36.243  39.986  1.00  0.00    -0.237 OA
ATOM     84  O   UNL A   1      41.982  37.045  37.657  1.00  0.00    -0.237 OA
ATOM     85  O   UNL A   1      40.440  37.844  39.406  1.00  0.00    -0.744 OA
ENDBRANCH  78  82
ENDBRANCH  51  75
BRANCH  63  86
ATOM     86  C   UNL A   1      44.343  28.590  35.499  1.00  0.00     0.023 A 
ATOM     87  C   UNL A   1      44.240  27.589  36.480  1.00  0.00     0.031 A 
ATOM     88  C   UNL A   1      45.620  29.075  35.170  1.00  0.00     0.131 A 
ATOM     89  C   UNL A   1      45.398  27.124  37.120  1.00  0.00     0.055 A 
ATOM     90  C   UNL A   1      46.772  28.580  35.780  1.00  0.00     0.041 A 
ATOM     91  F   UNL A   1      45.768  30.030  34.238  1.00  0.00    -0.206 F 
ATOM     92  C   UNL A   1      46.664  27.604  36.766  1.00  0.00     0.022 A 
BRANCH  89  93
ATOM     93  S   UNL A   1      45.231  25.906  38.452  1.00  0.00     0.124 S 
ATOM     94  O   UNL A   1      46.569  25.909  39.036  1.00  0.00    -0.237 OA
ATOM     95  O   UNL A   1      44.174  26.482  39.276  1.00  0.00    -0.237 OA
ATOM     96  O   UNL A   1      44.865  24.676  37.750  1.00  0.00    -0.744 OA
ENDBRANCH  89  93
ENDBRANCH  63  86
ENDBRANCH  37  38
ENDBRANCH  29  32
ENDBRANCH  27  28
ENDBRANCH  26  27
ENDBRANCH   1  26
TORSDOF 18
ENDMDL
MODEL 2
REMARK VINA RESULT:     -11.7      2.717      8.142
REMARK SMILES CC[C@@H](C(=O)NCCCCNC(=O)c1ccc(-c2c3nc(c(-c4cc(S(=O)(=O)[O-])ccc4F)c4ccc([nH]4)c(-c4cc(S(=O)(=O)[O-])ccc4F)c4nc(c(-c5cc(S(=O)(=O)[O-])ccc5F)c5ccc2[nH]5)C=C4)C=C3)cc1)N1CCN(Cc2cccc(C)c2)C(=O)C1=O
REMARK SMILES IDX 8 1 7 2 6 3 4 4 5 5 3 7 2 8 1 9 77 10 78 11 91 12 79 13
REMARK SMILES IDX 89 14 92 15 80 16 90 17 81 18 82 19 83 20 88 21 84 22 86 23
REMARK SMILES IDX 85 24 87 25 9 26 10 27 11 28 12 29 13 31 14 32 15 33 76 34
REMARK SMILES IDX 16 35 75 36 17 37 18 38 19 39 69 40 20 41 74 42 68 43 70 44
REMARK SMILES IDX 21 45 73 46 67 47 66 48 22 50 54 51 34 52 53 53 35 54 38 55
REMARK SMILES IDX 52 56 71 57 36 58 37 59 51 61 72 62 39 63 23 64 24 65 32 66
REMARK SMILES IDX 25 67 31 68 33 69 30 70 26 71 27 72 28 73 29 74 55 75 56 76
REMARK SMILES IDX 64 77 57 78 63 79 65 80 62 81 58 82 59 83 60 84 61 85 40 86
REMARK SMILES IDX 41 87 49 88 42 89 48 90 50 91 47 92 43 93 44 94 45 95 46 96
REMARK H PARENT 6 6 11 30 70 49 38 60
REMARK Flexibility Score: inf
ROOT
ATOM      1  C   UNL A   1      31.195  29.527  24.950  1.00  0.00     0.023 C 
ENDROOT
BRANCH   1   2
ATOM      2  C   UNL A   1      30.997  29.023  23.517  1.00  0.00     0.116 C 
BRANCH   2   3
ATOM      3  N   UNL A   1      30.289  27.753  23.518  1.00  0.00    -0.354 N 
ATOM      4  C   UNL A   1      30.756  26.477  23.689  1.00  0.00     0.242 C 
ATOM      5  O   UNL A   1      29.991  25.541  23.444  1.00  0.00    -0.273 OA
ATOM      6  H   UNL A   1      29.317  27.823  23.373  1.00  0.00     0.163 HD
BRANCH   4   7
ATOM      7  C   UNL A   1      32.218  26.237  24.146  1.00  0.00     0.174 C 
BRANCH   7   8
ATOM      8  C   UNL A   1      33.207  26.427  22.973  1.00  0.00     0.032 C 
ATOM      9  C   UNL A   1      32.719  26.196  21.562  1.00  0.00     0.006 C 
ENDBRANCH   7   8
BRANCH   7  10
ATOM     10  N   UNL A   1      32.322  24.868  24.740  1.00  0.00    -0.321 N 
ATOM     11  C   UNL A   1      32.963  23.763  24.039  1.00  0.00     0.142 C 
ATOM     12  C   UNL A   1      31.959  24.643  26.085  1.00  0.00     0.312 C 
ATOM     13  C   UNL A   1      33.956  23.119  24.993  1.00  0.00     0.142 C 
ATOM     14  C   UNL A   1      32.153  23.157  26.619  1.00  0.00     0.312 C 
ATOM     15  O   UNL A   1      31.587  25.530  26.841  1.00  0.00    -0.263 OA
ATOM     16  N   UNL A   1      33.200  22.439  26.022  1.00  0.00    -0.328 N 
ATOM     17  O   UNL A   1      31.430  22.705  27.496  1.00  0.00    -0.263 OA
BRANCH  16  18
ATOM     18  C   UNL A   1      33.563  21.085  26.443  1.00  0.00     0.155 C 
BRANCH  18  19
ATOM     19  C   UNL A   1      33.078  19.999  25.498  1.00  0.00    -0.028 A 
ATOM     20  C   UNL A   1      32.784  20.293  24.162  1.00  0.00     0.005 A 
ATOM     21  C   UNL A   1      32.935  18.667  25.929  1.00  0.00     0.009 A 
ATOM     22  C   UNL A   1      32.377  19.283  23.285  1.00  0.00     0.001 A 
ATOM     23  C   UNL A   1      32.632  17.633  25.035  1.00  0.00    -0.051 A 
ATOM     24  C   UNL A   1      32.319  17.957  23.714  1.00  0.00     0.003 A 
ATOM     25  C   UNL A   1      32.637  16.204  25.493  1.00  0.00     0.044 C 
ENDBRANCH  18  19
ENDBRANCH  16  18
ENDBRANCH   7  10
ENDBRANCH   4   7
ENDBRANCH   2   3
ENDBRANCH   1   2
BRANCH   1  26
ATOM     26  C   UNL A   1      32.650  29.636  25.385  1.00  0.00     0.023 C 
BRANCH  26  27
ATOM     27  C   UNL A   1      32.819  30.013  26.847  1.00  0.00     0.116 C 
BRANCH  27  28
ATOM     28  N   UNL A   1      32.850  31.457  27.057  1.00  0.00    -0.352 N 
ATOM     29  C   UNL A   1      33.825  32.210  27.671  1.00  0.00     0.251 C 
ATOM     30  H   UNL A   1      32.073  31.956  26.716  1.00  0.00     0.163 HD
ATOM     31  O   UNL A   1      33.645  33.402  27.887  1.00  0.00    -0.269 OA
BRANCH  29  32
ATOM     32  C   UNL A   1      35.068  31.537  28.097  1.00  0.00     0.039 A 
ATOM     33  C   UNL A   1      36.258  32.267  28.153  1.00  0.00     0.014 A 
ATOM     34  C   UNL A   1      35.023  30.211  28.532  1.00  0.00     0.014 A 
ATOM     35  C   UNL A   1      37.391  31.686  28.727  1.00  0.00     0.010 A 
ATOM     36  C   UNL A   1      36.122  29.672  29.183  1.00  0.00     0.010 A 
ATOM     37  C   UNL A   1      37.318  30.401  29.285  1.00  0.00    -0.014 A 
BRANCH  37  38
ATOM     38  C   UNL A   1      38.478  29.751  29.947  1.00  0.00     0.031 A 
ATOM     39  C   UNL A   1      38.879  30.217  31.320  1.00  0.00     0.074 A 
ATOM     40  C   UNL A   1      39.230  28.851  29.284  1.00  0.00     0.049 A 
ATOM     41  N   UNL A   1      39.977  29.992  31.989  1.00  0.00    -0.248 NA
ATOM     42  C   UNL A   1      37.927  31.109  32.002  1.00  0.00     0.031 C 
ATOM     43  C   UNL A   1      38.960  28.343  27.938  1.00  0.00     0.029 A 
ATOM     44  N   UNL A   1      40.396  28.223  29.647  1.00  0.00    -0.354 N 
ATOM     45  C   UNL A   1      39.874  30.756  33.147  1.00  0.00     0.074 A 
ATOM     46  C   UNL A   1      38.628  31.487  33.059  1.00  0.00     0.031 C 
ATOM     47  C   UNL A   1      39.926  27.474  27.594  1.00  0.00     0.029 A 
ATOM     48  C   UNL A   1      40.910  27.404  28.669  1.00  0.00     0.049 A 
ATOM     49  H   UNL A   1      40.823  28.348  30.525  1.00  0.00     0.167 HD
ATOM     50  C   UNL A   1      40.733  30.826  34.192  1.00  0.00     0.034 A 
ATOM     51  C   UNL A   1      42.059  26.697  28.637  1.00  0.00     0.034 A 
ATOM     52  C   UNL A   1      41.944  30.049  34.279  1.00  0.00     0.049 A 
ATOM     53  C   UNL A   1      42.985  26.762  29.825  1.00  0.00     0.074 A 
ATOM     54  C   UNL A   1      42.865  29.995  35.310  1.00  0.00     0.029 A 
ATOM     55  N   UNL A   1      42.394  29.178  33.295  1.00  0.00    -0.354 N 
ATOM     56  N   UNL A   1      42.873  27.480  30.919  1.00  0.00    -0.248 NA
ATOM     57  C   UNL A   1      44.188  25.920  29.779  1.00  0.00     0.031 C 
ATOM     58  C   UNL A   1      43.892  29.122  34.933  1.00  0.00     0.029 A 
ATOM     59  C   UNL A   1      43.581  28.586  33.693  1.00  0.00     0.049 A 
ATOM     60  H   UNL A   1      41.937  29.007  32.441  1.00  0.00     0.167 HD
ATOM     61  C   UNL A   1      43.969  27.145  31.707  1.00  0.00     0.074 A 
ATOM     62  C   UNL A   1      44.734  26.165  30.962  1.00  0.00     0.031 C 
ATOM     63  C   UNL A   1      44.311  27.597  32.938  1.00  0.00     0.034 A 
BRANCH  50  64
ATOM     64  C   UNL A   1      40.394  31.793  35.301  1.00  0.00     0.023 A 
ATOM     65  C   UNL A   1      39.482  31.458  36.317  1.00  0.00     0.031 A 
ATOM     66  C   UNL A   1      40.943  33.087  35.310  1.00  0.00     0.131 A 
ATOM     67  C   UNL A   1      39.072  32.433  37.238  1.00  0.00     0.055 A 
ATOM     68  C   UNL A   1      40.600  34.024  36.287  1.00  0.00     0.041 A 
ATOM     69  F   UNL A   1      41.805  33.471  34.355  1.00  0.00    -0.206 F 
ATOM     70  C   UNL A   1      39.644  33.706  37.247  1.00  0.00     0.022 A 
BRANCH  67  71
ATOM     71  S   UNL A   1      37.662  32.060  38.316  1.00  0.00     0.124 S 
ATOM     72  O   UNL A   1      37.338  30.693  37.913  1.00  0.00    -0.237 OA
ATOM     73  O   UNL A   1      38.234  32.213  39.648  1.00  0.00    -0.237 OA
ATOM     74  O   UNL A   1      36.669  33.064  37.943  1.00  0.00    -0.744 OA
ENDBRANCH  67  71
ENDBRANCH  50  64
BRANCH  51  75
ATOM     75  C   UNL A   1      42.408  25.874  27.445  1.00  0.00     0.023 A 
ATOM     76  C   UNL A   1      42.046  24.519  27.375  1.00  0.00     0.031 A 
ATOM     77  C   UNL A   1      43.134  26.420  26.372  1.00  0.00     0.131 A 
ATOM     78  C   UNL A   1      42.448  23.743  26.278  1.00  0.00     0.055 A 
ATOM     79  C   UNL A   1      43.494  25.654  25.261  1.00  0.00     0.041 A 
ATOM     80  F   UNL A   1      43.496  27.713  26.384  1.00  0.00    -0.206 F 
ATOM     81  C   UNL A   1      43.162  24.303  25.216  1.00  0.00     0.022 A 
BRANCH  78  82
ATOM     82  S   UNL A   1      42.089  21.965  26.294  1.00  0.00     0.124 S 
ATOM     83  O   UNL A   1      40.664  21.947  25.983  1.00  0.00    -0.237 OA
ATOM     84  O   UNL A   1      42.980  21.468  25.251  1.00  0.00    -0.237 OA
ATOM     85  O   UNL A   1      42.437  21.560  27.654  1.00  0.00    -0.744 OA
ENDBRANCH  78  82
ENDBRANCH  51  75
BRANCH  63  86
ATOM     86  C   UNL A   1      45.516  26.975  33.591  1.00  0.00     0.023 A 
ATOM     87  C   UNL A   1      45.426  25.791  34.343  1.00  0.00     0.031 A 
ATOM     88  C   UNL A   1      46.779  27.568  33.427  1.00  0.00     0.131 A 
ATOM     89  C   UNL A   1      46.580  25.252  34.929  1.00  0.00     0.055 A 
ATOM     90  C   UNL A   1      47.930  27.005  33.977  1.00  0.00     0.041 A 
ATOM     91  F   UNL A   1      46.915  28.698  32.715  1.00  0.00    -0.206 F 
ATOM     92  C   UNL A   1      47.833  25.845  34.739  1.00  0.00     0.022 A 
BRANCH  89  93
ATOM     93  S   UNL A   1      46.423  23.782  35.978  1.00  0.00     0.124 S 
ATOM     94  O   UNL A   1      47.637  23.854  36.786  1.00  0.00    -0.237 OA
ATOM     95  O   UNL A   1      45.171  24.031  36.685  1.00  0.00    -0.237 OA
ATOM     96  O   UNL A   1      46.382  22.679  35.019  1.00  0.00    -0.744 OA
ENDBRANCH  89  93
ENDBRANCH  63  86
ENDBRANCH  37  38
ENDBRANCH  29  32
ENDBRANCH  27  28
ENDBRANCH  26  27
ENDBRANCH   1  26
TORSDOF 18
ENDMDL
MODEL 3
REMARK VINA RESULT:     -11.7      5.567     11.049
REMARK SMILES CC[C@@H](C(=O)NCCCCNC(=O)c1ccc(-c2c3nc(c(-c4cc(S(=O)(=O)[O-])ccc4F)c4ccc([nH]4)c(-c4cc(S(=O)(=O)[O-])ccc4F)c4nc(c(-c5cc(S(=O)(=O)[O-])ccc5F)c5ccc2[nH]5)C=C4)C=C3)cc1)N1CCN(Cc2cccc(C)c2)C(=O)C1=O
REMARK SMILES IDX 8 1 7 2 6 3 4 4 5 5 3 7 2 8 1 9 77 10 78 11 91 12 79 13
REMARK SMILES IDX 89 14 92 15 80 16 90 17 81 18 82 19 83 20 88 21 84 22 86 23
REMARK SMILES IDX 85 24 87 25 9 26 10 27 11 28 12 29 13 31 14 32 15 33 76 34
REMARK SMILES IDX 16 35 75 36 17 37 18 38 19 39 69 40 20 41 74 42 68 43 70 44
REMARK SMILES IDX 21 45 73 46 67 47 66 48 22 50 54 51 34 52 53 53 35 54 38 55
REMARK SMILES IDX 52 56 71 57 36 58 37 59 51 61 72 62 39 63 23 64 24 65 32 66
REMARK SMILES IDX 25 67 31 68 33 69 30 70 26 71 27 72 28 73 29 74 55 75 56 76
REMARK SMILES IDX 64 77 57 78 63 79 65 80 62 81 58 82 59 83 60 84 61 85 40 86
REMARK SMILES IDX 41 87 49 88 42 89 48 90 50 91 47 92 43 93 44 94 45 95 46 96
REMARK H PARENT 6 6 11 30 70 49 38 60
REMARK Flexibility Score: inf
ROOT
ATOM      1  C   UNL A   1      36.344  20.233  24.961  1.00  0.00     0.023 C 
ENDROOT
BRANCH   1   2
ATOM      2  C   UNL A   1      36.247  21.653  25.529  1.00  0.00     0.116 C 
BRANCH   2   3
ATOM      3  N   UNL A   1      36.000  22.611  24.463  1.00  0.00    -0.354 N 
ATOM      4  C   UNL A   1      34.835  22.954  23.831  1.00  0.00     0.242 C 
ATOM      5  O   UNL A   1      34.908  23.647  22.813  1.00  0.00    -0.273 OA
ATOM      6  H   UNL A   1      36.800  23.090  24.145  1.00  0.00     0.163 HD
BRANCH   4   7
ATOM      7  C   UNL A   1      33.474  22.449  24.377  1.00  0.00     0.174 C 
BRANCH   7   8
ATOM      8  C   UNL A   1      32.921  21.292  23.514  1.00  0.00     0.032 C 
ATOM      9  C   UNL A   1      32.547  19.992  24.188  1.00  0.00     0.006 C 
ENDBRANCH   7   8
BRANCH   7  10
ATOM     10  N   UNL A   1      32.519  23.599  24.438  1.00  0.00    -0.321 N 
ATOM     11  C   UNL A   1      31.904  24.162  23.243  1.00  0.00     0.142 C 
ATOM     12  C   UNL A   1      32.038  24.065  25.680  1.00  0.00     0.312 C 
ATOM     13  C   UNL A   1      30.407  24.255  23.489  1.00  0.00     0.142 C 
ATOM     14  C   UNL A   1      30.994  25.263  25.618  1.00  0.00     0.312 C 
ATOM     15  O   UNL A   1      32.329  23.551  26.752  1.00  0.00    -0.263 OA
ATOM     16  N   UNL A   1      30.185  25.292  24.472  1.00  0.00    -0.328 N 
ATOM     17  O   UNL A   1      30.920  26.080  26.526  1.00  0.00    -0.263 OA
BRANCH  16  18
ATOM     18  C   UNL A   1      29.125  26.284  24.286  1.00  0.00     0.155 C 
BRANCH  18  19
ATOM     19  C   UNL A   1      29.572  27.525  23.533  1.00  0.00    -0.028 A 
ATOM     20  C   UNL A   1      30.926  27.747  23.261  1.00  0.00     0.005 A 
ATOM     21  C   UNL A   1      28.640  28.471  23.067  1.00  0.00     0.009 A 
ATOM     22  C   UNL A   1      31.330  28.870  22.532  1.00  0.00     0.001 A 
ATOM     23  C   UNL A   1      29.024  29.539  22.247  1.00  0.00    -0.051 A 
ATOM     24  C   UNL A   1      30.383  29.752  22.012  1.00  0.00     0.003 A 
ATOM     25  C   UNL A   1      27.991  30.443  21.640  1.00  0.00     0.044 C 
ENDBRANCH  18  19
ENDBRANCH  16  18
ENDBRANCH   7  10
ENDBRANCH   4   7
ENDBRANCH   2   3
ENDBRANCH   1   2
BRANCH   1  26
ATOM     26  C   UNL A   1      37.764  19.766  24.672  1.00  0.00     0.023 C 
BRANCH  26  27
ATOM     27  C   UNL A   1      38.759  20.141  25.756  1.00  0.00     0.116 C 
BRANCH  27  28
ATOM     28  N   UNL A   1      39.912  19.247  25.797  1.00  0.00    -0.352 N 
ATOM     29  C   UNL A   1      41.217  19.552  26.110  1.00  0.00     0.251 C 
ATOM     30  H   UNL A   1      39.732  18.306  25.572  1.00  0.00     0.163 HD
ATOM     31  O   UNL A   1      42.101  18.714  25.973  1.00  0.00    -0.269 OA
BRANCH  29  32
ATOM     32  C   UNL A   1      41.529  20.919  26.572  1.00  0.00     0.039 A 
ATOM     33  C   UNL A   1      42.074  21.106  27.844  1.00  0.00     0.014 A 
ATOM     34  C   UNL A   1      41.368  21.997  25.699  1.00  0.00     0.014 A 
ATOM     35  C   UNL A   1      42.538  22.371  28.212  1.00  0.00     0.010 A 
ATOM     36  C   UNL A   1      41.912  23.228  26.032  1.00  0.00     0.010 A 
ATOM     37  C   UNL A   1      42.499  23.431  27.292  1.00  0.00    -0.014 A 
BRANCH  37  38
ATOM     38  C   UNL A   1      43.017  24.785  27.612  1.00  0.00     0.031 A 
ATOM     39  C   UNL A   1      42.094  25.770  28.276  1.00  0.00     0.074 A 
ATOM     40  C   UNL A   1      44.245  25.163  27.207  1.00  0.00     0.049 A 
ATOM     41  N   UNL A   1      42.223  27.061  28.427  1.00  0.00    -0.248 NA
ATOM     42  C   UNL A   1      40.826  25.226  28.786  1.00  0.00     0.031 C 
ATOM     43  C   UNL A   1      45.219  24.307  26.528  1.00  0.00     0.029 A 
ATOM     44  N   UNL A   1      44.873  26.382  27.285  1.00  0.00    -0.354 N 
ATOM     45  C   UNL A   1      41.031  27.492  29.000  1.00  0.00     0.074 A 
ATOM     46  C   UNL A   1      40.177  26.330  29.119  1.00  0.00     0.031 C 
ATOM     47  C   UNL A   1      46.324  25.023  26.262  1.00  0.00     0.029 A 
ATOM     48  C   UNL A   1      46.119  26.400  26.701  1.00  0.00     0.049 A 
ATOM     49  H   UNL A   1      44.470  27.168  27.718  1.00  0.00     0.167 HD
ATOM     50  C   UNL A   1      40.690  28.740  29.404  1.00  0.00     0.034 A 
ATOM     51  C   UNL A   1      46.983  27.419  26.520  1.00  0.00     0.034 A 
ATOM     52  C   UNL A   1      41.577  29.872  29.320  1.00  0.00     0.049 A 
ATOM     53  C   UNL A   1      46.598  28.794  27.006  1.00  0.00     0.074 A 
ATOM     54  C   UNL A   1      41.364  31.172  29.745  1.00  0.00     0.029 A 
ATOM     55  N   UNL A   1      42.858  29.833  28.783  1.00  0.00    -0.354 N 
ATOM     56  N   UNL A   1      45.472  29.188  27.555  1.00  0.00    -0.248 NA
ATOM     57  C   UNL A   1      47.599  29.859  26.855  1.00  0.00     0.031 C 
ATOM     58  C   UNL A   1      42.500  31.926  29.429  1.00  0.00     0.029 A 
ATOM     59  C   UNL A   1      43.444  31.085  28.862  1.00  0.00     0.049 A 
ATOM     60  H   UNL A   1      43.286  29.033  28.403  1.00  0.00     0.167 HD
ATOM     61  C   UNL A   1      45.646  30.536  27.851  1.00  0.00     0.074 A 
ATOM     62  C   UNL A   1      46.982  30.890  27.415  1.00  0.00     0.031 C 
ATOM     63  C   UNL A   1      44.785  31.404  28.438  1.00  0.00     0.034 A 
BRANCH  50  64
ATOM     64  C   UNL A   1      39.293  28.933  29.943  1.00  0.00     0.023 A 
ATOM     65  C   UNL A   1      38.270  29.489  29.155  1.00  0.00     0.031 A 
ATOM     66  C   UNL A   1      38.995  28.613  31.278  1.00  0.00     0.131 A 
ATOM     67  C   UNL A   1      37.031  29.799  29.734  1.00  0.00     0.055 A 
ATOM     68  C   UNL A   1      37.729  28.839  31.824  1.00  0.00     0.041 A 
ATOM     69  F   UNL A   1      39.936  28.097  32.085  1.00  0.00    -0.206 F 
ATOM     70  C   UNL A   1      36.744  29.454  31.056  1.00  0.00     0.022 A 
BRANCH  67  71
ATOM     71  S   UNL A   1      35.863  30.807  28.781  1.00  0.00     0.124 S 
ATOM     72  O   UNL A   1      35.120  29.782  28.050  1.00  0.00    -0.237 OA
ATOM     73  O   UNL A   1      35.125  31.508  29.825  1.00  0.00    -0.237 OA
ATOM     74  O   UNL A   1      36.728  31.647  27.957  1.00  0.00    -0.744 OA
ENDBRANCH  67  71
ENDBRANCH  50  64
BRANCH  51  75
ATOM     75  C   UNL A   1      48.291  27.191  25.843  1.00  0.00     0.023 A 
ATOM     76  C   UNL A   1      48.427  27.377  24.458  1.00  0.00     0.031 A 
ATOM     77  C   UNL A   1      49.416  26.755  26.564  1.00  0.00     0.131 A 
ATOM     78  C   UNL A   1      49.647  27.086  23.829  1.00  0.00     0.055 A 
ATOM     79  C   UNL A   1      50.641  26.508  25.940  1.00  0.00     0.041 A 
ATOM     80  F   UNL A   1      49.343  26.571  27.892  1.00  0.00    -0.206 F 
ATOM     81  C   UNL A   1      50.757  26.661  24.562  1.00  0.00     0.022 A 
BRANCH  78  82
ATOM     82  S   UNL A   1      49.738  27.197  22.021  1.00  0.00     0.124 S 
ATOM     83  O   UNL A   1      49.398  28.597  21.792  1.00  0.00    -0.237 OA
ATOM     84  O   UNL A   1      51.126  26.825  21.766  1.00  0.00    -0.237 OA
ATOM     85  O   UNL A   1      48.742  26.229  21.568  1.00  0.00    -0.744 OA
ENDBRANCH  78  82
ENDBRANCH  51  75
BRANCH  63  86
ATOM     86  C   UNL A   1      45.291  32.793  28.719  1.00  0.00     0.023 A 
ATOM     87  C   UNL A   1      46.163  33.064  29.787  1.00  0.00     0.031 A 
ATOM     88  C   UNL A   1      44.913  33.853  27.878  1.00  0.00     0.131 A 
ATOM     89  C   UNL A   1      46.606  34.377  30.004  1.00  0.00     0.055 A 
ATOM     90  C   UNL A   1      45.390  35.149  28.075  1.00  0.00     0.041 A 
ATOM     91  F   UNL A   1      44.085  33.642  26.844  1.00  0.00    -0.206 F 
ATOM     92  C   UNL A   1      46.236  35.418  29.147  1.00  0.00     0.022 A 
BRANCH  89  93
ATOM     93  S   UNL A   1      47.647  34.720  31.448  1.00  0.00     0.124 S 
ATOM     94  O   UNL A   1      47.869  36.157  31.328  1.00  0.00    -0.237 OA
ATOM     95  O   UNL A   1      46.798  34.297  32.557  1.00  0.00    -0.237 OA
ATOM     96  O   UNL A   1      48.830  33.889  31.224  1.00  0.00    -0.744 OA
ENDBRANCH  89  93
ENDBRANCH  63  86
ENDBRANCH  37  38
ENDBRANCH  29  32
ENDBRANCH  27  28
ENDBRANCH  26  27
ENDBRANCH   1  26
TORSDOF 18
ENDMDL
