MODEL 1
REMARK VINA RESULT:     -11.3      0.000      0.000
REMARK SMILES [NH3+][C@H](C(=O)NCCCCNC(=O)c1ccc(-c2c3nc(c(-c4cc(S(=O)(=O)[O-])ccc4F)c4ccc([nH]4)c(-c4cc(S(=O)(=O)[O-])ccc4F)c4nc(c(-c5cc(S(=O)(=O)[O-])ccc5F)c5ccc2[nH]5)C=C4)C=C3)cc1)c1cc(F)c(Cl)c(Cl)c1
REMARK SMILES IDX 8 1 7 2 6 3 5 4 3 5 4 6 2 8 1 9 76 13 77 14 84 15 78 16
REMARK SMILES IDX 82 17 79 18 80 19 83 20 81 21 9 22 10 23 11 24 12 26 13 27
REMARK SMILES IDX 14 28 75 29 15 30 74 31 16 32 17 33 18 34 68 35 19 36 73 37
REMARK SMILES IDX 67 38 69 39 20 40 72 41 66 42 65 43 21 45 53 46 33 47 52 48
REMARK SMILES IDX 34 49 37 50 51 51 70 52 35 53 36 54 50 56 71 57 38 58 22 59
REMARK SMILES IDX 23 60 31 61 24 62 30 63 32 64 29 65 25 66 26 67 27 68 28 69
REMARK SMILES IDX 54 70 55 71 63 72 56 73 62 74 64 75 61 76 57 77 58 78 59 79
REMARK SMILES IDX 60 80 39 81 40 82 48 83 41 84 47 85 49 86 46 87 42 88 43 89
REMARK SMILES IDX 44 90 45 91
REMARK H PARENT 5 7 1 10 1 11 1 12 10 25 69 44 37 55
REMARK Flexibility Score: inf
ROOT
ATOM      1  C   UNL A   1      31.657  28.841  25.984  1.00  0.00     0.023 C 
ENDROOT
BRANCH   1   2
ATOM      2  C   UNL A   1      31.937  27.480  26.626  1.00  0.00     0.023 C 
BRANCH   2   3
ATOM      3  C   UNL A   1      33.075  26.696  25.971  1.00  0.00     0.116 C 
BRANCH   3   4
ATOM      4  N   UNL A   1      32.748  25.288  25.858  1.00  0.00    -0.351 N 
ATOM      5  C   UNL A   1      32.268  24.597  24.783  1.00  0.00     0.283 C 
ATOM      6  O   UNL A   1      31.969  23.408  24.939  1.00  0.00    -0.268 OA
ATOM      7  H   UNL A   1      32.894  24.755  26.673  1.00  0.00     0.163 HD
BRANCH   5   8
ATOM      8  C   UNL A   1      32.153  25.280  23.392  1.00  0.00     0.302 C 
BRANCH   8   9
ATOM      9  N   UNL A   1      32.125  24.225  22.350  1.00  0.00    -0.343 N 
ATOM     10  H   UNL A   1      31.311  23.627  22.492  1.00  0.00     0.345 HD
ATOM     11  H   UNL A   1      32.974  23.663  22.411  1.00  0.00     0.345 HD
ATOM     12  H   UNL A   1      32.071  24.659  21.428  1.00  0.00     0.345 HD
ENDBRANCH   8   9
BRANCH   8  13
ATOM     13  C   UNL A   1      30.936  26.188  23.300  1.00  0.00     0.023 A 
ATOM     14  C   UNL A   1      29.705  25.846  23.876  1.00  0.00     0.051 A 
ATOM     15  C   UNL A   1      31.032  27.428  22.643  1.00  0.00     0.032 A 
ATOM     16  C   UNL A   1      28.616  26.716  23.792  1.00  0.00     0.143 A 
ATOM     17  C   UNL A   1      29.946  28.314  22.596  1.00  0.00     0.063 A 
ATOM     18  F   UNL A   1      27.452  26.328  24.336  1.00  0.00    -0.205 F 
ATOM     19  C   UNL A   1      28.725  27.956  23.166  1.00  0.00     0.095 A 
ATOM     20  Cl  UNL A   1      30.203  29.841  21.828  1.00  0.00    -0.083 Cl
ATOM     21  Cl  UNL A   1      27.345  28.996  23.120  1.00  0.00    -0.079 Cl
ENDBRANCH   8  13
ENDBRANCH   5   8
ENDBRANCH   3   4
ENDBRANCH   2   3
ENDBRANCH   1   2
BRANCH   1  22
ATOM     22  C   UNL A   1      32.863  29.766  25.888  1.00  0.00     0.116 C 
BRANCH  22  23
ATOM     23  N   UNL A   1      32.561  31.131  26.282  1.00  0.00    -0.352 N 
ATOM     24  C   UNL A   1      33.179  31.908  27.232  1.00  0.00     0.251 C 
ATOM     25  H   UNL A   1      31.813  31.558  25.804  1.00  0.00     0.163 HD
ATOM     26  O   UNL A   1      32.686  32.991  27.540  1.00  0.00    -0.269 OA
BRANCH  24  27
ATOM     27  C   UNL A   1      34.408  31.422  27.897  1.00  0.00     0.039 A 
ATOM     28  C   UNL A   1      35.474  32.309  28.075  1.00  0.00     0.014 A 
ATOM     29  C   UNL A   1      34.516  30.101  28.341  1.00  0.00     0.014 A 
ATOM     30  C   UNL A   1      36.631  31.876  28.726  1.00  0.00     0.010 A 
ATOM     31  C   UNL A   1      35.631  29.700  29.070  1.00  0.00     0.010 A 
ATOM     32  C   UNL A   1      36.713  30.574  29.247  1.00  0.00    -0.014 A 
BRANCH  32  33
ATOM     33  C   UNL A   1      37.950  30.094  29.920  1.00  0.00     0.031 A 
ATOM     34  C   UNL A   1      38.242  30.516  31.337  1.00  0.00     0.074 A 
ATOM     35  C   UNL A   1      38.818  29.307  29.255  1.00  0.00     0.049 A 
ATOM     36  N   UNL A   1      39.267  30.221  32.097  1.00  0.00    -0.248 NA
ATOM     37  C   UNL A   1      37.269  31.417  31.973  1.00  0.00     0.031 C 
ATOM     38  C   UNL A   1      38.664  28.864  27.866  1.00  0.00     0.029 A 
ATOM     39  N   UNL A   1      39.998  28.733  29.656  1.00  0.00    -0.354 N 
ATOM     40  C   UNL A   1      39.067  30.912  33.288  1.00  0.00     0.074 A 
ATOM     41  C   UNL A   1      37.865  31.698  33.120  1.00  0.00     0.031 C 
ATOM     42  C   UNL A   1      39.685  28.052  27.549  1.00  0.00     0.029 A 
ATOM     43  C   UNL A   1      40.589  27.951  28.691  1.00  0.00     0.049 A 
ATOM     44  H   UNL A   1      40.385  28.868  30.551  1.00  0.00     0.167 HD
ATOM     45  C   UNL A   1      39.802  30.873  34.427  1.00  0.00     0.034 A 
ATOM     46  C   UNL A   1      41.729  27.232  28.724  1.00  0.00     0.034 A 
ATOM     47  C   UNL A   1      40.989  30.067  34.582  1.00  0.00     0.049 A 
ATOM     48  C   UNL A   1      42.540  27.216  29.998  1.00  0.00     0.074 A 
ATOM     49  C   UNL A   1      41.781  29.906  35.706  1.00  0.00     0.029 A 
ATOM     50  N   UNL A   1      41.562  29.292  33.581  1.00  0.00    -0.354 N 
ATOM     51  N   UNL A   1      42.308  27.830  31.136  1.00  0.00    -0.248 NA
ATOM     52  C   UNL A   1      43.753  26.390  29.995  1.00  0.00     0.031 C 
ATOM     53  C   UNL A   1      42.874  29.103  35.361  1.00  0.00     0.029 A 
ATOM     54  C   UNL A   1      42.713  28.679  34.052  1.00  0.00     0.049 A 
ATOM     55  H   UNL A   1      41.203  29.194  32.669  1.00  0.00     0.167 HD
ATOM     56  C   UNL A   1      43.323  27.422  31.999  1.00  0.00     0.074 A 
ATOM     57  C   UNL A   1      44.157  26.504  31.251  1.00  0.00     0.031 C 
ATOM     58  C   UNL A   1      43.541  27.767  33.296  1.00  0.00     0.034 A 
BRANCH  45  59
ATOM     59  C   UNL A   1      39.355  31.749  35.576  1.00  0.00     0.023 A 
ATOM     60  C   UNL A   1      38.676  31.225  36.692  1.00  0.00     0.031 A 
ATOM     61  C   UNL A   1      39.575  33.137  35.539  1.00  0.00     0.131 A 
ATOM     62  C   UNL A   1      38.167  32.088  37.674  1.00  0.00     0.055 A 
ATOM     63  C   UNL A   1      39.148  33.981  36.567  1.00  0.00     0.041 A 
ATOM     64  F   UNL A   1      40.193  33.704  34.491  1.00  0.00    -0.206 F 
ATOM     65  C   UNL A   1      38.423  33.460  37.635  1.00  0.00     0.022 A 
BRANCH  62  66
ATOM     66  S   UNL A   1      37.019  31.415  38.908  1.00  0.00     0.124 S 
ATOM     67  O   UNL A   1      35.904  32.357  38.815  1.00  0.00    -0.237 OA
ATOM     68  O   UNL A   1      36.765  30.071  38.404  1.00  0.00    -0.237 OA
ATOM     69  O   UNL A   1      37.778  31.484  40.156  1.00  0.00    -0.744 OA
ENDBRANCH  62  66
ENDBRANCH  45  59
BRANCH  46  70
ATOM     70  C   UNL A   1      42.174  26.455  27.531  1.00  0.00     0.023 A 
ATOM     71  C   UNL A   1      41.817  25.106  27.373  1.00  0.00     0.031 A 
ATOM     72  C   UNL A   1      43.006  27.032  26.556  1.00  0.00     0.131 A 
ATOM     73  C   UNL A   1      42.337  24.364  26.301  1.00  0.00     0.055 A 
ATOM     74  C   UNL A   1      43.471  26.307  25.457  1.00  0.00     0.041 A 
ATOM     75  F   UNL A   1      43.376  28.320  26.654  1.00  0.00    -0.206 F 
ATOM     76  C   UNL A   1      43.149  24.959  25.334  1.00  0.00     0.022 A 
BRANCH  73  77
ATOM     77  S   UNL A   1      42.015  22.579  26.244  1.00  0.00     0.124 S 
ATOM     78  O   UNL A   1      42.675  22.199  25.001  1.00  0.00    -0.237 OA
ATOM     79  O   UNL A   1      42.648  22.118  27.475  1.00  0.00    -0.237 OA
ATOM     80  O   UNL A   1      40.555  22.498  26.227  1.00  0.00    -0.744 OA
ENDBRANCH  73  77
ENDBRANCH  46  70
BRANCH  58  81
ATOM     81  C   UNL A   1      44.688  27.087  34.006  1.00  0.00     0.023 A 
ATOM     82  C   UNL A   1      44.534  25.856  34.669  1.00  0.00     0.031 A 
ATOM     83  C   UNL A   1      45.954  27.700  34.042  1.00  0.00     0.131 A 
ATOM     84  C   UNL A   1      45.603  25.320  35.404  1.00  0.00     0.055 A 
ATOM     85  C   UNL A   1      47.035  27.122  34.710  1.00  0.00     0.041 A 
ATOM     86  F   UNL A   1      46.162  28.878  33.430  1.00  0.00    -0.206 F 
ATOM     87  C   UNL A   1      46.857  25.935  35.412  1.00  0.00     0.022 A 
BRANCH  84  88
ATOM     88  S   UNL A   1      45.294  23.879  36.462  1.00  0.00     0.124 S 
ATOM     89  O   UNL A   1      44.220  23.200  35.744  1.00  0.00    -0.237 OA
ATOM     90  O   UNL A   1      46.589  23.206  36.456  1.00  0.00    -0.237 OA
ATOM     91  O   UNL A   1      44.909  24.469  37.742  1.00  0.00    -0.744 OA
ENDBRANCH  84  88
ENDBRANCH  58  81
ENDBRANCH  32  33
ENDBRANCH  24  27
ENDBRANCH  22  23
ENDBRANCH   1  22
TORSDOF 16
ENDMDL
MODEL 2
REMARK VINA RESULT:     -11.3      4.500      6.574
REMARK SMILES [NH3+][C@H](C(=O)NCCCCNC(=O)c1ccc(-c2c3nc(c(-c4cc(S(=O)(=O)[O-])ccc4F)c4ccc([nH]4)c(-c4cc(S(=O)(=O)[O-])ccc4F)c4nc(c(-c5cc(S(=O)(=O)[O-])ccc5F)c5ccc2[nH]5)C=C4)C=C3)cc1)c1cc(F)c(Cl)c(Cl)c1
REMARK SMILES IDX 8 1 7 2 6 3 5 4 3 5 4 6 2 8 1 9 76 13 77 14 84 15 78 16
REMARK SMILES IDX 82 17 79 18 80 19 83 20 81 21 9 22 10 23 11 24 12 26 13 27
REMARK SMILES IDX 14 28 75 29 15 30 74 31 16 32 17 33 18 34 68 35 19 36 73 37
REMARK SMILES IDX 67 38 69 39 20 40 72 41 66 42 65 43 21 45 53 46 33 47 52 48
REMARK SMILES IDX 34 49 37 50 51 51 70 52 35 53 36 54 50 56 71 57 38 58 22 59
REMARK SMILES IDX 23 60 31 61 24 62 30 63 32 64 29 65 25 66 26 67 27 68 28 69
REMARK SMILES IDX 54 70 55 71 63 72 56 73 62 74 64 75 61 76 57 77 58 78 59 79
REMARK SMILES IDX 60 80 39 81 40 82 48 83 41 84 47 85 49 86 46 87 42 88 43 89
REMARK SMILES IDX 44 90 45 91
REMARK H PARENT 5 7 1 10 1 11 1 12 10 25 69 44 37 55
REMARK Flexibility Score: inf
ROOT
ATOM      1  C   UNL A   1      34.577  34.048  29.880  1.00  0.00     0.023 C 
ENDROOT
BRANCH   1   2
ATOM      2  C   UNL A   1      34.594  32.918  30.912  1.00  0.00     0.023 C 
BRANCH   2   3
ATOM      3  C   UNL A   1      34.540  33.389  32.365  1.00  0.00     0.116 C 
BRANCH   3   4
ATOM      4  N   UNL A   1      35.395  32.581  33.214  1.00  0.00    -0.351 N 
ATOM      5  C   UNL A   1      36.634  32.866  33.712  1.00  0.00     0.283 C 
ATOM      6  O   UNL A   1      37.227  31.985  34.344  1.00  0.00    -0.268 OA
ATOM      7  H   UNL A   1      35.029  31.703  33.467  1.00  0.00     0.163 HD
BRANCH   5   8
ATOM      8  C   UNL A   1      37.252  34.280  33.530  1.00  0.00     0.302 C 
BRANCH   8   9
ATOM      9  N   UNL A   1      37.792  34.731  34.837  1.00  0.00    -0.343 N 
ATOM     10  H   UNL A   1      37.287  34.267  35.592  1.00  0.00     0.345 HD
ATOM     11  H   UNL A   1      37.677  35.740  34.921  1.00  0.00     0.345 HD
ATOM     12  H   UNL A   1      38.782  34.495  34.895  1.00  0.00     0.345 HD
ENDBRANCH   8   9
BRANCH   8  13
ATOM     13  C   UNL A   1      38.322  34.301  32.448  1.00  0.00     0.023 A 
ATOM     14  C   UNL A   1      38.007  34.193  31.086  1.00  0.00     0.051 A 
ATOM     15  C   UNL A   1      39.674  34.461  32.798  1.00  0.00     0.032 A 
ATOM     16  C   UNL A   1      39.013  34.241  30.119  1.00  0.00     0.143 A 
ATOM     17  C   UNL A   1      40.676  34.547  31.820  1.00  0.00     0.063 A 
ATOM     18  F   UNL A   1      38.660  34.104  28.831  1.00  0.00    -0.205 F 
ATOM     19  C   UNL A   1      40.348  34.429  30.470  1.00  0.00     0.095 A 
ATOM     20  Cl  UNL A   1      42.293  34.820  32.366  1.00  0.00    -0.083 Cl
ATOM     21  Cl  UNL A   1      41.540  34.505  29.221  1.00  0.00    -0.079 Cl
ENDBRANCH   8  13
ENDBRANCH   5   8
ENDBRANCH   3   4
ENDBRANCH   2   3
ENDBRANCH   1   2
BRANCH   1  22
ATOM     22  C   UNL A   1      35.045  33.652  28.486  1.00  0.00     0.116 C 
BRANCH  22  23
ATOM     23  N   UNL A   1      34.195  32.650  27.868  1.00  0.00    -0.352 N 
ATOM     24  C   UNL A   1      34.463  31.322  27.635  1.00  0.00     0.251 C 
ATOM     25  H   UNL A   1      33.308  32.963  27.577  1.00  0.00     0.163 HD
ATOM     26  O   UNL A   1      33.680  30.659  26.957  1.00  0.00    -0.269 OA
BRANCH  24  27
ATOM     27  C   UNL A   1      35.700  30.713  28.169  1.00  0.00     0.039 A 
ATOM     28  C   UNL A   1      36.934  31.169  27.699  1.00  0.00     0.014 A 
ATOM     29  C   UNL A   1      35.649  29.695  29.126  1.00  0.00     0.014 A 
ATOM     30  C   UNL A   1      38.113  30.624  28.213  1.00  0.00     0.010 A 
ATOM     31  C   UNL A   1      36.823  29.221  29.703  1.00  0.00     0.010 A 
ATOM     32  C   UNL A   1      38.069  29.660  29.233  1.00  0.00    -0.014 A 
BRANCH  32  33
ATOM     33  C   UNL A   1      39.317  29.055  29.770  1.00  0.00     0.031 A 
ATOM     34  C   UNL A   1      39.928  29.602  31.035  1.00  0.00     0.074 A 
ATOM     35  C   UNL A   1      39.912  28.040  29.114  1.00  0.00     0.049 A 
ATOM     36  N   UNL A   1      41.016  29.227  31.661  1.00  0.00    -0.248 NA
ATOM     37  C   UNL A   1      39.244  30.743  31.662  1.00  0.00     0.031 C 
ATOM     38  C   UNL A   1      39.437  27.452  27.859  1.00  0.00     0.029 A 
ATOM     39  N   UNL A   1      41.040  27.318  29.411  1.00  0.00    -0.354 N 
ATOM     40  C   UNL A   1      41.152  30.096  32.740  1.00  0.00     0.074 A 
ATOM     41  C   UNL A   1      40.079  31.060  32.638  1.00  0.00     0.031 C 
ATOM     42  C   UNL A   1      40.240  26.431  27.521  1.00  0.00     0.029 A 
ATOM     43  C   UNL A   1      41.312  26.318  28.505  1.00  0.00     0.049 A 
ATOM     44  H   UNL A   1      41.602  27.497  30.199  1.00  0.00     0.167 HD
ATOM     45  C   UNL A   1      42.068  30.074  33.739  1.00  0.00     0.034 A 
ATOM     46  C   UNL A   1      42.311  25.413  28.474  1.00  0.00     0.034 A 
ATOM     47  C   UNL A   1      43.121  29.092  33.833  1.00  0.00     0.049 A 
ATOM     48  C   UNL A   1      43.329  25.418  29.589  1.00  0.00     0.074 A 
ATOM     49  C   UNL A   1      44.072  28.940  34.828  1.00  0.00     0.029 A 
ATOM     50  N   UNL A   1      43.370  28.098  32.893  1.00  0.00    -0.354 N 
ATOM     51  N   UNL A   1      43.412  26.211  30.634  1.00  0.00    -0.248 NA
ATOM     52  C   UNL A   1      44.376  24.391  29.529  1.00  0.00     0.031 C 
ATOM     53  C   UNL A   1      44.941  27.910  34.450  1.00  0.00     0.029 A 
ATOM     54  C   UNL A   1      44.477  27.352  33.270  1.00  0.00     0.049 A 
ATOM     55  H   UNL A   1      42.838  27.947  32.079  1.00  0.00     0.167 HD
ATOM     56  C   UNL A   1      44.492  25.742  31.380  1.00  0.00     0.074 A 
ATOM     57  C   UNL A   1      45.018  24.595  30.668  1.00  0.00     0.031 C 
ATOM     58  C   UNL A   1      44.996  26.211  32.551  1.00  0.00     0.034 A 
BRANCH  45  59
ATOM     59  C   UNL A   1      41.985  31.163  34.785  1.00  0.00     0.023 A 
ATOM     60  C   UNL A   1      40.975  31.178  35.766  1.00  0.00     0.031 A 
ATOM     61  C   UNL A   1      42.906  32.225  34.781  1.00  0.00     0.131 A 
ATOM     62  C   UNL A   1      40.858  32.271  36.636  1.00  0.00     0.055 A 
ATOM     63  C   UNL A   1      42.840  33.264  35.712  1.00  0.00     0.041 A 
ATOM     64  F   UNL A   1      43.877  32.285  33.856  1.00  0.00    -0.206 F 
ATOM     65  C   UNL A   1      41.800  33.301  36.636  1.00  0.00     0.022 A 
BRANCH  62  66
ATOM     66  S   UNL A   1      39.360  32.415  37.650  1.00  0.00     0.124 S 
ATOM     67  O   UNL A   1      38.836  33.710  37.218  1.00  0.00    -0.237 OA
ATOM     68  O   UNL A   1      38.590  31.246  37.243  1.00  0.00    -0.237 OA
ATOM     69  O   UNL A   1      39.868  32.384  39.020  1.00  0.00    -0.744 OA
ENDBRANCH  62  66
ENDBRANCH  45  59
BRANCH  46  70
ATOM     70  C   UNL A   1      42.400  24.415  27.369  1.00  0.00     0.023 A 
ATOM     71  C   UNL A   1      41.588  23.269  27.363  1.00  0.00     0.031 A 
ATOM     72  C   UNL A   1      43.333  24.563  26.328  1.00  0.00     0.131 A 
ATOM     73  C   UNL A   1      41.764  22.290  26.374  1.00  0.00     0.055 A 
ATOM     74  C   UNL A   1      43.463  23.616  25.311  1.00  0.00     0.041 A 
ATOM     75  F   UNL A   1      44.132  25.642  26.281  1.00  0.00    -0.206 F 
ATOM     76  C   UNL A   1      42.686  22.463  25.339  1.00  0.00     0.022 A 
BRANCH  73  77
ATOM     77  S   UNL A   1      40.838  20.735  26.515  1.00  0.00     0.124 S 
ATOM     78  O   UNL A   1      41.630  19.843  25.678  1.00  0.00    -0.237 OA
ATOM     79  O   UNL A   1      40.889  20.483  27.952  1.00  0.00    -0.237 OA
ATOM     80  O   UNL A   1      39.518  21.079  25.991  1.00  0.00    -0.744 OA
ENDBRANCH  73  77
ENDBRANCH  46  70
BRANCH  58  81
ATOM     81  C   UNL A   1      46.133  25.432  33.172  1.00  0.00     0.023 A 
ATOM     82  C   UNL A   1      45.912  24.337  34.025  1.00  0.00     0.031 A 
ATOM     83  C   UNL A   1      47.464  25.816  32.924  1.00  0.00     0.131 A 
ATOM     84  C   UNL A   1      46.998  23.716  34.661  1.00  0.00     0.055 A 
ATOM     85  C   UNL A   1      48.544  25.144  33.499  1.00  0.00     0.041 A 
ATOM     86  F   UNL A   1      47.739  26.857  32.121  1.00  0.00    -0.206 F 
ATOM     87  C   UNL A   1      48.313  24.099  34.388  1.00  0.00     0.022 A 
BRANCH  84  88
ATOM     88  S   UNL A   1      46.662  22.488  35.954  1.00  0.00     0.124 S 
ATOM     89  O   UNL A   1      46.299  21.313  35.170  1.00  0.00    -0.237 OA
ATOM     90  O   UNL A   1      47.941  22.417  36.654  1.00  0.00    -0.237 OA
ATOM     91  O   UNL A   1      45.570  23.086  36.719  1.00  0.00    -0.744 OA
ENDBRANCH  84  88
ENDBRANCH  58  81
ENDBRANCH  32  33
ENDBRANCH  24  27
ENDBRANCH  22  23
ENDBRANCH   1  22
TORSDOF 16
ENDMDL
MODEL 3
REMARK VINA RESULT:     -11.1      5.247     10.204
REMARK SMILES [NH3+][C@H](C(=O)NCCCCNC(=O)c1ccc(-c2c3nc(c(-c4cc(S(=O)(=O)[O-])ccc4F)c4ccc([nH]4)c(-c4cc(S(=O)(=O)[O-])ccc4F)c4nc(c(-c5cc(S(=O)(=O)[O-])ccc5F)c5ccc2[nH]5)C=C4)C=C3)cc1)c1cc(F)c(Cl)c(Cl)c1
REMARK SMILES IDX 8 1 7 2 6 3 5 4 3 5 4 6 2 8 1 9 76 13 77 14 84 15 78 16
REMARK SMILES IDX 82 17 79 18 80 19 83 20 81 21 9 22 10 23 11 24 12 26 13 27
REMARK SMILES IDX 14 28 75 29 15 30 74 31 16 32 17 33 18 34 68 35 19 36 73 37
REMARK SMILES IDX 67 38 69 39 20 40 72 41 66 42 65 43 21 45 53 46 33 47 52 48
REMARK SMILES IDX 34 49 37 50 51 51 70 52 35 53 36 54 50 56 71 57 38 58 22 59
REMARK SMILES IDX 23 60 31 61 24 62 30 63 32 64 29 65 25 66 26 67 27 68 28 69
REMARK SMILES IDX 54 70 55 71 63 72 56 73 62 74 64 75 61 76 57 77 58 78 59 79
REMARK SMILES IDX 60 80 39 81 40 82 48 83 41 84 47 85 49 86 46 87 42 88 43 89
REMARK SMILES IDX 44 90 45 91
REMARK H PARENT 5 7 1 10 1 11 1 12 10 25 69 44 37 55
REMARK Flexibility Score: inf
ROOT
ATOM      1  C   UNL A   1      36.335  22.291  24.389  1.00  0.00     0.023 C 
ENDROOT
BRANCH   1   2
ATOM      2  C   UNL A   1      34.920  22.873  24.354  1.00  0.00     0.023 C 
BRANCH   2   3
ATOM      3  C   UNL A   1      33.825  21.896  24.783  1.00  0.00     0.116 C 
BRANCH   3   4
ATOM      4  N   UNL A   1      33.491  22.060  26.184  1.00  0.00    -0.351 N 
ATOM      5  C   UNL A   1      32.353  22.563  26.747  1.00  0.00     0.283 C 
ATOM      6  O   UNL A   1      32.319  22.699  27.975  1.00  0.00    -0.268 OA
ATOM      7  H   UNL A   1      34.184  21.768  26.820  1.00  0.00     0.163 HD
BRANCH   5   8
ATOM      8  C   UNL A   1      31.119  22.903  25.866  1.00  0.00     0.302 C 
BRANCH   8   9
ATOM      9  N   UNL A   1      29.891  22.543  26.616  1.00  0.00    -0.343 N 
ATOM     10  H   UNL A   1      29.092  22.546  25.981  1.00  0.00     0.345 HD
ATOM     11  H   UNL A   1      29.736  23.222  27.361  1.00  0.00     0.345 HD
ATOM     12  H   UNL A   1      30.000  21.613  27.020  1.00  0.00     0.345 HD
ENDBRANCH   8   9
BRANCH   8  13
ATOM     13  C   UNL A   1      31.105  24.363  25.441  1.00  0.00     0.023 A 
ATOM     14  C   UNL A   1      30.864  24.752  24.115  1.00  0.00     0.051 A 
ATOM     15  C   UNL A   1      31.311  25.376  26.394  1.00  0.00     0.032 A 
ATOM     16  C   UNL A   1      30.835  26.103  23.766  1.00  0.00     0.143 A 
ATOM     17  C   UNL A   1      31.242  26.732  26.045  1.00  0.00     0.063 A 
ATOM     18  F   UNL A   1      30.629  26.420  22.478  1.00  0.00    -0.205 F 
ATOM     19  C   UNL A   1      31.010  27.103  24.721  1.00  0.00     0.095 A 
ATOM     20  Cl  UNL A   1      31.437  27.888  27.315  1.00  0.00    -0.083 Cl
ATOM     21  Cl  UNL A   1      30.937  28.757  24.225  1.00  0.00    -0.079 Cl
ENDBRANCH   8  13
ENDBRANCH   5   8
ENDBRANCH   3   4
ENDBRANCH   2   3
ENDBRANCH   1   2
BRANCH   1  22
ATOM     22  C   UNL A   1      37.067  22.460  25.715  1.00  0.00     0.116 C 
BRANCH  22  23
ATOM     23  N   UNL A   1      38.053  21.421  25.953  1.00  0.00    -0.352 N 
ATOM     24  C   UNL A   1      39.358  21.553  26.363  1.00  0.00     0.251 C 
ATOM     25  H   UNL A   1      37.745  20.497  25.801  1.00  0.00     0.163 HD
ATOM     26  O   UNL A   1      40.093  20.567  26.362  1.00  0.00    -0.269 OA
BRANCH  24  27
ATOM     27  C   UNL A   1      39.875  22.878  26.768  1.00  0.00     0.039 A 
ATOM     28  C   UNL A   1      39.461  24.009  26.059  1.00  0.00     0.014 A 
ATOM     29  C   UNL A   1      40.766  23.010  27.837  1.00  0.00     0.014 A 
ATOM     30  C   UNL A   1      39.917  25.271  26.445  1.00  0.00     0.010 A 
ATOM     31  C   UNL A   1      41.144  24.275  28.276  1.00  0.00     0.010 A 
ATOM     32  C   UNL A   1      40.747  25.418  27.569  1.00  0.00    -0.014 A 
BRANCH  32  33
ATOM     33  C   UNL A   1      41.259  26.755  27.973  1.00  0.00     0.031 A 
ATOM     34  C   UNL A   1      42.679  27.141  27.648  1.00  0.00     0.074 A 
ATOM     35  C   UNL A   1      40.464  27.605  28.651  1.00  0.00     0.049 A 
ATOM     36  N   UNL A   1      43.321  28.248  27.923  1.00  0.00    -0.248 NA
ATOM     37  C   UNL A   1      43.496  26.136  26.952  1.00  0.00     0.031 C 
ATOM     38  C   UNL A   1      39.083  27.328  29.058  1.00  0.00     0.029 A 
ATOM     39  N   UNL A   1      40.695  28.876  29.112  1.00  0.00    -0.354 N 
ATOM     40  C   UNL A   1      44.617  28.064  27.448  1.00  0.00     0.074 A 
ATOM     41  C   UNL A   1      44.686  26.712  26.938  1.00  0.00     0.031 C 
ATOM     42  C   UNL A   1      38.578  28.414  29.665  1.00  0.00     0.029 A 
ATOM     43  C   UNL A   1      39.608  29.447  29.733  1.00  0.00     0.049 A 
ATOM     44  H   UNL A   1      41.558  29.337  29.007  1.00  0.00     0.167 HD
ATOM     45  C   UNL A   1      45.644  28.948  27.413  1.00  0.00     0.034 A 
ATOM     46  C   UNL A   1      39.458  30.665  30.292  1.00  0.00     0.034 A 
ATOM     47  C   UNL A   1      45.549  30.299  27.910  1.00  0.00     0.049 A 
ATOM     48  C   UNL A   1      40.621  31.627  30.256  1.00  0.00     0.074 A 
ATOM     49  C   UNL A   1      46.506  31.299  27.878  1.00  0.00     0.029 A 
ATOM     50  N   UNL A   1      44.434  30.840  28.539  1.00  0.00    -0.354 N 
ATOM     51  N   UNL A   1      41.822  31.458  29.752  1.00  0.00    -0.248 NA
ATOM     52  C   UNL A   1      40.397  32.952  30.845  1.00  0.00     0.031 C 
ATOM     53  C   UNL A   1      46.000  32.413  28.557  1.00  0.00     0.029 A 
ATOM     54  C   UNL A   1      44.692  32.147  28.927  1.00  0.00     0.049 A 
ATOM     55  H   UNL A   1      43.585  30.365  28.688  1.00  0.00     0.167 HD
ATOM     56  C   UNL A   1      42.478  32.676  29.921  1.00  0.00     0.074 A 
ATOM     57  C   UNL A   1      41.534  33.568  30.562  1.00  0.00     0.031 C 
ATOM     58  C   UNL A   1      43.743  33.028  29.569  1.00  0.00     0.034 A 
BRANCH  45  59
ATOM     59  C   UNL A   1      46.960  28.466  26.846  1.00  0.00     0.023 A 
ATOM     60  C   UNL A   1      47.186  28.375  25.460  1.00  0.00     0.031 A 
ATOM     61  C   UNL A   1      47.995  28.052  27.704  1.00  0.00     0.131 A 
ATOM     62  C   UNL A   1      48.373  27.803  24.978  1.00  0.00     0.055 A 
ATOM     63  C   UNL A   1      49.212  27.571  27.216  1.00  0.00     0.041 A 
ATOM     64  F   UNL A   1      47.834  28.089  29.037  1.00  0.00    -0.206 F 
ATOM     65  C   UNL A   1      49.400  27.427  25.845  1.00  0.00     0.022 A 
BRANCH  62  66
ATOM     66  S   UNL A   1      48.483  27.397  23.212  1.00  0.00     0.124 S 
ATOM     67  O   UNL A   1      48.342  25.942  23.236  1.00  0.00    -0.237 OA
ATOM     68  O   UNL A   1      47.363  28.139  22.647  1.00  0.00    -0.237 OA
ATOM     69  O   UNL A   1      49.810  27.878  22.832  1.00  0.00    -0.744 OA
ENDBRANCH  62  66
ENDBRANCH  45  59
BRANCH  46  70
ATOM     70  C   UNL A   1      38.164  31.060  30.919  1.00  0.00     0.023 A 
ATOM     71  C   UNL A   1      37.168  31.711  30.173  1.00  0.00     0.031 A 
ATOM     72  C   UNL A   1      37.922  30.842  32.287  1.00  0.00     0.131 A 
ATOM     73  C   UNL A   1      36.004  32.172  30.808  1.00  0.00     0.055 A 
ATOM     74  C   UNL A   1      36.736  31.248  32.902  1.00  0.00     0.041 A 
ATOM     75  F   UNL A   1      38.838  30.221  33.049  1.00  0.00    -0.206 F 
ATOM     76  C   UNL A   1      35.775  31.932  32.164  1.00  0.00     0.022 A 
BRANCH  73  77
ATOM     77  S   UNL A   1      34.836  33.181  29.853  1.00  0.00     0.124 S 
ATOM     78  O   UNL A   1      33.998  33.738  30.908  1.00  0.00    -0.237 OA
ATOM     79  O   UNL A   1      35.728  34.118  29.178  1.00  0.00    -0.237 OA
ATOM     80  O   UNL A   1      34.181  32.207  28.982  1.00  0.00    -0.744 OA
ENDBRANCH  73  77
ENDBRANCH  46  70
BRANCH  58  81
ATOM     81  C   UNL A   1      44.148  34.464  29.806  1.00  0.00     0.023 A 
ATOM     82  C   UNL A   1      43.957  35.466  28.837  1.00  0.00     0.031 A 
ATOM     83  C   UNL A   1      44.766  34.829  31.016  1.00  0.00     0.131 A 
ATOM     84  C   UNL A   1      44.449  36.760  29.064  1.00  0.00     0.055 A 
ATOM     85  C   UNL A   1      45.183  36.137  31.267  1.00  0.00     0.041 A 
ATOM     86  F   UNL A   1      44.980  33.916  31.978  1.00  0.00    -0.206 F 
ATOM     87  C   UNL A   1      45.042  37.107  30.279  1.00  0.00     0.022 A 
BRANCH  84  88
ATOM     88  S   UNL A   1      44.424  37.951  27.695  1.00  0.00     0.124 S 
ATOM     89  O   UNL A   1      45.640  37.603  26.968  1.00  0.00    -0.237 OA
ATOM     90  O   UNL A   1      43.167  37.630  27.027  1.00  0.00    -0.237 OA
ATOM     91  O   UNL A   1      44.453  39.248  28.368  1.00  0.00    -0.744 OA
ENDBRANCH  84  88
ENDBRANCH  58  81
ENDBRANCH  32  33
ENDBRANCH  24  27
ENDBRANCH  22  23
ENDBRANCH   1  22
TORSDOF 16
ENDMDL
