MODEL 1
REMARK VINA RESULT:     -10.3      0.000      0.000
REMARK SMILES NS(=O)(=O)c1ccc(-n2nc(C(=O)NCCCC(=O)NCCCCNC(=O)c3ccc(-c4c5nc(c(-c6cc(S(=O)(=O)[O-])ccc6F)c6ccc([nH]6)c(-c6cc(S(=O)(=O)[O-])ccc6F)c6nc(c(-c7cc(S(=O)(=O)[O-])ccc7F)c7ccc4[nH]7)C=C6)C=C5)cc3)cc2-c2ccccc2)cc1
REMARK SMILES IDX 18 1 19 2 20 3 17 5 16 6 15 7 14 8 12 9 13 10 11 12 9 13
REMARK SMILES IDX 10 14 92 15 91 16 8 17 5 18 6 19 100 20 7 21 99 22 2 23 3 24
REMARK SMILES IDX 4 25 1 26 93 29 94 30 98 31 95 32 97 33 96 34 21 35 22 36
REMARK SMILES IDX 23 37 24 38 25 39 26 40 27 42 28 43 29 44 90 45 30 46 89 47
REMARK SMILES IDX 31 48 32 49 33 50 83 51 34 52 88 53 82 54 84 55 35 56 87 57
REMARK SMILES IDX 81 58 80 59 36 61 68 62 48 63 67 64 49 65 52 66 66 67 85 68
REMARK SMILES IDX 50 69 51 70 65 72 86 73 53 74 37 75 38 76 46 77 39 78 45 79
REMARK SMILES IDX 47 80 44 81 40 82 41 83 42 84 43 85 69 86 70 87 78 88 71 89
REMARK SMILES IDX 77 90 79 91 76 92 72 93 73 94 74 95 75 96 54 97 55 98 63 99
REMARK SMILES IDX 56 100 62 101 64 102 61 103 57 104 58 105 59 106 60 107
REMARK H PARENT 20 4 14 11 1 27 1 28 25 41 84 60 52 71
REMARK Flexibility Score: inf
ROOT
ATOM      1  C   UNL A   1      41.783  33.787  32.400  1.00  0.00     0.220 C 
ATOM      2  O   UNL A   1      42.451  33.103  33.177  1.00  0.00    -0.275 OA
ATOM      3  N   UNL A   1      40.466  33.478  32.240  1.00  0.00    -0.356 N 
ATOM      4  H   UNL A   1      40.123  32.805  32.872  1.00  0.00     0.163 HD
ENDROOT
BRANCH   1   5
ATOM      5  C   UNL A   1      42.418  34.939  31.648  1.00  0.00     0.102 C 
BRANCH   5   6
ATOM      6  C   UNL A   1      43.751  34.592  30.981  1.00  0.00     0.031 C 
BRANCH   6   7
ATOM      7  C   UNL A   1      43.839  34.897  29.489  1.00  0.00     0.116 C 
BRANCH   7   8
ATOM      8  N   UNL A   1      42.583  34.755  28.782  1.00  0.00    -0.351 N 
ATOM      9  C   UNL A   1      41.826  35.695  28.115  1.00  0.00     0.271 C 
ATOM     10  O   UNL A   1      40.762  35.311  27.628  1.00  0.00    -0.267 OA
ATOM     11  H   UNL A   1      42.211  33.843  28.775  1.00  0.00     0.163 HD
BRANCH   9  12
ATOM     12  C   UNL A   1      42.279  37.094  28.029  1.00  0.00     0.151 A 
ATOM     13  N   UNL A   1      43.142  38.948  28.677  1.00  0.00    -0.232 N 
ATOM     14  N   UNL A   1      42.949  37.664  29.050  1.00  0.00    -0.162 NA
ATOM     15  C   UNL A   1      42.873  39.129  27.326  1.00  0.00     0.075 A 
ATOM     16  C   UNL A   1      42.153  38.014  26.958  1.00  0.00     0.065 A 
BRANCH  13  17
ATOM     17  C   UNL A   1      43.620  39.916  29.600  1.00  0.00     0.065 A 
ATOM     18  C   UNL A   1      44.642  41.959  31.190  1.00  0.00     0.082 A 
ATOM     19  C   UNL A   1      43.339  42.058  30.701  1.00  0.00     0.024 A 
ATOM     20  C   UNL A   1      45.411  40.811  30.956  1.00  0.00     0.024 A 
ATOM     21  C   UNL A   1      42.831  41.037  29.903  1.00  0.00     0.030 A 
ATOM     22  C   UNL A   1      44.889  39.775  30.174  1.00  0.00     0.030 A 
BRANCH  18  23
ATOM     23  S   UNL A   1      45.365  43.298  32.087  1.00  0.00     0.238 S 
ATOM     24  O   UNL A   1      46.787  43.290  31.842  1.00  0.00    -0.207 OA
ATOM     25  O   UNL A   1      44.800  43.333  33.417  1.00  0.00    -0.207 OA
BRANCH  23  26
ATOM     26  N   UNL A   1      44.785  44.680  31.324  1.00  0.00    -0.225 NA
ATOM     27  H   UNL A   1      44.566  44.465  30.352  1.00  0.00     0.137 HD
ATOM     28  H   UNL A   1      45.495  45.411  31.359  1.00  0.00     0.137 HD
ENDBRANCH  23  26
ENDBRANCH  18  23
ENDBRANCH  13  17
BRANCH  15  29
ATOM     29  C   UNL A   1      43.401  40.200  26.481  1.00  0.00     0.000 A 
ATOM     30  C   UNL A   1      44.789  40.403  26.398  1.00  0.00     0.010 A 
ATOM     31  C   UNL A   1      42.551  40.993  25.705  1.00  0.00     0.010 A 
ATOM     32  C   UNL A   1      45.314  41.400  25.577  1.00  0.00     0.001 A 
ATOM     33  C   UNL A   1      43.080  41.989  24.879  1.00  0.00     0.001 A 
ATOM     34  C   UNL A   1      44.459  42.193  24.818  1.00  0.00     0.000 A 
ENDBRANCH  15  29
ENDBRANCH   9  12
ENDBRANCH   7   8
ENDBRANCH   6   7
ENDBRANCH   5   6
ENDBRANCH   1   5
BRANCH   3  35
ATOM     35  C   UNL A   1      39.482  33.975  31.293  1.00  0.00     0.116 C 
BRANCH  35  36
ATOM     36  C   UNL A   1      39.309  33.000  30.121  1.00  0.00     0.023 C 
BRANCH  36  37
ATOM     37  C   UNL A   1      37.866  32.618  29.773  1.00  0.00     0.023 C 
BRANCH  37  38
ATOM     38  C   UNL A   1      37.252  31.573  30.693  1.00  0.00     0.116 C 
BRANCH  38  39
ATOM     39  N   UNL A   1      36.104  30.891  30.092  1.00  0.00    -0.352 N 
ATOM     40  C   UNL A   1      36.121  30.010  29.026  1.00  0.00     0.251 C 
ATOM     41  H   UNL A   1      35.225  31.081  30.491  1.00  0.00     0.163 HD
ATOM     42  O   UNL A   1      35.120  29.824  28.346  1.00  0.00    -0.269 OA
BRANCH  40  43
ATOM     43  C   UNL A   1      37.383  29.309  28.737  1.00  0.00     0.039 A 
ATOM     44  C   UNL A   1      38.159  29.632  27.619  1.00  0.00     0.014 A 
ATOM     45  C   UNL A   1      37.825  28.387  29.682  1.00  0.00     0.014 A 
ATOM     46  C   UNL A   1      39.443  29.099  27.517  1.00  0.00     0.010 A 
ATOM     47  C   UNL A   1      39.131  27.968  29.643  1.00  0.00     0.010 A 
ATOM     48  C   UNL A   1      39.938  28.289  28.550  1.00  0.00    -0.014 A 
BRANCH  48  49
ATOM     49  C   UNL A   1      41.347  27.892  28.593  1.00  0.00     0.031 A 
ATOM     50  C   UNL A   1      41.698  26.664  27.820  1.00  0.00     0.074 A 
ATOM     51  C   UNL A   1      42.307  28.735  29.038  1.00  0.00     0.049 A 
ATOM     52  N   UNL A   1      42.237  25.575  28.260  1.00  0.00    -0.248 NA
ATOM     53  C   UNL A   1      41.300  26.584  26.404  1.00  0.00     0.031 C 
ATOM     54  C   UNL A   1      42.130  30.098  29.549  1.00  0.00     0.029 A 
ATOM     55  N   UNL A   1      43.662  28.623  28.960  1.00  0.00    -0.354 N 
ATOM     56  C   UNL A   1      42.462  24.766  27.148  1.00  0.00     0.074 A 
ATOM     57  C   UNL A   1      41.690  25.348  26.082  1.00  0.00     0.031 C 
ATOM     58  C   UNL A   1      43.299  30.766  29.463  1.00  0.00     0.029 A 
ATOM     59  C   UNL A   1      44.336  29.839  29.048  1.00  0.00     0.049 A 
ATOM     60  H   UNL A   1      44.123  27.760  28.852  1.00  0.00     0.167 HD
ATOM     61  C   UNL A   1      43.445  23.819  27.144  1.00  0.00     0.034 A 
ATOM     62  C   UNL A   1      45.640  30.089  28.750  1.00  0.00     0.034 A 
ATOM     63  C   UNL A   1      43.916  23.562  28.487  1.00  0.00     0.049 A 
ATOM     64  C   UNL A   1      46.350  28.788  28.848  1.00  0.00     0.074 A 
ATOM     65  C   UNL A   1      43.305  23.169  29.664  1.00  0.00     0.029 A 
ATOM     66  N   UNL A   1      45.130  24.093  28.866  1.00  0.00    -0.354 N 
ATOM     67  N   UNL A   1      46.458  28.119  29.965  1.00  0.00    -0.248 NA
ATOM     68  C   UNL A   1      46.495  27.990  27.640  1.00  0.00     0.031 C 
ATOM     69  C   UNL A   1      43.919  23.971  30.671  1.00  0.00     0.029 A 
ATOM     70  C   UNL A   1      44.934  24.721  30.071  1.00  0.00     0.049 A 
ATOM     71  H   UNL A   1      45.978  24.033  28.367  1.00  0.00     0.167 HD
ATOM     72  C   UNL A   1      46.219  26.799  29.615  1.00  0.00     0.074 A 
ATOM     73  C   UNL A   1      46.365  26.764  28.160  1.00  0.00     0.031 C 
ATOM     74  C   UNL A   1      45.633  25.923  30.488  1.00  0.00     0.034 A 
BRANCH  61  75
ATOM     75  C   UNL A   1      44.240  23.370  25.931  1.00  0.00     0.023 A 
ATOM     76  C   UNL A   1      44.156  22.006  25.578  1.00  0.00     0.031 A 
ATOM     77  C   UNL A   1      45.271  24.098  25.300  1.00  0.00     0.131 A 
ATOM     78  C   UNL A   1      45.125  21.406  24.755  1.00  0.00     0.055 A 
ATOM     79  C   UNL A   1      46.191  23.511  24.423  1.00  0.00     0.041 A 
ATOM     80  F   UNL A   1      45.513  25.387  25.561  1.00  0.00    -0.206 F 
ATOM     81  C   UNL A   1      46.146  22.151  24.175  1.00  0.00     0.022 A 
BRANCH  78  82
ATOM     82  S   UNL A   1      45.145  19.599  24.629  1.00  0.00     0.124 S 
ATOM     83  O   UNL A   1      44.709  19.397  23.251  1.00  0.00    -0.237 OA
ATOM     84  O   UNL A   1      46.544  19.295  24.914  1.00  0.00    -0.237 OA
ATOM     85  O   UNL A   1      44.193  19.176  25.653  1.00  0.00    -0.744 OA
ENDBRANCH  78  82
ENDBRANCH  61  75
BRANCH  62  86
ATOM     86  C   UNL A   1      46.204  31.325  28.131  1.00  0.00     0.023 A 
ATOM     87  C   UNL A   1      45.475  32.145  27.243  1.00  0.00     0.031 A 
ATOM     88  C   UNL A   1      47.441  31.845  28.587  1.00  0.00     0.131 A 
ATOM     89  C   UNL A   1      45.986  33.405  26.845  1.00  0.00     0.055 A 
ATOM     90  C   UNL A   1      47.948  33.083  28.181  1.00  0.00     0.041 A 
ATOM     91  F   UNL A   1      48.169  31.205  29.514  1.00  0.00    -0.206 F 
ATOM     92  C   UNL A   1      47.216  33.875  27.314  1.00  0.00     0.022 A 
BRANCH  89  93
ATOM     93  S   UNL A   1      45.003  34.520  25.789  1.00  0.00     0.124 S 
ATOM     94  O   UNL A   1      43.679  33.912  25.847  1.00  0.00    -0.237 OA
ATOM     95  O   UNL A   1      45.157  35.807  26.459  1.00  0.00    -0.237 OA
ATOM     96  O   UNL A   1      45.664  34.428  24.487  1.00  0.00    -0.744 OA
ENDBRANCH  89  93
ENDBRANCH  62  86
BRANCH  74  97
ATOM     97  C   UNL A   1      45.482  26.322  31.946  1.00  0.00     0.023 A 
ATOM     98  C   UNL A   1      44.343  26.955  32.497  1.00  0.00     0.031 A 
ATOM     99  C   UNL A   1      46.480  25.896  32.840  1.00  0.00     0.131 A 
ATOM    100  C   UNL A   1      44.244  27.147  33.890  1.00  0.00     0.055 A 
ATOM    101  C   UNL A   1      46.367  26.064  34.220  1.00  0.00     0.041 A 
ATOM    102  F   UNL A   1      47.574  25.261  32.387  1.00  0.00    -0.206 F 
ATOM    103  C   UNL A   1      45.250  26.696  34.750  1.00  0.00     0.022 A 
BRANCH 100 104
ATOM    104  S   UNL A   1      42.805  28.002  34.612  1.00  0.00     0.124 S 
ATOM    105  O   UNL A   1      42.837  29.317  33.980  1.00  0.00    -0.237 OA
ATOM    106  O   UNL A   1      41.696  27.134  34.229  1.00  0.00    -0.237 OA
ATOM    107  O   UNL A   1      43.101  28.010  36.046  1.00  0.00    -0.744 OA
ENDBRANCH 100 104
ENDBRANCH  74  97
ENDBRANCH  48  49
ENDBRANCH  40  43
ENDBRANCH  38  39
ENDBRANCH  37  38
ENDBRANCH  36  37
ENDBRANCH  35  36
ENDBRANCH   3  35
TORSDOF 22
ENDMDL
MODEL 2
REMARK VINA RESULT:     -10.3      4.934     13.420
REMARK SMILES NS(=O)(=O)c1ccc(-n2nc(C(=O)NCCCC(=O)NCCCCNC(=O)c3ccc(-c4c5nc(c(-c6cc(S(=O)(=O)[O-])ccc6F)c6ccc([nH]6)c(-c6cc(S(=O)(=O)[O-])ccc6F)c6nc(c(-c7cc(S(=O)(=O)[O-])ccc7F)c7ccc4[nH]7)C=C6)C=C5)cc3)cc2-c2ccccc2)cc1
REMARK SMILES IDX 18 1 19 2 20 3 17 5 16 6 15 7 14 8 12 9 13 10 11 12 9 13
REMARK SMILES IDX 10 14 92 15 91 16 8 17 5 18 6 19 100 20 7 21 99 22 2 23 3 24
REMARK SMILES IDX 4 25 1 26 93 29 94 30 98 31 95 32 97 33 96 34 21 35 22 36
REMARK SMILES IDX 23 37 24 38 25 39 26 40 27 42 28 43 29 44 90 45 30 46 89 47
REMARK SMILES IDX 31 48 32 49 33 50 83 51 34 52 88 53 82 54 84 55 35 56 87 57
REMARK SMILES IDX 81 58 80 59 36 61 68 62 48 63 67 64 49 65 52 66 66 67 85 68
REMARK SMILES IDX 50 69 51 70 65 72 86 73 53 74 37 75 38 76 46 77 39 78 45 79
REMARK SMILES IDX 47 80 44 81 40 82 41 83 42 84 43 85 69 86 70 87 78 88 71 89
REMARK SMILES IDX 77 90 79 91 76 92 72 93 73 94 74 95 75 96 54 97 55 98 63 99
REMARK SMILES IDX 56 100 62 101 64 102 61 103 57 104 58 105 59 106 60 107
REMARK H PARENT 20 4 14 11 1 27 1 28 25 41 84 60 52 71
REMARK Flexibility Score: inf
ROOT
ATOM      1  C   UNL A   1      39.765  28.819  29.101  1.00  0.00     0.220 C 
ATOM      2  O   UNL A   1      40.785  29.356  28.667  1.00  0.00    -0.275 OA
ATOM      3  N   UNL A   1      38.671  29.599  29.324  1.00  0.00    -0.356 N 
ATOM      4  H   UNL A   1      38.749  30.520  28.986  1.00  0.00     0.163 HD
ENDROOT
BRANCH   1   5
ATOM      5  C   UNL A   1      39.739  27.328  29.378  1.00  0.00     0.102 C 
BRANCH   5   6
ATOM      6  C   UNL A   1      39.760  26.459  28.119  1.00  0.00     0.031 C 
BRANCH   6   7
ATOM      7  C   UNL A   1      41.104  26.369  27.405  1.00  0.00     0.116 C 
BRANCH   7   8
ATOM      8  N   UNL A   1      41.261  27.317  26.320  1.00  0.00    -0.351 N 
ATOM      9  C   UNL A   1      42.319  27.515  25.458  1.00  0.00     0.271 C 
ATOM     10  O   UNL A   1      42.209  28.429  24.641  1.00  0.00    -0.267 OA
ATOM     11  H   UNL A   1      40.491  27.913  26.175  1.00  0.00     0.163 HD
BRANCH   9  12
ATOM     12  C   UNL A   1      43.526  26.674  25.551  1.00  0.00     0.151 A 
ATOM     13  N   UNL A   1      44.747  24.921  25.359  1.00  0.00    -0.232 N 
ATOM     14  N   UNL A   1      43.536  25.428  25.039  1.00  0.00    -0.162 NA
ATOM     15  C   UNL A   1      45.611  25.915  25.801  1.00  0.00     0.075 A 
ATOM     16  C   UNL A   1      44.795  26.984  26.102  1.00  0.00     0.065 A 
BRANCH  13  17
ATOM     17  C   UNL A   1      45.037  23.543  25.179  1.00  0.00     0.065 A 
ATOM     18  C   UNL A   1      45.332  20.797  24.832  1.00  0.00     0.082 A 
ATOM     19  C   UNL A   1      45.155  21.614  23.715  1.00  0.00     0.024 A 
ATOM     20  C   UNL A   1      45.442  21.349  26.114  1.00  0.00     0.024 A 
ATOM     21  C   UNL A   1      45.005  22.987  23.892  1.00  0.00     0.030 A 
ATOM     22  C   UNL A   1      45.314  22.732  26.287  1.00  0.00     0.030 A 
BRANCH  18  23
ATOM     23  S   UNL A   1      45.386  19.041  24.655  1.00  0.00     0.238 S 
ATOM     24  O   UNL A   1      44.062  18.522  24.896  1.00  0.00    -0.207 OA
ATOM     25  O   UNL A   1      46.560  18.535  25.330  1.00  0.00    -0.207 OA
BRANCH  23  26
ATOM     26  N   UNL A   1      45.675  18.789  23.017  1.00  0.00    -0.225 NA
ATOM     27  H   UNL A   1      44.789  18.784  22.512  1.00  0.00     0.137 HD
ATOM     28  H   UNL A   1      46.145  17.893  22.888  1.00  0.00     0.137 HD
ENDBRANCH  23  26
ENDBRANCH  18  23
ENDBRANCH  13  17
BRANCH  15  29
ATOM     29  C   UNL A   1      47.073  25.856  25.778  1.00  0.00     0.000 A 
ATOM     30  C   UNL A   1      47.773  26.346  24.663  1.00  0.00     0.010 A 
ATOM     31  C   UNL A   1      47.793  25.373  26.874  1.00  0.00     0.010 A 
ATOM     32  C   UNL A   1      49.167  26.324  24.632  1.00  0.00     0.001 A 
ATOM     33  C   UNL A   1      49.191  25.357  26.843  1.00  0.00     0.001 A 
ATOM     34  C   UNL A   1      49.875  25.829  25.723  1.00  0.00     0.000 A 
ENDBRANCH  15  29
ENDBRANCH   9  12
ENDBRANCH   7   8
ENDBRANCH   6   7
ENDBRANCH   5   6
ENDBRANCH   1   5
BRANCH   3  35
ATOM     35  C   UNL A   1      37.408  29.299  29.977  1.00  0.00     0.116 C 
BRANCH  35  36
ATOM     36  C   UNL A   1      36.225  29.609  29.050  1.00  0.00     0.023 C 
BRANCH  36  37
ATOM     37  C   UNL A   1      36.494  30.628  27.937  1.00  0.00     0.023 C 
BRANCH  37  38
ATOM     38  C   UNL A   1      36.747  32.046  28.429  1.00  0.00     0.116 C 
BRANCH  38  39
ATOM     39  N   UNL A   1      35.511  32.800  28.649  1.00  0.00    -0.352 N 
ATOM     40  C   UNL A   1      34.907  33.076  29.862  1.00  0.00     0.251 C 
ATOM     41  H   UNL A   1      35.062  33.148  27.845  1.00  0.00     0.163 HD
ATOM     42  O   UNL A   1      33.712  33.333  29.927  1.00  0.00    -0.269 OA
BRANCH  40  43
ATOM     43  C   UNL A   1      35.749  33.048  31.068  1.00  0.00     0.039 A 
ATOM     44  C   UNL A   1      35.789  31.930  31.906  1.00  0.00     0.014 A 
ATOM     45  C   UNL A   1      36.587  34.140  31.280  1.00  0.00     0.014 A 
ATOM     46  C   UNL A   1      36.764  31.871  32.901  1.00  0.00     0.010 A 
ATOM     47  C   UNL A   1      37.623  34.022  32.173  1.00  0.00     0.010 A 
ATOM     48  C   UNL A   1      37.702  32.908  33.011  1.00  0.00    -0.014 A 
BRANCH  48  49
ATOM     49  C   UNL A   1      38.870  32.786  33.887  1.00  0.00     0.031 A 
ATOM     50  C   UNL A   1      38.692  33.299  35.278  1.00  0.00     0.074 A 
ATOM     51  C   UNL A   1      39.918  31.995  33.562  1.00  0.00     0.049 A 
ATOM     52  N   UNL A   1      39.375  34.217  35.878  1.00  0.00    -0.248 NA
ATOM     53  C   UNL A   1      37.545  32.819  36.067  1.00  0.00     0.031 C 
ATOM     54  C   UNL A   1      40.085  31.189  32.348  1.00  0.00     0.029 A 
ATOM     55  N   UNL A   1      40.974  31.601  34.326  1.00  0.00    -0.354 N 
ATOM     56  C   UNL A   1      38.904  34.268  37.189  1.00  0.00     0.074 A 
ATOM     57  C   UNL A   1      37.663  33.541  37.183  1.00  0.00     0.031 C 
ATOM     58  C   UNL A   1      40.993  30.218  32.575  1.00  0.00     0.029 A 
ATOM     59  C   UNL A   1      41.587  30.430  33.883  1.00  0.00     0.049 A 
ATOM     60  H   UNL A   1      41.278  32.098  35.120  1.00  0.00     0.167 HD
ATOM     61  C   UNL A   1      39.691  34.712  38.211  1.00  0.00     0.034 A 
ATOM     62  C   UNL A   1      42.477  29.653  34.556  1.00  0.00     0.034 A 
ATOM     63  C   UNL A   1      40.853  35.407  37.702  1.00  0.00     0.049 A 
ATOM     64  C   UNL A   1      43.098  30.524  35.587  1.00  0.00     0.074 A 
ATOM     65  C   UNL A   1      41.035  36.492  36.863  1.00  0.00     0.029 A 
ATOM     66  N   UNL A   1      42.067  34.755  37.724  1.00  0.00    -0.354 N 
ATOM     67  N   UNL A   1      43.828  31.566  35.292  1.00  0.00    -0.248 NA
ATOM     68  C   UNL A   1      42.506  30.547  36.917  1.00  0.00     0.031 C 
ATOM     69  C   UNL A   1      42.128  36.118  36.028  1.00  0.00     0.029 A 
ATOM     70  C   UNL A   1      42.613  34.886  36.470  1.00  0.00     0.049 A 
ATOM     71  H   UNL A   1      42.466  34.285  38.492  1.00  0.00     0.167 HD
ATOM     72  C   UNL A   1      43.416  32.552  36.176  1.00  0.00     0.074 A 
ATOM     73  C   UNL A   1      42.689  31.836  37.225  1.00  0.00     0.031 C 
ATOM     74  C   UNL A   1      43.438  33.876  35.831  1.00  0.00     0.034 A 
BRANCH  61  75
ATOM     75  C   UNL A   1      39.629  34.235  39.651  1.00  0.00     0.023 A 
ATOM     76  C   UNL A   1      39.090  32.951  39.880  1.00  0.00     0.031 A 
ATOM     77  C   UNL A   1      39.782  35.043  40.799  1.00  0.00     0.131 A 
ATOM     78  C   UNL A   1      38.620  32.575  41.150  1.00  0.00     0.055 A 
ATOM     79  C   UNL A   1      39.380  34.634  42.076  1.00  0.00     0.041 A 
ATOM     80  F   UNL A   1      40.235  36.299  40.746  1.00  0.00    -0.206 F 
ATOM     81  C   UNL A   1      38.760  33.410  42.253  1.00  0.00     0.022 A 
BRANCH  78  82
ATOM     82  S   UNL A   1      37.636  31.059  41.288  1.00  0.00     0.124 S 
ATOM     83  O   UNL A   1      36.541  31.499  42.147  1.00  0.00    -0.237 OA
ATOM     84  O   UNL A   1      37.295  30.797  39.893  1.00  0.00    -0.237 OA
ATOM     85  O   UNL A   1      38.562  30.107  41.894  1.00  0.00    -0.744 OA
ENDBRANCH  78  82
ENDBRANCH  61  75
BRANCH  62  86
ATOM     86  C   UNL A   1      42.590  28.165  34.515  1.00  0.00     0.023 A 
ATOM     87  C   UNL A   1      43.492  27.483  33.671  1.00  0.00     0.031 A 
ATOM     88  C   UNL A   1      41.935  27.378  35.495  1.00  0.00     0.131 A 
ATOM     89  C   UNL A   1      43.698  26.089  33.817  1.00  0.00     0.055 A 
ATOM     90  C   UNL A   1      42.132  26.000  35.627  1.00  0.00     0.041 A 
ATOM     91  F   UNL A   1      41.140  27.933  36.421  1.00  0.00    -0.206 F 
ATOM     92  C   UNL A   1      43.024  25.349  34.792  1.00  0.00     0.022 A 
BRANCH  89  93
ATOM     93  S   UNL A   1      44.942  25.218  32.806  1.00  0.00     0.124 S 
ATOM     94  O   UNL A   1      44.514  23.829  32.919  1.00  0.00    -0.237 OA
ATOM     95  O   UNL A   1      44.781  25.844  31.499  1.00  0.00    -0.237 OA
ATOM     96  O   UNL A   1      46.205  25.528  33.479  1.00  0.00    -0.744 OA
ENDBRANCH  89  93
ENDBRANCH  62  86
BRANCH  74  97
ATOM     97  C   UNL A   1      44.165  34.299  34.566  1.00  0.00     0.023 A 
ATOM     98  C   UNL A   1      43.639  34.196  33.258  1.00  0.00     0.031 A 
ATOM     99  C   UNL A   1      45.386  34.979  34.720  1.00  0.00     0.131 A 
ATOM    100  C   UNL A   1      44.336  34.755  32.168  1.00  0.00     0.055 A 
ATOM    101  C   UNL A   1      46.062  35.554  33.643  1.00  0.00     0.041 A 
ATOM    102  F   UNL A   1      45.929  35.139  35.940  1.00  0.00    -0.206 F 
ATOM    103  C   UNL A   1      45.541  35.438  32.361  1.00  0.00     0.022 A 
BRANCH 100 104
ATOM    104  S   UNL A   1      43.695  34.592  30.470  1.00  0.00     0.124 S 
ATOM    105  O   UNL A   1      42.843  33.410  30.539  1.00  0.00    -0.237 OA
ATOM    106  O   UNL A   1      43.011  35.865  30.266  1.00  0.00    -0.237 OA
ATOM    107  O   UNL A   1      44.907  34.420  29.665  1.00  0.00    -0.744 OA
ENDBRANCH 100 104
ENDBRANCH  74  97
ENDBRANCH  48  49
ENDBRANCH  40  43
ENDBRANCH  38  39
ENDBRANCH  37  38
ENDBRANCH  36  37
ENDBRANCH  35  36
ENDBRANCH   3  35
TORSDOF 22
ENDMDL
MODEL 3
REMARK VINA RESULT:     -10.0      5.196     10.713
REMARK SMILES NS(=O)(=O)c1ccc(-n2nc(C(=O)NCCCC(=O)NCCCCNC(=O)c3ccc(-c4c5nc(c(-c6cc(S(=O)(=O)[O-])ccc6F)c6ccc([nH]6)c(-c6cc(S(=O)(=O)[O-])ccc6F)c6nc(c(-c7cc(S(=O)(=O)[O-])ccc7F)c7ccc4[nH]7)C=C6)C=C5)cc3)cc2-c2ccccc2)cc1
REMARK SMILES IDX 18 1 19 2 20 3 17 5 16 6 15 7 14 8 12 9 13 10 11 12 9 13
REMARK SMILES IDX 10 14 92 15 91 16 8 17 5 18 6 19 100 20 7 21 99 22 2 23 3 24
REMARK SMILES IDX 4 25 1 26 93 29 94 30 98 31 95 32 97 33 96 34 21 35 22 36
REMARK SMILES IDX 23 37 24 38 25 39 26 40 27 42 28 43 29 44 90 45 30 46 89 47
REMARK SMILES IDX 31 48 32 49 33 50 83 51 34 52 88 53 82 54 84 55 35 56 87 57
REMARK SMILES IDX 81 58 80 59 36 61 68 62 48 63 67 64 49 65 52 66 66 67 85 68
REMARK SMILES IDX 50 69 51 70 65 72 86 73 53 74 37 75 38 76 46 77 39 78 45 79
REMARK SMILES IDX 47 80 44 81 40 82 41 83 42 84 43 85 69 86 70 87 78 88 71 89
REMARK SMILES IDX 77 90 79 91 76 92 72 93 73 94 74 95 75 96 54 97 55 98 63 99
REMARK SMILES IDX 56 100 62 101 64 102 61 103 57 104 58 105 59 106 60 107
REMARK H PARENT 20 4 14 11 1 27 1 28 25 41 84 60 52 71
REMARK Flexibility Score: inf
ROOT
ATOM      1  C   UNL A   1      34.364  33.271  33.298  1.00  0.00     0.220 C 
ATOM      2  O   UNL A   1      33.157  33.044  33.394  1.00  0.00    -0.275 OA
ATOM      3  N   UNL A   1      35.181  32.254  32.910  1.00  0.00    -0.356 N 
ATOM      4  H   UNL A   1      34.712  31.444  32.605  1.00  0.00     0.163 HD
ENDROOT
BRANCH   1   5
ATOM      5  C   UNL A   1      34.914  34.649  33.606  1.00  0.00     0.102 C 
BRANCH   5   6
ATOM      6  C   UNL A   1      34.863  35.621  32.425  1.00  0.00     0.031 C 
BRANCH   6   7
ATOM      7  C   UNL A   1      35.064  34.995  31.049  1.00  0.00     0.116 C 
BRANCH   7   8
ATOM      8  N   UNL A   1      34.018  35.310  30.098  1.00  0.00    -0.351 N 
ATOM      9  C   UNL A   1      33.489  34.552  29.075  1.00  0.00     0.271 C 
ATOM     10  O   UNL A   1      32.623  35.083  28.378  1.00  0.00    -0.267 OA
ATOM     11  H   UNL A   1      33.623  36.206  30.198  1.00  0.00     0.163 HD
BRANCH   9  12
ATOM     12  C   UNL A   1      33.975  33.182  28.831  1.00  0.00     0.151 A 
ATOM     13  N   UNL A   1      34.041  31.222  27.964  1.00  0.00    -0.232 N 
ATOM     14  N   UNL A   1      33.423  32.419  27.867  1.00  0.00    -0.162 NA
ATOM     15  C   UNL A   1      35.172  31.298  28.766  1.00  0.00     0.075 A 
ATOM     16  C   UNL A   1      35.030  32.479  29.463  1.00  0.00     0.065 A 
BRANCH  13  17
ATOM     17  C   UNL A   1      33.562  30.089  27.253  1.00  0.00     0.065 A 
ATOM     18  C   UNL A   1      32.713  27.993  25.631  1.00  0.00     0.082 A 
ATOM     19  C   UNL A   1      34.021  27.997  26.117  1.00  0.00     0.024 A 
ATOM     20  C   UNL A   1      31.803  28.986  26.013  1.00  0.00     0.024 A 
ATOM     21  C   UNL A   1      34.444  29.048  26.926  1.00  0.00     0.030 A 
ATOM     22  C   UNL A   1      32.223  30.029  26.846  1.00  0.00     0.030 A 
BRANCH  18  23
ATOM     23  S   UNL A   1      32.187  26.749  24.492  1.00  0.00     0.238 S 
ATOM     24  O   UNL A   1      31.350  27.375  23.496  1.00  0.00    -0.207 OA
ATOM     25  O   UNL A   1      31.781  25.575  25.230  1.00  0.00    -0.207 OA
BRANCH  23  26
ATOM     26  N   UNL A   1      33.589  26.299  23.680  1.00  0.00    -0.225 NA
ATOM     27  H   UNL A   1      34.404  26.612  24.208  1.00  0.00     0.137 HD
ATOM     28  H   UNL A   1      33.600  26.727  22.755  1.00  0.00     0.137 HD
ENDBRANCH  23  26
ENDBRANCH  18  23
ENDBRANCH  13  17
BRANCH  15  29
ATOM     29  C   UNL A   1      36.318  30.390  28.726  1.00  0.00     0.000 A 
ATOM     30  C   UNL A   1      37.231  30.465  27.661  1.00  0.00     0.010 A 
ATOM     31  C   UNL A   1      36.555  29.481  29.761  1.00  0.00     0.010 A 
ATOM     32  C   UNL A   1      38.344  29.627  27.617  1.00  0.00     0.001 A 
ATOM     33  C   UNL A   1      37.675  28.645  29.718  1.00  0.00     0.001 A 
ATOM     34  C   UNL A   1      38.566  28.717  28.647  1.00  0.00     0.000 A 
ENDBRANCH  15  29
ENDBRANCH   9  12
ENDBRANCH   7   8
ENDBRANCH   6   7
ENDBRANCH   5   6
ENDBRANCH   1   5
BRANCH   3  35
ATOM     35  C   UNL A   1      36.631  32.163  32.870  1.00  0.00     0.116 C 
BRANCH  35  36
ATOM     36  C   UNL A   1      37.263  32.988  33.999  1.00  0.00     0.023 C 
BRANCH  36  37
ATOM     37  C   UNL A   1      38.790  33.120  33.960  1.00  0.00     0.023 C 
BRANCH  37  38
ATOM     38  C   UNL A   1      39.298  34.331  33.192  1.00  0.00     0.116 C 
BRANCH  38  39
ATOM     39  N   UNL A   1      38.518  34.605  31.983  1.00  0.00    -0.352 N 
ATOM     40  C   UNL A   1      38.866  34.304  30.679  1.00  0.00     0.251 C 
ATOM     41  H   UNL A   1      37.652  35.054  32.114  1.00  0.00     0.163 HD
ATOM     42  O   UNL A   1      38.379  34.919  29.739  1.00  0.00    -0.269 OA
BRANCH  40  43
ATOM     43  C   UNL A   1      39.841  33.224  30.463  1.00  0.00     0.039 A 
ATOM     44  C   UNL A   1      41.211  33.485  30.360  1.00  0.00     0.014 A 
ATOM     45  C   UNL A   1      39.353  31.920  30.474  1.00  0.00     0.014 A 
ATOM     46  C   UNL A   1      42.102  32.413  30.380  1.00  0.00     0.010 A 
ATOM     47  C   UNL A   1      40.235  30.879  30.623  1.00  0.00     0.010 A 
ATOM     48  C   UNL A   1      41.610  31.110  30.544  1.00  0.00    -0.014 A 
BRANCH  48  49
ATOM     49  C   UNL A   1      42.514  29.984  30.794  1.00  0.00     0.031 A 
ATOM     50  C   UNL A   1      42.641  29.561  32.221  1.00  0.00     0.074 A 
ATOM     51  C   UNL A   1      42.956  29.194  29.789  1.00  0.00     0.049 A 
ATOM     52  N   UNL A   1      43.714  29.506  32.939  1.00  0.00    -0.248 NA
ATOM     53  C   UNL A   1      41.416  29.270  32.983  1.00  0.00     0.031 C 
ATOM     54  C   UNL A   1      42.658  29.320  28.359  1.00  0.00     0.029 A 
ATOM     55  N   UNL A   1      43.617  28.005  29.849  1.00  0.00    -0.354 N 
ATOM     56  C   UNL A   1      43.342  28.955  34.164  1.00  0.00     0.074 A 
ATOM     57  C   UNL A   1      41.906  29.022  34.200  1.00  0.00     0.031 C 
ATOM     58  C   UNL A   1      42.881  28.139  27.747  1.00  0.00     0.029 A 
ATOM     59  C   UNL A   1      43.487  27.227  28.700  1.00  0.00     0.049 A 
ATOM     60  H   UNL A   1      44.140  27.721  30.633  1.00  0.00     0.167 HD
ATOM     61  C   UNL A   1      44.239  28.283  34.944  1.00  0.00     0.034 A 
ATOM     62  C   UNL A   1      43.799  25.912  28.549  1.00  0.00     0.034 A 
ATOM     63  C   UNL A   1      45.594  28.541  34.508  1.00  0.00     0.049 A 
ATOM     64  C   UNL A   1      44.792  25.592  29.607  1.00  0.00     0.074 A 
ATOM     65  C   UNL A   1      46.347  29.688  34.330  1.00  0.00     0.029 A 
ATOM     66  N   UNL A   1      46.249  27.561  33.794  1.00  0.00    -0.354 N 
ATOM     67  N   UNL A   1      45.976  26.140  29.660  1.00  0.00    -0.248 NA
ATOM     68  C   UNL A   1      44.304  25.064  30.872  1.00  0.00     0.031 C 
ATOM     69  C   UNL A   1      47.058  29.464  33.115  1.00  0.00     0.029 A 
ATOM     70  C   UNL A   1      46.783  28.165  32.682  1.00  0.00     0.049 A 
ATOM     71  H   UNL A   1      46.320  26.608  34.036  1.00  0.00     0.167 HD
ATOM     72  C   UNL A   1      46.171  26.441  31.000  1.00  0.00     0.074 A 
ATOM     73  C   UNL A   1      45.165  25.652  31.711  1.00  0.00     0.031 C 
ATOM     74  C   UNL A   1      46.919  27.519  31.389  1.00  0.00     0.034 A 
BRANCH  61  75
ATOM     75  C   UNL A   1      43.918  27.123  35.869  1.00  0.00     0.023 A 
ATOM     76  C   UNL A   1      44.314  27.248  37.217  1.00  0.00     0.031 A 
ATOM     77  C   UNL A   1      43.530  25.826  35.467  1.00  0.00     0.131 A 
ATOM     78  C   UNL A   1      44.435  26.120  38.048  1.00  0.00     0.055 A 
ATOM     79  C   UNL A   1      43.581  24.718  36.321  1.00  0.00     0.041 A 
ATOM     80  F   UNL A   1      43.172  25.532  34.213  1.00  0.00    -0.206 F 
ATOM     81  C   UNL A   1      44.072  24.852  37.607  1.00  0.00     0.022 A 
BRANCH  78  82
ATOM     82  S   UNL A   1      45.271  26.315  39.643  1.00  0.00     0.124 S 
ATOM     83  O   UNL A   1      44.150  26.231  40.573  1.00  0.00    -0.237 OA
ATOM     84  O   UNL A   1      46.191  25.182  39.638  1.00  0.00    -0.237 OA
ATOM     85  O   UNL A   1      45.899  27.629  39.540  1.00  0.00    -0.744 OA
ENDBRANCH  78  82
ENDBRANCH  61  75
BRANCH  62  86
ATOM     86  C   UNL A   1      43.074  24.900  27.724  1.00  0.00     0.023 A 
ATOM     87  C   UNL A   1      43.729  24.012  26.843  1.00  0.00     0.031 A 
ATOM     88  C   UNL A   1      41.701  24.645  27.961  1.00  0.00     0.131 A 
ATOM     89  C   UNL A   1      43.017  22.945  26.241  1.00  0.00     0.055 A 
ATOM     90  C   UNL A   1      41.001  23.599  27.354  1.00  0.00     0.041 A 
ATOM     91  F   UNL A   1      41.003  25.355  28.860  1.00  0.00    -0.206 F 
ATOM     92  C   UNL A   1      41.660  22.736  26.496  1.00  0.00     0.022 A 
BRANCH  89  93
ATOM     93  S   UNL A   1      43.877  21.726  25.190  1.00  0.00     0.124 S 
ATOM     94  O   UNL A   1      43.786  22.338  23.870  1.00  0.00    -0.237 OA
ATOM     95  O   UNL A   1      45.205  21.672  25.791  1.00  0.00    -0.237 OA
ATOM     96  O   UNL A   1      43.082  20.509  25.359  1.00  0.00    -0.744 OA
ENDBRANCH  89  93
ENDBRANCH  62  86
BRANCH  74  97
ATOM     97  C   UNL A   1      47.765  28.243  30.357  1.00  0.00     0.023 A 
ATOM     98  C   UNL A   1      49.036  27.815  29.909  1.00  0.00     0.031 A 
ATOM     99  C   UNL A   1      47.178  29.333  29.689  1.00  0.00     0.131 A 
ATOM    100  C   UNL A   1      49.670  28.479  28.839  1.00  0.00     0.055 A 
ATOM    101  C   UNL A   1      47.796  29.972  28.614  1.00  0.00     0.041 A 
ATOM    102  F   UNL A   1      45.958  29.773  30.044  1.00  0.00    -0.206 F 
ATOM    103  C   UNL A   1      49.049  29.549  28.189  1.00  0.00     0.022 A 
BRANCH 100 104
ATOM    104  S   UNL A   1      51.328  27.969  28.279  1.00  0.00     0.124 S 
ATOM    105  O   UNL A   1      51.380  26.550  28.613  1.00  0.00    -0.237 OA
ATOM    106  O   UNL A   1      51.295  28.292  26.855  1.00  0.00    -0.237 OA
ATOM    107  O   UNL A   1      52.227  28.812  29.070  1.00  0.00    -0.744 OA
ENDBRANCH 100 104
ENDBRANCH  74  97
ENDBRANCH  48  49
ENDBRANCH  40  43
ENDBRANCH  38  39
ENDBRANCH  37  38
ENDBRANCH  36  37
ENDBRANCH  35  36
ENDBRANCH   3  35
TORSDOF 22
ENDMDL
