MODEL 1
REMARK VINA RESULT:     -11.8      0.000      0.000
REMARK SMILES COc1ccc(Br)cc1CNc1ccc(N2CCOCC2)c(C(=O)NCCCCNC(=O)c2ccc(-c3c4nc(c(-c5cc(S(=O)(=O)[O-])ccc5F)c5ccc([nH]5)c(-c5cc(S(=O)(=O)[O-])ccc5F)c5nc(c(-c6cc(S(=O)(=O)[O-])ccc6F)c6ccc3[nH]6)C=C5)C=C4)cc2)c1
REMARK SMILES IDX 27 1 26 2 25 3 23 4 24 5 22 7 12 8 13 9 96 10 14 11 15 12
REMARK SMILES IDX 11 13 10 15 9 16 3 17 4 18 5 19 8 20 6 21 7 22 2 23 1 24
REMARK SMILES IDX 16 25 17 26 21 27 18 28 20 29 19 30 28 31 29 32 30 33 31 34
REMARK SMILES IDX 32 36 33 37 34 38 95 39 35 40 94 41 36 42 37 43 38 44 88 45
REMARK SMILES IDX 39 46 93 47 87 48 89 49 40 50 92 51 86 52 85 53 41 55 73 56
REMARK SMILES IDX 53 57 72 58 54 59 57 60 71 61 90 62 55 63 56 64 70 66 91 67
REMARK SMILES IDX 58 68 42 69 43 70 51 71 44 72 50 73 52 74 49 75 45 76 46 77
REMARK SMILES IDX 47 78 48 79 74 80 75 81 83 82 76 83 82 84 84 85 81 86 77 87
REMARK SMILES IDX 78 88 79 89 80 90 59 91 60 92 68 93 61 94 67 95 69 96 66 97
REMARK SMILES IDX 62 98 63 99 64 100 65 101
REMARK H PARENT 25 6 11 14 30 35 89 54 57 65
REMARK Flexibility Score: inf
ROOT
ATOM      1  C   UNL A   1      32.933  26.675  26.279  1.00  0.00     0.023 C 
ENDROOT
BRANCH   1   2
ATOM      2  C   UNL A   1      31.824  25.704  26.658  1.00  0.00     0.116 C 
BRANCH   2   3
ATOM      3  N   UNL A   1      30.511  25.996  26.095  1.00  0.00    -0.352 N 
ATOM      4  C   UNL A   1      30.038  26.013  24.790  1.00  0.00     0.253 C 
ATOM      5  O   UNL A   1      28.827  26.153  24.641  1.00  0.00    -0.269 OA
ATOM      6  H   UNL A   1      29.829  26.224  26.769  1.00  0.00     0.163 HD
BRANCH   4   7
ATOM      7  C   UNL A   1      30.962  25.898  23.617  1.00  0.00     0.065 A 
ATOM      8  C   UNL A   1      32.295  24.346  22.266  1.00  0.00     0.035 A 
ATOM      9  C   UNL A   1      32.933  25.441  21.695  1.00  0.00     0.028 A 
ATOM     10  C   UNL A   1      31.249  24.611  23.144  1.00  0.00     0.041 A 
ATOM     11  C   UNL A   1      32.517  26.741  21.988  1.00  0.00     0.029 A 
ATOM     12  C   UNL A   1      31.510  27.004  22.937  1.00  0.00     0.050 A 
BRANCH   8  13
ATOM     13  N   UNL A   1      32.669  23.073  21.906  1.00  0.00    -0.381 N 
ATOM     14  H   UNL A   1      33.221  22.978  21.097  1.00  0.00     0.160 HD
BRANCH  13  15
ATOM     15  C   UNL A   1      32.318  21.852  22.620  1.00  0.00     0.152 C 
BRANCH  15  16
ATOM     16  C   UNL A   1      33.313  21.632  23.733  1.00  0.00     0.014 A 
ATOM     17  C   UNL A   1      33.210  20.540  24.608  1.00  0.00     0.123 A 
ATOM     18  C   UNL A   1      34.164  20.374  25.616  1.00  0.00     0.048 A 
ATOM     19  C   UNL A   1      35.218  21.284  25.754  1.00  0.00     0.019 A 
ATOM     20  C   UNL A   1      34.401  22.519  23.859  1.00  0.00     0.025 A 
ATOM     21  C   UNL A   1      35.335  22.350  24.871  1.00  0.00     0.018 A 
ATOM     22  Br  UNL A   1      36.765  23.573  25.037  1.00  0.00    -0.051 Br
BRANCH  17  23
ATOM     23  O   UNL A   1      32.190  19.659  24.362  1.00  0.00    -0.496 OA
ATOM     24  C   UNL A   1      32.402  18.311  24.763  1.00  0.00     0.278 C 
ENDBRANCH  17  23
ENDBRANCH  15  16
ENDBRANCH  13  15
ENDBRANCH   8  13
BRANCH  12  25
ATOM     25  N   UNL A   1      31.041  28.294  23.034  1.00  0.00    -0.366 N 
ATOM     26  C   UNL A   1      31.661  29.338  23.849  1.00  0.00     0.145 C 
ATOM     27  C   UNL A   1      29.904  28.695  22.201  1.00  0.00     0.145 C 
ATOM     28  C   UNL A   1      30.590  30.216  24.532  1.00  0.00     0.181 C 
ATOM     29  C   UNL A   1      28.911  29.495  23.053  1.00  0.00     0.181 C 
ATOM     30  O   UNL A   1      29.559  30.646  23.621  1.00  0.00    -0.378 OA
ENDBRANCH  12  25
ENDBRANCH   4   7
ENDBRANCH   2   3
ENDBRANCH   1   2
BRANCH   1  31
ATOM     31  C   UNL A   1      32.904  28.041  26.944  1.00  0.00     0.023 C 
BRANCH  31  32
ATOM     32  C   UNL A   1      34.074  28.965  26.633  1.00  0.00     0.116 C 
BRANCH  32  33
ATOM     33  N   UNL A   1      33.790  30.374  26.867  1.00  0.00    -0.352 N 
ATOM     34  C   UNL A   1      34.460  31.284  27.657  1.00  0.00     0.251 C 
ATOM     35  H   UNL A   1      33.004  30.729  26.393  1.00  0.00     0.163 HD
ATOM     36  O   UNL A   1      34.013  32.413  27.800  1.00  0.00    -0.269 OA
BRANCH  34  37
ATOM     37  C   UNL A   1      35.692  30.869  28.367  1.00  0.00     0.039 A 
ATOM     38  C   UNL A   1      35.607  29.863  29.333  1.00  0.00     0.014 A 
ATOM     39  C   UNL A   1      36.930  31.432  28.046  1.00  0.00     0.014 A 
ATOM     40  C   UNL A   1      36.775  29.358  29.909  1.00  0.00     0.010 A 
ATOM     41  C   UNL A   1      38.095  30.868  28.554  1.00  0.00     0.010 A 
ATOM     42  C   UNL A   1      38.033  29.820  29.486  1.00  0.00    -0.014 A 
BRANCH  42  43
ATOM     43  C   UNL A   1      39.292  29.217  29.999  1.00  0.00     0.031 A 
ATOM     44  C   UNL A   1      39.985  29.821  31.190  1.00  0.00     0.074 A 
ATOM     45  C   UNL A   1      39.851  28.178  29.345  1.00  0.00     0.049 A 
ATOM     46  N   UNL A   1      41.129  29.497  31.736  1.00  0.00    -0.248 NA
ATOM     47  C   UNL A   1      39.318  30.966  31.827  1.00  0.00     0.031 C 
ATOM     48  C   UNL A   1      39.304  27.543  28.144  1.00  0.00     0.029 A 
ATOM     49  N   UNL A   1      41.010  27.483  29.587  1.00  0.00    -0.354 N 
ATOM     50  C   UNL A   1      41.330  30.412  32.765  1.00  0.00     0.074 A 
ATOM     51  C   UNL A   1      40.220  31.340  32.721  1.00  0.00     0.031 C 
ATOM     52  C   UNL A   1      40.114  26.541  27.768  1.00  0.00     0.029 A 
ATOM     53  C   UNL A   1      41.260  26.488  28.670  1.00  0.00     0.049 A 
ATOM     54  H   UNL A   1      41.606  27.677  30.346  1.00  0.00     0.167 HD
ATOM     55  C   UNL A   1      42.334  30.457  33.676  1.00  0.00     0.034 A 
ATOM     56  C   UNL A   1      42.302  25.639  28.556  1.00  0.00     0.034 A 
ATOM     57  C   UNL A   1      43.425  29.512  33.710  1.00  0.00     0.049 A 
ATOM     58  C   UNL A   1      43.409  25.708  29.577  1.00  0.00     0.074 A 
ATOM     59  C   UNL A   1      44.454  29.418  34.631  1.00  0.00     0.029 A 
ATOM     60  N   UNL A   1      43.638  28.507  32.775  1.00  0.00    -0.354 N 
ATOM     61  N   UNL A   1      43.550  26.534  30.589  1.00  0.00    -0.248 NA
ATOM     62  C   UNL A   1      44.491  24.724  29.448  1.00  0.00     0.031 C 
ATOM     63  C   UNL A   1      45.326  28.406  34.213  1.00  0.00     0.029 A 
ATOM     64  C   UNL A   1      44.800  27.811  33.077  1.00  0.00     0.049 A 
ATOM     65  H   UNL A   1      43.049  28.315  32.010  1.00  0.00     0.167 HD
ATOM     66  C   UNL A   1      44.723  26.150  31.232  1.00  0.00     0.074 A 
ATOM     67  C   UNL A   1      45.241  25.009  30.501  1.00  0.00     0.031 C 
ATOM     68  C   UNL A   1      45.315  26.686  32.330  1.00  0.00     0.034 A 
BRANCH  55  69
ATOM     69  C   UNL A   1      42.306  31.585  34.682  1.00  0.00     0.023 A 
ATOM     70  C   UNL A   1      41.424  31.580  35.778  1.00  0.00     0.031 A 
ATOM     71  C   UNL A   1      43.143  32.704  34.521  1.00  0.00     0.131 A 
ATOM     72  C   UNL A   1      41.331  32.705  36.610  1.00  0.00     0.055 A 
ATOM     73  C   UNL A   1      43.111  33.783  35.409  1.00  0.00     0.041 A 
ATOM     74  F   UNL A   1      43.994  32.780  33.486  1.00  0.00    -0.206 F 
ATOM     75  C   UNL A   1      42.187  33.796  36.450  1.00  0.00     0.022 A 
BRANCH  72  76
ATOM     76  S   UNL A   1      39.961  32.791  37.797  1.00  0.00     0.124 S 
ATOM     77  O   UNL A   1      39.531  34.180  37.650  1.00  0.00    -0.237 OA
ATOM     78  O   UNL A   1      39.041  31.780  37.290  1.00  0.00    -0.237 OA
ATOM     79  O   UNL A   1      40.594  32.475  39.075  1.00  0.00    -0.744 OA
ENDBRANCH  72  76
ENDBRANCH  55  69
BRANCH  56  80
ATOM     80  C   UNL A   1      42.353  24.660  27.434  1.00  0.00     0.023 A 
ATOM     81  C   UNL A   1      41.605  23.473  27.467  1.00  0.00     0.031 A 
ATOM     82  C   UNL A   1      43.172  24.891  26.313  1.00  0.00     0.131 A 
ATOM     83  C   UNL A   1      41.717  22.544  26.419  1.00  0.00     0.055 A 
ATOM     84  C   UNL A   1      43.243  23.988  25.252  1.00  0.00     0.041 A 
ATOM     85  F   UNL A   1      43.904  26.014  26.228  1.00  0.00    -0.206 F 
ATOM     86  C   UNL A   1      42.520  22.801  25.306  1.00  0.00     0.022 A 
BRANCH  83  87
ATOM     87  S   UNL A   1      40.843  20.961  26.562  1.00  0.00     0.124 S 
ATOM     88  O   UNL A   1      41.669  20.090  25.734  1.00  0.00    -0.237 OA
ATOM     89  O   UNL A   1      40.892  20.716  28.000  1.00  0.00    -0.237 OA
ATOM     90  O   UNL A   1      39.515  21.256  26.028  1.00  0.00    -0.744 OA
ENDBRANCH  83  87
ENDBRANCH  56  80
BRANCH  68  91
ATOM     91  C   UNL A   1      46.571  26.013  32.832  1.00  0.00     0.023 A 
ATOM     92  C   UNL A   1      46.526  24.931  33.727  1.00  0.00     0.031 A 
ATOM     93  C   UNL A   1      47.833  26.470  32.408  1.00  0.00     0.131 A 
ATOM     94  C   UNL A   1      47.720  24.376  34.212  1.00  0.00     0.055 A 
ATOM     95  C   UNL A   1      49.014  25.872  32.845  1.00  0.00     0.041 A 
ATOM     96  F   UNL A   1      47.935  27.503  31.557  1.00  0.00    -0.206 F 
ATOM     97  C   UNL A   1      48.964  24.827  33.762  1.00  0.00     0.022 A 
BRANCH  94  98
ATOM     98  S   UNL A   1      47.631  23.115  35.513  1.00  0.00     0.124 S 
ATOM     99  O   UNL A   1      46.369  23.444  36.168  1.00  0.00    -0.237 OA
ATOM    100  O   UNL A   1      47.646  21.873  34.746  1.00  0.00    -0.237 OA
ATOM    101  O   UNL A   1      48.828  23.362  36.314  1.00  0.00    -0.744 OA
ENDBRANCH  94  98
ENDBRANCH  68  91
ENDBRANCH  42  43
ENDBRANCH  34  37
ENDBRANCH  32  33
ENDBRANCH  31  32
ENDBRANCH   1  31
TORSDOF 19
ENDMDL
MODEL 2
REMARK VINA RESULT:     -11.5      2.958      8.118
REMARK SMILES COc1ccc(Br)cc1CNc1ccc(N2CCOCC2)c(C(=O)NCCCCNC(=O)c2ccc(-c3c4nc(c(-c5cc(S(=O)(=O)[O-])ccc5F)c5ccc([nH]5)c(-c5cc(S(=O)(=O)[O-])ccc5F)c5nc(c(-c6cc(S(=O)(=O)[O-])ccc6F)c6ccc3[nH]6)C=C5)C=C4)cc2)c1
REMARK SMILES IDX 27 1 26 2 25 3 23 4 24 5 22 7 12 8 13 9 96 10 14 11 15 12
REMARK SMILES IDX 11 13 10 15 9 16 3 17 4 18 5 19 8 20 6 21 7 22 2 23 1 24
REMARK SMILES IDX 16 25 17 26 21 27 18 28 20 29 19 30 28 31 29 32 30 33 31 34
REMARK SMILES IDX 32 36 33 37 34 38 95 39 35 40 94 41 36 42 37 43 38 44 88 45
REMARK SMILES IDX 39 46 93 47 87 48 89 49 40 50 92 51 86 52 85 53 41 55 73 56
REMARK SMILES IDX 53 57 72 58 54 59 57 60 71 61 90 62 55 63 56 64 70 66 91 67
REMARK SMILES IDX 58 68 42 69 43 70 51 71 44 72 50 73 52 74 49 75 45 76 46 77
REMARK SMILES IDX 47 78 48 79 74 80 75 81 83 82 76 83 82 84 84 85 81 86 77 87
REMARK SMILES IDX 78 88 79 89 80 90 59 91 60 92 68 93 61 94 67 95 69 96 66 97
REMARK SMILES IDX 62 98 63 99 64 100 65 101
REMARK H PARENT 25 6 11 14 30 35 89 54 57 65
REMARK Flexibility Score: inf
ROOT
ATOM      1  C   UNL A   1      31.701  31.296  26.436  1.00  0.00     0.023 C 
ENDROOT
BRANCH   1   2
ATOM      2  C   UNL A   1      32.141  29.895  26.039  1.00  0.00     0.116 C 
BRANCH   2   3
ATOM      3  N   UNL A   1      32.622  29.749  24.670  1.00  0.00    -0.352 N 
ATOM      4  C   UNL A   1      32.067  29.158  23.545  1.00  0.00     0.253 C 
ATOM      5  O   UNL A   1      32.657  29.328  22.480  1.00  0.00    -0.269 OA
ATOM      6  H   UNL A   1      33.510  30.147  24.515  1.00  0.00     0.163 HD
BRANCH   4   7
ATOM      7  C   UNL A   1      30.824  28.325  23.625  1.00  0.00     0.065 A 
ATOM      8  C   UNL A   1      29.942  26.094  24.130  1.00  0.00     0.035 A 
ATOM      9  C   UNL A   1      28.737  26.474  23.549  1.00  0.00     0.028 A 
ATOM     10  C   UNL A   1      30.925  27.071  24.241  1.00  0.00     0.041 A 
ATOM     11  C   UNL A   1      28.536  27.788  23.120  1.00  0.00     0.029 A 
ATOM     12  C   UNL A   1      29.562  28.750  23.165  1.00  0.00     0.050 A 
BRANCH   8  13
ATOM     13  N   UNL A   1      30.093  24.817  24.615  1.00  0.00    -0.381 N 
ATOM     14  H   UNL A   1      29.511  24.547  25.362  1.00  0.00     0.160 HD
BRANCH  13  15
ATOM     15  C   UNL A   1      31.042  23.828  24.120  1.00  0.00     0.152 C 
BRANCH  15  16
ATOM     16  C   UNL A   1      31.968  23.431  25.244  1.00  0.00     0.014 A 
ATOM     17  C   UNL A   1      31.497  22.760  26.383  1.00  0.00     0.123 A 
ATOM     18  C   UNL A   1      32.397  22.404  27.392  1.00  0.00     0.048 A 
ATOM     19  C   UNL A   1      33.758  22.708  27.271  1.00  0.00     0.019 A 
ATOM     20  C   UNL A   1      33.346  23.697  25.117  1.00  0.00     0.025 A 
ATOM     21  C   UNL A   1      34.227  23.349  26.131  1.00  0.00     0.018 A 
ATOM     22  Br  UNL A   1      36.064  23.746  25.950  1.00  0.00    -0.051 Br
BRANCH  17  23
ATOM     23  O   UNL A   1      30.166  22.439  26.392  1.00  0.00    -0.496 OA
ATOM     24  C   UNL A   1      29.459  22.684  27.601  1.00  0.00     0.278 C 
ENDBRANCH  17  23
ENDBRANCH  15  16
ENDBRANCH  13  15
ENDBRANCH   8  13
BRANCH  12  25
ATOM     25  N   UNL A   1      29.229  30.057  22.891  1.00  0.00    -0.366 N 
ATOM     26  C   UNL A   1      28.975  31.075  23.909  1.00  0.00     0.145 C 
ATOM     27  C   UNL A   1      29.215  30.503  21.495  1.00  0.00     0.145 C 
ATOM     28  C   UNL A   1      27.802  31.991  23.497  1.00  0.00     0.181 C 
ATOM     29  C   UNL A   1      27.954  31.337  21.243  1.00  0.00     0.181 C 
ATOM     30  O   UNL A   1      27.915  32.462  22.138  1.00  0.00    -0.378 OA
ENDBRANCH  12  25
ENDBRANCH   4   7
ENDBRANCH   2   3
ENDBRANCH   1   2
BRANCH   1  31
ATOM     31  C   UNL A   1      32.492  31.974  27.543  1.00  0.00     0.023 C 
BRANCH  31  32
ATOM     32  C   UNL A   1      33.093  33.333  27.205  1.00  0.00     0.116 C 
BRANCH  32  33
ATOM     33  N   UNL A   1      32.772  34.375  28.170  1.00  0.00    -0.352 N 
ATOM     34  C   UNL A   1      33.371  34.666  29.378  1.00  0.00     0.251 C 
ATOM     35  H   UNL A   1      32.017  34.957  27.925  1.00  0.00     0.163 HD
ATOM     36  O   UNL A   1      32.898  35.532  30.099  1.00  0.00    -0.269 OA
BRANCH  34  37
ATOM     37  C   UNL A   1      34.556  33.891  29.812  1.00  0.00     0.039 A 
ATOM     38  C   UNL A   1      35.825  34.321  29.416  1.00  0.00     0.014 A 
ATOM     39  C   UNL A   1      34.420  32.778  30.644  1.00  0.00     0.014 A 
ATOM     40  C   UNL A   1      36.960  33.690  29.931  1.00  0.00     0.010 A 
ATOM     41  C   UNL A   1      35.549  32.209  31.224  1.00  0.00     0.010 A 
ATOM     42  C   UNL A   1      36.832  32.662  30.880  1.00  0.00    -0.014 A 
BRANCH  42  43
ATOM     43  C   UNL A   1      38.025  32.055  31.529  1.00  0.00     0.031 A 
ATOM     44  C   UNL A   1      38.751  30.921  30.859  1.00  0.00     0.074 A 
ATOM     45  C   UNL A   1      38.402  32.469  32.756  1.00  0.00     0.049 A 
ATOM     46  N   UNL A   1      39.754  30.204  31.296  1.00  0.00    -0.248 NA
ATOM     47  C   UNL A   1      38.257  30.517  29.534  1.00  0.00     0.031 C 
ATOM     48  C   UNL A   1      37.741  33.520  33.533  1.00  0.00     0.029 A 
ATOM     49  N   UNL A   1      39.423  32.048  33.572  1.00  0.00    -0.354 N 
ATOM     50  C   UNL A   1      39.996  29.251  30.312  1.00  0.00     0.074 A 
ATOM     51  C   UNL A   1      38.992  29.443  29.288  1.00  0.00     0.031 C 
ATOM     52  C   UNL A   1      38.386  33.676  34.701  1.00  0.00     0.029 A 
ATOM     53  C   UNL A   1      39.475  32.708  34.778  1.00  0.00     0.049 A 
ATOM     54  H   UNL A   1      40.058  31.341  33.317  1.00  0.00     0.167 HD
ATOM     55  C   UNL A   1      40.981  28.319  30.258  1.00  0.00     0.034 A 
ATOM     56  C   UNL A   1      40.296  32.542  35.835  1.00  0.00     0.034 A 
ATOM     57  C   UNL A   1      41.982  28.153  31.284  1.00  0.00     0.049 A 
ATOM     58  C   UNL A   1      41.380  31.499  35.756  1.00  0.00     0.074 A 
ATOM     59  C   UNL A   1      43.067  27.294  31.298  1.00  0.00     0.029 A 
ATOM     60  N   UNL A   1      42.014  28.850  32.485  1.00  0.00    -0.354 N 
ATOM     61  N   UNL A   1      41.643  30.651  34.787  1.00  0.00    -0.248 NA
ATOM     62  C   UNL A   1      42.287  31.398  36.907  1.00  0.00     0.031 C 
ATOM     63  C   UNL A   1      43.710  27.419  32.535  1.00  0.00     0.029 A 
ATOM     64  C   UNL A   1      43.078  28.416  33.263  1.00  0.00     0.049 A 
ATOM     65  H   UNL A   1      41.375  29.552  32.747  1.00  0.00     0.167 HD
ATOM     66  C   UNL A   1      42.762  29.935  35.202  1.00  0.00     0.074 A 
ATOM     67  C   UNL A   1      43.132  30.462  36.501  1.00  0.00     0.031 C 
ATOM     68  C   UNL A   1      43.427  28.937  34.565  1.00  0.00     0.034 A 
BRANCH  55  69
ATOM     69  C   UNL A   1      40.992  27.393  29.063  1.00  0.00     0.023 A 
ATOM     70  C   UNL A   1      41.921  27.543  28.016  1.00  0.00     0.031 A 
ATOM     71  C   UNL A   1      40.034  26.371  28.944  1.00  0.00     0.131 A 
ATOM     72  C   UNL A   1      41.814  26.754  26.863  1.00  0.00     0.055 A 
ATOM     73  C   UNL A   1      39.990  25.526  27.831  1.00  0.00     0.041 A 
ATOM     74  F   UNL A   1      39.107  26.187  29.897  1.00  0.00    -0.206 F 
ATOM     75  C   UNL A   1      40.872  25.728  26.773  1.00  0.00     0.022 A 
BRANCH  72  76
ATOM     76  S   UNL A   1      42.812  27.200  25.414  1.00  0.00     0.124 S 
ATOM     77  O   UNL A   1      44.113  27.467  26.024  1.00  0.00    -0.237 OA
ATOM     78  O   UNL A   1      42.726  26.001  24.590  1.00  0.00    -0.237 OA
ATOM     79  O   UNL A   1      42.131  28.377  24.878  1.00  0.00    -0.744 OA
ENDBRANCH  72  76
ENDBRANCH  55  69
BRANCH  56  80
ATOM     80  C   UNL A   1      40.121  33.375  37.059  1.00  0.00     0.023 A 
ATOM     81  C   UNL A   1      39.500  32.861  38.208  1.00  0.00     0.031 A 
ATOM     82  C   UNL A   1      40.558  34.712  37.089  1.00  0.00     0.131 A 
ATOM     83  C   UNL A   1      39.301  33.688  39.326  1.00  0.00     0.055 A 
ATOM     84  C   UNL A   1      40.401  35.516  38.219  1.00  0.00     0.041 A 
ATOM     85  F   UNL A   1      41.164  35.252  36.018  1.00  0.00    -0.206 F 
ATOM     86  C   UNL A   1      39.760  35.007  39.344  1.00  0.00     0.022 A 
BRANCH  83  87
ATOM     87  S   UNL A   1      38.373  33.032  40.739  1.00  0.00     0.124 S 
ATOM     88  O   UNL A   1      38.133  31.654  40.324  1.00  0.00    -0.237 OA
ATOM     89  O   UNL A   1      39.317  33.217  41.836  1.00  0.00    -0.237 OA
ATOM     90  O   UNL A   1      37.186  33.883  40.792  1.00  0.00    -0.744 OA
ENDBRANCH  83  87
ENDBRANCH  56  80
BRANCH  68  91
ATOM     91  C   UNL A   1      44.652  28.381  35.250  1.00  0.00     0.023 A 
ATOM     92  C   UNL A   1      44.578  27.292  36.134  1.00  0.00     0.031 A 
ATOM     93  C   UNL A   1      45.914  28.956  35.014  1.00  0.00     0.131 A 
ATOM     94  C   UNL A   1      45.734  26.847  36.793  1.00  0.00     0.055 A 
ATOM     95  C   UNL A   1      47.070  28.468  35.623  1.00  0.00     0.041 A 
ATOM     96  F   UNL A   1      46.044  30.002  34.181  1.00  0.00    -0.206 F 
ATOM     97  C   UNL A   1      46.983  27.416  36.528  1.00  0.00     0.022 A 
BRANCH  94  98
ATOM     98  S   UNL A   1      45.574  25.571  38.074  1.00  0.00     0.124 S 
ATOM     99  O   UNL A   1      44.833  24.529  37.371  1.00  0.00    -0.237 OA
ATOM    100  O   UNL A   1      46.966  25.264  38.385  1.00  0.00    -0.237 OA
ATOM    101  O   UNL A   1      44.835  26.246  39.139  1.00  0.00    -0.744 OA
ENDBRANCH  94  98
ENDBRANCH  68  91
ENDBRANCH  42  43
ENDBRANCH  34  37
ENDBRANCH  32  33
ENDBRANCH  31  32
ENDBRANCH   1  31
TORSDOF 19
ENDMDL
MODEL 3
REMARK VINA RESULT:     -11.5      1.878      2.270
REMARK SMILES COc1ccc(Br)cc1CNc1ccc(N2CCOCC2)c(C(=O)NCCCCNC(=O)c2ccc(-c3c4nc(c(-c5cc(S(=O)(=O)[O-])ccc5F)c5ccc([nH]5)c(-c5cc(S(=O)(=O)[O-])ccc5F)c5nc(c(-c6cc(S(=O)(=O)[O-])ccc6F)c6ccc3[nH]6)C=C5)C=C4)cc2)c1
REMARK SMILES IDX 27 1 26 2 25 3 23 4 24 5 22 7 12 8 13 9 96 10 14 11 15 12
REMARK SMILES IDX 11 13 10 15 9 16 3 17 4 18 5 19 8 20 6 21 7 22 2 23 1 24
REMARK SMILES IDX 16 25 17 26 21 27 18 28 20 29 19 30 28 31 29 32 30 33 31 34
REMARK SMILES IDX 32 36 33 37 34 38 95 39 35 40 94 41 36 42 37 43 38 44 88 45
REMARK SMILES IDX 39 46 93 47 87 48 89 49 40 50 92 51 86 52 85 53 41 55 73 56
REMARK SMILES IDX 53 57 72 58 54 59 57 60 71 61 90 62 55 63 56 64 70 66 91 67
REMARK SMILES IDX 58 68 42 69 43 70 51 71 44 72 50 73 52 74 49 75 45 76 46 77
REMARK SMILES IDX 47 78 48 79 74 80 75 81 83 82 76 83 82 84 84 85 81 86 77 87
REMARK SMILES IDX 78 88 79 89 80 90 59 91 60 92 68 93 61 94 67 95 69 96 66 97
REMARK SMILES IDX 62 98 63 99 64 100 65 101
REMARK H PARENT 25 6 11 14 30 35 89 54 57 65
REMARK Flexibility Score: inf
ROOT
ATOM      1  C   UNL A   1      33.195  27.841  25.568  1.00  0.00     0.023 C 
ENDROOT
BRANCH   1   2
ATOM      2  C   UNL A   1      32.839  26.720  26.533  1.00  0.00     0.116 C 
BRANCH   2   3
ATOM      3  N   UNL A   1      31.415  26.437  26.673  1.00  0.00    -0.352 N 
ATOM      4  C   UNL A   1      30.472  25.939  25.786  1.00  0.00     0.253 C 
ATOM      5  O   UNL A   1      29.366  25.666  26.247  1.00  0.00    -0.269 OA
ATOM      6  H   UNL A   1      31.055  26.636  27.568  1.00  0.00     0.163 HD
BRANCH   4   7
ATOM      7  C   UNL A   1      30.773  25.770  24.328  1.00  0.00     0.065 A 
ATOM      8  C   UNL A   1      31.885  24.350  22.668  1.00  0.00     0.035 A 
ATOM      9  C   UNL A   1      31.746  25.378  21.742  1.00  0.00     0.028 A 
ATOM     10  C   UNL A   1      31.301  24.540  23.916  1.00  0.00     0.041 A 
ATOM     11  C   UNL A   1      31.031  26.534  22.064  1.00  0.00     0.029 A 
ATOM     12  C   UNL A   1      30.510  26.752  23.353  1.00  0.00     0.050 A 
BRANCH   8  13
ATOM     13  N   UNL A   1      32.526  23.188  22.308  1.00  0.00    -0.381 N 
ATOM     14  H   UNL A   1      31.962  22.426  22.045  1.00  0.00     0.160 HD
BRANCH  13  15
ATOM     15  C   UNL A   1      33.969  22.989  22.282  1.00  0.00     0.152 C 
BRANCH  15  16
ATOM     16  C   UNL A   1      34.444  22.662  23.677  1.00  0.00     0.014 A 
ATOM     17  C   UNL A   1      33.777  21.724  24.481  1.00  0.00     0.123 A 
ATOM     18  C   UNL A   1      34.263  21.448  25.762  1.00  0.00     0.048 A 
ATOM     19  C   UNL A   1      35.407  22.095  26.243  1.00  0.00     0.019 A 
ATOM     20  C   UNL A   1      35.616  23.278  24.159  1.00  0.00     0.025 A 
ATOM     21  C   UNL A   1      36.082  23.003  25.437  1.00  0.00     0.018 A 
ATOM     22  Br  UNL A   1      37.637  23.867  26.071  1.00  0.00    -0.051 Br
BRANCH  17  23
ATOM     23  O   UNL A   1      32.709  21.086  23.910  1.00  0.00    -0.496 OA
ATOM     24  C   UNL A   1      32.745  19.664  23.904  1.00  0.00     0.278 C 
ENDBRANCH  17  23
ENDBRANCH  15  16
ENDBRANCH  13  15
ENDBRANCH   8  13
BRANCH  12  25
ATOM     25  N   UNL A   1      29.672  27.829  23.532  1.00  0.00    -0.366 N 
ATOM     26  C   UNL A   1      28.213  27.742  23.576  1.00  0.00     0.145 C 
ATOM     27  C   UNL A   1      30.262  29.145  23.793  1.00  0.00     0.145 C 
ATOM     28  C   UNL A   1      27.564  28.937  22.846  1.00  0.00     0.181 C 
ATOM     29  C   UNL A   1      29.547  30.198  22.939  1.00  0.00     0.181 C 
ATOM     30  O   UNL A   1      28.139  30.203  23.232  1.00  0.00    -0.378 OA
ENDBRANCH  12  25
ENDBRANCH   4   7
ENDBRANCH   2   3
ENDBRANCH   1   2
BRANCH   1  31
ATOM     31  C   UNL A   1      33.904  29.051  26.156  1.00  0.00     0.023 C 
BRANCH  31  32
ATOM     32  C   UNL A   1      33.267  29.667  27.394  1.00  0.00     0.116 C 
BRANCH  32  33
ATOM     33  N   UNL A   1      33.562  31.083  27.566  1.00  0.00    -0.352 N 
ATOM     34  C   UNL A   1      34.705  31.689  28.045  1.00  0.00     0.251 C 
ATOM     35  H   UNL A   1      32.841  31.698  27.301  1.00  0.00     0.163 HD
ATOM     36  O   UNL A   1      34.732  32.901  28.201  1.00  0.00    -0.269 OA
BRANCH  34  37
ATOM     37  C   UNL A   1      35.874  30.857  28.412  1.00  0.00     0.039 A 
ATOM     38  C   UNL A   1      37.097  31.099  27.782  1.00  0.00     0.014 A 
ATOM     39  C   UNL A   1      35.776  29.881  29.406  1.00  0.00     0.014 A 
ATOM     40  C   UNL A   1      38.242  30.425  28.216  1.00  0.00     0.010 A 
ATOM     41  C   UNL A   1      36.930  29.277  29.895  1.00  0.00     0.010 A 
ATOM     42  C   UNL A   1      38.178  29.546  29.311  1.00  0.00    -0.014 A 
BRANCH  42  43
ATOM     43  C   UNL A   1      39.402  28.907  29.863  1.00  0.00     0.031 A 
ATOM     44  C   UNL A   1      40.056  29.473  31.095  1.00  0.00     0.074 A 
ATOM     45  C   UNL A   1      39.968  27.872  29.211  1.00  0.00     0.049 A 
ATOM     46  N   UNL A   1      41.169  29.115  31.681  1.00  0.00    -0.248 NA
ATOM     47  C   UNL A   1      39.384  30.618  31.727  1.00  0.00     0.031 C 
ATOM     48  C   UNL A   1      39.460  27.272  27.975  1.00  0.00     0.029 A 
ATOM     49  N   UNL A   1      41.102  27.149  29.487  1.00  0.00    -0.354 N 
ATOM     50  C   UNL A   1      41.344  30.004  32.737  1.00  0.00     0.074 A 
ATOM     51  C   UNL A   1      40.255  30.955  32.666  1.00  0.00     0.031 C 
ATOM     52  C   UNL A   1      40.266  26.261  27.612  1.00  0.00     0.029 A 
ATOM     53  C   UNL A   1      41.372  26.168  28.560  1.00  0.00     0.049 A 
ATOM     54  H   UNL A   1      41.669  27.315  30.274  1.00  0.00     0.167 HD
ATOM     55  C   UNL A   1      42.309  30.011  33.690  1.00  0.00     0.034 A 
ATOM     56  C   UNL A   1      42.401  25.301  28.472  1.00  0.00     0.034 A 
ATOM     57  C   UNL A   1      43.379  29.044  33.750  1.00  0.00     0.049 A 
ATOM     58  C   UNL A   1      43.466  25.327  29.539  1.00  0.00     0.074 A 
ATOM     59  C   UNL A   1      44.366  28.910  34.711  1.00  0.00     0.029 A 
ATOM     60  N   UNL A   1      43.612  28.054  32.804  1.00  0.00    -0.354 N 
ATOM     61  N   UNL A   1      43.579  26.128  30.574  1.00  0.00    -0.248 NA
ATOM     62  C   UNL A   1      44.533  24.324  29.435  1.00  0.00     0.031 C 
ATOM     63  C   UNL A   1      45.236  27.890  34.308  1.00  0.00     0.029 A 
ATOM     64  C   UNL A   1      44.747  27.329  33.138  1.00  0.00     0.049 A 
ATOM     65  H   UNL A   1      43.052  27.890  32.010  1.00  0.00     0.167 HD
ATOM     66  C   UNL A   1      44.716  25.708  31.257  1.00  0.00     0.074 A 
ATOM     67  C   UNL A   1      45.243  24.573  30.525  1.00  0.00     0.031 C 
ATOM     68  C   UNL A   1      45.271  26.210  32.390  1.00  0.00     0.034 A 
BRANCH  55  69
ATOM     69  C   UNL A   1      42.260  31.119  34.718  1.00  0.00     0.023 A 
ATOM     70  C   UNL A   1      42.972  32.320  34.548  1.00  0.00     0.031 A 
ATOM     71  C   UNL A   1      41.526  30.956  35.906  1.00  0.00     0.131 A 
ATOM     72  C   UNL A   1      43.012  33.265  35.584  1.00  0.00     0.055 A 
ATOM     73  C   UNL A   1      41.496  31.943  36.896  1.00  0.00     0.041 A 
ATOM     74  F   UNL A   1      40.841  29.825  36.138  1.00  0.00    -0.206 F 
ATOM     75  C   UNL A   1      42.258  33.097  36.746  1.00  0.00     0.022 A 
BRANCH  72  76
ATOM     76  S   UNL A   1      44.198  34.633  35.460  1.00  0.00     0.124 S 
ATOM     77  O   UNL A   1      43.413  35.640  34.750  1.00  0.00    -0.237 OA
ATOM     78  O   UNL A   1      44.494  34.922  36.858  1.00  0.00    -0.237 OA
ATOM     79  O   UNL A   1      45.302  34.061  34.692  1.00  0.00    -0.744 OA
ENDBRANCH  72  76
ENDBRANCH  55  69
BRANCH  56  80
ATOM     80  C   UNL A   1      42.481  24.344  27.332  1.00  0.00     0.023 A 
ATOM     81  C   UNL A   1      41.846  23.093  27.384  1.00  0.00     0.031 A 
ATOM     82  C   UNL A   1      43.216  24.662  26.175  1.00  0.00     0.131 A 
ATOM     83  C   UNL A   1      41.986  22.191  26.316  1.00  0.00     0.055 A 
ATOM     84  C   UNL A   1      43.312  23.782  25.096  1.00  0.00     0.041 A 
ATOM     85  F   UNL A   1      43.838  25.848  26.071  1.00  0.00    -0.206 F 
ATOM     86  C   UNL A   1      42.703  22.533  25.167  1.00  0.00     0.022 A 
BRANCH  83  87
ATOM     87  S   UNL A   1      41.267  20.534  26.478  1.00  0.00     0.124 S 
ATOM     88  O   UNL A   1      39.847  20.805  26.285  1.00  0.00    -0.237 OA
ATOM     89  O   UNL A   1      41.934  19.808  25.402  1.00  0.00    -0.237 OA
ATOM     90  O   UNL A   1      41.648  20.128  27.829  1.00  0.00    -0.744 OA
ENDBRANCH  83  87
ENDBRANCH  56  80
BRANCH  68  91
ATOM     91  C   UNL A   1      46.492  25.502  32.930  1.00  0.00     0.023 A 
ATOM     92  C   UNL A   1      47.783  25.779  32.451  1.00  0.00     0.031 A 
ATOM     93  C   UNL A   1      46.355  24.529  33.938  1.00  0.00     0.131 A 
ATOM     94  C   UNL A   1      48.880  25.054  32.941  1.00  0.00     0.055 A 
ATOM     95  C   UNL A   1      47.457  23.858  34.465  1.00  0.00     0.041 A 
ATOM     96  F   UNL A   1      45.144  24.221  34.430  1.00  0.00    -0.206 F 
ATOM     97  C   UNL A   1      48.728  24.109  33.959  1.00  0.00     0.022 A 
BRANCH  94  98
ATOM     98  S   UNL A   1      50.503  25.296  32.165  1.00  0.00     0.124 S 
ATOM     99  O   UNL A   1      51.305  25.778  33.285  1.00  0.00    -0.237 OA
ATOM    100  O   UNL A   1      50.821  23.956  31.683  1.00  0.00    -0.237 OA
ATOM    101  O   UNL A   1      50.240  26.283  31.120  1.00  0.00    -0.744 OA
ENDBRANCH  94  98
ENDBRANCH  68  91
ENDBRANCH  42  43
ENDBRANCH  34  37
ENDBRANCH  32  33
ENDBRANCH  31  32
ENDBRANCH   1  31
TORSDOF 19
ENDMDL
