MODEL 1
REMARK VINA RESULT:     -12.4      0.000      0.000
REMARK SMILES CC1(C)O[C@](C)([C@H](O)C2CCCCC2)CC[C@H]1C(=O)NCCCCNC(=O)c1ccc(-c2c3nc(c(-c4cc(S(=O)(=O)[O-])ccc4F)c4ccc([nH]4)c(-c4cc(S(=O)(=O)[O-])ccc4F)c4nc(c(-c5cc(S(=O)(=O)[O-])ccc5F)c5ccc2[nH]5)C=C4)C=C3)cc1
REMARK SMILES IDX 23 1 22 2 21 3 20 4 18 5 19 6 17 8 1 9 2 10 3 11 4 12 5 13
REMARK SMILES IDX 16 14 6 15 15 16 7 17 9 18 10 19 14 20 11 21 13 22 12 23
REMARK SMILES IDX 8 24 24 26 25 27 26 28 27 30 28 31 29 32 90 33 30 34 89 35
REMARK SMILES IDX 31 36 32 37 33 38 83 39 34 40 88 41 82 42 84 43 35 44 87 45
REMARK SMILES IDX 81 46 80 47 36 49 68 50 48 51 67 52 49 53 52 54 66 55 85 56
REMARK SMILES IDX 50 57 51 58 65 60 86 61 53 62 37 63 38 64 46 65 39 66 45 67
REMARK SMILES IDX 47 68 44 69 40 70 41 71 42 72 43 73 69 74 70 75 78 76 71 77
REMARK SMILES IDX 77 78 79 79 76 80 72 81 73 82 74 83 75 84 54 85 55 86 63 87
REMARK SMILES IDX 56 88 62 89 64 90 61 91 57 92 58 93 59 94 60 95
REMARK H PARENT 20 7 8 25 25 29 84 48 52 59
REMARK Flexibility Score: inf
ROOT
ATOM      1  C   UNL A   1      33.636  27.710  25.472  1.00  0.00     0.023 C 
ENDROOT
BRANCH   1   2
ATOM      2  C   UNL A   1      32.753  26.638  26.089  1.00  0.00     0.023 C 
BRANCH   2   3
ATOM      3  C   UNL A   1      32.394  25.484  25.156  1.00  0.00     0.116 C 
BRANCH   3   4
ATOM      4  N   UNL A   1      32.947  25.685  23.833  1.00  0.00    -0.356 N 
ATOM      5  C   UNL A   1      33.652  24.864  23.015  1.00  0.00     0.226 C 
ATOM      6  O   UNL A   1      34.103  25.367  21.981  1.00  0.00    -0.275 OA
ATOM      7  H   UNL A   1      32.783  26.581  23.460  1.00  0.00     0.163 HD
BRANCH   5   8
ATOM      8  C   UNL A   1      33.881  23.378  23.293  1.00  0.00     0.110 C 
ATOM      9  C   UNL A   1      35.395  23.776  25.443  1.00  0.00     0.043 C 
ATOM     10  C   UNL A   1      35.127  23.008  24.149  1.00  0.00     0.075 C 
ATOM     11  C   UNL A   1      36.388  23.260  23.284  1.00  0.00     0.043 C 
ATOM     12  O   UNL A   1      35.168  21.601  24.456  1.00  0.00    -0.366 OA
ATOM     13  C   UNL A   1      33.984  20.932  24.914  1.00  0.00     0.092 C 
ATOM     14  C   UNL A   1      32.591  22.607  23.586  1.00  0.00     0.019 C 
ATOM     15  C   UNL A   1      33.462  21.421  26.283  1.00  0.00     0.045 C 
ATOM     16  C   UNL A   1      32.880  21.133  23.852  1.00  0.00     0.039 C 
BRANCH  13  17
ATOM     17  C   UNL A   1      34.328  19.395  24.987  1.00  0.00     0.149 C 
BRANCH  17  18
ATOM     18  C   UNL A   1      33.499  18.418  24.093  1.00  0.00     0.021 C 
ATOM     19  C   UNL A   1      34.226  17.223  23.456  1.00  0.00     0.006 C 
ATOM     20  C   UNL A   1      32.231  17.916  24.826  1.00  0.00     0.006 C 
ATOM     21  C   UNL A   1      34.493  16.071  24.419  1.00  0.00     0.000 C 
ATOM     22  C   UNL A   1      32.461  16.722  25.756  1.00  0.00     0.000 C 
ATOM     23  C   UNL A   1      33.197  15.586  25.059  1.00  0.00     0.000 C 
ENDBRANCH  17  18
BRANCH  17  24
ATOM     24  O   UNL A   1      35.731  19.173  24.828  1.00  0.00    -0.390 OA
ATOM     25  H   UNL A   1      35.901  18.220  24.752  1.00  0.00     0.211 HD
ENDBRANCH  17  24
ENDBRANCH  13  17
ENDBRANCH   5   8
ENDBRANCH   3   4
ENDBRANCH   2   3
ENDBRANCH   1   2
BRANCH   1  26
ATOM     26  C   UNL A   1      34.458  28.505  26.471  1.00  0.00     0.116 C 
BRANCH  26  27
ATOM     27  N   UNL A   1      33.970  29.863  26.682  1.00  0.00    -0.352 N 
ATOM     28  C   UNL A   1      34.503  30.831  27.502  1.00  0.00     0.251 C 
ATOM     29  H   UNL A   1      33.164  30.118  26.178  1.00  0.00     0.163 HD
ATOM     30  O   UNL A   1      33.937  31.907  27.654  1.00  0.00    -0.269 OA
BRANCH  28  31
ATOM     31  C   UNL A   1      35.746  30.507  28.226  1.00  0.00     0.039 A 
ATOM     32  C   UNL A   1      35.666  29.807  29.430  1.00  0.00     0.014 A 
ATOM     33  C   UNL A   1      36.979  30.768  27.623  1.00  0.00     0.014 A 
ATOM     34  C   UNL A   1      36.834  29.291  29.992  1.00  0.00     0.010 A 
ATOM     35  C   UNL A   1      38.120  30.168  28.131  1.00  0.00     0.010 A 
ATOM     36  C   UNL A   1      38.061  29.427  29.322  1.00  0.00    -0.014 A 
BRANCH  36  37
ATOM     37  C   UNL A   1      39.307  28.818  29.850  1.00  0.00     0.031 A 
ATOM     38  C   UNL A   1      39.986  29.444  31.036  1.00  0.00     0.074 A 
ATOM     39  C   UNL A   1      39.872  27.779  29.208  1.00  0.00     0.049 A 
ATOM     40  N   UNL A   1      41.134  29.149  31.586  1.00  0.00    -0.248 NA
ATOM     41  C   UNL A   1      39.302  30.593  31.649  1.00  0.00     0.031 C 
ATOM     42  C   UNL A   1      39.344  27.138  28.000  1.00  0.00     0.029 A 
ATOM     43  N   UNL A   1      41.027  27.087  29.469  1.00  0.00    -0.354 N 
ATOM     44  C   UNL A   1      41.326  30.096  32.587  1.00  0.00     0.074 A 
ATOM     45  C   UNL A   1      40.212  31.017  32.511  1.00  0.00     0.031 C 
ATOM     46  C   UNL A   1      40.163  26.137  27.639  1.00  0.00     0.029 A 
ATOM     47  C   UNL A   1      41.291  26.087  28.563  1.00  0.00     0.049 A 
ATOM     48  H   UNL A   1      41.612  27.288  30.235  1.00  0.00     0.167 HD
ATOM     49  C   UNL A   1      42.323  30.173  33.502  1.00  0.00     0.034 A 
ATOM     50  C   UNL A   1      42.330  25.233  28.482  1.00  0.00     0.034 A 
ATOM     51  C   UNL A   1      43.404  29.221  33.578  1.00  0.00     0.049 A 
ATOM     52  C   UNL A   1      43.410  25.307  29.529  1.00  0.00     0.074 A 
ATOM     53  C   UNL A   1      44.417  29.137  34.515  1.00  0.00     0.029 A 
ATOM     54  N   UNL A   1      43.614  28.188  32.670  1.00  0.00    -0.354 N 
ATOM     55  N   UNL A   1      43.540  26.158  30.521  1.00  0.00    -0.248 NA
ATOM     56  C   UNL A   1      44.473  24.298  29.454  1.00  0.00     0.031 C 
ATOM     57  C   UNL A   1      45.272  28.093  34.142  1.00  0.00     0.029 A 
ATOM     58  C   UNL A   1      44.756  27.481  33.010  1.00  0.00     0.049 A 
ATOM     59  H   UNL A   1      43.036  27.988  31.900  1.00  0.00     0.167 HD
ATOM     60  C   UNL A   1      44.691  25.774  31.203  1.00  0.00     0.074 A 
ATOM     61  C   UNL A   1      45.207  24.605  30.516  1.00  0.00     0.031 C 
ATOM     62  C   UNL A   1      45.266  26.330  32.299  1.00  0.00     0.034 A 
BRANCH  49  63
ATOM     63  C   UNL A   1      42.285  31.336  34.466  1.00  0.00     0.023 A 
ATOM     64  C   UNL A   1      41.370  31.383  35.532  1.00  0.00     0.031 A 
ATOM     65  C   UNL A   1      43.124  32.447  34.273  1.00  0.00     0.131 A 
ATOM     66  C   UNL A   1      41.237  32.554  36.292  1.00  0.00     0.055 A 
ATOM     67  C   UNL A   1      43.054  33.574  35.097  1.00  0.00     0.041 A 
ATOM     68  F   UNL A   1      44.005  32.473  33.261  1.00  0.00    -0.206 F 
ATOM     69  C   UNL A   1      42.092  33.641  36.099  1.00  0.00     0.022 A 
BRANCH  66  70
ATOM     70  S   UNL A   1      39.811  32.703  37.404  1.00  0.00     0.124 S 
ATOM     71  O   UNL A   1      40.457  32.680  38.715  1.00  0.00    -0.237 OA
ATOM     72  O   UNL A   1      39.230  33.977  37.001  1.00  0.00    -0.237 OA
ATOM     73  O   UNL A   1      39.008  31.522  37.095  1.00  0.00    -0.744 OA
ENDBRANCH  66  70
ENDBRANCH  49  63
BRANCH  50  74
ATOM     74  C   UNL A   1      42.397  24.241  27.374  1.00  0.00     0.023 A 
ATOM     75  C   UNL A   1      41.625  23.070  27.399  1.00  0.00     0.031 A 
ATOM     76  C   UNL A   1      43.242  24.453  26.269  1.00  0.00     0.131 A 
ATOM     77  C   UNL A   1      41.733  22.138  26.355  1.00  0.00     0.055 A 
ATOM     78  C   UNL A   1      43.316  23.542  25.214  1.00  0.00     0.041 A 
ATOM     79  F   UNL A   1      43.990  25.565  26.192  1.00  0.00    -0.206 F 
ATOM     80  C   UNL A   1      42.565  22.373  25.257  1.00  0.00     0.022 A 
BRANCH  77  81
ATOM     81  S   UNL A   1      40.796  20.589  26.469  1.00  0.00     0.124 S 
ATOM     82  O   UNL A   1      40.893  20.287  27.892  1.00  0.00    -0.237 OA
ATOM     83  O   UNL A   1      39.479  20.995  25.988  1.00  0.00    -0.237 OA
ATOM     84  O   UNL A   1      41.527  19.683  25.585  1.00  0.00    -0.744 OA
ENDBRANCH  77  81
ENDBRANCH  50  74
BRANCH  62  85
ATOM     85  C   UNL A   1      46.502  25.656  32.838  1.00  0.00     0.023 A 
ATOM     86  C   UNL A   1      47.778  25.923  32.311  1.00  0.00     0.031 A 
ATOM     87  C   UNL A   1      46.399  24.730  33.891  1.00  0.00     0.131 A 
ATOM     88  C   UNL A   1      48.895  25.235  32.807  1.00  0.00     0.055 A 
ATOM     89  C   UNL A   1      47.522  24.092  34.419  1.00  0.00     0.041 A 
ATOM     90  F   UNL A   1      45.204  24.438  34.429  1.00  0.00    -0.206 F 
ATOM     91  C   UNL A   1      48.777  24.334  33.869  1.00  0.00     0.022 A 
BRANCH  88  92
ATOM     92  S   UNL A   1      50.496  25.475  31.992  1.00  0.00     0.124 S 
ATOM     93  O   UNL A   1      51.433  25.094  33.044  1.00  0.00    -0.237 OA
ATOM     94  O   UNL A   1      50.409  24.564  30.855  1.00  0.00    -0.237 OA
ATOM     95  O   UNL A   1      50.496  26.896  31.647  1.00  0.00    -0.744 OA
ENDBRANCH  88  92
ENDBRANCH  62  85
ENDBRANCH  36  37
ENDBRANCH  28  31
ENDBRANCH  26  27
ENDBRANCH   1  26
TORSDOF 17
ENDMDL
MODEL 2
REMARK VINA RESULT:     -12.3      4.423     10.203
REMARK SMILES CC1(C)O[C@](C)([C@H](O)C2CCCCC2)CC[C@H]1C(=O)NCCCCNC(=O)c1ccc(-c2c3nc(c(-c4cc(S(=O)(=O)[O-])ccc4F)c4ccc([nH]4)c(-c4cc(S(=O)(=O)[O-])ccc4F)c4nc(c(-c5cc(S(=O)(=O)[O-])ccc5F)c5ccc2[nH]5)C=C4)C=C3)cc1
REMARK SMILES IDX 23 1 22 2 21 3 20 4 18 5 19 6 17 8 1 9 2 10 3 11 4 12 5 13
REMARK SMILES IDX 16 14 6 15 15 16 7 17 9 18 10 19 14 20 11 21 13 22 12 23
REMARK SMILES IDX 8 24 24 26 25 27 26 28 27 30 28 31 29 32 90 33 30 34 89 35
REMARK SMILES IDX 31 36 32 37 33 38 83 39 34 40 88 41 82 42 84 43 35 44 87 45
REMARK SMILES IDX 81 46 80 47 36 49 68 50 48 51 67 52 49 53 52 54 66 55 85 56
REMARK SMILES IDX 50 57 51 58 65 60 86 61 53 62 37 63 38 64 46 65 39 66 45 67
REMARK SMILES IDX 47 68 44 69 40 70 41 71 42 72 43 73 69 74 70 75 78 76 71 77
REMARK SMILES IDX 77 78 79 79 76 80 72 81 73 82 74 83 75 84 54 85 55 86 63 87
REMARK SMILES IDX 56 88 62 89 64 90 61 91 57 92 58 93 59 94 60 95
REMARK H PARENT 20 7 8 25 25 29 84 48 52 59
REMARK Flexibility Score: inf
ROOT
ATOM      1  C   UNL A   1      35.318  23.771  25.851  1.00  0.00     0.023 C 
ENDROOT
BRANCH   1   2
ATOM      2  C   UNL A   1      34.732  23.912  24.456  1.00  0.00     0.023 C 
BRANCH   2   3
ATOM      3  C   UNL A   1      33.378  24.617  24.394  1.00  0.00     0.116 C 
BRANCH   3   4
ATOM      4  N   UNL A   1      32.573  24.312  25.557  1.00  0.00    -0.356 N 
ATOM      5  C   UNL A   1      31.636  25.035  26.222  1.00  0.00     0.226 C 
ATOM      6  O   UNL A   1      31.203  24.548  27.271  1.00  0.00    -0.275 OA
ATOM      7  H   UNL A   1      32.735  23.418  25.935  1.00  0.00     0.163 HD
BRANCH   5   8
ATOM      8  C   UNL A   1      31.087  26.374  25.728  1.00  0.00     0.110 C 
ATOM      9  C   UNL A   1      33.430  27.630  25.812  1.00  0.00     0.043 C 
ATOM     10  C   UNL A   1      31.923  27.642  26.066  1.00  0.00     0.075 C 
ATOM     11  C   UNL A   1      31.791  27.906  27.587  1.00  0.00     0.043 C 
ATOM     12  O   UNL A   1      31.381  28.823  25.441  1.00  0.00    -0.366 OA
ATOM     13  C   UNL A   1      30.991  28.788  24.060  1.00  0.00     0.092 C 
ATOM     14  C   UNL A   1      30.480  26.302  24.324  1.00  0.00     0.019 C 
ATOM     15  C   UNL A   1      32.154  28.553  23.072  1.00  0.00     0.045 C 
ATOM     16  C   UNL A   1      29.946  27.663  23.887  1.00  0.00     0.039 C 
BRANCH  13  17
ATOM     17  C   UNL A   1      30.290  30.167  23.750  1.00  0.00     0.149 C 
BRANCH  17  18
ATOM     18  C   UNL A   1      28.777  30.146  23.364  1.00  0.00     0.021 C 
ATOM     19  C   UNL A   1      27.913  31.358  23.749  1.00  0.00     0.006 C 
ATOM     20  C   UNL A   1      28.578  29.831  21.862  1.00  0.00     0.006 C 
ATOM     21  C   UNL A   1      28.099  32.569  22.841  1.00  0.00     0.000 C 
ATOM     22  C   UNL A   1      28.704  31.041  20.933  1.00  0.00     0.000 C 
ATOM     23  C   UNL A   1      27.831  32.204  21.386  1.00  0.00     0.000 C 
ENDBRANCH  17  18
BRANCH  17  24
ATOM     24  O   UNL A   1      30.545  31.118  24.785  1.00  0.00    -0.390 OA
ATOM     25  H   UNL A   1      29.769  31.183  25.363  1.00  0.00     0.211 HD
ENDBRANCH  17  24
ENDBRANCH  13  17
ENDBRANCH   5   8
ENDBRANCH   3   4
ENDBRANCH   2   3
ENDBRANCH   1   2
BRANCH   1  26
ATOM     26  C   UNL A   1      36.815  24.009  25.935  1.00  0.00     0.116 C 
BRANCH  26  27
ATOM     27  N   UNL A   1      37.598  22.782  26.036  1.00  0.00    -0.352 N 
ATOM     28  C   UNL A   1      38.912  22.652  26.425  1.00  0.00     0.251 C 
ATOM     29  H   UNL A   1      37.132  21.949  25.798  1.00  0.00     0.163 HD
ATOM     30  O   UNL A   1      39.476  21.565  26.379  1.00  0.00    -0.269 OA
BRANCH  28  31
ATOM     31  C   UNL A   1      39.625  23.871  26.848  1.00  0.00     0.039 A 
ATOM     32  C   UNL A   1      40.069  24.768  25.876  1.00  0.00     0.014 A 
ATOM     33  C   UNL A   1      39.708  24.180  28.208  1.00  0.00     0.014 A 
ATOM     34  C   UNL A   1      40.525  26.025  26.272  1.00  0.00     0.010 A 
ATOM     35  C   UNL A   1      40.064  25.465  28.588  1.00  0.00     0.010 A 
ATOM     36  C   UNL A   1      40.480  26.399  27.626  1.00  0.00    -0.014 A 
BRANCH  36  37
ATOM     37  C   UNL A   1      40.879  27.757  28.070  1.00  0.00     0.031 A 
ATOM     38  C   UNL A   1      42.338  28.110  28.141  1.00  0.00     0.074 A 
ATOM     39  C   UNL A   1      39.943  28.625  28.501  1.00  0.00     0.049 A 
ATOM     40  N   UNL A   1      42.909  29.190  28.607  1.00  0.00    -0.248 NA
ATOM     41  C   UNL A   1      43.281  27.083  27.674  1.00  0.00     0.031 C 
ATOM     42  C   UNL A   1      38.502  28.364  28.552  1.00  0.00     0.029 A 
ATOM     43  N   UNL A   1      40.065  29.898  28.997  1.00  0.00    -0.354 N 
ATOM     44  C   UNL A   1      44.278  28.957  28.520  1.00  0.00     0.074 A 
ATOM     45  C   UNL A   1      44.443  27.605  28.031  1.00  0.00     0.031 C 
ATOM     46  C   UNL A   1      37.875  29.449  29.033  1.00  0.00     0.029 A 
ATOM     47  C   UNL A   1      38.867  30.468  29.359  1.00  0.00     0.049 A 
ATOM     48  H   UNL A   1      40.930  30.360  29.084  1.00  0.00     0.167 HD
ATOM     49  C   UNL A   1      45.301  29.803  28.795  1.00  0.00     0.034 A 
ATOM     50  C   UNL A   1      38.602  31.672  29.901  1.00  0.00     0.034 A 
ATOM     51  C   UNL A   1      45.108  31.158  29.249  1.00  0.00     0.049 A 
ATOM     52  C   UNL A   1      39.746  32.615  30.165  1.00  0.00     0.074 A 
ATOM     53  C   UNL A   1      46.057  32.139  29.469  1.00  0.00     0.029 A 
ATOM     54  N   UNL A   1      43.874  31.721  29.559  1.00  0.00    -0.354 N 
ATOM     55  N   UNL A   1      41.034  32.414  30.003  1.00  0.00    -0.248 NA
ATOM     56  C   UNL A   1      39.401  33.950  30.670  1.00  0.00     0.031 C 
ATOM     57  C   UNL A   1      45.406  33.273  29.969  1.00  0.00     0.029 A 
ATOM     58  C   UNL A   1      44.043  33.025  29.997  1.00  0.00     0.049 A 
ATOM     59  H   UNL A   1      43.009  31.261  29.481  1.00  0.00     0.167 HD
ATOM     60  C   UNL A   1      41.653  33.606  30.368  1.00  0.00     0.074 A 
ATOM     61  C   UNL A   1      40.594  34.524  30.742  1.00  0.00     0.031 C 
ATOM     62  C   UNL A   1      42.974  33.918  30.385  1.00  0.00     0.034 A 
BRANCH  49  63
ATOM     63  C   UNL A   1      46.703  29.265  28.628  1.00  0.00     0.023 A 
ATOM     64  C   UNL A   1      47.290  29.112  27.360  1.00  0.00     0.031 A 
ATOM     65  C   UNL A   1      47.436  28.831  29.746  1.00  0.00     0.131 A 
ATOM     66  C   UNL A   1      48.515  28.441  27.229  1.00  0.00     0.055 A 
ATOM     67  C   UNL A   1      48.702  28.251  29.617  1.00  0.00     0.041 A 
ATOM     68  F   UNL A   1      46.924  28.931  30.982  1.00  0.00    -0.206 F 
ATOM     69  C   UNL A   1      49.238  28.033  28.352  1.00  0.00     0.022 A 
BRANCH  66  70
ATOM     70  S   UNL A   1      49.053  27.944  25.569  1.00  0.00     0.124 S 
ATOM     71  O   UNL A   1      50.061  28.960  25.271  1.00  0.00    -0.237 OA
ATOM     72  O   UNL A   1      49.554  26.594  25.792  1.00  0.00    -0.237 OA
ATOM     73  O   UNL A   1      47.833  28.036  24.770  1.00  0.00    -0.744 OA
ENDBRANCH  66  70
ENDBRANCH  49  63
BRANCH  50  74
ATOM     74  C   UNL A   1      37.199  32.051  30.229  1.00  0.00     0.023 A 
ATOM     75  C   UNL A   1      36.321  32.511  29.237  1.00  0.00     0.031 A 
ATOM     76  C   UNL A   1      36.719  31.960  31.548  1.00  0.00     0.131 A 
ATOM     77  C   UNL A   1      35.014  32.890  29.581  1.00  0.00     0.055 A 
ATOM     78  C   UNL A   1      35.406  32.301  31.879  1.00  0.00     0.041 A 
ATOM     79  F   UNL A   1      37.517  31.512  32.530  1.00  0.00    -0.206 F 
ATOM     80  C   UNL A   1      34.548  32.778  30.894  1.00  0.00     0.022 A 
BRANCH  77  81
ATOM     81  S   UNL A   1      33.936  33.574  28.292  1.00  0.00     0.124 S 
ATOM     82  O   UNL A   1      34.877  34.363  27.506  1.00  0.00    -0.237 OA
ATOM     83  O   UNL A   1      33.422  32.366  27.655  1.00  0.00    -0.237 OA
ATOM     84  O   UNL A   1      32.950  34.345  29.046  1.00  0.00    -0.744 OA
ENDBRANCH  77  81
ENDBRANCH  50  74
BRANCH  62  85
ATOM     85  C   UNL A   1      43.338  35.322  30.795  1.00  0.00     0.023 A 
ATOM     86  C   UNL A   1      43.484  35.683  32.146  1.00  0.00     0.031 A 
ATOM     87  C   UNL A   1      43.539  36.313  29.817  1.00  0.00     0.131 A 
ATOM     88  C   UNL A   1      43.774  37.013  32.485  1.00  0.00     0.055 A 
ATOM     89  C   UNL A   1      43.883  37.621  30.159  1.00  0.00     0.041 A 
ATOM     90  F   UNL A   1      43.411  36.021  28.513  1.00  0.00    -0.206 F 
ATOM     91  C   UNL A   1      43.990  37.980  31.499  1.00  0.00     0.022 A 
BRANCH  88  92
ATOM     92  S   UNL A   1      43.785  37.482  34.236  1.00  0.00     0.124 S 
ATOM     93  O   UNL A   1      45.053  38.195  34.352  1.00  0.00    -0.237 OA
ATOM     94  O   UNL A   1      42.580  38.298  34.349  1.00  0.00    -0.237 OA
ATOM     95  O   UNL A   1      43.729  36.197  34.934  1.00  0.00    -0.744 OA
ENDBRANCH  88  92
ENDBRANCH  62  85
ENDBRANCH  36  37
ENDBRANCH  28  31
ENDBRANCH  26  27
ENDBRANCH   1  26
TORSDOF 17
ENDMDL
MODEL 3
REMARK VINA RESULT:     -12.2      1.322      1.628
REMARK SMILES CC1(C)O[C@](C)([C@H](O)C2CCCCC2)CC[C@H]1C(=O)NCCCCNC(=O)c1ccc(-c2c3nc(c(-c4cc(S(=O)(=O)[O-])ccc4F)c4ccc([nH]4)c(-c4cc(S(=O)(=O)[O-])ccc4F)c4nc(c(-c5cc(S(=O)(=O)[O-])ccc5F)c5ccc2[nH]5)C=C4)C=C3)cc1
REMARK SMILES IDX 23 1 22 2 21 3 20 4 18 5 19 6 17 8 1 9 2 10 3 11 4 12 5 13
REMARK SMILES IDX 16 14 6 15 15 16 7 17 9 18 10 19 14 20 11 21 13 22 12 23
REMARK SMILES IDX 8 24 24 26 25 27 26 28 27 30 28 31 29 32 90 33 30 34 89 35
REMARK SMILES IDX 31 36 32 37 33 38 83 39 34 40 88 41 82 42 84 43 35 44 87 45
REMARK SMILES IDX 81 46 80 47 36 49 68 50 48 51 67 52 49 53 52 54 66 55 85 56
REMARK SMILES IDX 50 57 51 58 65 60 86 61 53 62 37 63 38 64 46 65 39 66 45 67
REMARK SMILES IDX 47 68 44 69 40 70 41 71 42 72 43 73 69 74 70 75 78 76 71 77
REMARK SMILES IDX 77 78 79 79 76 80 72 81 73 82 74 83 75 84 54 85 55 86 63 87
REMARK SMILES IDX 56 88 62 89 64 90 61 91 57 92 58 93 59 94 60 95
REMARK H PARENT 20 7 8 25 25 29 84 48 52 59
REMARK Flexibility Score: inf
ROOT
ATOM      1  C   UNL A   1      33.618  27.874  25.432  1.00  0.00     0.023 C 
ENDROOT
BRANCH   1   2
ATOM      2  C   UNL A   1      32.715  26.799  26.014  1.00  0.00     0.023 C 
BRANCH   2   3
ATOM      3  C   UNL A   1      32.782  25.448  25.304  1.00  0.00     0.116 C 
BRANCH   3   4
ATOM      4  N   UNL A   1      33.150  25.604  23.913  1.00  0.00    -0.356 N 
ATOM      5  C   UNL A   1      33.710  24.743  23.025  1.00  0.00     0.226 C 
ATOM      6  O   UNL A   1      34.025  25.209  21.926  1.00  0.00    -0.275 OA
ATOM      7  H   UNL A   1      32.959  26.496  23.543  1.00  0.00     0.163 HD
BRANCH   5   8
ATOM      8  C   UNL A   1      33.935  23.257  23.307  1.00  0.00     0.110 C 
ATOM      9  C   UNL A   1      35.587  23.659  25.353  1.00  0.00     0.043 C 
ATOM     10  C   UNL A   1      35.227  22.880  24.088  1.00  0.00     0.075 C 
ATOM     11  C   UNL A   1      36.435  23.102  23.144  1.00  0.00     0.043 C 
ATOM     12  O   UNL A   1      35.268  21.475  24.410  1.00  0.00    -0.366 OA
ATOM     13  C   UNL A   1      34.105  20.829  24.950  1.00  0.00     0.092 C 
ATOM     14  C   UNL A   1      32.656  22.509  23.690  1.00  0.00     0.019 C 
ATOM     15  C   UNL A   1      33.677  21.342  26.342  1.00  0.00     0.045 C 
ATOM     16  C   UNL A   1      32.940  21.034  23.956  1.00  0.00     0.039 C 
BRANCH  13  17
ATOM     17  C   UNL A   1      34.431  19.288  25.020  1.00  0.00     0.149 C 
BRANCH  17  18
ATOM     18  C   UNL A   1      33.605  18.324  24.111  1.00  0.00     0.021 C 
ATOM     19  C   UNL A   1      34.328  17.124  23.479  1.00  0.00     0.006 C 
ATOM     20  C   UNL A   1      32.321  17.834  24.824  1.00  0.00     0.006 C 
ATOM     21  C   UNL A   1      34.568  15.965  24.440  1.00  0.00     0.000 C 
ATOM     22  C   UNL A   1      32.525  16.634  25.752  1.00  0.00     0.000 C 
ATOM     23  C   UNL A   1      33.258  15.492  25.061  1.00  0.00     0.000 C 
ENDBRANCH  17  18
BRANCH  17  24
ATOM     24  O   UNL A   1      35.834  19.052  24.880  1.00  0.00    -0.390 OA
ATOM     25  H   UNL A   1      35.992  18.100  24.771  1.00  0.00     0.211 HD
ENDBRANCH  17  24
ENDBRANCH  13  17
ENDBRANCH   5   8
ENDBRANCH   3   4
ENDBRANCH   2   3
ENDBRANCH   1   2
BRANCH   1  26
ATOM     26  C   UNL A   1      34.414  28.657  26.462  1.00  0.00     0.116 C 
BRANCH  26  27
ATOM     27  N   UNL A   1      33.907  30.004  26.692  1.00  0.00    -0.352 N 
ATOM     28  C   UNL A   1      34.407  30.956  27.552  1.00  0.00     0.251 C 
ATOM     29  H   UNL A   1      33.113  30.264  26.173  1.00  0.00     0.163 HD
ATOM     30  O   UNL A   1      33.827  32.023  27.714  1.00  0.00    -0.269 OA
BRANCH  28  31
ATOM     31  C   UNL A   1      35.632  30.626  28.302  1.00  0.00     0.039 A 
ATOM     32  C   UNL A   1      35.532  29.843  29.452  1.00  0.00     0.014 A 
ATOM     33  C   UNL A   1      36.877  30.968  27.769  1.00  0.00     0.014 A 
ATOM     34  C   UNL A   1      36.695  29.329  30.026  1.00  0.00     0.010 A 
ATOM     35  C   UNL A   1      38.019  30.373  28.281  1.00  0.00     0.010 A 
ATOM     36  C   UNL A   1      37.941  29.550  29.417  1.00  0.00    -0.014 A 
BRANCH  36  37
ATOM     37  C   UNL A   1      39.187  28.949  29.954  1.00  0.00     0.031 A 
ATOM     38  C   UNL A   1      39.843  29.567  31.156  1.00  0.00     0.074 A 
ATOM     39  C   UNL A   1      39.772  27.924  29.306  1.00  0.00     0.049 A 
ATOM     40  N   UNL A   1      40.988  29.278  31.717  1.00  0.00    -0.248 NA
ATOM     41  C   UNL A   1      39.139  30.701  31.774  1.00  0.00     0.031 C 
ATOM     42  C   UNL A   1      39.266  27.293  28.083  1.00  0.00     0.029 A 
ATOM     43  N   UNL A   1      40.931  27.242  29.574  1.00  0.00    -0.354 N 
ATOM     44  C   UNL A   1      41.156  30.214  32.732  1.00  0.00     0.074 A 
ATOM     45  C   UNL A   1      40.032  31.124  32.653  1.00  0.00     0.031 C 
ATOM     46  C   UNL A   1      40.101  26.306  27.720  1.00  0.00     0.029 A 
ATOM     47  C   UNL A   1      41.218  26.257  28.658  1.00  0.00     0.049 A 
ATOM     48  H   UNL A   1      41.504  27.440  30.350  1.00  0.00     0.167 HD
ATOM     49  C   UNL A   1      42.140  30.291  33.661  1.00  0.00     0.034 A 
ATOM     50  C   UNL A   1      42.267  25.415  28.581  1.00  0.00     0.034 A 
ATOM     51  C   UNL A   1      43.230  29.351  33.739  1.00  0.00     0.049 A 
ATOM     52  C   UNL A   1      43.333  25.489  29.643  1.00  0.00     0.074 A 
ATOM     53  C   UNL A   1      44.232  29.266  34.688  1.00  0.00     0.029 A 
ATOM     54  N   UNL A   1      43.464  28.331  32.822  1.00  0.00    -0.354 N 
ATOM     55  N   UNL A   1      43.441  26.327  30.647  1.00  0.00    -0.248 NA
ATOM     56  C   UNL A   1      44.409  24.492  29.569  1.00  0.00     0.031 C 
ATOM     57  C   UNL A   1      45.104  28.236  34.313  1.00  0.00     0.029 A 
ATOM     58  C   UNL A   1      44.610  27.632  33.168  1.00  0.00     0.049 A 
ATOM     59  H   UNL A   1      42.899  28.135  32.041  1.00  0.00     0.167 HD
ATOM     60  C   UNL A   1      44.587  25.948  31.338  1.00  0.00     0.074 A 
ATOM     61  C   UNL A   1      45.125  24.794  30.644  1.00  0.00     0.031 C 
ATOM     62  C   UNL A   1      45.141  26.497  32.449  1.00  0.00     0.034 A 
BRANCH  49  63
ATOM     63  C   UNL A   1      42.077  31.441  34.639  1.00  0.00     0.023 A 
ATOM     64  C   UNL A   1      41.077  31.519  35.625  1.00  0.00     0.031 A 
ATOM     65  C   UNL A   1      42.981  32.512  34.538  1.00  0.00     0.131 A 
ATOM     66  C   UNL A   1      40.937  32.685  36.392  1.00  0.00     0.055 A 
ATOM     67  C   UNL A   1      42.896  33.630  35.372  1.00  0.00     0.041 A 
ATOM     68  F   UNL A   1      43.946  32.508  33.604  1.00  0.00    -0.206 F 
ATOM     69  C   UNL A   1      41.856  33.731  36.291  1.00  0.00     0.022 A 
BRANCH  66  70
ATOM     70  S   UNL A   1      39.430  32.890  37.382  1.00  0.00     0.124 S 
ATOM     71  O   UNL A   1      38.767  33.989  36.684  1.00  0.00    -0.237 OA
ATOM     72  O   UNL A   1      38.796  31.583  37.264  1.00  0.00    -0.237 OA
ATOM     73  O   UNL A   1      39.935  33.223  38.712  1.00  0.00    -0.744 OA
ENDBRANCH  66  70
ENDBRANCH  49  63
BRANCH  50  74
ATOM     74  C   UNL A   1      42.360  24.438  27.461  1.00  0.00     0.023 A 
ATOM     75  C   UNL A   1      41.649  23.230  27.491  1.00  0.00     0.031 A 
ATOM     76  C   UNL A   1      43.168  24.703  26.340  1.00  0.00     0.131 A 
ATOM     77  C   UNL A   1      41.781  22.314  26.435  1.00  0.00     0.055 A 
ATOM     78  C   UNL A   1      43.265  23.807  25.274  1.00  0.00     0.041 A 
ATOM     79  F   UNL A   1      43.857  25.853  26.258  1.00  0.00    -0.206 F 
ATOM     80  C   UNL A   1      42.576  22.600  25.322  1.00  0.00     0.022 A 
BRANCH  77  81
ATOM     81  S   UNL A   1      40.927  20.718  26.554  1.00  0.00     0.124 S 
ATOM     82  O   UNL A   1      41.879  19.823  25.907  1.00  0.00    -0.237 OA
ATOM     83  O   UNL A   1      40.778  20.561  27.998  1.00  0.00    -0.237 OA
ATOM     84  O   UNL A   1      39.681  20.943  25.824  1.00  0.00    -0.744 OA
ENDBRANCH  77  81
ENDBRANCH  50  74
BRANCH  62  85
ATOM     85  C   UNL A   1      46.378  25.829  32.995  1.00  0.00     0.023 A 
ATOM     86  C   UNL A   1      46.299  24.730  33.869  1.00  0.00     0.031 A 
ATOM     87  C   UNL A   1      47.653  26.303  32.637  1.00  0.00     0.131 A 
ATOM     88  C   UNL A   1      47.475  24.172  34.393  1.00  0.00     0.055 A 
ATOM     89  C   UNL A   1      48.819  25.707  33.118  1.00  0.00     0.041 A 
ATOM     90  F   UNL A   1      47.783  27.351  31.807  1.00  0.00    -0.206 F 
ATOM     91  C   UNL A   1      48.734  24.643  34.010  1.00  0.00     0.022 A 
BRANCH  88  92
ATOM     92  S   UNL A   1      47.334  22.871  35.648  1.00  0.00     0.124 S 
ATOM     93  O   UNL A   1      46.248  22.053  35.117  1.00  0.00    -0.237 OA
ATOM     94  O   UNL A   1      48.661  22.265  35.621  1.00  0.00    -0.237 OA
ATOM     95  O   UNL A   1      47.015  23.608  36.871  1.00  0.00    -0.744 OA
ENDBRANCH  88  92
ENDBRANCH  62  85
ENDBRANCH  36  37
ENDBRANCH  28  31
ENDBRANCH  26  27
ENDBRANCH   1  26
TORSDOF 17
ENDMDL
