MODEL 1
REMARK VINA RESULT:     -12.1      0.000      0.000
REMARK SMILES CC[C@@H]1CCC[C@@](Cc2cccc(O)c2)(C(=O)NCCCCNC(=O)c2ccc(-c3c4nc(c(-c5cc(S(=O)(=O)[O-])ccc5F)c5ccc([nH]5)c(-c5cc(S(=O)(=O)[O-])ccc5F)c5nc(c(-c6cc(S(=O)(=O)[O-])ccc6F)c6ccc3[nH]6)C=C5)C=C4)cc2)C1
REMARK SMILES IDX 20 1 19 2 18 3 16 4 17 5 7 7 3 8 4 9 89 10 5 11 6 12 2 13
REMARK SMILES IDX 1 14 8 15 9 16 10 17 15 18 11 19 13 20 12 21 14 22 21 24
REMARK SMILES IDX 22 25 23 26 24 27 25 29 26 30 27 31 88 32 28 33 87 34 29 35
REMARK SMILES IDX 30 36 31 37 81 38 32 39 86 40 80 41 82 42 33 43 85 44 79 45
REMARK SMILES IDX 78 46 34 48 66 49 46 50 65 51 47 52 50 53 64 54 83 55 48 56
REMARK SMILES IDX 49 57 63 59 84 60 51 61 35 62 36 63 44 64 37 65 43 66 45 67
REMARK SMILES IDX 42 68 38 69 39 70 40 71 41 72 67 73 68 74 76 75 69 76 75 77
REMARK SMILES IDX 77 78 74 79 70 80 71 81 72 82 73 83 52 84 53 85 61 86 54 87
REMARK SMILES IDX 60 88 62 89 59 90 55 91 56 92 57 93 58 94
REMARK H PARENT 18 6 14 23 23 28 82 47 50 58
REMARK Flexibility Score: inf
ROOT
ATOM      1  C   UNL A   1      31.455  31.287  26.288  1.00  0.00     0.023 C 
ENDROOT
BRANCH   1   2
ATOM      2  C   UNL A   1      31.297  30.143  25.299  1.00  0.00     0.116 C 
BRANCH   2   3
ATOM      3  N   UNL A   1      32.533  29.731  24.669  1.00  0.00    -0.356 N 
ATOM      4  C   UNL A   1      32.848  28.638  23.923  1.00  0.00     0.226 C 
ATOM      5  O   UNL A   1      33.881  28.748  23.249  1.00  0.00    -0.274 OA
ATOM      6  H   UNL A   1      33.281  30.355  24.806  1.00  0.00     0.163 HD
BRANCH   4   7
ATOM      7  C   UNL A   1      32.000  27.334  23.860  1.00  0.00     0.053 C 
ATOM      8  C   UNL A   1      33.970  25.828  24.732  1.00  0.00    -0.010 C 
ATOM      9  C   UNL A   1      33.217  25.632  26.056  1.00  0.00     0.003 C 
ATOM     10  C   UNL A   1      32.993  26.142  23.578  1.00  0.00     0.020 C 
ATOM     11  C   UNL A   1      32.241  26.763  26.340  1.00  0.00     0.001 C 
ATOM     12  C   UNL A   1      31.275  26.958  25.172  1.00  0.00     0.017 C 
BRANCH   8  13
ATOM     13  C   UNL A   1      34.819  24.572  24.446  1.00  0.00     0.000 C 
ATOM     14  C   UNL A   1      35.272  23.835  25.698  1.00  0.00     0.004 C 
ENDBRANCH   8  13
BRANCH   7  15
ATOM     15  C   UNL A   1      31.045  27.365  22.621  1.00  0.00     0.052 C 
BRANCH  15  16
ATOM     16  C   UNL A   1      29.923  28.375  22.577  1.00  0.00    -0.043 A 
ATOM     17  C   UNL A   1      28.670  28.064  23.129  1.00  0.00     0.004 A 
ATOM     18  C   UNL A   1      30.099  29.625  21.968  1.00  0.00     0.049 A 
ATOM     19  C   UNL A   1      27.602  28.960  23.023  1.00  0.00     0.004 A 
ATOM     20  C   UNL A   1      29.023  30.502  21.849  1.00  0.00     0.115 A 
ATOM     21  C   UNL A   1      27.772  30.177  22.366  1.00  0.00     0.046 A 
BRANCH  20  22
ATOM     22  O   UNL A   1      29.228  31.674  21.182  1.00  0.00    -0.508 OA
ATOM     23  H   UNL A   1      29.062  32.492  21.609  1.00  0.00     0.293 HD
ENDBRANCH  20  22
ENDBRANCH  15  16
ENDBRANCH   7  15
ENDBRANCH   4   7
ENDBRANCH   2   3
ENDBRANCH   1   2
BRANCH   1  24
ATOM     24  C   UNL A   1      32.617  31.139  27.269  1.00  0.00     0.023 C 
BRANCH  24  25
ATOM     25  C   UNL A   1      33.573  32.327  27.369  1.00  0.00     0.116 C 
BRANCH  25  26
ATOM     26  N   UNL A   1      32.931  33.593  27.698  1.00  0.00    -0.352 N 
ATOM     27  C   UNL A   1      33.285  34.496  28.675  1.00  0.00     0.251 C 
ATOM     28  H   UNL A   1      32.147  33.833  27.154  1.00  0.00     0.163 HD
ATOM     29  O   UNL A   1      32.633  35.524  28.837  1.00  0.00    -0.269 OA
BRANCH  27  30
ATOM     30  C   UNL A   1      34.434  34.181  29.549  1.00  0.00     0.039 A 
ATOM     31  C   UNL A   1      34.213  33.456  30.723  1.00  0.00     0.014 A 
ATOM     32  C   UNL A   1      35.732  34.519  29.156  1.00  0.00     0.014 A 
ATOM     33  C   UNL A   1      35.305  32.987  31.456  1.00  0.00     0.010 A 
ATOM     34  C   UNL A   1      36.817  33.997  29.854  1.00  0.00     0.010 A 
ATOM     35  C   UNL A   1      36.614  33.212  31.001  1.00  0.00    -0.014 A 
BRANCH  35  36
ATOM     36  C   UNL A   1      37.786  32.607  31.686  1.00  0.00     0.031 A 
ATOM     37  C   UNL A   1      38.513  31.448  31.063  1.00  0.00     0.074 A 
ATOM     38  C   UNL A   1      38.140  33.045  32.910  1.00  0.00     0.049 A 
ATOM     39  N   UNL A   1      39.501  30.737  31.541  1.00  0.00    -0.248 NA
ATOM     40  C   UNL A   1      38.037  31.016  29.743  1.00  0.00     0.031 C 
ATOM     41  C   UNL A   1      37.481  34.129  33.644  1.00  0.00     0.029 A 
ATOM     42  N   UNL A   1      39.133  32.626  33.760  1.00  0.00    -0.354 N 
ATOM     43  C   UNL A   1      39.760  29.761  30.583  1.00  0.00     0.074 A 
ATOM     44  C   UNL A   1      38.777  29.939  29.534  1.00  0.00     0.031 C 
ATOM     45  C   UNL A   1      38.102  34.303  34.821  1.00  0.00     0.029 A 
ATOM     46  C   UNL A   1      39.176  33.321  34.945  1.00  0.00     0.049 A 
ATOM     47  H   UNL A   1      39.755  31.895  33.541  1.00  0.00     0.167 HD
ATOM     48  C   UNL A   1      40.741  28.823  30.569  1.00  0.00     0.034 A 
ATOM     49  C   UNL A   1      39.984  33.181  36.014  1.00  0.00     0.034 A 
ATOM     50  C   UNL A   1      41.713  28.661  31.623  1.00  0.00     0.049 A 
ATOM     51  C   UNL A   1      41.049  32.116  35.992  1.00  0.00     0.074 A 
ATOM     52  C   UNL A   1      42.786  27.787  31.685  1.00  0.00     0.029 A 
ATOM     53  N   UNL A   1      41.725  29.382  32.812  1.00  0.00    -0.354 N 
ATOM     54  N   UNL A   1      41.320  31.238  35.056  1.00  0.00    -0.248 NA
ATOM     55  C   UNL A   1      41.920  32.033  37.170  1.00  0.00     0.031 C 
ATOM     56  C   UNL A   1      43.405  27.936  32.931  1.00  0.00     0.029 A 
ATOM     57  C   UNL A   1      42.764  28.951  33.624  1.00  0.00     0.049 A 
ATOM     58  H   UNL A   1      41.087  30.095  33.044  1.00  0.00     0.167 HD
ATOM     59  C   UNL A   1      42.412  30.512  35.522  1.00  0.00     0.074 A 
ATOM     60  C   UNL A   1      42.753  31.063  36.818  1.00  0.00     0.031 C 
ATOM     61  C   UNL A   1      43.079  29.492  34.926  1.00  0.00     0.034 A 
BRANCH  48  62
ATOM     62  C   UNL A   1      40.775  27.890  29.381  1.00  0.00     0.023 A 
ATOM     63  C   UNL A   1      41.699  28.067  28.335  1.00  0.00     0.031 A 
ATOM     64  C   UNL A   1      39.831  26.857  29.254  1.00  0.00     0.131 A 
ATOM     65  C   UNL A   1      41.591  27.300  27.166  1.00  0.00     0.055 A 
ATOM     66  C   UNL A   1      39.789  26.033  28.126  1.00  0.00     0.041 A 
ATOM     67  F   UNL A   1      38.912  26.648  30.209  1.00  0.00    -0.206 F 
ATOM     68  C   UNL A   1      40.657  26.266  27.064  1.00  0.00     0.022 A 
BRANCH  65  69
ATOM     69  S   UNL A   1      42.561  27.798  25.716  1.00  0.00     0.124 S 
ATOM     70  O   UNL A   1      42.336  26.673  24.810  1.00  0.00    -0.237 OA
ATOM     71  O   UNL A   1      41.936  29.059  25.337  1.00  0.00    -0.237 OA
ATOM     72  O   UNL A   1      43.923  27.905  26.235  1.00  0.00    -0.744 OA
ENDBRANCH  65  69
ENDBRANCH  48  62
BRANCH  49  73
ATOM     73  C   UNL A   1      39.826  34.074  37.193  1.00  0.00     0.023 A 
ATOM     74  C   UNL A   1      39.154  33.632  38.343  1.00  0.00     0.031 A 
ATOM     75  C   UNL A   1      40.332  35.385  37.182  1.00  0.00     0.131 A 
ATOM     76  C   UNL A   1      38.977  34.506  39.427  1.00  0.00     0.055 A 
ATOM     77  C   UNL A   1      40.188  36.238  38.278  1.00  0.00     0.041 A 
ATOM     78  F   UNL A   1      40.993  35.849  36.109  1.00  0.00    -0.206 F 
ATOM     79  C   UNL A   1      39.498  35.802  39.406  1.00  0.00     0.022 A 
BRANCH  76  80
ATOM     80  S   UNL A   1      38.019  33.934  40.856  1.00  0.00     0.124 S 
ATOM     81  O   UNL A   1      39.004  33.130  41.572  1.00  0.00    -0.237 OA
ATOM     82  O   UNL A   1      37.636  35.192  41.488  1.00  0.00    -0.237 OA
ATOM     83  O   UNL A   1      36.920  33.184  40.251  1.00  0.00    -0.744 OA
ENDBRANCH  76  80
ENDBRANCH  49  73
BRANCH  61  84
ATOM     84  C   UNL A   1      44.270  28.934  35.665  1.00  0.00     0.023 A 
ATOM     85  C   UNL A   1      44.130  27.949  36.658  1.00  0.00     0.031 A 
ATOM     86  C   UNL A   1      45.562  29.413  35.383  1.00  0.00     0.131 A 
ATOM     87  C   UNL A   1      45.258  27.510  37.369  1.00  0.00     0.055 A 
ATOM     88  C   UNL A   1      46.686  28.935  36.056  1.00  0.00     0.041 A 
ATOM     89  F   UNL A   1      45.751  30.356  34.445  1.00  0.00    -0.206 F 
ATOM     90  C   UNL A   1      46.536  27.986  37.064  1.00  0.00     0.022 A 
BRANCH  87  91
ATOM     91  S   UNL A   1      45.024  26.366  38.757  1.00  0.00     0.124 S 
ATOM     92  O   UNL A   1      45.518  25.110  38.199  1.00  0.00    -0.237 OA
ATOM     93  O   UNL A   1      45.847  26.967  39.801  1.00  0.00    -0.237 OA
ATOM     94  O   UNL A   1      43.584  26.411  39.000  1.00  0.00    -0.744 OA
ENDBRANCH  87  91
ENDBRANCH  61  84
ENDBRANCH  35  36
ENDBRANCH  27  30
ENDBRANCH  25  26
ENDBRANCH  24  25
ENDBRANCH   1  24
TORSDOF 18
ENDMDL
MODEL 2
REMARK VINA RESULT:     -12.1      5.830     10.649
REMARK SMILES CC[C@@H]1CCC[C@@](Cc2cccc(O)c2)(C(=O)NCCCCNC(=O)c2ccc(-c3c4nc(c(-c5cc(S(=O)(=O)[O-])ccc5F)c5ccc([nH]5)c(-c5cc(S(=O)(=O)[O-])ccc5F)c5nc(c(-c6cc(S(=O)(=O)[O-])ccc6F)c6ccc3[nH]6)C=C5)C=C4)cc2)C1
REMARK SMILES IDX 20 1 19 2 18 3 16 4 17 5 7 7 3 8 4 9 89 10 5 11 6 12 2 13
REMARK SMILES IDX 1 14 8 15 9 16 10 17 15 18 11 19 13 20 12 21 14 22 21 24
REMARK SMILES IDX 22 25 23 26 24 27 25 29 26 30 27 31 88 32 28 33 87 34 29 35
REMARK SMILES IDX 30 36 31 37 81 38 32 39 86 40 80 41 82 42 33 43 85 44 79 45
REMARK SMILES IDX 78 46 34 48 66 49 46 50 65 51 47 52 50 53 64 54 83 55 48 56
REMARK SMILES IDX 49 57 63 59 84 60 51 61 35 62 36 63 44 64 37 65 43 66 45 67
REMARK SMILES IDX 42 68 38 69 39 70 40 71 41 72 67 73 68 74 76 75 69 76 75 77
REMARK SMILES IDX 77 78 74 79 70 80 71 81 72 82 73 83 52 84 53 85 61 86 54 87
REMARK SMILES IDX 60 88 62 89 59 90 55 91 56 92 57 93 58 94
REMARK H PARENT 18 6 14 23 23 28 82 47 50 58
REMARK Flexibility Score: inf
ROOT
ATOM      1  C   UNL A   1      33.878  22.487  24.384  1.00  0.00     0.023 C 
ENDROOT
BRANCH   1   2
ATOM      2  C   UNL A   1      32.372  22.695  24.318  1.00  0.00     0.116 C 
BRANCH   2   3
ATOM      3  N   UNL A   1      31.806  23.292  25.508  1.00  0.00    -0.356 N 
ATOM      4  C   UNL A   1      31.303  24.534  25.745  1.00  0.00     0.226 C 
ATOM      5  O   UNL A   1      30.588  24.622  26.752  1.00  0.00    -0.274 OA
ATOM      6  H   UNL A   1      31.780  22.692  26.286  1.00  0.00     0.163 HD
BRANCH   4   7
ATOM      7  C   UNL A   1      31.552  25.778  24.842  1.00  0.00     0.053 C 
ATOM      8  C   UNL A   1      32.125  27.335  26.881  1.00  0.00    -0.010 C 
ATOM      9  C   UNL A   1      33.592  27.366  26.428  1.00  0.00     0.003 C 
ATOM     10  C   UNL A   1      31.182  27.055  25.691  1.00  0.00     0.020 C 
ATOM     11  C   UNL A   1      33.966  26.150  25.594  1.00  0.00     0.001 C 
ATOM     12  C   UNL A   1      33.019  25.990  24.405  1.00  0.00     0.017 C 
BRANCH   8  13
ATOM     13  C   UNL A   1      31.788  28.666  27.585  1.00  0.00     0.000 C 
ATOM     14  C   UNL A   1      32.740  29.803  27.242  1.00  0.00     0.004 C 
ENDBRANCH   8  13
BRANCH   7  15
ATOM     15  C   UNL A   1      30.548  25.787  23.641  1.00  0.00     0.052 C 
BRANCH  15  16
ATOM     16  C   UNL A   1      29.892  27.086  23.236  1.00  0.00    -0.043 A 
ATOM     17  C   UNL A   1      28.551  27.334  23.567  1.00  0.00     0.004 A 
ATOM     18  C   UNL A   1      30.596  28.054  22.507  1.00  0.00     0.049 A 
ATOM     19  C   UNL A   1      27.911  28.497  23.128  1.00  0.00     0.004 A 
ATOM     20  C   UNL A   1      29.944  29.200  22.057  1.00  0.00     0.115 A 
ATOM     21  C   UNL A   1      28.603  29.427  22.355  1.00  0.00     0.046 A 
BRANCH  20  22
ATOM     22  O   UNL A   1      30.653  30.075  21.287  1.00  0.00    -0.508 OA
ATOM     23  H   UNL A   1      31.043  29.785  20.486  1.00  0.00     0.293 HD
ENDBRANCH  20  22
ENDBRANCH  15  16
ENDBRANCH   7  15
ENDBRANCH   4   7
ENDBRANCH   2   3
ENDBRANCH   1   2
BRANCH   1  24
ATOM     24  C   UNL A   1      34.382  21.801  25.652  1.00  0.00     0.023 C 
BRANCH  24  25
ATOM     25  C   UNL A   1      35.824  22.101  26.057  1.00  0.00     0.116 C 
BRANCH  25  26
ATOM     26  N   UNL A   1      36.803  21.146  25.553  1.00  0.00    -0.352 N 
ATOM     27  C   UNL A   1      38.177  21.215  25.635  1.00  0.00     0.251 C 
ATOM     28  H   UNL A   1      36.438  20.353  25.100  1.00  0.00     0.163 HD
ATOM     29  O   UNL A   1      38.873  20.328  25.150  1.00  0.00    -0.269 OA
BRANCH  27  30
ATOM     30  C   UNL A   1      38.790  22.396  26.276  1.00  0.00     0.039 A 
ATOM     31  C   UNL A   1      39.988  22.241  26.978  1.00  0.00     0.014 A 
ATOM     32  C   UNL A   1      38.231  23.664  26.098  1.00  0.00     0.014 A 
ATOM     33  C   UNL A   1      40.675  23.372  27.422  1.00  0.00     0.010 A 
ATOM     34  C   UNL A   1      38.949  24.792  26.486  1.00  0.00     0.010 A 
ATOM     35  C   UNL A   1      40.187  24.657  27.136  1.00  0.00    -0.014 A 
BRANCH  35  36
ATOM     36  C   UNL A   1      40.968  25.875  27.476  1.00  0.00     0.031 A 
ATOM     37  C   UNL A   1      40.339  26.979  28.277  1.00  0.00     0.074 A 
ATOM     38  C   UNL A   1      42.214  26.024  26.986  1.00  0.00     0.049 A 
ATOM     39  N   UNL A   1      40.827  28.148  28.604  1.00  0.00    -0.248 NA
ATOM     40  C   UNL A   1      38.965  26.745  28.740  1.00  0.00     0.031 C 
ATOM     41  C   UNL A   1      42.918  25.046  26.151  1.00  0.00     0.029 A 
ATOM     42  N   UNL A   1      43.107  27.058  27.107  1.00  0.00    -0.354 N 
ATOM     43  C   UNL A   1      39.814  28.797  29.303  1.00  0.00     0.074 A 
ATOM     44  C   UNL A   1      38.668  27.912  29.289  1.00  0.00     0.031 C 
ATOM     45  C   UNL A   1      44.140  25.518  25.857  1.00  0.00     0.029 A 
ATOM     46  C   UNL A   1      44.294  26.845  26.446  1.00  0.00     0.049 A 
ATOM     47  H   UNL A   1      42.916  27.877  27.619  1.00  0.00     0.167 HD
ATOM     48  C   UNL A   1      39.847  30.006  29.920  1.00  0.00     0.034 A 
ATOM     49  C   UNL A   1      45.381  27.631  26.322  1.00  0.00     0.034 A 
ATOM     50  C   UNL A   1      40.999  30.875  29.924  1.00  0.00     0.049 A 
ATOM     51  C   UNL A   1      45.389  28.981  26.990  1.00  0.00     0.074 A 
ATOM     52  C   UNL A   1      41.165  32.090  30.567  1.00  0.00     0.029 A 
ATOM     53  N   UNL A   1      42.184  30.627  29.240  1.00  0.00    -0.354 N 
ATOM     54  N   UNL A   1      44.446  29.558  27.696  1.00  0.00    -0.248 NA
ATOM     55  C   UNL A   1      46.614  29.778  26.847  1.00  0.00     0.031 C 
ATOM     56  C   UNL A   1      42.421  32.604  30.222  1.00  0.00     0.029 A 
ATOM     57  C   UNL A   1      43.070  31.680  29.420  1.00  0.00     0.049 A 
ATOM     58  H   UNL A   1      42.368  29.822  28.706  1.00  0.00     0.167 HD
ATOM     59  C   UNL A   1      44.974  30.779  28.106  1.00  0.00     0.074 A 
ATOM     60  C   UNL A   1      46.320  30.848  27.573  1.00  0.00     0.031 C 
ATOM     61  C   UNL A   1      44.402  31.749  28.863  1.00  0.00     0.034 A 
BRANCH  48  62
ATOM     62  C   UNL A   1      38.580  30.454  30.609  1.00  0.00     0.023 A 
ATOM     63  C   UNL A   1      37.602  31.206  29.931  1.00  0.00     0.031 A 
ATOM     64  C   UNL A   1      38.375  30.192  31.974  1.00  0.00     0.131 A 
ATOM     65  C   UNL A   1      36.526  31.759  30.640  1.00  0.00     0.055 A 
ATOM     66  C   UNL A   1      37.251  30.668  32.654  1.00  0.00     0.041 A 
ATOM     67  F   UNL A   1      39.278  29.495  32.681  1.00  0.00    -0.206 F 
ATOM     68  C   UNL A   1      36.330  31.475  31.993  1.00  0.00     0.022 A 
BRANCH  65  69
ATOM     69  S   UNL A   1      35.499  33.005  29.812  1.00  0.00     0.124 S 
ATOM     70  O   UNL A   1      34.206  32.800  30.462  1.00  0.00    -0.237 OA
ATOM     71  O   UNL A   1      36.188  34.248  30.136  1.00  0.00    -0.237 OA
ATOM     72  O   UNL A   1      35.548  32.609  28.406  1.00  0.00    -0.744 OA
ENDBRANCH  65  69
ENDBRANCH  48  62
BRANCH  49  73
ATOM     73  C   UNL A   1      46.557  27.162  25.541  1.00  0.00     0.023 A 
ATOM     74  C   UNL A   1      46.826  27.684  24.266  1.00  0.00     0.031 A 
ATOM     75  C   UNL A   1      47.420  26.177  26.051  1.00  0.00     0.131 A 
ATOM     76  C   UNL A   1      47.915  27.196  23.528  1.00  0.00     0.055 A 
ATOM     77  C   UNL A   1      48.525  25.723  25.328  1.00  0.00     0.041 A 
ATOM     78  F   UNL A   1      47.211  25.657  27.271  1.00  0.00    -0.206 F 
ATOM     79  C   UNL A   1      48.772  26.226  24.054  1.00  0.00     0.022 A 
BRANCH  76  80
ATOM     80  S   UNL A   1      48.174  27.822  21.846  1.00  0.00     0.124 S 
ATOM     81  O   UNL A   1      49.413  28.578  21.997  1.00  0.00    -0.237 OA
ATOM     82  O   UNL A   1      48.267  26.587  21.073  1.00  0.00    -0.237 OA
ATOM     83  O   UNL A   1      46.979  28.623  21.592  1.00  0.00    -0.744 OA
ENDBRANCH  76  80
ENDBRANCH  49  73
BRANCH  61  84
ATOM     84  C   UNL A   1      45.253  32.951  29.187  1.00  0.00     0.023 A 
ATOM     85  C   UNL A   1      45.274  34.087  28.360  1.00  0.00     0.031 A 
ATOM     86  C   UNL A   1      46.071  32.948  30.331  1.00  0.00     0.131 A 
ATOM     87  C   UNL A   1      46.136  35.154  28.662  1.00  0.00     0.055 A 
ATOM     88  C   UNL A   1      46.885  34.033  30.655  1.00  0.00     0.041 A 
ATOM     89  F   UNL A   1      46.091  31.885  31.153  1.00  0.00    -0.206 F 
ATOM     90  C   UNL A   1      46.929  35.140  29.813  1.00  0.00     0.022 A 
BRANCH  87  91
ATOM     91  S   UNL A   1      46.265  36.531  27.489  1.00  0.00     0.124 S 
ATOM     92  O   UNL A   1      47.257  37.386  28.134  1.00  0.00    -0.237 OA
ATOM     93  O   UNL A   1      46.699  35.861  26.268  1.00  0.00    -0.237 OA
ATOM     94  O   UNL A   1      44.910  37.077  27.448  1.00  0.00    -0.744 OA
ENDBRANCH  87  91
ENDBRANCH  61  84
ENDBRANCH  35  36
ENDBRANCH  27  30
ENDBRANCH  25  26
ENDBRANCH  24  25
ENDBRANCH   1  24
TORSDOF 18
ENDMDL
MODEL 3
REMARK VINA RESULT:     -12.1      6.442     12.239
REMARK SMILES CC[C@@H]1CCC[C@@](Cc2cccc(O)c2)(C(=O)NCCCCNC(=O)c2ccc(-c3c4nc(c(-c5cc(S(=O)(=O)[O-])ccc5F)c5ccc([nH]5)c(-c5cc(S(=O)(=O)[O-])ccc5F)c5nc(c(-c6cc(S(=O)(=O)[O-])ccc6F)c6ccc3[nH]6)C=C5)C=C4)cc2)C1
REMARK SMILES IDX 20 1 19 2 18 3 16 4 17 5 7 7 3 8 4 9 89 10 5 11 6 12 2 13
REMARK SMILES IDX 1 14 8 15 9 16 10 17 15 18 11 19 13 20 12 21 14 22 21 24
REMARK SMILES IDX 22 25 23 26 24 27 25 29 26 30 27 31 88 32 28 33 87 34 29 35
REMARK SMILES IDX 30 36 31 37 81 38 32 39 86 40 80 41 82 42 33 43 85 44 79 45
REMARK SMILES IDX 78 46 34 48 66 49 46 50 65 51 47 52 50 53 64 54 83 55 48 56
REMARK SMILES IDX 49 57 63 59 84 60 51 61 35 62 36 63 44 64 37 65 43 66 45 67
REMARK SMILES IDX 42 68 38 69 39 70 40 71 41 72 67 73 68 74 76 75 69 76 75 77
REMARK SMILES IDX 77 78 74 79 70 80 71 81 72 82 73 83 52 84 53 85 61 86 54 87
REMARK SMILES IDX 60 88 62 89 59 90 55 91 56 92 57 93 58 94
REMARK H PARENT 18 6 14 23 23 28 82 47 50 58
REMARK Flexibility Score: inf
ROOT
ATOM      1  C   UNL A   1      37.497  20.264  24.723  1.00  0.00     0.023 C 
ENDROOT
BRANCH   1   2
ATOM      2  C   UNL A   1      35.995  20.307  24.963  1.00  0.00     0.116 C 
BRANCH   2   3
ATOM      3  N   UNL A   1      35.600  21.125  26.088  1.00  0.00    -0.356 N 
ATOM      4  C   UNL A   1      34.480  21.860  26.323  1.00  0.00     0.226 C 
ATOM      5  O   UNL A   1      34.294  22.162  27.510  1.00  0.00    -0.274 OA
ATOM      6  H   UNL A   1      36.262  21.156  26.815  1.00  0.00     0.163 HD
BRANCH   4   7
ATOM      7  C   UNL A   1      33.460  22.294  25.230  1.00  0.00     0.053 C 
ATOM      8  C   UNL A   1      33.792  24.856  25.719  1.00  0.00    -0.010 C 
ATOM      9  C   UNL A   1      34.507  25.008  24.369  1.00  0.00     0.003 C 
ATOM     10  C   UNL A   1      32.819  23.657  25.700  1.00  0.00     0.020 C 
ATOM     11  C   UNL A   1      35.119  23.700  23.888  1.00  0.00     0.001 C 
ATOM     12  C   UNL A   1      34.071  22.590  23.842  1.00  0.00     0.017 C 
BRANCH   8  13
ATOM     13  C   UNL A   1      33.073  26.178  26.058  1.00  0.00     0.000 C 
ATOM     14  C   UNL A   1      33.583  27.377  25.270  1.00  0.00     0.004 C 
ENDBRANCH   8  13
BRANCH   7  15
ATOM     15  C   UNL A   1      32.264  21.286  25.170  1.00  0.00     0.052 C 
BRANCH  15  16
ATOM     16  C   UNL A   1      32.515  19.868  24.718  1.00  0.00    -0.043 A 
ATOM     17  C   UNL A   1      32.397  19.527  23.361  1.00  0.00     0.004 A 
ATOM     18  C   UNL A   1      32.847  18.863  25.638  1.00  0.00     0.049 A 
ATOM     19  C   UNL A   1      32.549  18.201  22.943  1.00  0.00     0.004 A 
ATOM     20  C   UNL A   1      32.976  17.542  25.214  1.00  0.00     0.115 A 
ATOM     21  C   UNL A   1      32.822  17.201  23.873  1.00  0.00     0.046 A 
BRANCH  20  22
ATOM     22  O   UNL A   1      33.225  16.591  26.160  1.00  0.00    -0.508 OA
ATOM     23  H   UNL A   1      34.107  16.402  26.413  1.00  0.00     0.293 HD
ENDBRANCH  20  22
ENDBRANCH  15  16
ENDBRANCH   7  15
ENDBRANCH   4   7
ENDBRANCH   2   3
ENDBRANCH   1   2
BRANCH   1  24
ATOM     24  C   UNL A   1      38.278  21.445  25.297  1.00  0.00     0.023 C 
BRANCH  24  25
ATOM     25  C   UNL A   1      39.310  21.114  26.374  1.00  0.00     0.116 C 
BRANCH  25  26
ATOM     26  N   UNL A   1      40.097  19.917  26.109  1.00  0.00    -0.352 N 
ATOM     27  C   UNL A   1      41.468  19.787  26.097  1.00  0.00     0.251 C 
ATOM     28  H   UNL A   1      39.586  19.099  25.915  1.00  0.00     0.163 HD
ATOM     29  O   UNL A   1      41.987  18.704  25.844  1.00  0.00    -0.269 OA
BRANCH  27  30
ATOM     30  C   UNL A   1      42.296  20.985  26.348  1.00  0.00     0.039 A 
ATOM     31  C   UNL A   1      42.627  21.817  25.275  1.00  0.00     0.014 A 
ATOM     32  C   UNL A   1      42.657  21.331  27.653  1.00  0.00     0.014 A 
ATOM     33  C   UNL A   1      43.240  23.046  25.525  1.00  0.00     0.010 A 
ATOM     34  C   UNL A   1      43.211  22.582  27.903  1.00  0.00     0.010 A 
ATOM     35  C   UNL A   1      43.492  23.460  26.843  1.00  0.00    -0.014 A 
BRANCH  35  36
ATOM     36  C   UNL A   1      44.016  24.818  27.141  1.00  0.00     0.031 A 
ATOM     37  C   UNL A   1      43.097  25.887  27.660  1.00  0.00     0.074 A 
ATOM     38  C   UNL A   1      45.301  25.112  26.859  1.00  0.00     0.049 A 
ATOM     39  N   UNL A   1      43.346  27.149  27.902  1.00  0.00    -0.248 NA
ATOM     40  C   UNL A   1      41.706  25.486  27.906  1.00  0.00     0.031 C 
ATOM     41  C   UNL A   1      46.281  24.175  26.302  1.00  0.00     0.029 A 
ATOM     42  N   UNL A   1      46.001  26.285  26.989  1.00  0.00    -0.354 N 
ATOM     43  C   UNL A   1      42.138  27.698  28.319  1.00  0.00     0.074 A 
ATOM     44  C   UNL A   1      41.149  26.643  28.229  1.00  0.00     0.031 C 
ATOM     45  C   UNL A   1      47.459  24.804  26.162  1.00  0.00     0.029 A 
ATOM     46  C   UNL A   1      47.311  26.196  26.580  1.00  0.00     0.049 A 
ATOM     47  H   UNL A   1      45.603  27.113  27.342  1.00  0.00     0.167 HD
ATOM     48  C   UNL A   1      41.883  28.956  28.759  1.00  0.00     0.034 A 
ATOM     49  C   UNL A   1      48.281  27.129  26.539  1.00  0.00     0.034 A 
ATOM     50  C   UNL A   1      42.880  29.996  28.843  1.00  0.00     0.049 A 
ATOM     51  C   UNL A   1      47.973  28.527  27.005  1.00  0.00     0.074 A 
ATOM     52  C   UNL A   1      42.748  31.285  29.330  1.00  0.00     0.029 A 
ATOM     53  N   UNL A   1      44.197  29.870  28.416  1.00  0.00    -0.354 N 
ATOM     54  N   UNL A   1      46.841  29.018  27.450  1.00  0.00    -0.248 NA
ATOM     55  C   UNL A   1      49.079  29.492  26.969  1.00  0.00     0.031 C 
ATOM     56  C   UNL A   1      43.963  31.955  29.141  1.00  0.00     0.029 A 
ATOM     57  C   UNL A   1      44.877  31.066  28.599  1.00  0.00     0.049 A 
ATOM     58  H   UNL A   1      44.591  29.051  28.038  1.00  0.00     0.167 HD
ATOM     59  C   UNL A   1      47.105  30.346  27.773  1.00  0.00     0.074 A 
ATOM     60  C   UNL A   1      48.506  30.573  27.477  1.00  0.00     0.031 C 
ATOM     61  C   UNL A   1      46.268  31.288  28.278  1.00  0.00     0.034 A 
BRANCH  48  62
ATOM     62  C   UNL A   1      40.457  29.266  29.150  1.00  0.00     0.023 A 
ATOM     63  C   UNL A   1      40.045  29.254  30.496  1.00  0.00     0.031 A 
ATOM     64  C   UNL A   1      39.481  29.507  28.168  1.00  0.00     0.131 A 
ATOM     65  C   UNL A   1      38.685  29.367  30.814  1.00  0.00     0.055 A 
ATOM     66  C   UNL A   1      38.139  29.714  28.500  1.00  0.00     0.041 A 
ATOM     67  F   UNL A   1      39.806  29.515  26.866  1.00  0.00    -0.206 F 
ATOM     68  C   UNL A   1      37.730  29.622  29.827  1.00  0.00     0.022 A 
BRANCH  65  69
ATOM     69  S   UNL A   1      38.163  28.989  32.510  1.00  0.00     0.124 S 
ATOM     70  O   UNL A   1      38.550  27.585  32.631  1.00  0.00    -0.237 OA
ATOM     71  O   UNL A   1      38.941  29.937  33.298  1.00  0.00    -0.237 OA
ATOM     72  O   UNL A   1      36.722  29.229  32.486  1.00  0.00    -0.744 OA
ENDBRANCH  65  69
ENDBRANCH  48  62
BRANCH  49  73
ATOM     73  C   UNL A   1      49.639  26.773  26.046  1.00  0.00     0.023 A 
ATOM     74  C   UNL A   1      50.049  27.131  24.752  1.00  0.00     0.031 A 
ATOM     75  C   UNL A   1      50.541  26.061  26.855  1.00  0.00     0.131 A 
ATOM     76  C   UNL A   1      51.318  26.748  24.292  1.00  0.00     0.055 A 
ATOM     77  C   UNL A   1      51.816  25.716  26.406  1.00  0.00     0.041 A 
ATOM     78  F   UNL A   1      50.198  25.708  28.105  1.00  0.00    -0.206 F 
ATOM     79  C   UNL A   1      52.208  26.051  25.113  1.00  0.00     0.022 A 
BRANCH  76  80
ATOM     80  S   UNL A   1      51.776  27.141  22.582  1.00  0.00     0.124 S 
ATOM     81  O   UNL A   1      50.509  26.954  21.883  1.00  0.00    -0.237 OA
ATOM     82  O   UNL A   1      52.246  28.518  22.702  1.00  0.00    -0.237 OA
ATOM     83  O   UNL A   1      52.811  26.158  22.272  1.00  0.00    -0.744 OA
ENDBRANCH  76  80
ENDBRANCH  49  73
BRANCH  61  84
ATOM     84  C   UNL A   1      46.866  32.640  28.576  1.00  0.00     0.023 A 
ATOM     85  C   UNL A   1      46.940  33.648  27.599  1.00  0.00     0.031 A 
ATOM     86  C   UNL A   1      47.388  32.915  29.853  1.00  0.00     0.131 A 
ATOM     87  C   UNL A   1      47.568  34.867  27.899  1.00  0.00     0.055 A 
ATOM     88  C   UNL A   1      47.964  34.147  30.161  1.00  0.00     0.041 A 
ATOM     89  F   UNL A   1      47.346  31.985  30.821  1.00  0.00    -0.206 F 
ATOM     90  C   UNL A   1      48.067  35.128  29.178  1.00  0.00     0.022 A 
BRANCH  87  91
ATOM     91  S   UNL A   1      47.798  36.082  26.572  1.00  0.00     0.124 S 
ATOM     92  O   UNL A   1      46.516  36.780  26.577  1.00  0.00    -0.237 OA
ATOM     93  O   UNL A   1      48.944  36.850  27.045  1.00  0.00    -0.237 OA
ATOM     94  O   UNL A   1      48.049  35.257  25.392  1.00  0.00    -0.744 OA
ENDBRANCH  87  91
ENDBRANCH  61  84
ENDBRANCH  35  36
ENDBRANCH  27  30
ENDBRANCH  25  26
ENDBRANCH  24  25
ENDBRANCH   1  24
TORSDOF 18
ENDMDL
