MODEL 1
REMARK VINA RESULT:     -12.8      0.000      0.000
REMARK SMILES CS(=O)(=O)c1ccc(/C=C(/C(=O)NCCCCNC(=O)c2ccc(-c3c4nc(c(-c5cc(S(=O)(=O)[O-])ccc5F)c5ccc([nH]5)c(-c5cc(S(=O)(=O)[O-])ccc5F)c5nc(c(-c6cc(S(=O)(=O)[O-])ccc6F)c6ccc3[nH]6)C=C5)C=C4)cc2)c2ccc(F)cc2)cc1
REMARK SMILES IDX 16 1 15 2 14 3 13 4 11 5 12 6 10 8 9 9 8 10 5 11 6 12 92 13
REMARK SMILES IDX 7 14 91 15 2 16 1 17 3 18 4 19 84 20 85 21 90 22 86 23 89 24
REMARK SMILES IDX 87 25 88 26 17 27 18 28 19 29 20 31 21 32 22 33 83 34 23 35
REMARK SMILES IDX 82 36 24 37 25 38 26 39 76 40 27 41 81 42 75 43 77 44 28 45
REMARK SMILES IDX 80 46 74 47 73 48 29 50 61 51 41 52 60 53 42 54 45 55 59 56
REMARK SMILES IDX 78 57 43 58 44 59 58 61 79 62 46 63 30 64 31 65 39 66 32 67
REMARK SMILES IDX 38 68 40 69 37 70 33 71 34 72 35 73 36 74 62 75 63 76 71 77
REMARK SMILES IDX 64 78 70 79 72 80 69 81 65 82 66 83 67 84 68 85 47 86 48 87
REMARK SMILES IDX 56 88 49 89 55 90 57 91 54 92 50 93 51 94 52 95 53 96
REMARK H PARENT 13 7 18 30 77 49 45 60
REMARK Flexibility Score: inf
ROOT
ATOM      1  C   UNL A   1      36.029  22.028  24.143  1.00  0.00     0.023 C 
ENDROOT
BRANCH   1   2
ATOM      2  C   UNL A   1      35.310  23.312  23.709  1.00  0.00     0.023 C 
BRANCH   2   3
ATOM      3  C   UNL A   1      35.028  24.292  24.850  1.00  0.00     0.116 C 
BRANCH   3   4
ATOM      4  N   UNL A   1      33.974  23.778  25.704  1.00  0.00    -0.352 N 
ATOM      5  C   UNL A   1      32.759  24.251  26.088  1.00  0.00     0.251 C 
ATOM      6  O   UNL A   1      32.127  23.548  26.882  1.00  0.00    -0.269 OA
ATOM      7  H   UNL A   1      34.184  22.896  26.088  1.00  0.00     0.163 HD
BRANCH   5   8
ATOM      8  C   UNL A   1      32.139  25.515  25.529  1.00  0.00     0.047 C 
ATOM      9  C   UNL A   1      31.447  25.514  24.367  1.00  0.00     0.022 C 
BRANCH   9  10
ATOM     10  C   UNL A   1      30.668  26.603  23.742  1.00  0.00    -0.025 A 
ATOM     11  C   UNL A   1      29.070  28.708  22.791  1.00  0.00     0.067 A 
ATOM     12  C   UNL A   1      30.440  28.696  22.524  1.00  0.00     0.021 A 
ATOM     13  C   UNL A   1      28.477  27.654  23.485  1.00  0.00     0.021 A 
ATOM     14  C   UNL A   1      31.230  27.634  22.982  1.00  0.00     0.009 A 
ATOM     15  C   UNL A   1      29.277  26.606  23.953  1.00  0.00     0.009 A 
BRANCH  11  16
ATOM     16  S   UNL A   1      28.098  30.098  22.259  1.00  0.00     0.175 S 
ATOM     17  C   UNL A   1      29.028  31.540  22.702  1.00  0.00     0.163 C 
ATOM     18  O   UNL A   1      26.890  30.114  23.069  1.00  0.00    -0.224 OA
ATOM     19  O   UNL A   1      28.028  30.030  20.815  1.00  0.00    -0.224 OA
ENDBRANCH  11  16
ENDBRANCH   9  10
BRANCH   8  20
ATOM     20  C   UNL A   1      32.470  26.786  26.223  1.00  0.00    -0.013 A 
ATOM     21  C   UNL A   1      33.725  27.378  25.978  1.00  0.00     0.012 A 
ATOM     22  C   UNL A   1      31.557  27.454  27.051  1.00  0.00     0.012 A 
ATOM     23  C   UNL A   1      34.053  28.616  26.527  1.00  0.00     0.040 A 
ATOM     24  C   UNL A   1      31.881  28.704  27.587  1.00  0.00     0.040 A 
ATOM     25  C   UNL A   1      33.122  29.274  27.317  1.00  0.00     0.123 A 
ATOM     26  F   UNL A   1      33.420  30.480  27.818  1.00  0.00    -0.207 F 
ENDBRANCH   8  20
ENDBRANCH   5   8
ENDBRANCH   3   4
ENDBRANCH   2   3
ENDBRANCH   1   2
BRANCH   1  27
ATOM     27  C   UNL A   1      36.908  22.164  25.383  1.00  0.00     0.116 C 
BRANCH  27  28
ATOM     28  N   UNL A   1      37.845  21.060  25.537  1.00  0.00    -0.352 N 
ATOM     29  C   UNL A   1      39.123  21.086  26.042  1.00  0.00     0.251 C 
ATOM     30  H   UNL A   1      37.519  20.181  25.241  1.00  0.00     0.163 HD
ATOM     31  O   UNL A   1      39.824  20.081  25.986  1.00  0.00    -0.269 OA
BRANCH  29  32
ATOM     32  C   UNL A   1      39.648  22.345  26.610  1.00  0.00     0.039 A 
ATOM     33  C   UNL A   1      40.640  22.282  27.591  1.00  0.00     0.014 A 
ATOM     34  C   UNL A   1      39.201  23.579  26.131  1.00  0.00     0.014 A 
ATOM     35  C   UNL A   1      41.244  23.460  28.035  1.00  0.00     0.010 A 
ATOM     36  C   UNL A   1      39.846  24.745  26.530  1.00  0.00     0.010 A 
ATOM     37  C   UNL A   1      40.885  24.696  27.474  1.00  0.00    -0.014 A 
BRANCH  37  38
ATOM     38  C   UNL A   1      41.596  25.949  27.836  1.00  0.00     0.031 A 
ATOM     39  C   UNL A   1      40.883  27.019  28.614  1.00  0.00     0.074 A 
ATOM     40  C   UNL A   1      42.852  26.153  27.392  1.00  0.00     0.049 A 
ATOM     41  N   UNL A   1      41.284  28.226  28.920  1.00  0.00    -0.248 NA
ATOM     42  C   UNL A   1      39.528  26.696  29.085  1.00  0.00     0.031 C 
ATOM     43  C   UNL A   1      43.637  25.199  26.605  1.00  0.00     0.029 A 
ATOM     44  N   UNL A   1      43.687  27.237  27.523  1.00  0.00    -0.354 N 
ATOM     45  C   UNL A   1      40.229  28.812  29.611  1.00  0.00     0.074 A 
ATOM     46  C   UNL A   1      39.151  27.845  29.626  1.00  0.00     0.031 C 
ATOM     47  C   UNL A   1      44.841  25.731  26.338  1.00  0.00     0.029 A 
ATOM     48  C   UNL A   1      44.897  27.083  26.887  1.00  0.00     0.049 A 
ATOM     49  H   UNL A   1      43.442  28.046  28.026  1.00  0.00     0.167 HD
ATOM     50  C   UNL A   1      40.174  30.033  30.196  1.00  0.00     0.034 A 
ATOM     51  C   UNL A   1      45.927  27.942  26.740  1.00  0.00     0.034 A 
ATOM     52  C   UNL A   1      41.261  30.981  30.179  1.00  0.00     0.049 A 
ATOM     53  C   UNL A   1      45.819  29.317  27.351  1.00  0.00     0.074 A 
ATOM     54  C   UNL A   1      41.332  32.223  30.784  1.00  0.00     0.029 A 
ATOM     55  N   UNL A   1      42.465  30.797  29.510  1.00  0.00    -0.354 N 
ATOM     56  N   UNL A   1      44.829  29.838  28.040  1.00  0.00    -0.248 NA
ATOM     57  C   UNL A   1      46.962  30.218  27.165  1.00  0.00     0.031 C 
ATOM     58  C   UNL A   1      42.548  32.817  30.428  1.00  0.00     0.029 A 
ATOM     59  C   UNL A   1      43.269  31.917  29.659  1.00  0.00     0.049 A 
ATOM     60  H   UNL A   1      42.712  29.989  29.004  1.00  0.00     0.167 HD
ATOM     61  C   UNL A   1      45.248  31.118  28.393  1.00  0.00     0.074 A 
ATOM     62  C   UNL A   1      46.581  31.284  27.853  1.00  0.00     0.031 C 
ATOM     63  C   UNL A   1      44.592  32.071  29.103  1.00  0.00     0.034 A 
BRANCH  50  64
ATOM     64  C   UNL A   1      38.887  30.416  30.886  1.00  0.00     0.023 A 
ATOM     65  C   UNL A   1      37.901  31.177  30.234  1.00  0.00     0.031 A 
ATOM     66  C   UNL A   1      38.650  30.035  32.219  1.00  0.00     0.131 A 
ATOM     67  C   UNL A   1      36.760  31.593  30.934  1.00  0.00     0.055 A 
ATOM     68  C   UNL A   1      37.473  30.385  32.886  1.00  0.00     0.041 A 
ATOM     69  F   UNL A   1      39.563  29.326  32.900  1.00  0.00    -0.206 F 
ATOM     70  C   UNL A   1      36.527  31.182  32.248  1.00  0.00     0.022 A 
BRANCH  67  71
ATOM     71  S   UNL A   1      35.654  32.796  30.147  1.00  0.00     0.124 S 
ATOM     72  O   UNL A   1      35.717  32.382  28.748  1.00  0.00    -0.237 OA
ATOM     73  O   UNL A   1      34.389  32.556  30.829  1.00  0.00    -0.237 OA
ATOM     74  O   UNL A   1      36.286  34.083  30.437  1.00  0.00    -0.744 OA
ENDBRANCH  67  71
ENDBRANCH  50  64
BRANCH  51  75
ATOM     75  C   UNL A   1      47.139  27.550  25.965  1.00  0.00     0.023 A 
ATOM     76  C   UNL A   1      47.256  27.868  24.603  1.00  0.00     0.031 A 
ATOM     77  C   UNL A   1      48.173  26.805  26.559  1.00  0.00     0.131 A 
ATOM     78  C   UNL A   1      48.356  27.401  23.867  1.00  0.00     0.055 A 
ATOM     79  C   UNL A   1      49.293  26.389  25.836  1.00  0.00     0.041 A 
ATOM     80  F   UNL A   1      48.113  26.475  27.859  1.00  0.00    -0.206 F 
ATOM     81  C   UNL A   1      49.382  26.675  24.477  1.00  0.00     0.022 A 
BRANCH  78  82
ATOM     82  S   UNL A   1      48.380  27.676  22.074  1.00  0.00     0.124 S 
ATOM     83  O   UNL A   1      47.067  28.268  21.847  1.00  0.00    -0.237 OA
ATOM     84  O   UNL A   1      49.523  28.571  21.922  1.00  0.00    -0.237 OA
ATOM     85  O   UNL A   1      48.564  26.334  21.526  1.00  0.00    -0.744 OA
ENDBRANCH  78  82
ENDBRANCH  51  75
BRANCH  63  86
ATOM     86  C   UNL A   1      45.329  33.360  29.367  1.00  0.00     0.023 A 
ATOM     87  C   UNL A   1      45.217  34.463  28.504  1.00  0.00     0.031 A 
ATOM     88  C   UNL A   1      46.146  33.486  30.505  1.00  0.00     0.131 A 
ATOM     89  C   UNL A   1      45.947  35.632  28.769  1.00  0.00     0.055 A 
ATOM     90  C   UNL A   1      46.826  34.669  30.793  1.00  0.00     0.041 A 
ATOM     91  F   UNL A   1      46.288  32.460  31.361  1.00  0.00    -0.206 F 
ATOM     92  C   UNL A   1      46.736  35.747  29.918  1.00  0.00     0.022 A 
BRANCH  89  93
ATOM     93  S   UNL A   1      45.902  36.982  27.559  1.00  0.00     0.124 S 
ATOM     94  O   UNL A   1      47.014  36.638  26.680  1.00  0.00    -0.237 OA
ATOM     95  O   UNL A   1      44.568  36.843  26.984  1.00  0.00    -0.237 OA
ATOM     96  O   UNL A   1      46.101  38.179  28.374  1.00  0.00    -0.744 OA
ENDBRANCH  89  93
ENDBRANCH  63  86
ENDBRANCH  37  38
ENDBRANCH  29  32
ENDBRANCH  27  28
ENDBRANCH   1  27
TORSDOF 17
ENDMDL
MODEL 2
REMARK VINA RESULT:     -12.8      2.638      7.671
REMARK SMILES CS(=O)(=O)c1ccc(/C=C(/C(=O)NCCCCNC(=O)c2ccc(-c3c4nc(c(-c5cc(S(=O)(=O)[O-])ccc5F)c5ccc([nH]5)c(-c5cc(S(=O)(=O)[O-])ccc5F)c5nc(c(-c6cc(S(=O)(=O)[O-])ccc6F)c6ccc3[nH]6)C=C5)C=C4)cc2)c2ccc(F)cc2)cc1
REMARK SMILES IDX 16 1 15 2 14 3 13 4 11 5 12 6 10 8 9 9 8 10 5 11 6 12 92 13
REMARK SMILES IDX 7 14 91 15 2 16 1 17 3 18 4 19 84 20 85 21 90 22 86 23 89 24
REMARK SMILES IDX 87 25 88 26 17 27 18 28 19 29 20 31 21 32 22 33 83 34 23 35
REMARK SMILES IDX 82 36 24 37 25 38 26 39 76 40 27 41 81 42 75 43 77 44 28 45
REMARK SMILES IDX 80 46 74 47 73 48 29 50 61 51 41 52 60 53 42 54 45 55 59 56
REMARK SMILES IDX 78 57 43 58 44 59 58 61 79 62 46 63 30 64 31 65 39 66 32 67
REMARK SMILES IDX 38 68 40 69 37 70 33 71 34 72 35 73 36 74 62 75 63 76 71 77
REMARK SMILES IDX 64 78 70 79 72 80 69 81 65 82 66 83 67 84 68 85 47 86 48 87
REMARK SMILES IDX 56 88 49 89 55 90 57 91 54 92 50 93 51 94 52 95 53 96
REMARK H PARENT 13 7 18 30 77 49 45 60
REMARK Flexibility Score: inf
ROOT
ATOM      1  C   UNL A   1      35.553  23.887  24.683  1.00  0.00     0.023 C 
ENDROOT
BRANCH   1   2
ATOM      2  C   UNL A   1      34.728  22.598  24.581  1.00  0.00     0.023 C 
BRANCH   2   3
ATOM      3  C   UNL A   1      33.224  22.826  24.412  1.00  0.00     0.116 C 
BRANCH   3   4
ATOM      4  N   UNL A   1      32.579  22.901  25.709  1.00  0.00    -0.352 N 
ATOM      5  C   UNL A   1      31.879  23.869  26.358  1.00  0.00     0.251 C 
ATOM      6  O   UNL A   1      31.503  23.596  27.501  1.00  0.00    -0.269 OA
ATOM      7  H   UNL A   1      32.668  22.072  26.232  1.00  0.00     0.163 HD
BRANCH   5   8
ATOM      8  C   UNL A   1      31.482  25.184  25.719  1.00  0.00     0.047 C 
ATOM      9  C   UNL A   1      30.696  25.232  24.620  1.00  0.00     0.022 C 
BRANCH   9  10
ATOM     10  C   UNL A   1      30.101  26.406  23.947  1.00  0.00    -0.025 A 
ATOM     11  C   UNL A   1      28.846  28.689  22.896  1.00  0.00     0.067 A 
ATOM     12  C   UNL A   1      30.217  28.496  22.709  1.00  0.00     0.021 A 
ATOM     13  C   UNL A   1      28.083  27.727  23.558  1.00  0.00     0.021 A 
ATOM     14  C   UNL A   1      30.835  27.348  23.217  1.00  0.00     0.009 A 
ATOM     15  C   UNL A   1      28.713  26.590  24.075  1.00  0.00     0.009 A 
BRANCH  11  16
ATOM     16  S   UNL A   1      28.095  30.186  22.303  1.00  0.00     0.175 S 
ATOM     17  C   UNL A   1      29.165  31.503  22.814  1.00  0.00     0.163 C 
ATOM     18  O   UNL A   1      26.846  30.357  23.027  1.00  0.00    -0.224 OA
ATOM     19  O   UNL A   1      28.117  30.120  20.858  1.00  0.00    -0.224 OA
ENDBRANCH  11  16
ENDBRANCH   9  10
BRANCH   8  20
ATOM     20  C   UNL A   1      32.134  26.409  26.249  1.00  0.00    -0.013 A 
ATOM     21  C   UNL A   1      33.463  26.682  25.869  1.00  0.00     0.012 A 
ATOM     22  C   UNL A   1      31.456  27.338  27.051  1.00  0.00     0.012 A 
ATOM     23  C   UNL A   1      34.093  27.861  26.260  1.00  0.00     0.040 A 
ATOM     24  C   UNL A   1      32.084  28.530  27.428  1.00  0.00     0.040 A 
ATOM     25  C   UNL A   1      33.392  28.781  27.025  1.00  0.00     0.123 A 
ATOM     26  F   UNL A   1      33.982  29.932  27.374  1.00  0.00    -0.207 F 
ENDBRANCH   8  20
ENDBRANCH   5   8
ENDBRANCH   3   4
ENDBRANCH   2   3
ENDBRANCH   1   2
BRANCH   1  27
ATOM     27  C   UNL A   1      36.506  23.956  25.873  1.00  0.00     0.116 C 
BRANCH  27  28
ATOM     28  N   UNL A   1      37.385  22.798  25.964  1.00  0.00    -0.352 N 
ATOM     29  C   UNL A   1      38.707  22.753  26.336  1.00  0.00     0.251 C 
ATOM     30  H   UNL A   1      36.977  21.935  25.727  1.00  0.00     0.163 HD
ATOM     31  O   UNL A   1      39.335  21.705  26.238  1.00  0.00    -0.269 OA
BRANCH  29  32
ATOM     32  C   UNL A   1      39.364  23.988  26.811  1.00  0.00     0.039 A 
ATOM     33  C   UNL A   1      39.990  24.822  25.881  1.00  0.00     0.014 A 
ATOM     34  C   UNL A   1      39.311  24.345  28.161  1.00  0.00     0.014 A 
ATOM     35  C   UNL A   1      40.492  26.058  26.294  1.00  0.00     0.010 A 
ATOM     36  C   UNL A   1      39.757  25.602  28.558  1.00  0.00     0.010 A 
ATOM     37  C   UNL A   1      40.337  26.477  27.625  1.00  0.00    -0.014 A 
BRANCH  37  38
ATOM     38  C   UNL A   1      40.750  27.835  28.064  1.00  0.00     0.031 A 
ATOM     39  C   UNL A   1      42.206  28.206  28.089  1.00  0.00     0.074 A 
ATOM     40  C   UNL A   1      39.820  28.699  28.518  1.00  0.00     0.049 A 
ATOM     41  N   UNL A   1      42.776  29.289  28.553  1.00  0.00    -0.248 NA
ATOM     42  C   UNL A   1      43.146  27.215  27.546  1.00  0.00     0.031 C 
ATOM     43  C   UNL A   1      38.378  28.440  28.567  1.00  0.00     0.029 A 
ATOM     44  N   UNL A   1      39.946  29.963  29.039  1.00  0.00    -0.354 N 
ATOM     45  C   UNL A   1      44.142  29.107  28.367  1.00  0.00     0.074 A 
ATOM     46  C   UNL A   1      44.315  27.784  27.801  1.00  0.00     0.031 C 
ATOM     47  C   UNL A   1      37.755  29.517  29.074  1.00  0.00     0.029 A 
ATOM     48  C   UNL A   1      38.751  30.520  29.435  1.00  0.00     0.049 A 
ATOM     49  H   UNL A   1      40.809  30.428  29.121  1.00  0.00     0.167 HD
ATOM     50  C   UNL A   1      45.155  29.970  28.623  1.00  0.00     0.034 A 
ATOM     51  C   UNL A   1      38.490  31.695  30.043  1.00  0.00     0.034 A 
ATOM     52  C   UNL A   1      44.964  31.287  29.179  1.00  0.00     0.049 A 
ATOM     53  C   UNL A   1      39.640  32.616  30.372  1.00  0.00     0.074 A 
ATOM     54  C   UNL A   1      45.913  32.264  29.429  1.00  0.00     0.029 A 
ATOM     55  N   UNL A   1      43.742  31.811  29.583  1.00  0.00    -0.354 N 
ATOM     56  N   UNL A   1      40.923  32.445  30.148  1.00  0.00    -0.248 NA
ATOM     57  C   UNL A   1      39.308  33.883  31.034  1.00  0.00     0.031 C 
ATOM     58  C   UNL A   1      45.276  33.347  30.044  1.00  0.00     0.029 A 
ATOM     59  C   UNL A   1      43.918  33.079  30.113  1.00  0.00     0.049 A 
ATOM     60  H   UNL A   1      42.877  31.347  29.505  1.00  0.00     0.167 HD
ATOM     61  C   UNL A   1      41.545  33.599  30.616  1.00  0.00     0.074 A 
ATOM     62  C   UNL A   1      40.497  34.461  31.122  1.00  0.00     0.031 C 
ATOM     63  C   UNL A   1      42.863  33.921  30.625  1.00  0.00     0.034 A 
BRANCH  50  64
ATOM     64  C   UNL A   1      46.559  29.505  28.322  1.00  0.00     0.023 A 
ATOM     65  C   UNL A   1      47.323  28.809  29.275  1.00  0.00     0.031 A 
ATOM     66  C   UNL A   1      47.150  29.777  27.076  1.00  0.00     0.131 A 
ATOM     67  C   UNL A   1      48.656  28.473  28.995  1.00  0.00     0.055 A 
ATOM     68  C   UNL A   1      48.451  29.369  26.774  1.00  0.00     0.041 A 
ATOM     69  F   UNL A   1      46.477  30.456  26.133  1.00  0.00    -0.206 F 
ATOM     70  C   UNL A   1      49.217  28.726  27.742  1.00  0.00     0.022 A 
BRANCH  67  71
ATOM     71  S   UNL A   1      49.686  27.829  30.342  1.00  0.00     0.124 S 
ATOM     72  O   UNL A   1      49.387  26.400  30.282  1.00  0.00    -0.237 OA
ATOM     73  O   UNL A   1      51.028  28.219  29.928  1.00  0.00    -0.237 OA
ATOM     74  O   UNL A   1      49.172  28.516  31.525  1.00  0.00    -0.744 OA
ENDBRANCH  67  71
ENDBRANCH  50  64
BRANCH  51  75
ATOM     75  C   UNL A   1      37.093  32.068  30.409  1.00  0.00     0.023 A 
ATOM     76  C   UNL A   1      36.240  32.670  29.470  1.00  0.00     0.031 A 
ATOM     77  C   UNL A   1      36.607  31.878  31.714  1.00  0.00     0.131 A 
ATOM     78  C   UNL A   1      34.965  33.106  29.862  1.00  0.00     0.055 A 
ATOM     79  C   UNL A   1      35.317  32.265  32.086  1.00  0.00     0.041 A 
ATOM     80  F   UNL A   1      37.381  31.306  32.651  1.00  0.00    -0.206 F 
ATOM     81  C   UNL A   1      34.493  32.896  31.160  1.00  0.00     0.022 A 
BRANCH  78  82
ATOM     82  S   UNL A   1      33.964  34.041  28.672  1.00  0.00     0.124 S 
ATOM     83  O   UNL A   1      33.561  32.996  27.738  1.00  0.00    -0.237 OA
ATOM     84  O   UNL A   1      32.910  34.582  29.524  1.00  0.00    -0.237 OA
ATOM     85  O   UNL A   1      34.901  35.028  28.140  1.00  0.00    -0.744 OA
ENDBRANCH  78  82
ENDBRANCH  51  75
BRANCH  63  86
ATOM     86  C   UNL A   1      43.235  35.279  31.164  1.00  0.00     0.023 A 
ATOM     87  C   UNL A   1      43.427  36.383  30.315  1.00  0.00     0.031 A 
ATOM     88  C   UNL A   1      43.391  35.471  32.548  1.00  0.00     0.131 A 
ATOM     89  C   UNL A   1      43.806  37.621  30.855  1.00  0.00     0.055 A 
ATOM     90  C   UNL A   1      43.714  36.717  33.085  1.00  0.00     0.041 A 
ATOM     91  F   UNL A   1      43.220  34.449  33.403  1.00  0.00    -0.206 F 
ATOM     92  C   UNL A   1      43.932  37.799  32.236  1.00  0.00     0.022 A 
BRANCH  89  93
ATOM     93  S   UNL A   1      44.193  38.985  29.725  1.00  0.00     0.124 S 
ATOM     94  O   UNL A   1      45.610  39.206  29.992  1.00  0.00    -0.237 OA
ATOM     95  O   UNL A   1      43.872  38.412  28.421  1.00  0.00    -0.237 OA
ATOM     96  O   UNL A   1      43.303  40.057  30.164  1.00  0.00    -0.744 OA
ENDBRANCH  89  93
ENDBRANCH  63  86
ENDBRANCH  37  38
ENDBRANCH  29  32
ENDBRANCH  27  28
ENDBRANCH   1  27
TORSDOF 17
ENDMDL
MODEL 3
REMARK VINA RESULT:     -12.6      5.186      8.390
REMARK SMILES CS(=O)(=O)c1ccc(/C=C(/C(=O)NCCCCNC(=O)c2ccc(-c3c4nc(c(-c5cc(S(=O)(=O)[O-])ccc5F)c5ccc([nH]5)c(-c5cc(S(=O)(=O)[O-])ccc5F)c5nc(c(-c6cc(S(=O)(=O)[O-])ccc6F)c6ccc3[nH]6)C=C5)C=C4)cc2)c2ccc(F)cc2)cc1
REMARK SMILES IDX 16 1 15 2 14 3 13 4 11 5 12 6 10 8 9 9 8 10 5 11 6 12 92 13
REMARK SMILES IDX 7 14 91 15 2 16 1 17 3 18 4 19 84 20 85 21 90 22 86 23 89 24
REMARK SMILES IDX 87 25 88 26 17 27 18 28 19 29 20 31 21 32 22 33 83 34 23 35
REMARK SMILES IDX 82 36 24 37 25 38 26 39 76 40 27 41 81 42 75 43 77 44 28 45
REMARK SMILES IDX 80 46 74 47 73 48 29 50 61 51 41 52 60 53 42 54 45 55 59 56
REMARK SMILES IDX 78 57 43 58 44 59 58 61 79 62 46 63 30 64 31 65 39 66 32 67
REMARK SMILES IDX 38 68 40 69 37 70 33 71 34 72 35 73 36 74 62 75 63 76 71 77
REMARK SMILES IDX 64 78 70 79 72 80 69 81 65 82 66 83 67 84 68 85 47 86 48 87
REMARK SMILES IDX 56 88 49 89 55 90 57 91 54 92 50 93 51 94 52 95 53 96
REMARK H PARENT 13 7 18 30 77 49 45 60
REMARK Flexibility Score: inf
ROOT
ATOM      1  C   UNL A   1      33.114  28.346  26.751  1.00  0.00     0.023 C 
ENDROOT
BRANCH   1   2
ATOM      2  C   UNL A   1      33.434  26.952  26.196  1.00  0.00     0.023 C 
BRANCH   2   3
ATOM      3  C   UNL A   1      32.392  26.412  25.213  1.00  0.00     0.116 C 
BRANCH   3   4
ATOM      4  N   UNL A   1      32.922  26.421  23.863  1.00  0.00    -0.352 N 
ATOM      5  C   UNL A   1      33.576  25.503  23.103  1.00  0.00     0.251 C 
ATOM      6  O   UNL A   1      33.930  25.878  21.982  1.00  0.00    -0.269 OA
ATOM      7  H   UNL A   1      32.779  27.276  23.398  1.00  0.00     0.163 HD
BRANCH   5   8
ATOM      8  C   UNL A   1      33.796  24.067  23.531  1.00  0.00     0.047 C 
ATOM      9  C   UNL A   1      32.786  23.169  23.554  1.00  0.00     0.022 C 
BRANCH   9  10
ATOM     10  C   UNL A   1      32.835  21.713  23.808  1.00  0.00    -0.025 A 
ATOM     11  C   UNL A   1      33.008  18.920  24.040  1.00  0.00     0.067 A 
ATOM     12  C   UNL A   1      33.571  19.739  25.022  1.00  0.00     0.021 A 
ATOM     13  C   UNL A   1      32.313  19.479  22.968  1.00  0.00     0.021 A 
ATOM     14  C   UNL A   1      33.464  21.130  24.913  1.00  0.00     0.009 A 
ATOM     15  C   UNL A   1      32.227  20.871  22.860  1.00  0.00     0.009 A 
BRANCH  11  16
ATOM     16  S   UNL A   1      33.214  17.158  24.162  1.00  0.00     0.175 S 
ATOM     17  C   UNL A   1      34.822  16.903  24.861  1.00  0.00     0.163 C 
ATOM     18  O   UNL A   1      33.260  16.636  22.806  1.00  0.00    -0.224 OA
ATOM     19  O   UNL A   1      32.228  16.687  25.110  1.00  0.00    -0.224 OA
ENDBRANCH  11  16
ENDBRANCH   9  10
BRANCH   8  20
ATOM     20  C   UNL A   1      35.132  23.732  24.089  1.00  0.00    -0.013 A 
ATOM     21  C   UNL A   1      35.450  24.179  25.386  1.00  0.00     0.012 A 
ATOM     22  C   UNL A   1      36.056  22.930  23.404  1.00  0.00     0.012 A 
ATOM     23  C   UNL A   1      36.650  23.817  25.995  1.00  0.00     0.040 A 
ATOM     24  C   UNL A   1      37.252  22.553  24.024  1.00  0.00     0.040 A 
ATOM     25  C   UNL A   1      37.534  22.995  25.312  1.00  0.00     0.123 A 
ATOM     26  F   UNL A   1      38.673  22.616  25.908  1.00  0.00    -0.207 F 
ENDBRANCH   8  20
ENDBRANCH   5   8
ENDBRANCH   3   4
ENDBRANCH   2   3
ENDBRANCH   1   2
BRANCH   1  27
ATOM     27  C   UNL A   1      33.765  29.507  26.005  1.00  0.00     0.116 C 
BRANCH  27  28
ATOM     28  N   UNL A   1      33.667  30.770  26.724  1.00  0.00    -0.352 N 
ATOM     29  C   UNL A   1      34.462  31.240  27.741  1.00  0.00     0.251 C 
ATOM     30  H   UNL A   1      32.935  31.364  26.443  1.00  0.00     0.163 HD
ATOM     31  O   UNL A   1      34.163  32.278  28.323  1.00  0.00    -0.269 OA
BRANCH  29  32
ATOM     32  C   UNL A   1      35.648  30.459  28.149  1.00  0.00     0.039 A 
ATOM     33  C   UNL A   1      36.828  30.588  27.413  1.00  0.00     0.014 A 
ATOM     34  C   UNL A   1      35.607  29.650  29.287  1.00  0.00     0.014 A 
ATOM     35  C   UNL A   1      37.993  29.967  27.867  1.00  0.00     0.010 A 
ATOM     36  C   UNL A   1      36.782  29.082  29.769  1.00  0.00     0.010 A 
ATOM     37  C   UNL A   1      37.990  29.249  29.073  1.00  0.00    -0.014 A 
BRANCH  37  38
ATOM     38  C   UNL A   1      39.240  28.682  29.642  1.00  0.00     0.031 A 
ATOM     39  C   UNL A   1      39.909  29.358  30.805  1.00  0.00     0.074 A 
ATOM     40  C   UNL A   1      39.812  27.611  29.057  1.00  0.00     0.049 A 
ATOM     41  N   UNL A   1      41.063  29.095  31.364  1.00  0.00    -0.248 NA
ATOM     42  C   UNL A   1      39.198  30.499  31.400  1.00  0.00     0.031 C 
ATOM     43  C   UNL A   1      39.269  26.887  27.904  1.00  0.00     0.029 A 
ATOM     44  N   UNL A   1      40.984  26.952  29.338  1.00  0.00    -0.354 N 
ATOM     45  C   UNL A   1      41.222  30.041  32.370  1.00  0.00     0.074 A 
ATOM     46  C   UNL A   1      40.071  30.920  32.303  1.00  0.00     0.031 C 
ATOM     47  C   UNL A   1      40.097  25.877  27.589  1.00  0.00     0.029 A 
ATOM     48  C   UNL A   1      41.254  25.912  28.478  1.00  0.00     0.049 A 
ATOM     49  H   UNL A   1      41.574  27.200  30.085  1.00  0.00     0.167 HD
ATOM     50  C   UNL A   1      42.222  30.154  33.277  1.00  0.00     0.034 A 
ATOM     51  C   UNL A   1      42.323  25.094  28.399  1.00  0.00     0.034 A 
ATOM     52  C   UNL A   1      43.357  29.266  33.334  1.00  0.00     0.049 A 
ATOM     53  C   UNL A   1      43.453  25.276  29.383  1.00  0.00     0.074 A 
ATOM     54  C   UNL A   1      44.400  29.256  34.244  1.00  0.00     0.029 A 
ATOM     55  N   UNL A   1      43.605  28.234  32.437  1.00  0.00    -0.354 N 
ATOM     56  N   UNL A   1      43.565  26.150  30.357  1.00  0.00    -0.248 NA
ATOM     57  C   UNL A   1      44.596  24.364  29.259  1.00  0.00     0.031 C 
ATOM     58  C   UNL A   1      45.309  28.265  33.859  1.00  0.00     0.029 A 
ATOM     59  C   UNL A   1      44.801  27.607  32.750  1.00  0.00     0.049 A 
ATOM     60  H   UNL A   1      43.017  27.986  31.687  1.00  0.00     0.167 HD
ATOM     61  C   UNL A   1      44.779  25.871  30.978  1.00  0.00     0.074 A 
ATOM     62  C   UNL A   1      45.355  24.742  30.277  1.00  0.00     0.031 C 
ATOM     63  C   UNL A   1      45.366  26.489  32.034  1.00  0.00     0.034 A 
BRANCH  50  64
ATOM     64  C   UNL A   1      42.140  31.293  34.266  1.00  0.00     0.023 A 
ATOM     65  C   UNL A   1      42.675  32.559  33.975  1.00  0.00     0.031 A 
ATOM     66  C   UNL A   1      41.538  31.104  35.523  1.00  0.00     0.131 A 
ATOM     67  C   UNL A   1      42.663  33.566  34.951  1.00  0.00     0.055 A 
ATOM     68  C   UNL A   1      41.458  32.136  36.461  1.00  0.00     0.041 A 
ATOM     69  F   UNL A   1      41.028  29.911  35.865  1.00  0.00    -0.206 F 
ATOM     70  C   UNL A   1      42.036  33.371  36.184  1.00  0.00     0.022 A 
BRANCH  67  71
ATOM     71  S   UNL A   1      43.604  35.085  34.638  1.00  0.00     0.124 S 
ATOM     72  O   UNL A   1      42.766  35.750  33.644  1.00  0.00    -0.237 OA
ATOM     73  O   UNL A   1      43.649  35.706  35.956  1.00  0.00    -0.237 OA
ATOM     74  O   UNL A   1      44.886  34.595  34.134  1.00  0.00    -0.744 OA
ENDBRANCH  67  71
ENDBRANCH  50  64
BRANCH  51  75
ATOM     75  C   UNL A   1      42.402  24.046  27.341  1.00  0.00     0.023 A 
ATOM     76  C   UNL A   1      41.809  22.787  27.529  1.00  0.00     0.031 A 
ATOM     77  C   UNL A   1      43.116  24.265  26.150  1.00  0.00     0.131 A 
ATOM     78  C   UNL A   1      41.981  21.781  26.567  1.00  0.00     0.055 A 
ATOM     79  C   UNL A   1      43.239  23.279  25.170  1.00  0.00     0.041 A 
ATOM     80  F   UNL A   1      43.702  25.452  25.918  1.00  0.00    -0.206 F 
ATOM     81  C   UNL A   1      42.682  22.022  25.383  1.00  0.00     0.022 A 
BRANCH  78  82
ATOM     82  S   UNL A   1      41.356  20.117  26.929  1.00  0.00     0.124 S 
ATOM     83  O   UNL A   1      42.544  19.300  26.708  1.00  0.00    -0.237 OA
ATOM     84  O   UNL A   1      40.921  20.254  28.316  1.00  0.00    -0.237 OA
ATOM     85  O   UNL A   1      40.283  19.937  25.955  1.00  0.00    -0.744 OA
ENDBRANCH  78  82
ENDBRANCH  51  75
BRANCH  63  86
ATOM     86  C   UNL A   1      46.679  25.926  32.516  1.00  0.00     0.023 A 
ATOM     87  C   UNL A   1      46.736  24.931  33.507  1.00  0.00     0.031 A 
ATOM     88  C   UNL A   1      47.889  26.388  31.968  1.00  0.00     0.131 A 
ATOM     89  C   UNL A   1      47.981  24.459  33.951  1.00  0.00     0.055 A 
ATOM     90  C   UNL A   1      49.122  25.876  32.374  1.00  0.00     0.041 A 
ATOM     91  F   UNL A   1      47.890  27.338  31.019  1.00  0.00    -0.206 F 
ATOM     92  C   UNL A   1      49.172  24.913  33.377  1.00  0.00     0.022 A 
BRANCH  89  93
ATOM     93  S   UNL A   1      48.027  23.288  35.334  1.00  0.00     0.124 S 
ATOM     94  O   UNL A   1      46.840  23.668  36.093  1.00  0.00    -0.237 OA
ATOM     95  O   UNL A   1      47.964  21.998  34.655  1.00  0.00    -0.237 OA
ATOM     96  O   UNL A   1      49.301  23.580  35.988  1.00  0.00    -0.744 OA
ENDBRANCH  89  93
ENDBRANCH  63  86
ENDBRANCH  37  38
ENDBRANCH  29  32
ENDBRANCH  27  28
ENDBRANCH   1  27
TORSDOF 17
ENDMDL
