MODEL 1
REMARK VINA RESULT:     -12.0      0.000      0.000
REMARK SMILES CCOc1cnc(C(=O)c2[nH]c3cc(Cl)ccc3c2CC(=O)NCCCCNC(=O)c2ccc(-c3c4nc(c(-c5cc(S(=O)(=O)[O-])ccc5F)c5ccc([nH]5)c(-c5cc(S(=O)(=O)[O-])ccc5F)c5nc(c(-c6cc(S(=O)(=O)[O-])ccc6F)c6ccc3[nH]6)C=C5)C=C4)cc2)cc1CC
REMARK SMILES IDX 24 1 23 2 21 3 22 4 20 6 19 7 10 8 11 9 12 10 18 12 13 13
REMARK SMILES IDX 17 14 14 15 16 16 15 17 8 18 9 19 7 20 4 21 5 22 95 23 6 24
REMARK SMILES IDX 94 25 3 26 2 27 1 28 96 29 97 30 25 31 26 32 27 33 28 34
REMARK SMILES IDX 29 35 30 37 31 38 32 39 93 40 33 41 92 42 34 43 35 44 36 45
REMARK SMILES IDX 86 46 37 47 91 48 85 49 87 50 38 51 90 52 84 53 83 54 39 56
REMARK SMILES IDX 71 57 51 58 70 59 52 60 55 61 69 62 88 63 53 64 54 65 68 67
REMARK SMILES IDX 89 68 56 69 40 70 41 71 49 72 42 73 48 74 50 75 47 76 43 77
REMARK SMILES IDX 44 78 45 79 46 80 72 81 73 82 81 83 74 84 80 85 82 86 79 87
REMARK SMILES IDX 75 88 76 89 77 90 78 91 57 92 58 93 66 94 59 95 65 96 67 97
REMARK SMILES IDX 64 98 60 99 61 100 62 101 63 102
REMARK H PARENT 23 5 11 11 28 36 87 55 55 66
REMARK Flexibility Score: inf
ROOT
ATOM      1  C   UNL A   1      36.607  21.550  25.179  1.00  0.00     0.116 C 
ENDROOT
BRANCH   1   2
ATOM      2  N   UNL A   1      36.006  22.322  24.113  1.00  0.00    -0.356 N 
ATOM      3  C   UNL A   1      35.426  23.559  24.160  1.00  0.00     0.224 C 
ATOM      4  O   UNL A   1      35.152  24.110  23.091  1.00  0.00    -0.275 OA
ATOM      5  H   UNL A   1      36.015  21.894  23.225  1.00  0.00     0.163 HD
BRANCH   3   6
ATOM      6  C   UNL A   1      35.249  24.297  25.481  1.00  0.00     0.138 C 
BRANCH   6   7
ATOM      7  C   UNL A   1      33.862  24.813  25.741  1.00  0.00    -0.002 A 
ATOM      8  C   UNL A   1      32.858  24.195  26.479  1.00  0.00     0.093 A 
ATOM      9  N   UNL A   1      31.832  25.106  26.605  1.00  0.00    -0.351 N 
ATOM     10  C   UNL A   1      32.023  26.166  25.754  1.00  0.00     0.048 A 
ATOM     11  H   UNL A   1      31.069  25.011  27.220  1.00  0.00     0.167 HD
ATOM     12  C   UNL A   1      33.289  26.010  25.191  1.00  0.00     0.004 A 
ATOM     13  C   UNL A   1      31.186  27.249  25.458  1.00  0.00     0.047 A 
ATOM     14  C   UNL A   1      33.741  26.987  24.277  1.00  0.00     0.012 A 
ATOM     15  C   UNL A   1      31.659  28.194  24.544  1.00  0.00     0.043 A 
ATOM     16  C   UNL A   1      32.914  28.072  23.959  1.00  0.00     0.021 A 
ATOM     17  Cl  UNL A   1      30.658  29.534  24.129  1.00  0.00    -0.084 Cl
BRANCH   8  18
ATOM     18  C   UNL A   1      32.842  22.870  27.082  1.00  0.00     0.227 C 
ATOM     19  O   UNL A   1      32.822  22.716  28.297  1.00  0.00    -0.285 OA
BRANCH  18  20
ATOM     20  C   UNL A   1      32.858  21.672  26.153  1.00  0.00     0.113 A 
ATOM     21  C   UNL A   1      32.816  19.442  24.544  1.00  0.00     0.140 A 
ATOM     22  C   UNL A   1      33.050  19.381  25.914  1.00  0.00     0.158 A 
ATOM     23  C   UNL A   1      32.545  20.680  23.963  1.00  0.00    -0.002 A 
ATOM     24  N   UNL A   1      33.063  20.462  26.728  1.00  0.00    -0.249 NA
ATOM     25  C   UNL A   1      32.643  21.813  24.780  1.00  0.00     0.040 A 
BRANCH  21  26
ATOM     26  O   UNL A   1      32.772  18.299  23.800  1.00  0.00    -0.492 OA
BRANCH  26  27
ATOM     27  C   UNL A   1      33.903  17.454  24.052  1.00  0.00     0.226 C 
ATOM     28  C   UNL A   1      34.200  16.622  22.815  1.00  0.00     0.049 C 
ENDBRANCH  26  27
ENDBRANCH  21  26
BRANCH  23  29
ATOM     29  C   UNL A   1      32.156  20.834  22.514  1.00  0.00     0.036 C 
ATOM     30  C   UNL A   1      32.329  22.262  22.002  1.00  0.00     0.009 C 
ENDBRANCH  23  29
ENDBRANCH  18  20
ENDBRANCH   8  18
ENDBRANCH   6   7
ENDBRANCH   3   6
ENDBRANCH   1   2
BRANCH   1  31
ATOM     31  C   UNL A   1      36.523  20.042  24.944  1.00  0.00     0.023 C 
BRANCH  31  32
ATOM     32  C   UNL A   1      37.852  19.290  25.020  1.00  0.00     0.023 C 
BRANCH  32  33
ATOM     33  C   UNL A   1      39.054  20.112  25.474  1.00  0.00     0.116 C 
BRANCH  33  34
ATOM     34  N   UNL A   1      40.159  19.301  25.960  1.00  0.00    -0.352 N 
ATOM     35  C   UNL A   1      41.338  19.702  26.540  1.00  0.00     0.251 C 
ATOM     36  H   UNL A   1      40.046  18.329  25.860  1.00  0.00     0.163 HD
ATOM     37  O   UNL A   1      42.198  18.863  26.802  1.00  0.00    -0.269 OA
BRANCH  35  38
ATOM     38  C   UNL A   1      41.592  21.138  26.801  1.00  0.00     0.039 A 
ATOM     39  C   UNL A   1      41.874  21.539  28.110  1.00  0.00     0.014 A 
ATOM     40  C   UNL A   1      41.568  22.083  25.771  1.00  0.00     0.014 A 
ATOM     41  C   UNL A   1      42.204  22.870  28.373  1.00  0.00     0.010 A 
ATOM     42  C   UNL A   1      41.958  23.397  26.024  1.00  0.00     0.010 A 
ATOM     43  C   UNL A   1      42.288  23.802  27.326  1.00  0.00    -0.014 A 
BRANCH  43  44
ATOM     44  C   UNL A   1      42.744  25.193  27.578  1.00  0.00     0.031 A 
ATOM     45  C   UNL A   1      41.815  26.201  28.196  1.00  0.00     0.074 A 
ATOM     46  C   UNL A   1      43.981  25.563  27.192  1.00  0.00     0.049 A 
ATOM     47  N   UNL A   1      42.020  27.467  28.456  1.00  0.00    -0.248 NA
ATOM     48  C   UNL A   1      40.466  25.728  28.541  1.00  0.00     0.031 C 
ATOM     49  C   UNL A   1      44.953  24.691  26.527  1.00  0.00     0.029 A 
ATOM     50  N   UNL A   1      44.631  26.766  27.292  1.00  0.00    -0.354 N 
ATOM     51  C   UNL A   1      40.826  27.946  28.984  1.00  0.00     0.074 A 
ATOM     52  C   UNL A   1      39.886  26.844  28.954  1.00  0.00     0.031 C 
ATOM     53  C   UNL A   1      46.081  25.383  26.300  1.00  0.00     0.029 A 
ATOM     54  C   UNL A   1      45.903  26.752  26.771  1.00  0.00     0.049 A 
ATOM     55  H   UNL A   1      44.224  27.566  27.698  1.00  0.00     0.167 HD
ATOM     56  C   UNL A   1      40.546  29.183  29.468  1.00  0.00     0.034 A 
ATOM     57  C   UNL A   1      46.824  27.732  26.681  1.00  0.00     0.034 A 
ATOM     58  C   UNL A   1      41.497  30.269  29.498  1.00  0.00     0.049 A 
ATOM     59  C   UNL A   1      46.495  29.093  27.236  1.00  0.00     0.074 A 
ATOM     60  C   UNL A   1      41.337  31.544  30.016  1.00  0.00     0.029 A 
ATOM     61  N   UNL A   1      42.785  30.213  28.980  1.00  0.00    -0.354 N 
ATOM     62  N   UNL A   1      45.380  29.513  27.787  1.00  0.00    -0.248 NA
ATOM     63  C   UNL A   1      47.557  30.104  27.170  1.00  0.00     0.031 C 
ATOM     64  C   UNL A   1      42.506  32.273  29.762  1.00  0.00     0.029 A 
ATOM     65  C   UNL A   1      43.421  31.436  29.145  1.00  0.00     0.049 A 
ATOM     66  H   UNL A   1      43.189  29.421  28.557  1.00  0.00     0.167 HD
ATOM     67  C   UNL A   1      45.617  30.835  28.154  1.00  0.00     0.074 A 
ATOM     68  C   UNL A   1      46.985  31.131  27.781  1.00  0.00     0.031 C 
ATOM     69  C   UNL A   1      44.779  31.724  28.747  1.00  0.00     0.034 A 
BRANCH  56  70
ATOM     70  C   UNL A   1      39.145  29.423  29.979  1.00  0.00     0.023 A 
ATOM     71  C   UNL A   1      38.185  30.098  29.204  1.00  0.00     0.031 A 
ATOM     72  C   UNL A   1      38.772  29.003  31.268  1.00  0.00     0.131 A 
ATOM     73  C   UNL A   1      36.930  30.403  29.752  1.00  0.00     0.055 A 
ATOM     74  C   UNL A   1      37.494  29.239  31.778  1.00  0.00     0.041 A 
ATOM     75  F   UNL A   1      39.651  28.369  32.060  1.00  0.00    -0.206 F 
ATOM     76  C   UNL A   1      36.570  29.957  31.026  1.00  0.00     0.022 A 
BRANCH  73  77
ATOM     77  S   UNL A   1      35.828  31.511  28.832  1.00  0.00     0.124 S 
ATOM     78  O   UNL A   1      35.275  30.608  27.825  1.00  0.00    -0.237 OA
ATOM     79  O   UNL A   1      34.901  31.962  29.864  1.00  0.00    -0.237 OA
ATOM     80  O   UNL A   1      36.729  32.537  28.311  1.00  0.00    -0.744 OA
ENDBRANCH  73  77
ENDBRANCH  56  70
BRANCH  57  81
ATOM     81  C   UNL A   1      48.143  27.469  26.043  1.00  0.00     0.023 A 
ATOM     82  C   UNL A   1      48.308  27.587  24.654  1.00  0.00     0.031 A 
ATOM     83  C   UNL A   1      49.249  27.064  26.810  1.00  0.00     0.131 A 
ATOM     84  C   UNL A   1      49.540  27.259  24.067  1.00  0.00     0.055 A 
ATOM     85  C   UNL A   1      50.485  26.782  26.226  1.00  0.00     0.041 A 
ATOM     86  F   UNL A   1      49.144  26.948  28.143  1.00  0.00    -0.206 F 
ATOM     87  C   UNL A   1      50.632  26.867  24.845  1.00  0.00     0.022 A 
BRANCH  84  88
ATOM     88  S   UNL A   1      49.675  27.287  22.259  1.00  0.00     0.124 S 
ATOM     89  O   UNL A   1      51.091  26.996  22.061  1.00  0.00    -0.237 OA
ATOM     90  O   UNL A   1      48.743  26.233  21.870  1.00  0.00    -0.237 OA
ATOM     91  O   UNL A   1      49.260  28.643  21.907  1.00  0.00    -0.744 OA
ENDBRANCH  84  88
ENDBRANCH  57  81
BRANCH  69  92
ATOM     92  C   UNL A   1      45.347  33.088  29.052  1.00  0.00     0.023 A 
ATOM     93  C   UNL A   1      45.210  34.161  28.154  1.00  0.00     0.031 A 
ATOM     94  C   UNL A   1      46.073  33.305  30.237  1.00  0.00     0.131 A 
ATOM     95  C   UNL A   1      45.845  35.384  28.422  1.00  0.00     0.055 A 
ATOM     96  C   UNL A   1      46.652  34.540  30.526  1.00  0.00     0.041 A 
ATOM     97  F   UNL A   1      46.237  32.314  31.128  1.00  0.00    -0.206 F 
ATOM     98  C   UNL A   1      46.553  35.583  29.609  1.00  0.00     0.022 A 
BRANCH  95  99
ATOM     99  S   UNL A   1      45.823  36.675  27.149  1.00  0.00     0.124 S 
ATOM    100  O   UNL A   1      46.645  37.716  27.756  1.00  0.00    -0.237 OA
ATOM    101  O   UNL A   1      46.409  35.990  26.001  1.00  0.00    -0.237 OA
ATOM    102  O   UNL A   1      44.405  37.003  27.017  1.00  0.00    -0.744 OA
ENDBRANCH  95  99
ENDBRANCH  69  92
ENDBRANCH  43  44
ENDBRANCH  35  38
ENDBRANCH  33  34
ENDBRANCH  32  33
ENDBRANCH  31  32
ENDBRANCH   1  31
TORSDOF 20
ENDMDL
MODEL 2
REMARK VINA RESULT:     -11.7      2.463      5.204
REMARK SMILES CCOc1cnc(C(=O)c2[nH]c3cc(Cl)ccc3c2CC(=O)NCCCCNC(=O)c2ccc(-c3c4nc(c(-c5cc(S(=O)(=O)[O-])ccc5F)c5ccc([nH]5)c(-c5cc(S(=O)(=O)[O-])ccc5F)c5nc(c(-c6cc(S(=O)(=O)[O-])ccc6F)c6ccc3[nH]6)C=C5)C=C4)cc2)cc1CC
REMARK SMILES IDX 24 1 23 2 21 3 22 4 20 6 19 7 10 8 11 9 12 10 18 12 13 13
REMARK SMILES IDX 17 14 14 15 16 16 15 17 8 18 9 19 7 20 4 21 5 22 95 23 6 24
REMARK SMILES IDX 94 25 3 26 2 27 1 28 96 29 97 30 25 31 26 32 27 33 28 34
REMARK SMILES IDX 29 35 30 37 31 38 32 39 93 40 33 41 92 42 34 43 35 44 36 45
REMARK SMILES IDX 86 46 37 47 91 48 85 49 87 50 38 51 90 52 84 53 83 54 39 56
REMARK SMILES IDX 71 57 51 58 70 59 52 60 55 61 69 62 88 63 53 64 54 65 68 67
REMARK SMILES IDX 89 68 56 69 40 70 41 71 49 72 42 73 48 74 50 75 47 76 43 77
REMARK SMILES IDX 44 78 45 79 46 80 72 81 73 82 81 83 74 84 80 85 82 86 79 87
REMARK SMILES IDX 75 88 76 89 77 90 78 91 57 92 58 93 66 94 59 95 65 96 67 97
REMARK SMILES IDX 64 98 60 99 61 100 62 101 63 102
REMARK H PARENT 23 5 11 11 28 36 87 55 55 66
REMARK Flexibility Score: inf
ROOT
ATOM      1  C   UNL A   1      32.067  24.051  26.170  1.00  0.00     0.116 C 
ENDROOT
BRANCH   1   2
ATOM      2  N   UNL A   1      31.759  25.300  26.834  1.00  0.00    -0.356 N 
ATOM      3  C   UNL A   1      30.993  26.346  26.398  1.00  0.00     0.224 C 
ATOM      4  O   UNL A   1      30.707  27.229  27.211  1.00  0.00    -0.275 OA
ATOM      5  H   UNL A   1      32.158  25.413  27.727  1.00  0.00     0.163 HD
BRANCH   3   6
ATOM      6  C   UNL A   1      30.395  26.355  24.997  1.00  0.00     0.138 C 
BRANCH   6   7
ATOM      7  C   UNL A   1      30.708  27.577  24.181  1.00  0.00    -0.002 A 
ATOM      8  C   UNL A   1      31.919  28.260  24.117  1.00  0.00     0.093 A 
ATOM      9  N   UNL A   1      31.801  29.193  23.110  1.00  0.00    -0.351 N 
ATOM     10  C   UNL A   1      30.491  29.320  22.722  1.00  0.00     0.048 A 
ATOM     11  H   UNL A   1      32.552  29.699  22.723  1.00  0.00     0.167 HD
ATOM     12  C   UNL A   1      29.775  28.321  23.380  1.00  0.00     0.004 A 
ATOM     13  C   UNL A   1      29.896  30.223  21.832  1.00  0.00     0.047 A 
ATOM     14  C   UNL A   1      28.387  28.222  23.140  1.00  0.00     0.012 A 
ATOM     15  C   UNL A   1      28.519  30.104  21.623  1.00  0.00     0.043 A 
ATOM     16  C   UNL A   1      27.770  29.123  22.263  1.00  0.00     0.021 A 
ATOM     17  Cl  UNL A   1      27.735  31.205  20.555  1.00  0.00    -0.084 Cl
BRANCH   8  18
ATOM     18  C   UNL A   1      33.136  28.051  24.888  1.00  0.00     0.227 C 
ATOM     19  O   UNL A   1      33.831  27.055  24.733  1.00  0.00    -0.285 OA
BRANCH  18  20
ATOM     20  C   UNL A   1      33.516  29.108  25.905  1.00  0.00     0.113 A 
ATOM     21  C   UNL A   1      34.091  31.023  27.794  1.00  0.00     0.140 A 
ATOM     22  C   UNL A   1      32.956  31.072  26.990  1.00  0.00     0.158 A 
ATOM     23  C   UNL A   1      34.953  29.935  27.674  1.00  0.00    -0.002 A 
ATOM     24  N   UNL A   1      32.645  30.136  26.063  1.00  0.00    -0.249 NA
ATOM     25  C   UNL A   1      34.687  29.007  26.659  1.00  0.00     0.040 A 
BRANCH  21  26
ATOM     26  O   UNL A   1      34.309  31.983  28.739  1.00  0.00    -0.492 OA
BRANCH  26  27
ATOM     27  C   UNL A   1      34.240  33.304  28.184  1.00  0.00     0.226 C 
ATOM     28  C   UNL A   1      33.924  34.301  29.288  1.00  0.00     0.049 C 
ENDBRANCH  26  27
ENDBRANCH  21  26
BRANCH  23  29
ATOM     29  C   UNL A   1      36.139  29.728  28.584  1.00  0.00     0.036 C 
ATOM     30  C   UNL A   1      37.469  30.057  27.910  1.00  0.00     0.009 C 
ENDBRANCH  23  29
ENDBRANCH  18  20
ENDBRANCH   8  18
ENDBRANCH   6   7
ENDBRANCH   3   6
ENDBRANCH   1   2
BRANCH   1  31
ATOM     31  C   UNL A   1      33.555  23.895  25.856  1.00  0.00     0.023 C 
BRANCH  31  32
ATOM     32  C   UNL A   1      34.315  22.914  26.749  1.00  0.00     0.023 C 
BRANCH  32  33
ATOM     33  C   UNL A   1      35.835  23.026  26.712  1.00  0.00     0.116 C 
BRANCH  33  34
ATOM     34  N   UNL A   1      36.485  21.873  26.108  1.00  0.00    -0.352 N 
ATOM     35  C   UNL A   1      37.816  21.675  25.830  1.00  0.00     0.251 C 
ATOM     36  H   UNL A   1      35.887  21.129  25.865  1.00  0.00     0.163 HD
ATOM     37  O   UNL A   1      38.163  20.662  25.226  1.00  0.00    -0.269 OA
BRANCH  35  38
ATOM     38  C   UNL A   1      38.818  22.698  26.210  1.00  0.00     0.039 A 
ATOM     39  C   UNL A   1      38.627  24.012  25.776  1.00  0.00     0.014 A 
ATOM     40  C   UNL A   1      39.929  22.376  26.995  1.00  0.00     0.014 A 
ATOM     41  C   UNL A   1      39.506  25.016  26.192  1.00  0.00     0.010 A 
ATOM     42  C   UNL A   1      40.769  23.386  27.459  1.00  0.00     0.010 A 
ATOM     43  C   UNL A   1      40.561  24.718  27.069  1.00  0.00    -0.014 A 
BRANCH  43  44
ATOM     44  C   UNL A   1      41.436  25.793  27.603  1.00  0.00     0.031 A 
ATOM     45  C   UNL A   1      40.914  26.763  28.628  1.00  0.00     0.074 A 
ATOM     46  C   UNL A   1      42.684  25.932  27.116  1.00  0.00     0.049 A 
ATOM     47  N   UNL A   1      41.514  27.786  29.180  1.00  0.00    -0.248 NA
ATOM     48  C   UNL A   1      39.525  26.571  29.068  1.00  0.00     0.031 C 
ATOM     49  C   UNL A   1      43.282  25.090  26.076  1.00  0.00     0.029 A 
ATOM     50  N   UNL A   1      43.672  26.832  27.421  1.00  0.00    -0.354 N 
ATOM     51  C   UNL A   1      40.574  28.368  30.024  1.00  0.00     0.074 A 
ATOM     52  C   UNL A   1      39.349  27.613  29.865  1.00  0.00     0.031 C 
ATOM     53  C   UNL A   1      44.539  25.502  25.847  1.00  0.00     0.029 A 
ATOM     54  C   UNL A   1      44.826  26.653  26.696  1.00  0.00     0.049 A 
ATOM     55  H   UNL A   1      43.564  27.543  28.094  1.00  0.00     0.167 HD
ATOM     56  C   UNL A   1      40.726  29.421  30.867  1.00  0.00     0.034 A 
ATOM     57  C   UNL A   1      45.986  27.339  26.711  1.00  0.00     0.034 A 
ATOM     58  C   UNL A   1      41.957  30.159  31.019  1.00  0.00     0.049 A 
ATOM     59  C   UNL A   1      46.135  28.496  27.663  1.00  0.00     0.074 A 
ATOM     60  C   UNL A   1      42.237  31.205  31.884  1.00  0.00     0.029 A 
ATOM     61  N   UNL A   1      43.115  29.936  30.284  1.00  0.00    -0.354 N 
ATOM     62  N   UNL A   1      45.255  28.997  28.499  1.00  0.00    -0.248 NA
ATOM     63  C   UNL A   1      47.441  29.166  27.685  1.00  0.00     0.031 C 
ATOM     64  C   UNL A   1      43.542  31.648  31.632  1.00  0.00     0.029 A 
ATOM     65  C   UNL A   1      44.101  30.838  30.657  1.00  0.00     0.049 A 
ATOM     66  H   UNL A   1      43.220  29.239  29.596  1.00  0.00     0.167 HD
ATOM     67  C   UNL A   1      45.911  30.030  29.162  1.00  0.00     0.074 A 
ATOM     68  C   UNL A   1      47.264  30.063  28.643  1.00  0.00     0.031 C 
ATOM     69  C   UNL A   1      45.439  30.875  30.115  1.00  0.00     0.034 A 
BRANCH  56  70
ATOM     70  C   UNL A   1      39.516  29.844  31.667  1.00  0.00     0.023 A 
ATOM     71  C   UNL A   1      38.652  30.856  31.214  1.00  0.00     0.031 A 
ATOM     72  C   UNL A   1      39.241  29.253  32.913  1.00  0.00     0.131 A 
ATOM     73  C   UNL A   1      37.603  31.301  32.033  1.00  0.00     0.055 A 
ATOM     74  C   UNL A   1      38.149  29.646  33.689  1.00  0.00     0.041 A 
ATOM     75  F   UNL A   1      40.041  28.294  33.406  1.00  0.00    -0.206 F 
ATOM     76  C   UNL A   1      37.332  30.687  33.257  1.00  0.00     0.022 A 
BRANCH  73  77
ATOM     77  S   UNL A   1      36.689  32.787  31.540  1.00  0.00     0.124 S 
ATOM     78  O   UNL A   1      37.170  32.991  30.175  1.00  0.00    -0.237 OA
ATOM     79  O   UNL A   1      35.299  32.362  31.670  1.00  0.00    -0.237 OA
ATOM     80  O   UNL A   1      37.125  33.795  32.504  1.00  0.00    -0.744 OA
ENDBRANCH  73  77
ENDBRANCH  56  70
BRANCH  57  81
ATOM     81  C   UNL A   1      47.099  26.956  25.799  1.00  0.00     0.023 A 
ATOM     82  C   UNL A   1      47.242  27.563  24.542  1.00  0.00     0.031 A 
ATOM     83  C   UNL A   1      48.016  25.954  26.160  1.00  0.00     0.131 A 
ATOM     84  C   UNL A   1      48.253  27.132  23.669  1.00  0.00     0.055 A 
ATOM     85  C   UNL A   1      49.047  25.559  25.305  1.00  0.00     0.041 A 
ATOM     86  F   UNL A   1      47.927  25.352  27.356  1.00  0.00    -0.206 F 
ATOM     87  C   UNL A   1      49.162  26.141  24.046  1.00  0.00     0.022 A 
BRANCH  84  88
ATOM     88  S   UNL A   1      48.319  27.839  22.000  1.00  0.00     0.124 S 
ATOM     89  O   UNL A   1      49.543  28.631  22.061  1.00  0.00    -0.237 OA
ATOM     90  O   UNL A   1      48.372  26.642  21.166  1.00  0.00    -0.237 OA
ATOM     91  O   UNL A   1      47.081  28.607  21.906  1.00  0.00    -0.744 OA
ENDBRANCH  84  88
ENDBRANCH  57  81
BRANCH  69  92
ATOM     92  C   UNL A   1      46.417  31.880  30.671  1.00  0.00     0.023 A 
ATOM     93  C   UNL A   1      46.528  33.174  30.134  1.00  0.00     0.031 A 
ATOM     94  C   UNL A   1      47.278  31.523  31.723  1.00  0.00     0.131 A 
ATOM     95  C   UNL A   1      47.524  34.044  30.606  1.00  0.00     0.055 A 
ATOM     96  C   UNL A   1      48.226  32.413  32.229  1.00  0.00     0.041 A 
ATOM     97  F   UNL A   1      47.216  30.299  32.271  1.00  0.00    -0.206 F 
ATOM     98  C   UNL A   1      48.364  33.676  31.659  1.00  0.00     0.022 A 
BRANCH  95  99
ATOM     99  S   UNL A   1      47.777  35.624  29.752  1.00  0.00     0.124 S 
ATOM    100  O   UNL A   1      47.720  36.579  30.853  1.00  0.00    -0.237 OA
ATOM    101  O   UNL A   1      49.087  35.439  29.137  1.00  0.00    -0.237 OA
ATOM    102  O   UNL A   1      46.657  35.692  28.815  1.00  0.00    -0.744 OA
ENDBRANCH  95  99
ENDBRANCH  69  92
ENDBRANCH  43  44
ENDBRANCH  35  38
ENDBRANCH  33  34
ENDBRANCH  32  33
ENDBRANCH  31  32
ENDBRANCH   1  31
TORSDOF 20
ENDMDL
MODEL 3
REMARK VINA RESULT:     -11.6      5.076      7.947
REMARK SMILES CCOc1cnc(C(=O)c2[nH]c3cc(Cl)ccc3c2CC(=O)NCCCCNC(=O)c2ccc(-c3c4nc(c(-c5cc(S(=O)(=O)[O-])ccc5F)c5ccc([nH]5)c(-c5cc(S(=O)(=O)[O-])ccc5F)c5nc(c(-c6cc(S(=O)(=O)[O-])ccc6F)c6ccc3[nH]6)C=C5)C=C4)cc2)cc1CC
REMARK SMILES IDX 24 1 23 2 21 3 22 4 20 6 19 7 10 8 11 9 12 10 18 12 13 13
REMARK SMILES IDX 17 14 14 15 16 16 15 17 8 18 9 19 7 20 4 21 5 22 95 23 6 24
REMARK SMILES IDX 94 25 3 26 2 27 1 28 96 29 97 30 25 31 26 32 27 33 28 34
REMARK SMILES IDX 29 35 30 37 31 38 32 39 93 40 33 41 92 42 34 43 35 44 36 45
REMARK SMILES IDX 86 46 37 47 91 48 85 49 87 50 38 51 90 52 84 53 83 54 39 56
REMARK SMILES IDX 71 57 51 58 70 59 52 60 55 61 69 62 88 63 53 64 54 65 68 67
REMARK SMILES IDX 89 68 56 69 40 70 41 71 49 72 42 73 48 74 50 75 47 76 43 77
REMARK SMILES IDX 44 78 45 79 46 80 72 81 73 82 81 83 74 84 80 85 82 86 79 87
REMARK SMILES IDX 75 88 76 89 77 90 78 91 57 92 58 93 66 94 59 95 65 96 67 97
REMARK SMILES IDX 64 98 60 99 61 100 62 101 63 102
REMARK H PARENT 23 5 11 11 28 36 87 55 55 66
REMARK Flexibility Score: inf
ROOT
ATOM      1  C   UNL A   1      32.556  26.172  23.475  1.00  0.00     0.116 C 
ENDROOT
BRANCH   1   2
ATOM      2  N   UNL A   1      33.261  25.276  22.582  1.00  0.00    -0.356 N 
ATOM      3  C   UNL A   1      33.275  23.909  22.560  1.00  0.00     0.224 C 
ATOM      4  O   UNL A   1      33.792  23.353  21.588  1.00  0.00    -0.275 OA
ATOM      5  H   UNL A   1      33.809  25.715  21.891  1.00  0.00     0.163 HD
BRANCH   3   6
ATOM      6  C   UNL A   1      32.554  23.096  23.628  1.00  0.00     0.138 C 
BRANCH   6   7
ATOM      7  C   UNL A   1      33.348  21.958  24.204  1.00  0.00    -0.002 A 
ATOM      8  C   UNL A   1      34.461  22.043  25.036  1.00  0.00     0.093 A 
ATOM      9  N   UNL A   1      34.742  20.763  25.462  1.00  0.00    -0.351 N 
ATOM     10  C   UNL A   1      34.035  19.844  24.727  1.00  0.00     0.048 A 
ATOM     11  H   UNL A   1      35.363  20.539  26.193  1.00  0.00     0.167 HD
ATOM     12  C   UNL A   1      33.152  20.563  23.922  1.00  0.00     0.004 A 
ATOM     13  C   UNL A   1      34.099  18.445  24.728  1.00  0.00     0.047 A 
ATOM     14  C   UNL A   1      32.289  19.843  23.067  1.00  0.00     0.012 A 
ATOM     15  C   UNL A   1      33.238  17.763  23.865  1.00  0.00     0.043 A 
ATOM     16  C   UNL A   1      32.345  18.444  23.044  1.00  0.00     0.021 A 
ATOM     17  Cl  UNL A   1      33.292  16.042  23.811  1.00  0.00    -0.084 Cl
BRANCH   8  18
ATOM     18  C   UNL A   1      35.202  23.220  25.464  1.00  0.00     0.227 C 
ATOM     19  O   UNL A   1      34.670  24.320  25.546  1.00  0.00    -0.285 OA
BRANCH  18  20
ATOM     20  C   UNL A   1      36.669  23.045  25.801  1.00  0.00     0.113 A 
ATOM     21  C   UNL A   1      39.347  22.672  26.305  1.00  0.00     0.140 A 
ATOM     22  C   UNL A   1      38.522  21.662  25.820  1.00  0.00     0.158 A 
ATOM     23  C   UNL A   1      38.809  23.942  26.503  1.00  0.00    -0.002 A 
ATOM     24  N   UNL A   1      37.206  21.824  25.553  1.00  0.00    -0.249 NA
ATOM     25  C   UNL A   1      37.430  24.098  26.313  1.00  0.00     0.040 A 
BRANCH  21  26
ATOM     26  O   UNL A   1      40.677  22.440  26.505  1.00  0.00    -0.492 OA
BRANCH  26  27
ATOM     27  C   UNL A   1      40.917  21.727  27.726  1.00  0.00     0.226 C 
ATOM     28  C   UNL A   1      41.578  20.394  27.412  1.00  0.00     0.049 C 
ENDBRANCH  26  27
ENDBRANCH  21  26
BRANCH  23  29
ATOM     29  C   UNL A   1      39.647  25.131  26.905  1.00  0.00     0.036 C 
ATOM     30  C   UNL A   1      39.701  25.334  28.417  1.00  0.00     0.009 C 
ENDBRANCH  23  29
ENDBRANCH  18  20
ENDBRANCH   8  18
ENDBRANCH   6   7
ENDBRANCH   3   6
ENDBRANCH   1   2
BRANCH   1  31
ATOM     31  C   UNL A   1      33.372  27.409  23.844  1.00  0.00     0.023 C 
BRANCH  31  32
ATOM     32  C   UNL A   1      32.786  28.273  24.961  1.00  0.00     0.023 C 
BRANCH  32  33
ATOM     33  C   UNL A   1      33.798  29.039  25.807  1.00  0.00     0.116 C 
BRANCH  33  34
ATOM     34  N   UNL A   1      33.277  30.286  26.344  1.00  0.00    -0.352 N 
ATOM     35  C   UNL A   1      33.840  31.134  27.267  1.00  0.00     0.251 C 
ATOM     36  H   UNL A   1      32.398  30.561  25.997  1.00  0.00     0.163 HD
ATOM     37  O   UNL A   1      33.197  32.102  27.668  1.00  0.00    -0.269 OA
BRANCH  35  38
ATOM     38  C   UNL A   1      35.190  30.857  27.810  1.00  0.00     0.039 A 
ATOM     39  C   UNL A   1      36.100  31.914  27.905  1.00  0.00     0.014 A 
ATOM     40  C   UNL A   1      35.558  29.578  28.235  1.00  0.00     0.014 A 
ATOM     41  C   UNL A   1      37.349  31.704  28.495  1.00  0.00     0.010 A 
ATOM     42  C   UNL A   1      36.779  29.384  28.879  1.00  0.00     0.010 A 
ATOM     43  C   UNL A   1      37.683  30.446  29.023  1.00  0.00    -0.014 A 
BRANCH  43  44
ATOM     44  C   UNL A   1      38.963  30.240  29.748  1.00  0.00     0.031 A 
ATOM     45  C   UNL A   1      39.161  30.810  31.125  1.00  0.00     0.074 A 
ATOM     46  C   UNL A   1      39.971  29.588  29.135  1.00  0.00     0.049 A 
ATOM     47  N   UNL A   1      40.218  30.766  31.895  1.00  0.00    -0.248 NA
ATOM     48  C   UNL A   1      38.028  31.551  31.699  1.00  0.00     0.031 C 
ATOM     49  C   UNL A   1      39.920  29.042  27.776  1.00  0.00     0.029 A 
ATOM     50  N   UNL A   1      41.235  29.281  29.567  1.00  0.00    -0.354 N 
ATOM     51  C   UNL A   1      39.884  31.482  33.040  1.00  0.00     0.074 A 
ATOM     52  C   UNL A   1      38.545  31.994  32.835  1.00  0.00     0.031 C 
ATOM     53  C   UNL A   1      41.091  28.448  27.497  1.00  0.00     0.029 A 
ATOM     54  C   UNL A   1      41.986  28.599  28.639  1.00  0.00     0.049 A 
ATOM     55  H   UNL A   1      41.575  29.526  30.458  1.00  0.00     0.167 HD
ATOM     56  C   UNL A   1      40.618  31.676  34.165  1.00  0.00     0.034 A 
ATOM     57  C   UNL A   1      43.255  28.147  28.700  1.00  0.00     0.034 A 
ATOM     58  C   UNL A   1      41.950  31.152  34.357  1.00  0.00     0.049 A 
ATOM     59  C   UNL A   1      44.046  28.364  29.963  1.00  0.00     0.074 A 
ATOM     60  C   UNL A   1      42.760  31.241  35.477  1.00  0.00     0.029 A 
ATOM     61  N   UNL A   1      42.673  30.447  33.403  1.00  0.00    -0.354 N 
ATOM     62  N   UNL A   1      43.693  28.992  31.060  1.00  0.00    -0.248 NA
ATOM     63  C   UNL A   1      45.398  27.794  29.997  1.00  0.00     0.031 C 
ATOM     64  C   UNL A   1      43.990  30.640  35.180  1.00  0.00     0.029 A 
ATOM     65  C   UNL A   1      43.926  30.117  33.899  1.00  0.00     0.049 A 
ATOM     66  H   UNL A   1      42.344  30.216  32.504  1.00  0.00     0.167 HD
ATOM     67  C   UNL A   1      44.777  28.873  31.926  1.00  0.00     0.074 A 
ATOM     68  C   UNL A   1      45.782  28.095  31.229  1.00  0.00     0.031 C 
ATOM     69  C   UNL A   1      44.928  29.360  33.184  1.00  0.00     0.034 A 
BRANCH  56  70
ATOM     70  C   UNL A   1      39.996  32.512  35.259  1.00  0.00     0.023 A 
ATOM     71  C   UNL A   1      39.271  31.926  36.311  1.00  0.00     0.031 A 
ATOM     72  C   UNL A   1      40.100  33.914  35.233  1.00  0.00     0.131 A 
ATOM     73  C   UNL A   1      38.612  32.738  37.247  1.00  0.00     0.055 A 
ATOM     74  C   UNL A   1      39.509  34.714  36.213  1.00  0.00     0.041 A 
ATOM     75  F   UNL A   1      40.765  34.531  34.244  1.00  0.00    -0.206 F 
ATOM     76  C   UNL A   1      38.746  34.128  37.218  1.00  0.00     0.022 A 
BRANCH  73  77
ATOM     77  S   UNL A   1      37.464  31.959  38.415  1.00  0.00     0.124 S 
ATOM     78  O   UNL A   1      38.207  32.059  39.669  1.00  0.00    -0.237 OA
ATOM     79  O   UNL A   1      36.280  32.804  38.305  1.00  0.00    -0.237 OA
ATOM     80  O   UNL A   1      37.312  30.602  37.895  1.00  0.00    -0.744 OA
ENDBRANCH  73  77
ENDBRANCH  56  70
BRANCH  57  81
ATOM     81  C   UNL A   1      43.860  27.445  27.534  1.00  0.00     0.023 A 
ATOM     82  C   UNL A   1      43.847  26.044  27.450  1.00  0.00     0.031 A 
ATOM     83  C   UNL A   1      44.489  28.165  26.504  1.00  0.00     0.131 A 
ATOM     84  C   UNL A   1      44.491  25.402  26.381  1.00  0.00     0.055 A 
ATOM     85  C   UNL A   1      45.091  27.524  25.420  1.00  0.00     0.041 A 
ATOM     86  F   UNL A   1      44.519  29.507  26.534  1.00  0.00    -0.206 F 
ATOM     87  C   UNL A   1      45.104  26.133  25.361  1.00  0.00     0.022 A 
BRANCH  84  88
ATOM     88  S   UNL A   1      44.576  23.591  26.379  1.00  0.00     0.124 S 
ATOM     89  O   UNL A   1      44.009  23.265  27.683  1.00  0.00    -0.237 OA
ATOM     90  O   UNL A   1      43.755  23.252  25.220  1.00  0.00    -0.237 OA
ATOM     91  O   UNL A   1      46.003  23.317  26.231  1.00  0.00    -0.744 OA
ENDBRANCH  84  88
ENDBRANCH  57  81
BRANCH  69  92
ATOM     92  C   UNL A   1      46.221  29.030  33.887  1.00  0.00     0.023 A 
ATOM     93  C   UNL A   1      46.372  27.850  34.636  1.00  0.00     0.031 A 
ATOM     94  C   UNL A   1      47.301  29.929  33.843  1.00  0.00     0.131 A 
ATOM     95  C   UNL A   1      47.551  27.629  35.365  1.00  0.00     0.055 A 
ATOM     96  C   UNL A   1      48.493  29.676  34.522  1.00  0.00     0.041 A 
ATOM     97  F   UNL A   1      47.210  31.072  33.146  1.00  0.00    -0.206 F 
ATOM     98  C   UNL A   1      48.617  28.529  35.301  1.00  0.00     0.022 A 
BRANCH  95  99
ATOM     99  S   UNL A   1      47.630  26.204  36.483  1.00  0.00     0.124 S 
ATOM    100  O   UNL A   1      48.930  25.629  36.153  1.00  0.00    -0.237 OA
ATOM    101  O   UNL A   1      47.528  26.832  37.796  1.00  0.00    -0.237 OA
ATOM    102  O   UNL A   1      46.478  25.395  36.091  1.00  0.00    -0.744 OA
ENDBRANCH  95  99
ENDBRANCH  69  92
ENDBRANCH  43  44
ENDBRANCH  35  38
ENDBRANCH  33  34
ENDBRANCH  32  33
ENDBRANCH  31  32
ENDBRANCH   1  31
TORSDOF 20
ENDMDL
