MODEL 1
REMARK VINA RESULT:     -12.3      0.000      0.000
REMARK SMILES O=C(/C=C/c1ccc(Br)cc1-n1ccnc1)NCCCCNC(=O)c1ccc(-c2c3nc(c(-c4cc(S(=O)(=O)[O-])ccc4F)c4ccc([nH]4)c(-c4cc(S(=O)(=O)[O-])ccc4F)c4nc(c(-c5cc(S(=O)(=O)[O-])ccc5F)c5ccc2[nH]5)C=C4)C=C3)cc1
REMARK SMILES IDX 20 1 19 2 18 3 17 4 1 5 2 6 3 8 4 9 5 10 6 11 11 12 7 13
REMARK SMILES IDX 10 14 8 15 9 16 12 17 13 18 16 19 14 20 15 21 21 22 22 23
REMARK SMILES IDX 23 24 24 26 25 27 26 28 87 29 27 30 86 31 28 32 29 33 30 34
REMARK SMILES IDX 80 35 31 36 85 37 79 38 81 39 32 40 84 41 78 42 77 43 33 45
REMARK SMILES IDX 65 46 45 47 64 48 46 49 49 50 63 51 82 52 47 53 48 54 62 56
REMARK SMILES IDX 83 57 50 58 34 59 35 60 43 61 36 62 42 63 44 64 41 65 37 66
REMARK SMILES IDX 38 67 39 68 40 69 66 70 67 71 75 72 68 73 74 74 76 75 73 76
REMARK SMILES IDX 69 77 70 78 71 79 72 80 51 81 52 82 60 83 53 84 59 85 61 86
REMARK SMILES IDX 58 87 54 88 55 89 56 90 57 91
REMARK H PARENT 17 7 22 25 81 44 49 55
REMARK Flexibility Score: inf
ROOT
ATOM      1  C   UNL A   1      31.406  31.914  26.287  1.00  0.00     0.023 C 
ENDROOT
BRANCH   1   2
ATOM      2  C   UNL A   1      31.587  30.456  25.831  1.00  0.00     0.023 C 
BRANCH   2   3
ATOM      3  C   UNL A   1      32.617  29.617  26.601  1.00  0.00     0.116 C 
BRANCH   3   4
ATOM      4  N   UNL A   1      32.627  28.223  26.199  1.00  0.00    -0.353 N 
ATOM      5  O   UNL A   1      31.032  27.518  27.695  1.00  0.00    -0.270 OA
ATOM      6  C   UNL A   1      31.827  27.279  26.791  1.00  0.00     0.244 C 
ATOM      7  H   UNL A   1      33.230  27.944  25.472  1.00  0.00     0.163 HD
BRANCH   6   8
ATOM      8  C   UNL A   1      31.965  25.872  26.319  1.00  0.00     0.072 C 
ATOM      9  C   UNL A   1      33.115  25.223  26.083  1.00  0.00     0.016 C 
BRANCH   9  10
ATOM     10  C   UNL A   1      33.209  23.786  25.757  1.00  0.00    -0.001 A 
ATOM     11  C   UNL A   1      33.362  22.842  26.784  1.00  0.00     0.011 A 
ATOM     12  C   UNL A   1      32.980  23.313  24.445  1.00  0.00     0.055 A 
ATOM     13  C   UNL A   1      33.307  21.470  26.511  1.00  0.00     0.016 A 
ATOM     14  C   UNL A   1      32.882  21.938  24.176  1.00  0.00     0.043 A 
ATOM     15  C   UNL A   1      33.066  21.027  25.212  1.00  0.00     0.020 A 
ATOM     16  Br  UNL A   1      33.015  19.172  24.848  1.00  0.00    -0.051 Br
BRANCH  12  17
ATOM     17  N   UNL A   1      32.886  24.208  23.354  1.00  0.00    -0.306 N 
ATOM     18  C   UNL A   1      31.734  24.704  22.789  1.00  0.00     0.113 A 
ATOM     19  C   UNL A   1      33.928  24.771  22.657  1.00  0.00     0.204 A 
ATOM     20  C   UNL A   1      32.143  25.522  21.764  1.00  0.00     0.131 A 
ATOM     21  N   UNL A   1      33.508  25.553  21.685  1.00  0.00    -0.245 NA
ENDBRANCH  12  17
ENDBRANCH   9  10
ENDBRANCH   6   8
ENDBRANCH   3   4
ENDBRANCH   2   3
ENDBRANCH   1   2
BRANCH   1  22
ATOM     22  C   UNL A   1      32.473  32.418  27.246  1.00  0.00     0.116 C 
BRANCH  22  23
ATOM     23  N   UNL A   1      32.433  33.867  27.481  1.00  0.00    -0.352 N 
ATOM     24  C   UNL A   1      33.128  34.602  28.444  1.00  0.00     0.251 C 
ATOM     25  H   UNL A   1      31.842  34.384  26.887  1.00  0.00     0.163 HD
ATOM     26  O   UNL A   1      32.737  35.700  28.793  1.00  0.00    -0.269 OA
BRANCH  24  27
ATOM     27  C   UNL A   1      34.364  34.013  29.006  1.00  0.00     0.039 A 
ATOM     28  C   UNL A   1      34.434  33.343  30.232  1.00  0.00     0.014 A 
ATOM     29  C   UNL A   1      35.493  34.127  28.210  1.00  0.00     0.014 A 
ATOM     30  C   UNL A   1      35.652  32.760  30.608  1.00  0.00     0.010 A 
ATOM     31  C   UNL A   1      36.556  33.309  28.428  1.00  0.00     0.010 A 
ATOM     32  C   UNL A   1      36.709  32.756  29.687  1.00  0.00    -0.014 A 
BRANCH  32  33
ATOM     33  C   UNL A   1      38.013  32.144  29.909  1.00  0.00     0.031 A 
ATOM     34  C   UNL A   1      38.099  30.745  29.424  1.00  0.00     0.074 A 
ATOM     35  C   UNL A   1      39.102  32.913  30.170  1.00  0.00     0.049 A 
ATOM     36  N   UNL A   1      38.167  29.666  30.129  1.00  0.00    -0.248 NA
ATOM     37  C   UNL A   1      37.869  30.493  27.989  1.00  0.00     0.031 C 
ATOM     38  C   UNL A   1      39.165  34.378  30.313  1.00  0.00     0.029 A 
ATOM     39  N   UNL A   1      40.416  32.566  30.244  1.00  0.00    -0.354 N 
ATOM     40  C   UNL A   1      38.273  28.625  29.211  1.00  0.00     0.074 A 
ATOM     41  C   UNL A   1      37.799  29.161  27.969  1.00  0.00     0.031 C 
ATOM     42  C   UNL A   1      40.450  34.796  30.244  1.00  0.00     0.029 A 
ATOM     43  C   UNL A   1      41.319  33.634  30.216  1.00  0.00     0.049 A 
ATOM     44  H   UNL A   1      40.710  31.629  30.313  1.00  0.00     0.167 HD
ATOM     45  C   UNL A   1      39.026  27.521  29.486  1.00  0.00     0.034 A 
ATOM     46  C   UNL A   1      42.681  33.569  30.173  1.00  0.00     0.034 A 
ATOM     47  C   UNL A   1      39.405  27.519  30.886  1.00  0.00     0.049 A 
ATOM     48  C   UNL A   1      43.043  32.202  30.621  1.00  0.00     0.074 A 
ATOM     49  C   UNL A   1      38.724  27.456  32.084  1.00  0.00     0.029 A 
ATOM     50  N   UNL A   1      40.658  28.011  31.187  1.00  0.00    -0.354 N 
ATOM     51  N   UNL A   1      42.815  31.770  31.831  1.00  0.00    -0.248 NA
ATOM     52  C   UNL A   1      43.178  31.161  29.612  1.00  0.00     0.031 C 
ATOM     53  C   UNL A   1      39.430  28.339  32.956  1.00  0.00     0.029 A 
ATOM     54  C   UNL A   1      40.557  28.825  32.288  1.00  0.00     0.049 A 
ATOM     55  H   UNL A   1      41.487  27.812  30.696  1.00  0.00     0.167 HD
ATOM     56  C   UNL A   1      42.334  30.479  31.667  1.00  0.00     0.074 A 
ATOM     57  C   UNL A   1      42.694  30.118  30.296  1.00  0.00     0.031 C 
ATOM     58  C   UNL A   1      41.435  29.954  32.553  1.00  0.00     0.034 A 
BRANCH  45  59
ATOM     59  C   UNL A   1      39.783  26.680  28.470  1.00  0.00     0.023 A 
ATOM     60  C   UNL A   1      40.927  27.274  27.897  1.00  0.00     0.031 A 
ATOM     61  C   UNL A   1      39.337  25.500  27.836  1.00  0.00     0.131 A 
ATOM     62  C   UNL A   1      41.471  26.800  26.694  1.00  0.00     0.055 A 
ATOM     63  C   UNL A   1      39.922  24.994  26.669  1.00  0.00     0.041 A 
ATOM     64  F   UNL A   1      38.276  24.800  28.246  1.00  0.00    -0.206 F 
ATOM     65  C   UNL A   1      40.970  25.666  26.066  1.00  0.00     0.022 A 
BRANCH  62  66
ATOM     66  S   UNL A   1      42.725  27.810  25.866  1.00  0.00     0.124 S 
ATOM     67  O   UNL A   1      43.191  28.652  26.962  1.00  0.00    -0.237 OA
ATOM     68  O   UNL A   1      43.658  26.795  25.388  1.00  0.00    -0.237 OA
ATOM     69  O   UNL A   1      41.967  28.502  24.826  1.00  0.00    -0.744 OA
ENDBRANCH  62  66
ENDBRANCH  45  59
BRANCH  46  70
ATOM     70  C   UNL A   1      43.642  34.470  29.467  1.00  0.00     0.023 A 
ATOM     71  C   UNL A   1      44.227  34.184  28.209  1.00  0.00     0.031 A 
ATOM     72  C   UNL A   1      43.791  35.792  29.942  1.00  0.00     0.131 A 
ATOM     73  C   UNL A   1      44.917  35.199  27.491  1.00  0.00     0.055 A 
ATOM     74  C   UNL A   1      44.463  36.787  29.228  1.00  0.00     0.041 A 
ATOM     75  F   UNL A   1      43.203  36.180  31.086  1.00  0.00    -0.206 F 
ATOM     76  C   UNL A   1      45.023  36.496  27.994  1.00  0.00     0.022 A 
BRANCH  73  77
ATOM     77  S   UNL A   1      45.646  34.869  25.846  1.00  0.00     0.124 S 
ATOM     78  O   UNL A   1      44.472  34.592  25.028  1.00  0.00    -0.237 OA
ATOM     79  O   UNL A   1      46.357  36.111  25.564  1.00  0.00    -0.237 OA
ATOM     80  O   UNL A   1      46.513  33.713  26.080  1.00  0.00    -0.744 OA
ENDBRANCH  73  77
ENDBRANCH  46  70
BRANCH  58  81
ATOM     81  C   UNL A   1      41.212  30.705  33.854  1.00  0.00     0.023 A 
ATOM     82  C   UNL A   1      40.223  31.696  34.069  1.00  0.00     0.031 A 
ATOM     83  C   UNL A   1      41.986  30.308  34.956  1.00  0.00     0.131 A 
ATOM     84  C   UNL A   1      40.053  32.256  35.352  1.00  0.00     0.055 A 
ATOM     85  C   UNL A   1      41.798  30.846  36.228  1.00  0.00     0.041 A 
ATOM     86  F   UNL A   1      42.923  29.355  34.821  1.00  0.00    -0.206 F 
ATOM     87  C   UNL A   1      40.834  31.827  36.430  1.00  0.00     0.022 A 
BRANCH  84  88
ATOM     88  S   UNL A   1      38.825  33.574  35.644  1.00  0.00     0.124 S 
ATOM     89  O   UNL A   1      38.960  34.432  34.474  1.00  0.00    -0.237 OA
ATOM     90  O   UNL A   1      37.575  32.826  35.747  1.00  0.00    -0.237 OA
ATOM     91  O   UNL A   1      39.272  34.182  36.900  1.00  0.00    -0.744 OA
ENDBRANCH  84  88
ENDBRANCH  58  81
ENDBRANCH  32  33
ENDBRANCH  24  27
ENDBRANCH  22  23
ENDBRANCH   1  22
TORSDOF 16
ENDMDL
MODEL 2
REMARK VINA RESULT:     -12.3      4.371      5.764
REMARK SMILES O=C(/C=C/c1ccc(Br)cc1-n1ccnc1)NCCCCNC(=O)c1ccc(-c2c3nc(c(-c4cc(S(=O)(=O)[O-])ccc4F)c4ccc([nH]4)c(-c4cc(S(=O)(=O)[O-])ccc4F)c4nc(c(-c5cc(S(=O)(=O)[O-])ccc5F)c5ccc2[nH]5)C=C4)C=C3)cc1
REMARK SMILES IDX 20 1 19 2 18 3 17 4 1 5 2 6 3 8 4 9 5 10 6 11 11 12 7 13
REMARK SMILES IDX 10 14 8 15 9 16 12 17 13 18 16 19 14 20 15 21 21 22 22 23
REMARK SMILES IDX 23 24 24 26 25 27 26 28 87 29 27 30 86 31 28 32 29 33 30 34
REMARK SMILES IDX 80 35 31 36 85 37 79 38 81 39 32 40 84 41 78 42 77 43 33 45
REMARK SMILES IDX 65 46 45 47 64 48 46 49 49 50 63 51 82 52 47 53 48 54 62 56
REMARK SMILES IDX 83 57 50 58 34 59 35 60 43 61 36 62 42 63 44 64 41 65 37 66
REMARK SMILES IDX 38 67 39 68 40 69 66 70 67 71 75 72 68 73 74 74 76 75 73 76
REMARK SMILES IDX 69 77 70 78 71 79 72 80 51 81 52 82 60 83 53 84 59 85 61 86
REMARK SMILES IDX 58 87 54 88 55 89 56 90 57 91
REMARK H PARENT 17 7 22 25 81 44 49 55
REMARK Flexibility Score: inf
ROOT
ATOM      1  C   UNL A   1      34.742  30.404  26.983  1.00  0.00     0.023 C 
ENDROOT
BRANCH   1   2
ATOM      2  C   UNL A   1      33.302  30.727  27.416  1.00  0.00     0.023 C 
BRANCH   2   3
ATOM      3  C   UNL A   1      32.178  30.223  26.500  1.00  0.00     0.116 C 
BRANCH   3   4
ATOM      4  N   UNL A   1      32.333  28.828  26.127  1.00  0.00    -0.353 N 
ATOM      5  O   UNL A   1      31.131  27.965  27.884  1.00  0.00    -0.270 OA
ATOM      6  C   UNL A   1      31.792  27.805  26.864  1.00  0.00     0.244 C 
ATOM      7  H   UNL A   1      32.843  28.609  25.314  1.00  0.00     0.163 HD
BRANCH   6   8
ATOM      8  C   UNL A   1      32.062  26.413  26.400  1.00  0.00     0.072 C 
ATOM      9  C   UNL A   1      33.207  25.962  25.867  1.00  0.00     0.016 C 
BRANCH   9  10
ATOM     10  C   UNL A   1      33.478  24.544  25.557  1.00  0.00    -0.001 A 
ATOM     11  C   UNL A   1      33.833  23.657  26.585  1.00  0.00     0.011 A 
ATOM     12  C   UNL A   1      33.228  24.011  24.272  1.00  0.00     0.055 A 
ATOM     13  C   UNL A   1      33.954  22.285  26.338  1.00  0.00     0.016 A 
ATOM     14  C   UNL A   1      33.307  22.629  24.032  1.00  0.00     0.043 A 
ATOM     15  C   UNL A   1      33.688  21.779  25.067  1.00  0.00     0.020 A 
ATOM     16  Br  UNL A   1      33.874  19.927  24.736  1.00  0.00    -0.051 Br
BRANCH  12  17
ATOM     17  N   UNL A   1      32.935  24.856  23.177  1.00  0.00    -0.306 N 
ATOM     18  C   UNL A   1      31.688  25.161  22.680  1.00  0.00     0.113 A 
ATOM     19  C   UNL A   1      33.836  25.551  22.406  1.00  0.00     0.204 A 
ATOM     20  C   UNL A   1      31.907  26.007  21.620  1.00  0.00     0.131 A 
ATOM     21  N   UNL A   1      33.244  26.239  21.453  1.00  0.00    -0.245 NA
ENDBRANCH  12  17
ENDBRANCH   9  10
ENDBRANCH   6   8
ENDBRANCH   3   4
ENDBRANCH   2   3
ENDBRANCH   1   2
BRANCH   1  22
ATOM     22  C   UNL A   1      35.453  29.377  27.851  1.00  0.00     0.116 C 
BRANCH  22  23
ATOM     23  N   UNL A   1      35.572  29.764  29.262  1.00  0.00    -0.352 N 
ATOM     24  C   UNL A   1      36.574  29.413  30.169  1.00  0.00     0.251 C 
ATOM     25  H   UNL A   1      34.857  30.344  29.612  1.00  0.00     0.163 HD
ATOM     26  O   UNL A   1      36.376  29.464  31.369  1.00  0.00    -0.269 OA
BRANCH  24  27
ATOM     27  C   UNL A   1      37.888  29.000  29.625  1.00  0.00     0.039 A 
ATOM     28  C   UNL A   1      38.490  29.568  28.497  1.00  0.00     0.014 A 
ATOM     29  C   UNL A   1      38.540  28.005  30.336  1.00  0.00     0.014 A 
ATOM     30  C   UNL A   1      39.775  29.139  28.138  1.00  0.00     0.010 A 
ATOM     31  C   UNL A   1      39.877  27.827  30.173  1.00  0.00     0.010 A 
ATOM     32  C   UNL A   1      40.455  28.260  28.992  1.00  0.00    -0.014 A 
BRANCH  32  33
ATOM     33  C   UNL A   1      41.811  27.768  28.784  1.00  0.00     0.031 A 
ATOM     34  C   UNL A   1      41.867  26.499  28.018  1.00  0.00     0.074 A 
ATOM     35  C   UNL A   1      42.878  28.593  28.942  1.00  0.00     0.049 A 
ATOM     36  N   UNL A   1      42.175  25.324  28.454  1.00  0.00    -0.248 NA
ATOM     37  C   UNL A   1      41.311  26.489  26.652  1.00  0.00     0.031 C 
ATOM     38  C   UNL A   1      42.879  30.005  29.363  1.00  0.00     0.029 A 
ATOM     39  N   UNL A   1      44.190  28.387  28.644  1.00  0.00    -0.354 N 
ATOM     40  C   UNL A   1      42.122  24.486  27.343  1.00  0.00     0.074 A 
ATOM     41  C   UNL A   1      41.325  25.184  26.377  1.00  0.00     0.031 C 
ATOM     42  C   UNL A   1      44.078  30.570  29.091  1.00  0.00     0.029 A 
ATOM     43  C   UNL A   1      44.988  29.537  28.630  1.00  0.00     0.049 A 
ATOM     44  H   UNL A   1      44.553  27.493  28.453  1.00  0.00     0.167 HD
ATOM     45  C   UNL A   1      42.989  23.442  27.210  1.00  0.00     0.034 A 
ATOM     46  C   UNL A   1      46.300  29.633  28.268  1.00  0.00     0.034 A 
ATOM     47  C   UNL A   1      43.698  23.227  28.457  1.00  0.00     0.049 A 
ATOM     48  C   UNL A   1      46.848  28.256  28.335  1.00  0.00     0.074 A 
ATOM     49  C   UNL A   1      43.335  22.871  29.740  1.00  0.00     0.029 A 
ATOM     50  N   UNL A   1      44.951  23.793  28.560  1.00  0.00    -0.354 N 
ATOM     51  N   UNL A   1      46.951  27.588  29.450  1.00  0.00    -0.248 NA
ATOM     52  C   UNL A   1      46.800  27.439  27.131  1.00  0.00     0.031 C 
ATOM     53  C   UNL A   1      44.173  23.654  30.590  1.00  0.00     0.029 A 
ATOM     54  C   UNL A   1      45.069  24.376  29.798  1.00  0.00     0.049 A 
ATOM     55  H   UNL A   1      45.646  23.781  27.864  1.00  0.00     0.167 HD
ATOM     56  C   UNL A   1      46.530  26.303  29.141  1.00  0.00     0.074 A 
ATOM     57  C   UNL A   1      46.566  26.241  27.679  1.00  0.00     0.031 C 
ATOM     58  C   UNL A   1      45.910  25.528  30.081  1.00  0.00     0.034 A 
BRANCH  45  59
ATOM     59  C   UNL A   1      43.529  22.890  25.899  1.00  0.00     0.023 A 
ATOM     60  C   UNL A   1      43.567  21.485  25.782  1.00  0.00     0.031 A 
ATOM     61  C   UNL A   1      44.239  23.596  24.904  1.00  0.00     0.131 A 
ATOM     62  C   UNL A   1      44.385  20.854  24.833  1.00  0.00     0.055 A 
ATOM     63  C   UNL A   1      45.005  22.961  23.919  1.00  0.00     0.041 A 
ATOM     64  F   UNL A   1      44.304  24.929  24.852  1.00  0.00    -0.206 F 
ATOM     65  C   UNL A   1      45.115  21.583  23.903  1.00  0.00     0.022 A 
BRANCH  62  66
ATOM     66  S   UNL A   1      44.623  19.064  24.966  1.00  0.00     0.124 S 
ATOM     67  O   UNL A   1      43.369  18.648  25.584  1.00  0.00    -0.237 OA
ATOM     68  O   UNL A   1      44.814  18.684  23.570  1.00  0.00    -0.237 OA
ATOM     69  O   UNL A   1      45.807  18.944  25.814  1.00  0.00    -0.744 OA
ENDBRANCH  62  66
ENDBRANCH  45  59
BRANCH  46  70
ATOM     70  C   UNL A   1      46.998  30.749  27.561  1.00  0.00     0.023 A 
ATOM     71  C   UNL A   1      46.338  31.837  26.939  1.00  0.00     0.031 A 
ATOM     72  C   UNL A   1      48.395  30.876  27.730  1.00  0.00     0.131 A 
ATOM     73  C   UNL A   1      47.073  32.980  26.522  1.00  0.00     0.055 A 
ATOM     74  C   UNL A   1      49.112  32.006  27.325  1.00  0.00     0.041 A 
ATOM     75  F   UNL A   1      49.096  29.934  28.381  1.00  0.00    -0.206 F 
ATOM     76  C   UNL A   1      48.452  33.067  26.726  1.00  0.00     0.022 A 
BRANCH  73  77
ATOM     77  S   UNL A   1      46.241  34.417  25.753  1.00  0.00     0.124 S 
ATOM     78  O   UNL A   1      47.307  35.012  24.957  1.00  0.00    -0.237 OA
ATOM     79  O   UNL A   1      45.151  33.788  25.015  1.00  0.00    -0.237 OA
ATOM     80  O   UNL A   1      45.814  35.220  26.900  1.00  0.00    -0.744 OA
ENDBRANCH  73  77
ENDBRANCH  46  70
BRANCH  58  81
ATOM     81  C   UNL A   1      45.963  26.000  31.523  1.00  0.00     0.023 A 
ATOM     82  C   UNL A   1      44.892  26.602  32.229  1.00  0.00     0.031 A 
ATOM     83  C   UNL A   1      47.139  25.723  32.239  1.00  0.00     0.131 A 
ATOM     84  C   UNL A   1      45.035  26.912  33.597  1.00  0.00     0.055 A 
ATOM     85  C   UNL A   1      47.267  26.008  33.597  1.00  0.00     0.041 A 
ATOM     86  F   UNL A   1      48.180  25.131  31.631  1.00  0.00    -0.206 F 
ATOM     87  C   UNL A   1      46.217  26.609  34.281  1.00  0.00     0.022 A 
BRANCH  84  88
ATOM     88  S   UNL A   1      43.692  27.738  34.516  1.00  0.00     0.124 S 
ATOM     89  O   UNL A   1      42.841  26.634  34.943  1.00  0.00    -0.237 OA
ATOM     90  O   UNL A   1      44.415  28.434  35.577  1.00  0.00    -0.237 OA
ATOM     91  O   UNL A   1      43.088  28.621  33.515  1.00  0.00    -0.744 OA
ENDBRANCH  84  88
ENDBRANCH  58  81
ENDBRANCH  32  33
ENDBRANCH  24  27
ENDBRANCH  22  23
ENDBRANCH   1  22
TORSDOF 16
ENDMDL
MODEL 3
REMARK VINA RESULT:     -12.1      1.301      1.781
REMARK SMILES O=C(/C=C/c1ccc(Br)cc1-n1ccnc1)NCCCCNC(=O)c1ccc(-c2c3nc(c(-c4cc(S(=O)(=O)[O-])ccc4F)c4ccc([nH]4)c(-c4cc(S(=O)(=O)[O-])ccc4F)c4nc(c(-c5cc(S(=O)(=O)[O-])ccc5F)c5ccc2[nH]5)C=C4)C=C3)cc1
REMARK SMILES IDX 20 1 19 2 18 3 17 4 1 5 2 6 3 8 4 9 5 10 6 11 11 12 7 13
REMARK SMILES IDX 10 14 8 15 9 16 12 17 13 18 16 19 14 20 15 21 21 22 22 23
REMARK SMILES IDX 23 24 24 26 25 27 26 28 87 29 27 30 86 31 28 32 29 33 30 34
REMARK SMILES IDX 80 35 31 36 85 37 79 38 81 39 32 40 84 41 78 42 77 43 33 45
REMARK SMILES IDX 65 46 45 47 64 48 46 49 49 50 63 51 82 52 47 53 48 54 62 56
REMARK SMILES IDX 83 57 50 58 34 59 35 60 43 61 36 62 42 63 44 64 41 65 37 66
REMARK SMILES IDX 38 67 39 68 40 69 66 70 67 71 75 72 68 73 74 74 76 75 73 76
REMARK SMILES IDX 69 77 70 78 71 79 72 80 51 81 52 82 60 83 53 84 59 85 61 86
REMARK SMILES IDX 58 87 54 88 55 89 56 90 57 91
REMARK H PARENT 17 7 22 25 81 44 49 55
REMARK Flexibility Score: inf
ROOT
ATOM      1  C   UNL A   1      33.302  31.382  26.614  1.00  0.00     0.023 C 
ENDROOT
BRANCH   1   2
ATOM      2  C   UNL A   1      33.801  30.046  27.189  1.00  0.00     0.023 C 
BRANCH   2   3
ATOM      3  C   UNL A   1      32.842  28.852  27.089  1.00  0.00     0.116 C 
BRANCH   3   4
ATOM      4  N   UNL A   1      33.490  27.641  26.618  1.00  0.00    -0.353 N 
ATOM      5  O   UNL A   1      32.819  27.833  24.429  1.00  0.00    -0.270 OA
ATOM      6  C   UNL A   1      33.418  27.227  25.311  1.00  0.00     0.244 C 
ATOM      7  H   UNL A   1      34.002  27.097  27.259  1.00  0.00     0.163 HD
BRANCH   6   8
ATOM      8  C   UNL A   1      34.089  25.942  24.964  1.00  0.00     0.072 C 
ATOM      9  C   UNL A   1      34.828  25.184  25.788  1.00  0.00     0.016 C 
BRANCH   9  10
ATOM     10  C   UNL A   1      35.352  23.848  25.444  1.00  0.00    -0.001 A 
ATOM     11  C   UNL A   1      36.670  23.709  24.980  1.00  0.00     0.011 A 
ATOM     12  C   UNL A   1      34.617  22.674  25.726  1.00  0.00     0.055 A 
ATOM     13  C   UNL A   1      37.232  22.442  24.786  1.00  0.00     0.016 A 
ATOM     14  C   UNL A   1      35.194  21.403  25.573  1.00  0.00     0.043 A 
ATOM     15  C   UNL A   1      36.494  21.298  25.085  1.00  0.00     0.020 A 
ATOM     16  Br  UNL A   1      37.253  19.590  24.799  1.00  0.00    -0.051 Br
BRANCH  12  17
ATOM     17  N   UNL A   1      33.264  22.741  26.129  1.00  0.00    -0.306 N 
ATOM     18  C   UNL A   1      32.155  22.589  25.328  1.00  0.00     0.113 A 
ATOM     19  C   UNL A   1      32.791  22.952  27.402  1.00  0.00     0.204 A 
ATOM     20  C   UNL A   1      31.072  22.742  26.159  1.00  0.00     0.131 A 
ATOM     21  N   UNL A   1      31.476  22.973  27.445  1.00  0.00    -0.245 NA
ENDBRANCH  12  17
ENDBRANCH   9  10
ENDBRANCH   6   8
ENDBRANCH   3   4
ENDBRANCH   2   3
ENDBRANCH   1   2
BRANCH   1  22
ATOM     22  C   UNL A   1      32.184  32.039  27.409  1.00  0.00     0.116 C 
BRANCH  22  23
ATOM     23  N   UNL A   1      32.227  33.506  27.405  1.00  0.00    -0.352 N 
ATOM     24  C   UNL A   1      33.011  34.346  28.200  1.00  0.00     0.251 C 
ATOM     25  H   UNL A   1      31.630  33.954  26.763  1.00  0.00     0.163 HD
ATOM     26  O   UNL A   1      32.694  35.507  28.383  1.00  0.00    -0.269 OA
BRANCH  24  27
ATOM     27  C   UNL A   1      34.247  33.785  28.791  1.00  0.00     0.039 A 
ATOM     28  C   UNL A   1      34.305  33.127  30.024  1.00  0.00     0.014 A 
ATOM     29  C   UNL A   1      35.389  33.915  28.016  1.00  0.00     0.014 A 
ATOM     30  C   UNL A   1      35.527  32.570  30.428  1.00  0.00     0.010 A 
ATOM     31  C   UNL A   1      36.462  33.119  28.261  1.00  0.00     0.010 A 
ATOM     32  C   UNL A   1      36.601  32.579  29.528  1.00  0.00    -0.014 A 
BRANCH  32  33
ATOM     33  C   UNL A   1      37.912  31.995  29.781  1.00  0.00     0.031 A 
ATOM     34  C   UNL A   1      38.035  30.594  29.307  1.00  0.00     0.074 A 
ATOM     35  C   UNL A   1      38.980  32.786  30.058  1.00  0.00     0.049 A 
ATOM     36  N   UNL A   1      38.110  29.522  30.020  1.00  0.00    -0.248 NA
ATOM     37  C   UNL A   1      37.840  30.329  27.869  1.00  0.00     0.031 C 
ATOM     38  C   UNL A   1      39.012  34.253  30.193  1.00  0.00     0.029 A 
ATOM     39  N   UNL A   1      40.299  32.465  30.161  1.00  0.00    -0.354 N 
ATOM     40  C   UNL A   1      38.255  28.477  29.111  1.00  0.00     0.074 A 
ATOM     41  C   UNL A   1      37.796  28.996  27.856  1.00  0.00     0.031 C 
ATOM     42  C   UNL A   1      40.290  34.696  30.147  1.00  0.00     0.029 A 
ATOM     43  C   UNL A   1      41.182  33.551  30.144  1.00  0.00     0.049 A 
ATOM     44  H   UNL A   1      40.610  31.536  30.242  1.00  0.00     0.167 HD
ATOM     45  C   UNL A   1      39.024  27.390  29.410  1.00  0.00     0.034 A 
ATOM     46  C   UNL A   1      42.546  33.513  30.130  1.00  0.00     0.034 A 
ATOM     47  C   UNL A   1      39.374  27.404  30.816  1.00  0.00     0.049 A 
ATOM     48  C   UNL A   1      42.924  32.156  30.594  1.00  0.00     0.074 A 
ATOM     49  C   UNL A   1      38.670  27.335  32.001  1.00  0.00     0.029 A 
ATOM     50  N   UNL A   1      40.610  27.923  31.140  1.00  0.00    -0.354 N 
ATOM     51  N   UNL A   1      42.680  31.727  31.802  1.00  0.00    -0.248 NA
ATOM     52  C   UNL A   1      43.100  31.112  29.595  1.00  0.00     0.031 C 
ATOM     53  C   UNL A   1      39.341  28.238  32.881  1.00  0.00     0.029 A 
ATOM     54  C   UNL A   1      40.472  28.741  32.233  1.00  0.00     0.049 A 
ATOM     55  H   UNL A   1      41.453  27.737  30.667  1.00  0.00     0.167 HD
ATOM     56  C   UNL A   1      42.229  30.426  31.637  1.00  0.00     0.074 A 
ATOM     57  C   UNL A   1      42.623  30.063  30.276  1.00  0.00     0.031 C 
ATOM     58  C   UNL A   1      41.322  29.889  32.508  1.00  0.00     0.034 A 
BRANCH  45  59
ATOM     59  C   UNL A   1      39.818  26.558  28.415  1.00  0.00     0.023 A 
ATOM     60  C   UNL A   1      40.978  27.159  27.884  1.00  0.00     0.031 A 
ATOM     61  C   UNL A   1      39.397  25.380  27.759  1.00  0.00     0.131 A 
ATOM     62  C   UNL A   1      41.564  26.693  26.697  1.00  0.00     0.055 A 
ATOM     63  C   UNL A   1      40.023  24.883  26.609  1.00  0.00     0.041 A 
ATOM     64  F   UNL A   1      38.326  24.673  28.130  1.00  0.00    -0.206 F 
ATOM     65  C   UNL A   1      41.088  25.562  26.046  1.00  0.00     0.022 A 
BRANCH  62  66
ATOM     66  S   UNL A   1      42.840  27.713  25.917  1.00  0.00     0.124 S 
ATOM     67  O   UNL A   1      44.053  26.985  26.274  1.00  0.00    -0.237 OA
ATOM     68  O   UNL A   1      42.445  27.664  24.513  1.00  0.00    -0.237 OA
ATOM     69  O   UNL A   1      42.678  29.011  26.567  1.00  0.00    -0.744 OA
ENDBRANCH  62  66
ENDBRANCH  45  59
BRANCH  46  70
ATOM     70  C   UNL A   1      43.503  34.428  29.437  1.00  0.00     0.023 A 
ATOM     71  C   UNL A   1      44.120  34.145  28.194  1.00  0.00     0.031 A 
ATOM     72  C   UNL A   1      43.614  35.756  29.905  1.00  0.00     0.131 A 
ATOM     73  C   UNL A   1      44.805  35.168  27.482  1.00  0.00     0.055 A 
ATOM     74  C   UNL A   1      44.282  36.759  29.197  1.00  0.00     0.041 A 
ATOM     75  F   UNL A   1      42.995  36.140  31.033  1.00  0.00    -0.206 F 
ATOM     76  C   UNL A   1      44.874  36.471  27.978  1.00  0.00     0.022 A 
BRANCH  73  77
ATOM     77  S   UNL A   1      45.576  34.841  25.856  1.00  0.00     0.124 S 
ATOM     78  O   UNL A   1      46.321  36.068  25.606  1.00  0.00    -0.237 OA
ATOM     79  O   UNL A   1      46.364  33.643  26.119  1.00  0.00    -0.237 OA
ATOM     80  O   UNL A   1      44.430  34.632  24.969  1.00  0.00    -0.744 OA
ENDBRANCH  73  77
ENDBRANCH  46  70
BRANCH  58  81
ATOM     81  C   UNL A   1      41.058  30.644  33.799  1.00  0.00     0.023 A 
ATOM     82  C   UNL A   1      39.990  31.548  34.016  1.00  0.00     0.031 A 
ATOM     83  C   UNL A   1      41.884  30.339  34.892  1.00  0.00     0.131 A 
ATOM     84  C   UNL A   1      39.795  32.117  35.291  1.00  0.00     0.055 A 
ATOM     85  C   UNL A   1      41.673  30.884  36.157  1.00  0.00     0.041 A 
ATOM     86  F   UNL A   1      42.899  29.470  34.755  1.00  0.00    -0.206 F 
ATOM     87  C   UNL A   1      40.630  31.780  36.361  1.00  0.00     0.022 A 
BRANCH  84  88
ATOM     88  S   UNL A   1      38.461  33.328  35.584  1.00  0.00     0.124 S 
ATOM     89  O   UNL A   1      38.647  34.304  34.519  1.00  0.00    -0.237 OA
ATOM     90  O   UNL A   1      37.259  32.504  35.493  1.00  0.00    -0.237 OA
ATOM     91  O   UNL A   1      38.748  33.831  36.930  1.00  0.00    -0.744 OA
ENDBRANCH  84  88
ENDBRANCH  58  81
ENDBRANCH  32  33
ENDBRANCH  24  27
ENDBRANCH  22  23
ENDBRANCH   1  22
TORSDOF 16
ENDMDL
