MODEL 1
REMARK VINA RESULT:     -11.2      0.000      0.000
REMARK SMILES CCCCCCNC(=O)Oc1cccc(-c2ccc([C@H](C)C(=O)NCCCCNC(=O)c3ccc(-c4c5nc(c(-c6cc(S(=O)(=O)[O-])ccc6F)c6ccc([nH]6)c(-c6cc(S(=O)(=O)[O-])ccc6F)c6nc(c(-c7cc(S(=O)(=O)[O-])ccc7F)c7ccc4[nH]7)C=C6)C=C5)cc3)cc2F)c1
REMARK SMILES IDX 20 1 21 2 19 3 16 4 17 5 96 6 18 7 95 8 97 9 15 10 11 11
REMARK SMILES IDX 12 12 98 13 13 14 14 15 10 16 8 17 7 18 9 20 6 21 5 22 4 23
REMARK SMILES IDX 3 24 2 25 1 26 22 27 23 28 24 29 25 31 26 32 27 33 28 34
REMARK SMILES IDX 29 35 30 36 31 38 32 39 33 40 94 41 34 42 93 43 35 44 36 45
REMARK SMILES IDX 37 46 87 47 38 48 92 49 86 50 88 51 39 52 91 53 85 54 84 55
REMARK SMILES IDX 40 57 72 58 52 59 71 60 53 61 56 62 70 63 89 64 54 65 55 66
REMARK SMILES IDX 69 68 90 69 57 70 41 71 42 72 50 73 43 74 49 75 51 76 48 77
REMARK SMILES IDX 44 78 45 79 46 80 47 81 73 82 74 83 82 84 75 85 81 86 83 87
REMARK SMILES IDX 80 88 76 89 77 90 78 91 79 92 58 93 59 94 67 95 60 96 66 97
REMARK SMILES IDX 68 98 65 99 61 100 62 101 63 102 64 103
REMARK H PARENT 7 19 24 30 29 37 88 56 56 67
REMARK Flexibility Score: inf
ROOT
ATOM      1  C   UNL A   1      33.679  21.603  24.298  1.00  0.00     0.105 C 
ATOM      2  C   UNL A   1      32.642  20.716  23.580  1.00  0.00     0.023 C 
ENDROOT
BRANCH   1   3
ATOM      3  C   UNL A   1      33.282  23.070  24.470  1.00  0.00    -0.033 A 
ATOM      4  C   UNL A   1      32.591  25.816  24.882  1.00  0.00     0.018 A 
ATOM      5  C   UNL A   1      33.328  25.409  23.761  1.00  0.00     0.012 A 
ATOM      6  C   UNL A   1      32.157  24.808  25.752  1.00  0.00     0.131 A 
ATOM      7  C   UNL A   1      33.639  24.061  23.543  1.00  0.00     0.005 A 
ATOM      8  C   UNL A   1      32.486  23.465  25.553  1.00  0.00     0.044 A 
ATOM      9  F   UNL A   1      31.396  25.109  26.818  1.00  0.00    -0.206 F 
BRANCH   4  10
ATOM     10  C   UNL A   1      32.302  27.243  25.119  1.00  0.00    -0.012 A 
ATOM     11  C   UNL A   1      32.719  29.322  26.306  1.00  0.00     0.133 A 
ATOM     12  C   UNL A   1      31.752  29.982  25.554  1.00  0.00     0.047 A 
ATOM     13  C   UNL A   1      32.992  27.968  26.104  1.00  0.00     0.056 A 
ATOM     14  C   UNL A   1      31.063  29.283  24.570  1.00  0.00     0.004 A 
ATOM     15  C   UNL A   1      31.333  27.927  24.359  1.00  0.00     0.009 A 
BRANCH  11  16
ATOM     16  O   UNL A   1      33.304  30.047  27.357  1.00  0.00    -0.410 OA
BRANCH  16  17
ATOM     17  C   UNL A   1      34.673  30.264  27.351  1.00  0.00     0.412 C 
ATOM     18  N   UNL A   1      35.005  31.572  27.567  1.00  0.00    -0.321 N 
ATOM     19  H   UNL A   1      35.963  31.795  27.541  1.00  0.00     0.167 HD
ATOM     20  O   UNL A   1      35.541  29.414  27.171  1.00  0.00    -0.224 OA
BRANCH  18  21
ATOM     21  C   UNL A   1      34.089  32.663  27.826  1.00  0.00     0.119 C 
BRANCH  21  22
ATOM     22  C   UNL A   1      34.321  33.286  29.203  1.00  0.00     0.021 C 
BRANCH  22  23
ATOM     23  C   UNL A   1      33.438  34.500  29.513  1.00  0.00     0.002 C 
BRANCH  23  24
ATOM     24  C   UNL A   1      33.725  35.201  30.846  1.00  0.00    -0.000 C 
BRANCH  24  25
ATOM     25  C   UNL A   1      32.836  36.408  31.157  1.00  0.00    -0.003 C 
ATOM     26  C   UNL A   1      33.540  37.475  31.982  1.00  0.00     0.004 C 
ENDBRANCH  24  25
ENDBRANCH  23  24
ENDBRANCH  22  23
ENDBRANCH  21  22
ENDBRANCH  18  21
ENDBRANCH  16  17
ENDBRANCH  11  16
ENDBRANCH   4  10
ENDBRANCH   1   3
BRANCH   1  27
ATOM     27  C   UNL A   1      34.129  20.898  25.581  1.00  0.00     0.227 C 
ATOM     28  O   UNL A   1      33.358  20.159  26.201  1.00  0.00    -0.274 OA
ATOM     29  N   UNL A   1      35.387  21.080  26.083  1.00  0.00    -0.356 N 
ATOM     30  H   UNL A   1      35.558  20.664  26.958  1.00  0.00     0.163 HD
BRANCH  29  31
ATOM     31  C   UNL A   1      36.511  21.803  25.505  1.00  0.00     0.116 C 
BRANCH  31  32
ATOM     32  C   UNL A   1      37.283  20.958  24.499  1.00  0.00     0.023 C 
BRANCH  32  33
ATOM     33  C   UNL A   1      38.163  19.874  25.122  1.00  0.00     0.023 C 
BRANCH  33  34
ATOM     34  C   UNL A   1      39.256  20.383  26.059  1.00  0.00     0.116 C 
BRANCH  34  35
ATOM     35  N   UNL A   1      40.428  19.523  26.079  1.00  0.00    -0.352 N 
ATOM     36  C   UNL A   1      41.753  19.869  26.198  1.00  0.00     0.251 C 
ATOM     37  H   UNL A   1      40.248  18.558  25.996  1.00  0.00     0.163 HD
ATOM     38  O   UNL A   1      42.626  19.024  26.025  1.00  0.00    -0.269 OA
BRANCH  36  39
ATOM     39  C   UNL A   1      42.116  21.271  26.498  1.00  0.00     0.039 A 
ATOM     40  C   UNL A   1      42.420  21.626  27.814  1.00  0.00     0.014 A 
ATOM     41  C   UNL A   1      42.184  22.223  25.477  1.00  0.00     0.014 A 
ATOM     42  C   UNL A   1      42.868  22.920  28.092  1.00  0.00     0.010 A 
ATOM     43  C   UNL A   1      42.709  23.484  25.744  1.00  0.00     0.010 A 
ATOM     44  C   UNL A   1      43.056  23.847  27.054  1.00  0.00    -0.014 A 
BRANCH  44  45
ATOM     45  C   UNL A   1      43.608  25.202  27.319  1.00  0.00     0.031 A 
ATOM     46  C   UNL A   1      42.731  26.271  27.911  1.00  0.00     0.074 A 
ATOM     47  C   UNL A   1      44.879  25.487  26.972  1.00  0.00     0.049 A 
ATOM     48  N   UNL A   1      43.002  27.527  28.155  1.00  0.00    -0.248 NA
ATOM     49  C   UNL A   1      41.354  25.878  28.241  1.00  0.00     0.031 C 
ATOM     50  C   UNL A   1      45.819  24.547  26.359  1.00  0.00     0.029 A 
ATOM     51  N   UNL A   1      45.600  26.649  27.086  1.00  0.00    -0.354 N 
ATOM     52  C   UNL A   1      41.829  28.076  28.662  1.00  0.00     0.074 A 
ATOM     53  C   UNL A   1      40.826  27.034  28.609  1.00  0.00     0.031 C 
ATOM     54  C   UNL A   1      47.002  25.157  26.187  1.00  0.00     0.029 A 
ATOM     55  C   UNL A   1      46.894  26.543  26.630  1.00  0.00     0.049 A 
ATOM     56  H   UNL A   1      45.227  27.480  27.458  1.00  0.00     0.167 HD
ATOM     57  C   UNL A   1      41.615  29.322  29.156  1.00  0.00     0.034 A 
ATOM     58  C   UNL A   1      47.879  27.461  26.574  1.00  0.00     0.034 A 
ATOM     59  C   UNL A   1      42.628  30.351  29.198  1.00  0.00     0.049 A 
ATOM     60  C   UNL A   1      47.606  28.857  27.074  1.00  0.00     0.074 A 
ATOM     61  C   UNL A   1      42.534  31.636  29.705  1.00  0.00     0.029 A 
ATOM     62  N   UNL A   1      43.921  30.215  28.704  1.00  0.00    -0.354 N 
ATOM     63  N   UNL A   1      46.503  29.351  27.588  1.00  0.00    -0.248 NA
ATOM     64  C   UNL A   1      48.715  29.815  26.991  1.00  0.00     0.031 C 
ATOM     65  C   UNL A   1      43.743  32.296  29.455  1.00  0.00     0.029 A 
ATOM     66  C   UNL A   1      44.621  31.401  28.866  1.00  0.00     0.049 A 
ATOM     67  H   UNL A   1      44.286  29.396  28.299  1.00  0.00     0.167 HD
ATOM     68  C   UNL A   1      46.799  30.669  27.925  1.00  0.00     0.074 A 
ATOM     69  C   UNL A   1      48.186  30.887  27.564  1.00  0.00     0.031 C 
ATOM     70  C   UNL A   1      46.001  31.612  28.489  1.00  0.00     0.034 A 
BRANCH  57  71
ATOM     71  C   UNL A   1      40.224  29.631  29.661  1.00  0.00     0.023 A 
ATOM     72  C   UNL A   1      39.933  29.667  31.037  1.00  0.00     0.031 A 
ATOM     73  C   UNL A   1      39.160  29.832  28.763  1.00  0.00     0.131 A 
ATOM     74  C   UNL A   1      38.605  29.788  31.473  1.00  0.00     0.055 A 
ATOM     75  C   UNL A   1      37.854  30.052  29.207  1.00  0.00     0.041 A 
ATOM     76  F   UNL A   1      39.366  29.791  27.438  1.00  0.00    -0.206 F 
ATOM     77  C   UNL A   1      37.566  30.009  30.568  1.00  0.00     0.022 A 
BRANCH  74  78
ATOM     78  S   UNL A   1      38.238  29.466  33.219  1.00  0.00     0.124 S 
ATOM     79  O   UNL A   1      37.560  30.700  33.610  1.00  0.00    -0.237 OA
ATOM     80  O   UNL A   1      37.404  28.272  33.152  1.00  0.00    -0.237 OA
ATOM     81  O   UNL A   1      39.557  29.275  33.817  1.00  0.00    -0.744 OA
ENDBRANCH  74  78
ENDBRANCH  57  71
BRANCH  58  82
ATOM     82  C   UNL A   1      49.221  27.097  26.034  1.00  0.00     0.023 A 
ATOM     83  C   UNL A   1      49.589  27.456  24.728  1.00  0.00     0.031 A 
ATOM     84  C   UNL A   1      50.139  26.357  26.799  1.00  0.00     0.131 A 
ATOM     85  C   UNL A   1      50.824  27.038  24.209  1.00  0.00     0.055 A 
ATOM     86  C   UNL A   1      51.388  25.987  26.296  1.00  0.00     0.041 A 
ATOM     87  F   UNL A   1      49.839  25.992  28.056  1.00  0.00    -0.206 F 
ATOM     88  C   UNL A   1      51.732  26.318  24.989  1.00  0.00     0.022 A 
BRANCH  85  89
ATOM     89  S   UNL A   1      51.196  27.387  22.468  1.00  0.00     0.124 S 
ATOM     90  O   UNL A   1      50.093  26.720  21.789  1.00  0.00    -0.237 OA
ATOM     91  O   UNL A   1      51.180  28.846  22.442  1.00  0.00    -0.237 OA
ATOM     92  O   UNL A   1      52.511  26.777  22.274  1.00  0.00    -0.744 OA
ENDBRANCH  85  89
ENDBRANCH  58  82
BRANCH  70  93
ATOM     93  C   UNL A   1      46.631  32.950  28.794  1.00  0.00     0.023 A 
ATOM     94  C   UNL A   1      46.669  33.986  27.846  1.00  0.00     0.031 A 
ATOM     95  C   UNL A   1      47.220  33.181  30.050  1.00  0.00     0.131 A 
ATOM     96  C   UNL A   1      47.334  35.185  28.147  1.00  0.00     0.055 A 
ATOM     97  C   UNL A   1      47.824  34.399  30.367  1.00  0.00     0.041 A 
ATOM     98  F   UNL A   1      47.216  32.226  30.994  1.00  0.00    -0.206 F 
ATOM     99  C   UNL A   1      47.897  35.405  29.407  1.00  0.00     0.022 A 
BRANCH  96 100
ATOM    100  S   UNL A   1      47.543  36.420  26.835  1.00  0.00     0.124 S 
ATOM    101  O   UNL A   1      46.169  36.628  26.391  1.00  0.00    -0.237 OA
ATOM    102  O   UNL A   1      48.157  37.534  27.550  1.00  0.00    -0.237 OA
ATOM    103  O   UNL A   1      48.412  35.751  25.868  1.00  0.00    -0.744 OA
ENDBRANCH  96 100
ENDBRANCH  70  93
ENDBRANCH  44  45
ENDBRANCH  36  39
ENDBRANCH  34  35
ENDBRANCH  33  34
ENDBRANCH  32  33
ENDBRANCH  31  32
ENDBRANCH  29  31
ENDBRANCH   1  27
TORSDOF 23
ENDMDL
MODEL 2
REMARK VINA RESULT:     -11.0      4.613     11.627
REMARK SMILES CCCCCCNC(=O)Oc1cccc(-c2ccc([C@H](C)C(=O)NCCCCNC(=O)c3ccc(-c4c5nc(c(-c6cc(S(=O)(=O)[O-])ccc6F)c6ccc([nH]6)c(-c6cc(S(=O)(=O)[O-])ccc6F)c6nc(c(-c7cc(S(=O)(=O)[O-])ccc7F)c7ccc4[nH]7)C=C6)C=C5)cc3)cc2F)c1
REMARK SMILES IDX 20 1 21 2 19 3 16 4 17 5 96 6 18 7 95 8 97 9 15 10 11 11
REMARK SMILES IDX 12 12 98 13 13 14 14 15 10 16 8 17 7 18 9 20 6 21 5 22 4 23
REMARK SMILES IDX 3 24 2 25 1 26 22 27 23 28 24 29 25 31 26 32 27 33 28 34
REMARK SMILES IDX 29 35 30 36 31 38 32 39 33 40 94 41 34 42 93 43 35 44 36 45
REMARK SMILES IDX 37 46 87 47 38 48 92 49 86 50 88 51 39 52 91 53 85 54 84 55
REMARK SMILES IDX 40 57 72 58 52 59 71 60 53 61 56 62 70 63 89 64 54 65 55 66
REMARK SMILES IDX 69 68 90 69 57 70 41 71 42 72 50 73 43 74 49 75 51 76 48 77
REMARK SMILES IDX 44 78 45 79 46 80 47 81 73 82 74 83 82 84 75 85 81 86 83 87
REMARK SMILES IDX 80 88 76 89 77 90 78 91 79 92 58 93 59 94 67 95 60 96 66 97
REMARK SMILES IDX 68 98 65 99 61 100 62 101 63 102 64 103
REMARK H PARENT 7 19 24 30 29 37 88 56 56 67
REMARK Flexibility Score: inf
ROOT
ATOM      1  C   UNL A   1      32.916  23.407  22.945  1.00  0.00     0.105 C 
ATOM      2  C   UNL A   1      32.899  24.219  21.634  1.00  0.00     0.023 C 
ENDROOT
BRANCH   1   3
ATOM      3  C   UNL A   1      34.247  23.405  23.700  1.00  0.00    -0.033 A 
ATOM      4  C   UNL A   1      36.707  23.314  25.159  1.00  0.00     0.018 A 
ATOM      5  C   UNL A   1      36.686  23.272  23.757  1.00  0.00     0.012 A 
ATOM      6  C   UNL A   1      35.472  23.466  25.803  1.00  0.00     0.131 A 
ATOM      7  C   UNL A   1      35.485  23.348  23.043  1.00  0.00     0.005 A 
ATOM      8  C   UNL A   1      34.269  23.518  25.096  1.00  0.00     0.044 A 
ATOM      9  F   UNL A   1      35.410  23.574  27.141  1.00  0.00    -0.206 F 
BRANCH   4  10
ATOM     10  C   UNL A   1      37.976  23.194  25.901  1.00  0.00    -0.012 A 
ATOM     11  C   UNL A   1      39.787  21.849  26.800  1.00  0.00     0.133 A 
ATOM     12  C   UNL A   1      40.417  22.979  27.310  1.00  0.00     0.047 A 
ATOM     13  C   UNL A   1      38.578  21.943  26.110  1.00  0.00     0.056 A 
ATOM     14  C   UNL A   1      39.839  24.228  27.108  1.00  0.00     0.004 A 
ATOM     15  C   UNL A   1      38.630  24.332  26.413  1.00  0.00     0.009 A 
BRANCH  11  16
ATOM     16  O   UNL A   1      40.357  20.608  27.129  1.00  0.00    -0.410 OA
BRANCH  16  17
ATOM     17  C   UNL A   1      40.668  19.714  26.116  1.00  0.00     0.412 C 
ATOM     18  N   UNL A   1      42.001  19.692  25.816  1.00  0.00    -0.321 N 
ATOM     19  H   UNL A   1      42.278  19.100  25.080  1.00  0.00     0.167 HD
ATOM     20  O   UNL A   1      39.873  18.998  25.511  1.00  0.00    -0.224 OA
BRANCH  18  21
ATOM     21  C   UNL A   1      43.045  20.454  26.469  1.00  0.00     0.119 C 
BRANCH  21  22
ATOM     22  C   UNL A   1      43.623  21.531  25.551  1.00  0.00     0.021 C 
BRANCH  22  23
ATOM     23  C   UNL A   1      45.154  21.559  25.483  1.00  0.00     0.002 C 
BRANCH  23  24
ATOM     24  C   UNL A   1      45.771  20.920  24.232  1.00  0.00    -0.000 C 
BRANCH  24  25
ATOM     25  C   UNL A   1      45.924  19.398  24.282  1.00  0.00    -0.003 C 
ATOM     26  C   UNL A   1      46.496  18.894  25.598  1.00  0.00     0.004 C 
ENDBRANCH  24  25
ENDBRANCH  23  24
ENDBRANCH  22  23
ENDBRANCH  21  22
ENDBRANCH  18  21
ENDBRANCH  16  17
ENDBRANCH  11  16
ENDBRANCH   4  10
ENDBRANCH   1   3
BRANCH   1  27
ATOM     27  C   UNL A   1      31.695  23.798  23.784  1.00  0.00     0.227 C 
ATOM     28  O   UNL A   1      30.942  22.936  24.246  1.00  0.00    -0.274 OA
ATOM     29  N   UNL A   1      31.399  25.110  24.029  1.00  0.00    -0.356 N 
ATOM     30  H   UNL A   1      30.547  25.271  24.497  1.00  0.00     0.163 HD
BRANCH  29  31
ATOM     31  C   UNL A   1      32.164  26.303  23.698  1.00  0.00     0.116 C 
BRANCH  31  32
ATOM     32  C   UNL A   1      32.923  26.853  24.900  1.00  0.00     0.023 C 
BRANCH  32  33
ATOM     33  C   UNL A   1      33.616  28.193  24.655  1.00  0.00     0.023 C 
BRANCH  33  34
ATOM     34  C   UNL A   1      34.314  28.794  25.872  1.00  0.00     0.116 C 
BRANCH  34  35
ATOM     35  N   UNL A   1      33.754  30.077  26.268  1.00  0.00    -0.352 N 
ATOM     36  C   UNL A   1      34.156  30.923  27.275  1.00  0.00     0.251 C 
ATOM     37  H   UNL A   1      32.980  30.383  25.742  1.00  0.00     0.163 HD
ATOM     38  O   UNL A   1      33.461  31.887  27.579  1.00  0.00    -0.269 OA
BRANCH  36  39
ATOM     39  C   UNL A   1      35.408  30.638  28.009  1.00  0.00     0.039 A 
ATOM     40  C   UNL A   1      36.432  31.586  27.995  1.00  0.00     0.014 A 
ATOM     41  C   UNL A   1      35.555  29.452  28.733  1.00  0.00     0.014 A 
ATOM     42  C   UNL A   1      37.575  31.378  28.771  1.00  0.00     0.010 A 
ATOM     43  C   UNL A   1      36.655  29.286  29.569  1.00  0.00     0.010 A 
ATOM     44  C   UNL A   1      37.678  30.247  29.597  1.00  0.00    -0.014 A 
BRANCH  44  45
ATOM     45  C   UNL A   1      38.849  30.047  30.491  1.00  0.00     0.031 A 
ATOM     46  C   UNL A   1      40.001  29.191  30.044  1.00  0.00     0.074 A 
ATOM     47  C   UNL A   1      38.847  30.586  31.727  1.00  0.00     0.049 A 
ATOM     48  N   UNL A   1      41.079  28.841  30.698  1.00  0.00    -0.248 NA
ATOM     49  C   UNL A   1      39.910  28.627  28.690  1.00  0.00     0.031 C 
ATOM     50  C   UNL A   1      37.774  31.407  32.290  1.00  0.00     0.029 A 
ATOM     51  N   UNL A   1      39.780  30.526  32.732  1.00  0.00    -0.354 N 
ATOM     52  C   UNL A   1      41.792  28.012  29.838  1.00  0.00     0.074 A 
ATOM     53  C   UNL A   1      40.980  27.849  28.650  1.00  0.00     0.031 C 
ATOM     54  C   UNL A   1      38.125  31.805  33.523  1.00  0.00     0.029 A 
ATOM     55  C   UNL A   1      39.423  31.230  33.859  1.00  0.00     0.049 A 
ATOM     56  H   UNL A   1      40.623  30.025  32.655  1.00  0.00     0.167 HD
ATOM     57  C   UNL A   1      43.022  27.466  30.007  1.00  0.00     0.034 A 
ATOM     58  C   UNL A   1      40.070  31.391  35.031  1.00  0.00     0.034 A 
ATOM     59  C   UNL A   1      43.817  27.637  31.200  1.00  0.00     0.049 A 
ATOM     60  C   UNL A   1      41.410  30.728  35.222  1.00  0.00     0.074 A 
ATOM     61  C   UNL A   1      45.089  27.157  31.468  1.00  0.00     0.029 A 
ATOM     62  N   UNL A   1      43.414  28.337  32.332  1.00  0.00    -0.354 N 
ATOM     63  N   UNL A   1      42.090  29.979  34.384  1.00  0.00    -0.248 NA
ATOM     64  C   UNL A   1      42.071  30.938  36.516  1.00  0.00     0.031 C 
ATOM     65  C   UNL A   1      45.422  27.507  32.782  1.00  0.00     0.029 A 
ATOM     66  C   UNL A   1      44.396  28.274  33.309  1.00  0.00     0.049 A 
ATOM     67  H   UNL A   1      42.554  28.808  32.425  1.00  0.00     0.167 HD
ATOM     68  C   UNL A   1      43.278  29.661  35.038  1.00  0.00     0.074 A 
ATOM     69  C   UNL A   1      43.222  30.308  36.334  1.00  0.00     0.031 C 
ATOM     70  C   UNL A   1      44.323  28.911  34.605  1.00  0.00     0.034 A 
BRANCH  57  71
ATOM     71  C   UNL A   1      43.556  26.613  28.877  1.00  0.00     0.023 A 
ATOM     72  C   UNL A   1      44.385  27.154  27.877  1.00  0.00     0.031 A 
ATOM     73  C   UNL A   1      43.186  25.262  28.759  1.00  0.00     0.131 A 
ATOM     74  C   UNL A   1      44.726  26.386  26.755  1.00  0.00     0.055 A 
ATOM     75  C   UNL A   1      43.611  24.473  27.687  1.00  0.00     0.041 A 
ATOM     76  F   UNL A   1      42.381  24.690  29.668  1.00  0.00    -0.206 F 
ATOM     77  C   UNL A   1      44.368  25.040  26.665  1.00  0.00     0.022 A 
BRANCH  74  78
ATOM     78  S   UNL A   1      45.479  27.223  25.333  1.00  0.00     0.124 S 
ATOM     79  O   UNL A   1      46.036  26.096  24.589  1.00  0.00    -0.237 OA
ATOM     80  O   UNL A   1      44.338  27.894  24.720  1.00  0.00    -0.237 OA
ATOM     81  O   UNL A   1      46.470  28.107  25.941  1.00  0.00    -0.744 OA
ENDBRANCH  74  78
ENDBRANCH  57  71
BRANCH  58  82
ATOM     82  C   UNL A   1      39.471  32.221  36.116  1.00  0.00     0.023 A 
ATOM     83  C   UNL A   1      38.676  31.632  37.111  1.00  0.00     0.031 A 
ATOM     84  C   UNL A   1      39.655  33.613  36.155  1.00  0.00     0.131 A 
ATOM     85  C   UNL A   1      38.057  32.436  38.080  1.00  0.00     0.055 A 
ATOM     86  C   UNL A   1      39.078  34.405  37.151  1.00  0.00     0.041 A 
ATOM     87  F   UNL A   1      40.410  34.226  35.230  1.00  0.00    -0.206 F 
ATOM     88  C   UNL A   1      38.264  33.818  38.115  1.00  0.00     0.022 A 
BRANCH  85  89
ATOM     89  S   UNL A   1      36.912  31.659  39.252  1.00  0.00     0.124 S 
ATOM     90  O   UNL A   1      36.686  30.360  38.630  1.00  0.00    -0.237 OA
ATOM     91  O   UNL A   1      37.696  31.654  40.484  1.00  0.00    -0.237 OA
ATOM     92  O   UNL A   1      35.762  32.561  39.253  1.00  0.00    -0.744 OA
ENDBRANCH  85  89
ENDBRANCH  58  82
BRANCH  70  93
ATOM     93  C   UNL A   1      45.513  28.794  35.528  1.00  0.00     0.023 A 
ATOM     94  C   UNL A   1      45.649  27.726  36.431  1.00  0.00     0.031 A 
ATOM     95  C   UNL A   1      46.515  29.780  35.514  1.00  0.00     0.131 A 
ATOM     96  C   UNL A   1      46.732  27.700  37.324  1.00  0.00     0.055 A 
ATOM     97  C   UNL A   1      47.622  29.716  36.361  1.00  0.00     0.041 A 
ATOM     98  F   UNL A   1      46.435  30.825  34.675  1.00  0.00    -0.206 F 
ATOM     99  C   UNL A   1      47.728  28.679  37.284  1.00  0.00     0.022 A 
BRANCH  96 100
ATOM    100  S   UNL A   1      46.770  26.422  38.612  1.00  0.00     0.124 S 
ATOM    101  O   UNL A   1      48.123  25.894  38.476  1.00  0.00    -0.237 OA
ATOM    102  O   UNL A   1      46.504  27.192  39.822  1.00  0.00    -0.237 OA
ATOM    103  O   UNL A   1      45.704  25.503  38.216  1.00  0.00    -0.744 OA
ENDBRANCH  96 100
ENDBRANCH  70  93
ENDBRANCH  44  45
ENDBRANCH  36  39
ENDBRANCH  34  35
ENDBRANCH  33  34
ENDBRANCH  32  33
ENDBRANCH  31  32
ENDBRANCH  29  31
ENDBRANCH   1  27
TORSDOF 23
ENDMDL
MODEL 3
REMARK VINA RESULT:     -10.8      4.631      9.546
REMARK SMILES CCCCCCNC(=O)Oc1cccc(-c2ccc([C@H](C)C(=O)NCCCCNC(=O)c3ccc(-c4c5nc(c(-c6cc(S(=O)(=O)[O-])ccc6F)c6ccc([nH]6)c(-c6cc(S(=O)(=O)[O-])ccc6F)c6nc(c(-c7cc(S(=O)(=O)[O-])ccc7F)c7ccc4[nH]7)C=C6)C=C5)cc3)cc2F)c1
REMARK SMILES IDX 20 1 21 2 19 3 16 4 17 5 96 6 18 7 95 8 97 9 15 10 11 11
REMARK SMILES IDX 12 12 98 13 13 14 14 15 10 16 8 17 7 18 9 20 6 21 5 22 4 23
REMARK SMILES IDX 3 24 2 25 1 26 22 27 23 28 24 29 25 31 26 32 27 33 28 34
REMARK SMILES IDX 29 35 30 36 31 38 32 39 33 40 94 41 34 42 93 43 35 44 36 45
REMARK SMILES IDX 37 46 87 47 38 48 92 49 86 50 88 51 39 52 91 53 85 54 84 55
REMARK SMILES IDX 40 57 72 58 52 59 71 60 53 61 56 62 70 63 89 64 54 65 55 66
REMARK SMILES IDX 69 68 90 69 57 70 41 71 42 72 50 73 43 74 49 75 51 76 48 77
REMARK SMILES IDX 44 78 45 79 46 80 47 81 73 82 74 83 82 84 75 85 81 86 83 87
REMARK SMILES IDX 80 88 76 89 77 90 78 91 79 92 58 93 59 94 67 95 60 96 66 97
REMARK SMILES IDX 68 98 65 99 61 100 62 101 63 102 64 103
REMARK H PARENT 7 19 24 30 29 37 88 56 56 67
REMARK Flexibility Score: inf
ROOT
ATOM      1  C   UNL A   1      32.585  23.219  23.410  1.00  0.00     0.105 C 
ATOM      2  C   UNL A   1      32.493  23.893  22.026  1.00  0.00     0.023 C 
ENDROOT
BRANCH   1   3
ATOM      3  C   UNL A   1      33.963  23.264  24.072  1.00  0.00    -0.033 A 
ATOM      4  C   UNL A   1      36.521  23.254  25.355  1.00  0.00     0.018 A 
ATOM      5  C   UNL A   1      36.404  23.319  23.959  1.00  0.00     0.012 A 
ATOM      6  C   UNL A   1      35.328  23.259  26.089  1.00  0.00     0.131 A 
ATOM      7  C   UNL A   1      35.152  23.356  23.333  1.00  0.00     0.005 A 
ATOM      8  C   UNL A   1      34.077  23.269  25.468  1.00  0.00     0.044 A 
ATOM      9  F   UNL A   1      35.355  23.257  27.432  1.00  0.00    -0.206 F 
BRANCH   4  10
ATOM     10  C   UNL A   1      37.846  23.178  26.000  1.00  0.00    -0.012 A 
ATOM     11  C   UNL A   1      39.764  21.896  26.759  1.00  0.00     0.133 A 
ATOM     12  C   UNL A   1      40.392  23.047  27.222  1.00  0.00     0.047 A 
ATOM     13  C   UNL A   1      38.504  21.948  26.161  1.00  0.00     0.056 A 
ATOM     14  C   UNL A   1      39.758  24.275  27.065  1.00  0.00     0.004 A 
ATOM     15  C   UNL A   1      38.498  24.338  26.463  1.00  0.00     0.009 A 
BRANCH  11  16
ATOM     16  O   UNL A   1      40.398  20.675  27.042  1.00  0.00    -0.410 OA
BRANCH  16  17
ATOM     17  C   UNL A   1      40.512  19.722  26.042  1.00  0.00     0.412 C 
ATOM     18  N   UNL A   1      41.810  19.441  25.720  1.00  0.00    -0.321 N 
ATOM     19  H   UNL A   1      41.955  18.794  24.992  1.00  0.00     0.167 HD
ATOM     20  O   UNL A   1      39.584  19.161  25.465  1.00  0.00    -0.224 OA
BRANCH  18  21
ATOM     21  C   UNL A   1      42.993  20.000  26.341  1.00  0.00     0.119 C 
BRANCH  21  22
ATOM     22  C   UNL A   1      43.390  21.334  25.709  1.00  0.00     0.021 C 
BRANCH  22  23
ATOM     23  C   UNL A   1      44.902  21.567  25.603  1.00  0.00     0.002 C 
BRANCH  23  24
ATOM     24  C   UNL A   1      45.562  21.049  24.320  1.00  0.00    -0.000 C 
BRANCH  24  25
ATOM     25  C   UNL A   1      45.787  19.536  24.264  1.00  0.00    -0.003 C 
ATOM     26  C   UNL A   1      46.468  18.984  25.507  1.00  0.00     0.004 C 
ENDBRANCH  24  25
ENDBRANCH  23  24
ENDBRANCH  22  23
ENDBRANCH  21  22
ENDBRANCH  18  21
ENDBRANCH  16  17
ENDBRANCH  11  16
ENDBRANCH   4  10
ENDBRANCH   1   3
BRANCH   1  27
ATOM     27  C   UNL A   1      31.430  23.721  24.281  1.00  0.00     0.227 C 
ATOM     28  O   UNL A   1      30.659  22.927  24.829  1.00  0.00    -0.274 OA
ATOM     29  N   UNL A   1      31.212  25.058  24.462  1.00  0.00    -0.356 N 
ATOM     30  H   UNL A   1      30.394  25.290  24.959  1.00  0.00     0.163 HD
BRANCH  29  31
ATOM     31  C   UNL A   1      32.018  26.188  24.025  1.00  0.00     0.116 C 
BRANCH  31  32
ATOM     32  C   UNL A   1      32.581  26.982  25.198  1.00  0.00     0.023 C 
BRANCH  32  33
ATOM     33  C   UNL A   1      33.768  27.879  24.847  1.00  0.00     0.023 C 
BRANCH  33  34
ATOM     34  C   UNL A   1      34.351  28.671  26.015  1.00  0.00     0.116 C 
BRANCH  34  35
ATOM     35  N   UNL A   1      33.765  29.996  26.145  1.00  0.00    -0.352 N 
ATOM     36  C   UNL A   1      34.029  30.970  27.079  1.00  0.00     0.251 C 
ATOM     37  H   UNL A   1      33.086  30.229  25.471  1.00  0.00     0.163 HD
ATOM     38  O   UNL A   1      33.318  31.968  27.142  1.00  0.00    -0.269 OA
BRANCH  36  39
ATOM     39  C   UNL A   1      35.150  30.787  28.027  1.00  0.00     0.039 A 
ATOM     40  C   UNL A   1      35.158  29.665  28.858  1.00  0.00     0.014 A 
ATOM     41  C   UNL A   1      36.203  31.704  28.071  1.00  0.00     0.014 A 
ATOM     42  C   UNL A   1      36.262  29.423  29.679  1.00  0.00     0.010 A 
ATOM     43  C   UNL A   1      37.336  31.418  28.827  1.00  0.00     0.010 A 
ATOM     44  C   UNL A   1      37.378  30.275  29.639  1.00  0.00    -0.014 A 
BRANCH  44  45
ATOM     45  C   UNL A   1      38.595  29.992  30.445  1.00  0.00     0.031 A 
ATOM     46  C   UNL A   1      38.759  30.611  31.806  1.00  0.00     0.074 A 
ATOM     47  C   UNL A   1      39.577  29.227  29.928  1.00  0.00     0.049 A 
ATOM     48  N   UNL A   1      39.770  30.542  32.634  1.00  0.00    -0.248 NA
ATOM     49  C   UNL A   1      37.648  31.446  32.283  1.00  0.00     0.031 C 
ATOM     50  C   UNL A   1      39.552  28.598  28.606  1.00  0.00     0.029 A 
ATOM     51  N   UNL A   1      40.788  28.847  30.452  1.00  0.00    -0.354 N 
ATOM     52  C   UNL A   1      39.420  31.328  33.726  1.00  0.00     0.074 A 
ATOM     53  C   UNL A   1      38.140  31.927  33.413  1.00  0.00     0.031 C 
ATOM     54  C   UNL A   1      40.674  27.880  28.439  1.00  0.00     0.029 A 
ATOM     55  C   UNL A   1      41.521  28.036  29.618  1.00  0.00     0.049 A 
ATOM     56  H   UNL A   1      41.102  29.129  31.341  1.00  0.00     0.167 HD
ATOM     57  C   UNL A   1      40.086  31.508  34.895  1.00  0.00     0.034 A 
ATOM     58  C   UNL A   1      42.739  27.482  29.783  1.00  0.00     0.034 A 
ATOM     59  C   UNL A   1      41.364  30.904  35.189  1.00  0.00     0.049 A 
ATOM     60  C   UNL A   1      43.489  27.741  31.065  1.00  0.00     0.074 A 
ATOM     61  C   UNL A   1      42.114  30.989  36.350  1.00  0.00     0.029 A 
ATOM     62  N   UNL A   1      42.089  30.107  34.309  1.00  0.00    -0.354 N 
ATOM     63  N   UNL A   1      43.128  28.455  32.106  1.00  0.00    -0.248 NA
ATOM     64  C   UNL A   1      44.810  27.112  31.194  1.00  0.00     0.031 C 
ATOM     65  C   UNL A   1      43.318  30.305  36.146  1.00  0.00     0.029 A 
ATOM     66  C   UNL A   1      43.288  29.723  34.889  1.00  0.00     0.049 A 
ATOM     67  H   UNL A   1      41.793  29.853  33.405  1.00  0.00     0.167 HD
ATOM     68  C   UNL A   1      44.162  28.328  33.030  1.00  0.00     0.074 A 
ATOM     69  C   UNL A   1      45.154  27.463  32.424  1.00  0.00     0.031 C 
ATOM     70  C   UNL A   1      44.278  28.871  34.270  1.00  0.00     0.034 A 
BRANCH  57  71
ATOM     71  C   UNL A   1      39.443  32.417  35.918  1.00  0.00     0.023 A 
ATOM     72  C   UNL A   1      39.782  33.780  36.005  1.00  0.00     0.031 A 
ATOM     73  C   UNL A   1      38.528  31.909  36.858  1.00  0.00     0.131 A 
ATOM     74  C   UNL A   1      39.299  34.557  37.068  1.00  0.00     0.055 A 
ATOM     75  C   UNL A   1      37.974  32.715  37.855  1.00  0.00     0.041 A 
ATOM     76  F   UNL A   1      38.178  30.614  36.842  1.00  0.00    -0.206 F 
ATOM     77  C   UNL A   1      38.375  34.043  37.978  1.00  0.00     0.022 A 
BRANCH  74  78
ATOM     78  S   UNL A   1      40.040  36.189  37.348  1.00  0.00     0.124 S 
ATOM     79  O   UNL A   1      39.948  36.786  36.018  1.00  0.00    -0.237 OA
ATOM     80  O   UNL A   1      39.169  36.762  38.368  1.00  0.00    -0.237 OA
ATOM     81  O   UNL A   1      41.398  35.877  37.788  1.00  0.00    -0.744 OA
ENDBRANCH  74  78
ENDBRANCH  57  71
BRANCH  58  82
ATOM     82  C   UNL A   1      43.328  26.621  28.718  1.00  0.00     0.023 A 
ATOM     83  C   UNL A   1      44.187  27.164  27.751  1.00  0.00     0.031 A 
ATOM     84  C   UNL A   1      43.016  25.253  28.631  1.00  0.00     0.131 A 
ATOM     85  C   UNL A   1      44.671  26.357  26.711  1.00  0.00     0.055 A 
ATOM     86  C   UNL A   1      43.541  24.441  27.623  1.00  0.00     0.041 A 
ATOM     87  F   UNL A   1      42.204  24.682  29.534  1.00  0.00    -0.206 F 
ATOM     88  C   UNL A   1      44.365  24.995  26.648  1.00  0.00     0.022 A 
BRANCH  85  89
ATOM     89  S   UNL A   1      45.649  27.131  25.394  1.00  0.00     0.124 S 
ATOM     90  O   UNL A   1      44.644  27.934  24.710  1.00  0.00    -0.237 OA
ATOM     91  O   UNL A   1      46.653  27.868  26.155  1.00  0.00    -0.237 OA
ATOM     92  O   UNL A   1      46.160  25.990  24.636  1.00  0.00    -0.744 OA
ENDBRANCH  85  89
ENDBRANCH  58  82
BRANCH  70  93
ATOM     93  C   UNL A   1      45.505  28.498  35.069  1.00  0.00     0.023 A 
ATOM     94  C   UNL A   1      45.495  27.437  35.991  1.00  0.00     0.031 A 
ATOM     95  C   UNL A   1      46.695  29.232  34.916  1.00  0.00     0.131 A 
ATOM     96  C   UNL A   1      46.635  27.177  36.767  1.00  0.00     0.055 A 
ATOM     97  C   UNL A   1      47.845  28.928  35.645  1.00  0.00     0.041 A 
ATOM     98  F   UNL A   1      46.760  30.257  34.053  1.00  0.00    -0.206 F 
ATOM     99  C   UNL A   1      47.815  27.904  36.589  1.00  0.00     0.022 A 
BRANCH  96 100
ATOM    100  S   UNL A   1      46.526  25.939  38.089  1.00  0.00     0.124 S 
ATOM    101  O   UNL A   1      46.879  26.722  39.269  1.00  0.00    -0.237 OA
ATOM    102  O   UNL A   1      45.133  25.512  38.001  1.00  0.00    -0.237 OA
ATOM    103  O   UNL A   1      47.508  24.930  37.698  1.00  0.00    -0.744 OA
ENDBRANCH  96 100
ENDBRANCH  70  93
ENDBRANCH  44  45
ENDBRANCH  36  39
ENDBRANCH  34  35
ENDBRANCH  33  34
ENDBRANCH  32  33
ENDBRANCH  31  32
ENDBRANCH  29  31
ENDBRANCH   1  27
TORSDOF 23
ENDMDL
