MODEL 1
REMARK VINA RESULT:     -11.2      0.000      0.000
REMARK SMILES CCCSc1nc(=O)cc(CC(=O)NCCCCNC(=O)c2ccc(-c3c4nc(c(-c5cc(S(=O)(=O)[O-])ccc5F)c5ccc([nH]5)c(-c5cc(S(=O)(=O)[O-])ccc5F)c5nc(c(-c6cc(S(=O)(=O)[O-])ccc6F)c6ccc3[nH]6)C=C5)C=C4)cc2)[nH]1
REMARK SMILES IDX 16 1 15 2 14 3 12 4 13 5 11 7 10 8 5 9 6 10 85 11 7 12 8 14
REMARK SMILES IDX 9 15 4 16 3 17 2 18 1 19 17 20 18 21 19 22 20 23 21 25 22 26
REMARK SMILES IDX 23 27 84 28 24 29 83 30 25 31 26 32 27 33 77 34 28 35 82 36
REMARK SMILES IDX 76 37 78 38 29 39 81 40 75 41 74 42 30 44 62 45 42 46 61 47
REMARK SMILES IDX 43 48 46 49 60 50 79 51 44 52 45 53 59 55 80 56 47 57 31 58
REMARK SMILES IDX 32 59 40 60 33 61 39 62 41 63 38 64 34 65 35 66 36 67 37 68
REMARK SMILES IDX 63 69 64 70 72 71 65 72 71 73 73 74 70 75 66 76 67 77 68 78
REMARK SMILES IDX 69 79 48 80 49 81 57 82 50 83 56 84 58 85 55 86 51 87 52 88
REMARK SMILES IDX 53 89 54 90
REMARK H PARENT 14 6 85 13 19 24 78 43 46 54
REMARK Flexibility Score: inf
ROOT
ATOM      1  C   UNL A   1      31.796  29.330  24.677  1.00  0.00     0.023 C 
ENDROOT
BRANCH   1   2
ATOM      2  C   UNL A   1      30.743  28.248  24.430  1.00  0.00     0.116 C 
BRANCH   2   3
ATOM      3  N   UNL A   1      30.681  27.269  25.502  1.00  0.00    -0.356 N 
ATOM      4  C   UNL A   1      30.388  25.935  25.436  1.00  0.00     0.225 C 
ATOM      5  O   UNL A   1      30.369  25.272  26.473  1.00  0.00    -0.275 OA
ATOM      6  H   UNL A   1      30.878  27.615  26.402  1.00  0.00     0.163 HD
BRANCH   4   7
ATOM      7  C   UNL A   1      30.082  25.291  24.088  1.00  0.00     0.154 C 
BRANCH   7   8
ATOM      8  C   UNL A   1      31.345  24.971  23.335  1.00  0.00     0.032 A 
ATOM      9  C   UNL A   1      33.571  24.137  23.422  1.00  0.00     0.169 A 
ATOM     10  N   UNL A   1      33.907  24.609  22.273  1.00  0.00    -0.185 NA
ATOM     11  N   UNL A   1      32.328  24.246  23.966  1.00  0.00    -0.337 N 
ATOM     12  C   UNL A   1      32.936  25.198  21.494  1.00  0.00     0.273 A 
ATOM     13  H   UNL A   1      32.129  23.800  24.821  1.00  0.00     0.168 HD
ATOM     14  O   UNL A   1      33.127  25.547  20.338  1.00  0.00    -0.267 OA
ATOM     15  C   UNL A   1      31.598  25.444  22.103  1.00  0.00     0.095 A 
BRANCH   9  16
ATOM     16  S   UNL A   1      34.723  23.298  24.430  1.00  0.00    -0.088 SA
BRANCH  16  17
ATOM     17  C   UNL A   1      34.122  21.582  24.376  1.00  0.00     0.078 C 
BRANCH  17  18
ATOM     18  C   UNL A   1      35.101  20.559  24.956  1.00  0.00     0.008 C 
ATOM     19  C   UNL A   1      36.551  21.015  25.001  1.00  0.00     0.005 C 
ENDBRANCH  17  18
ENDBRANCH  16  17
ENDBRANCH   9  16
ENDBRANCH   7   8
ENDBRANCH   4   7
ENDBRANCH   2   3
ENDBRANCH   1   2
BRANCH   1  20
ATOM     20  C   UNL A   1      31.285  30.589  25.374  1.00  0.00     0.023 C 
BRANCH  20  21
ATOM     21  C   UNL A   1      32.022  30.972  26.649  1.00  0.00     0.116 C 
BRANCH  21  22
ATOM     22  N   UNL A   1      31.930  32.388  26.977  1.00  0.00    -0.352 N 
ATOM     23  C   UNL A   1      32.869  33.180  27.602  1.00  0.00     0.251 C 
ATOM     24  H   UNL A   1      31.092  32.835  26.722  1.00  0.00     0.163 HD
ATOM     25  O   UNL A   1      32.602  34.342  27.889  1.00  0.00    -0.269 OA
BRANCH  23  26
ATOM     26  C   UNL A   1      34.175  32.590  27.969  1.00  0.00     0.039 A 
ATOM     27  C   UNL A   1      34.264  31.243  28.320  1.00  0.00     0.014 A 
ATOM     28  C   UNL A   1      35.299  33.416  28.053  1.00  0.00     0.014 A 
ATOM     29  C   UNL A   1      35.414  30.773  28.942  1.00  0.00     0.010 A 
ATOM     30  C   UNL A   1      36.487  32.912  28.591  1.00  0.00     0.010 A 
ATOM     31  C   UNL A   1      36.536  31.605  29.099  1.00  0.00    -0.014 A 
BRANCH  31  32
ATOM     32  C   UNL A   1      37.736  31.085  29.807  1.00  0.00     0.031 A 
ATOM     33  C   UNL A   1      38.025  31.475  31.233  1.00  0.00     0.074 A 
ATOM     34  C   UNL A   1      38.539  30.206  29.175  1.00  0.00     0.049 A 
ATOM     35  N   UNL A   1      39.006  31.088  32.009  1.00  0.00    -0.248 NA
ATOM     36  C   UNL A   1      37.098  32.422  31.874  1.00  0.00     0.031 C 
ATOM     37  C   UNL A   1      38.351  29.750  27.798  1.00  0.00     0.029 A 
ATOM     38  N   UNL A   1      39.649  29.521  29.605  1.00  0.00    -0.354 N 
ATOM     39  C   UNL A   1      38.825  31.753  33.217  1.00  0.00     0.074 A 
ATOM     40  C   UNL A   1      37.663  32.597  33.062  1.00  0.00     0.031 C 
ATOM     41  C   UNL A   1      39.275  28.823  27.512  1.00  0.00     0.029 A 
ATOM     42  C   UNL A   1      40.171  28.672  28.657  1.00  0.00     0.049 A 
ATOM     43  H   UNL A   1      40.033  29.629  30.504  1.00  0.00     0.167 HD
ATOM     44  C   UNL A   1      39.555  31.652  34.355  1.00  0.00     0.034 A 
ATOM     45  C   UNL A   1      41.256  27.871  28.691  1.00  0.00     0.034 A 
ATOM     46  C   UNL A   1      40.699  30.787  34.501  1.00  0.00     0.049 A 
ATOM     47  C   UNL A   1      42.068  27.801  29.956  1.00  0.00     0.074 A 
ATOM     48  C   UNL A   1      41.484  30.595  35.625  1.00  0.00     0.029 A 
ATOM     49  N   UNL A   1      41.219  29.969  33.508  1.00  0.00    -0.354 N 
ATOM     50  N   UNL A   1      41.858  28.405  31.103  1.00  0.00    -0.248 NA
ATOM     51  C   UNL A   1      43.261  26.945  29.942  1.00  0.00     0.031 C 
ATOM     52  C   UNL A   1      42.515  29.716  35.294  1.00  0.00     0.029 A 
ATOM     53  C   UNL A   1      42.331  29.294  33.985  1.00  0.00     0.049 A 
ATOM     54  H   UNL A   1      40.852  29.882  32.599  1.00  0.00     0.167 HD
ATOM     55  C   UNL A   1      42.881  27.990  31.950  1.00  0.00     0.074 A 
ATOM     56  C   UNL A   1      43.692  27.059  31.192  1.00  0.00     0.031 C 
ATOM     57  C   UNL A   1      43.129  28.355  33.232  1.00  0.00     0.034 A 
BRANCH  44  58
ATOM     58  C   UNL A   1      39.150  32.476  35.554  1.00  0.00     0.023 A 
ATOM     59  C   UNL A   1      39.628  33.794  35.697  1.00  0.00     0.031 A 
ATOM     60  C   UNL A   1      38.419  31.918  36.617  1.00  0.00     0.131 A 
ATOM     61  C   UNL A   1      39.402  34.493  36.890  1.00  0.00     0.055 A 
ATOM     62  C   UNL A   1      38.159  32.635  37.787  1.00  0.00     0.041 A 
ATOM     63  F   UNL A   1      37.943  30.665  36.534  1.00  0.00    -0.206 F 
ATOM     64  C   UNL A   1      38.664  33.924  37.932  1.00  0.00     0.022 A 
BRANCH  61  65
ATOM     65  S   UNL A   1      40.118  36.138  37.164  1.00  0.00     0.124 S 
ATOM     66  O   UNL A   1      39.940  36.763  35.855  1.00  0.00    -0.237 OA
ATOM     67  O   UNL A   1      39.269  36.667  38.228  1.00  0.00    -0.237 OA
ATOM     68  O   UNL A   1      41.501  35.862  37.537  1.00  0.00    -0.744 OA
ENDBRANCH  61  65
ENDBRANCH  44  58
BRANCH  45  69
ATOM     69  C   UNL A   1      41.588  27.052  27.487  1.00  0.00     0.023 A 
ATOM     70  C   UNL A   1      41.277  25.680  27.442  1.00  0.00     0.031 A 
ATOM     71  C   UNL A   1      42.329  27.595  26.426  1.00  0.00     0.131 A 
ATOM     72  C   UNL A   1      41.780  24.884  26.405  1.00  0.00     0.055 A 
ATOM     73  C   UNL A   1      42.758  26.814  25.352  1.00  0.00     0.041 A 
ATOM     74  F   UNL A   1      42.662  28.895  26.430  1.00  0.00    -0.206 F 
ATOM     75  C   UNL A   1      42.504  25.445  25.349  1.00  0.00     0.022 A 
BRANCH  72  76
ATOM     76  S   UNL A   1      41.649  23.075  26.478  1.00  0.00     0.124 S 
ATOM     77  O   UNL A   1      42.295  22.774  27.752  1.00  0.00    -0.237 OA
ATOM     78  O   UNL A   1      40.201  22.881  26.444  1.00  0.00    -0.237 OA
ATOM     79  O   UNL A   1      42.360  22.629  25.286  1.00  0.00    -0.744 OA
ENDBRANCH  72  76
ENDBRANCH  45  69
BRANCH  57  80
ATOM     80  C   UNL A   1      44.325  27.760  33.936  1.00  0.00     0.023 A 
ATOM     81  C   UNL A   1      44.173  26.603  34.728  1.00  0.00     0.031 A 
ATOM     82  C   UNL A   1      45.564  28.421  33.959  1.00  0.00     0.131 A 
ATOM     83  C   UNL A   1      45.227  26.172  35.542  1.00  0.00     0.055 A 
ATOM     84  C   UNL A   1      46.629  27.958  34.734  1.00  0.00     0.041 A 
ATOM     85  F   UNL A   1      45.756  29.534  33.232  1.00  0.00    -0.206 F 
ATOM     86  C   UNL A   1      46.457  26.838  35.543  1.00  0.00     0.022 A 
BRANCH  83  87
ATOM     87  S   UNL A   1      45.011  24.793  36.701  1.00  0.00     0.124 S 
ATOM     88  O   UNL A   1      43.572  24.829  36.949  1.00  0.00    -0.237 OA
ATOM     89  O   UNL A   1      45.479  23.654  35.913  1.00  0.00    -0.237 OA
ATOM     90  O   UNL A   1      45.847  25.155  37.840  1.00  0.00    -0.744 OA
ENDBRANCH  83  87
ENDBRANCH  57  80
ENDBRANCH  31  32
ENDBRANCH  23  26
ENDBRANCH  21  22
ENDBRANCH  20  21
ENDBRANCH   1  20
TORSDOF 18
ENDMDL
MODEL 2
REMARK VINA RESULT:     -11.1      5.022     10.369
REMARK SMILES CCCSc1nc(=O)cc(CC(=O)NCCCCNC(=O)c2ccc(-c3c4nc(c(-c5cc(S(=O)(=O)[O-])ccc5F)c5ccc([nH]5)c(-c5cc(S(=O)(=O)[O-])ccc5F)c5nc(c(-c6cc(S(=O)(=O)[O-])ccc6F)c6ccc3[nH]6)C=C5)C=C4)cc2)[nH]1
REMARK SMILES IDX 16 1 15 2 14 3 12 4 13 5 11 7 10 8 5 9 6 10 85 11 7 12 8 14
REMARK SMILES IDX 9 15 4 16 3 17 2 18 1 19 17 20 18 21 19 22 20 23 21 25 22 26
REMARK SMILES IDX 23 27 84 28 24 29 83 30 25 31 26 32 27 33 77 34 28 35 82 36
REMARK SMILES IDX 76 37 78 38 29 39 81 40 75 41 74 42 30 44 62 45 42 46 61 47
REMARK SMILES IDX 43 48 46 49 60 50 79 51 44 52 45 53 59 55 80 56 47 57 31 58
REMARK SMILES IDX 32 59 40 60 33 61 39 62 41 63 38 64 34 65 35 66 36 67 37 68
REMARK SMILES IDX 63 69 64 70 72 71 65 72 71 73 73 74 70 75 66 76 67 77 68 78
REMARK SMILES IDX 69 79 48 80 49 81 57 82 50 83 56 84 58 85 55 86 51 87 52 88
REMARK SMILES IDX 53 89 54 90
REMARK H PARENT 14 6 85 13 19 24 78 43 46 54
REMARK Flexibility Score: inf
ROOT
ATOM      1  C   UNL A   1      34.790  22.241  26.701  1.00  0.00     0.023 C 
ENDROOT
BRANCH   1   2
ATOM      2  C   UNL A   1      33.616  21.462  27.297  1.00  0.00     0.116 C 
BRANCH   2   3
ATOM      3  N   UNL A   1      32.491  22.316  27.641  1.00  0.00    -0.356 N 
ATOM      4  C   UNL A   1      31.419  22.680  26.875  1.00  0.00     0.225 C 
ATOM      5  O   UNL A   1      30.570  23.435  27.350  1.00  0.00    -0.275 OA
ATOM      6  H   UNL A   1      32.503  22.682  28.555  1.00  0.00     0.163 HD
BRANCH   4   7
ATOM      7  C   UNL A   1      31.293  22.156  25.449  1.00  0.00     0.154 C 
BRANCH   7   8
ATOM      8  C   UNL A   1      31.630  23.222  24.442  1.00  0.00     0.032 A 
ATOM      9  C   UNL A   1      31.080  25.340  23.508  1.00  0.00     0.169 A 
ATOM     10  N   UNL A   1      31.807  25.186  22.457  1.00  0.00    -0.185 NA
ATOM     11  N   UNL A   1      30.991  24.438  24.523  1.00  0.00    -0.337 N 
ATOM     12  C   UNL A   1      32.618  24.075  22.376  1.00  0.00     0.273 A 
ATOM     13  H   UNL A   1      30.465  24.657  25.325  1.00  0.00     0.168 HD
ATOM     14  O   UNL A   1      33.444  23.914  21.489  1.00  0.00    -0.267 OA
ATOM     15  C   UNL A   1      32.459  23.010  23.406  1.00  0.00     0.095 A 
BRANCH   9  16
ATOM     16  S   UNL A   1      30.092  26.763  23.727  1.00  0.00    -0.088 SA
BRANCH  16  17
ATOM     17  C   UNL A   1      30.714  27.880  22.432  1.00  0.00     0.078 C 
BRANCH  17  18
ATOM     18  C   UNL A   1      31.725  28.914  22.933  1.00  0.00     0.008 C 
ATOM     19  C   UNL A   1      33.183  28.537  22.726  1.00  0.00     0.005 C 
ENDBRANCH  17  18
ENDBRANCH  16  17
ENDBRANCH   9  16
ENDBRANCH   7   8
ENDBRANCH   4   7
ENDBRANCH   2   3
ENDBRANCH   1   2
BRANCH   1  20
ATOM     20  C   UNL A   1      35.564  21.513  25.605  1.00  0.00     0.023 C 
BRANCH  20  21
ATOM     21  C   UNL A   1      36.986  22.005  25.377  1.00  0.00     0.116 C 
BRANCH  21  22
ATOM     22  N   UNL A   1      37.996  20.963  25.505  1.00  0.00    -0.352 N 
ATOM     23  C   UNL A   1      39.256  21.059  26.054  1.00  0.00     0.251 C 
ATOM     24  H   UNL A   1      37.746  20.077  25.155  1.00  0.00     0.163 HD
ATOM     25  O   UNL A   1      40.025  20.105  26.005  1.00  0.00    -0.269 OA
BRANCH  23  26
ATOM     26  C   UNL A   1      39.682  22.346  26.648  1.00  0.00     0.039 A 
ATOM     27  C   UNL A   1      39.169  23.549  26.161  1.00  0.00     0.014 A 
ATOM     28  C   UNL A   1      40.672  22.349  27.633  1.00  0.00     0.014 A 
ATOM     29  C   UNL A   1      39.784  24.745  26.510  1.00  0.00     0.010 A 
ATOM     30  C   UNL A   1      41.223  23.563  28.054  1.00  0.00     0.010 A 
ATOM     31  C   UNL A   1      40.829  24.767  27.450  1.00  0.00    -0.014 A 
BRANCH  31  32
ATOM     32  C   UNL A   1      41.495  26.058  27.771  1.00  0.00     0.031 A 
ATOM     33  C   UNL A   1      42.875  26.368  27.254  1.00  0.00     0.074 A 
ATOM     34  C   UNL A   1      40.822  26.982  28.484  1.00  0.00     0.049 A 
ATOM     35  N   UNL A   1      43.587  27.455  27.410  1.00  0.00    -0.248 NA
ATOM     36  C   UNL A   1      43.549  25.324  26.463  1.00  0.00     0.031 C 
ATOM     37  C   UNL A   1      39.476  26.795  29.027  1.00  0.00     0.029 A 
ATOM     38  N   UNL A   1      41.155  28.262  28.853  1.00  0.00    -0.354 N 
ATOM     39  C   UNL A   1      44.791  27.224  26.754  1.00  0.00     0.074 A 
ATOM     40  C   UNL A   1      44.732  25.878  26.230  1.00  0.00     0.031 C 
ATOM     41  C   UNL A   1      39.076  27.933  29.611  1.00  0.00     0.029 A 
ATOM     42  C   UNL A   1      40.162  28.907  29.554  1.00  0.00     0.049 A 
ATOM     43  H   UNL A   1      42.021  28.676  28.638  1.00  0.00     0.167 HD
ATOM     44  C   UNL A   1      45.842  28.065  26.592  1.00  0.00     0.034 A 
ATOM     45  C   UNL A   1      40.128  30.138  30.105  1.00  0.00     0.034 A 
ATOM     46  C   UNL A   1      45.876  29.414  27.102  1.00  0.00     0.049 A 
ATOM     47  C   UNL A   1      41.321  31.042  29.938  1.00  0.00     0.074 A 
ATOM     48  C   UNL A   1      46.884  30.352  26.963  1.00  0.00     0.029 A 
ATOM     49  N   UNL A   1      44.867  30.020  27.837  1.00  0.00    -0.354 N 
ATOM     50  N   UNL A   1      42.434  30.821  29.279  1.00  0.00    -0.248 NA
ATOM     51  C   UNL A   1      41.259  32.361  30.582  1.00  0.00     0.031 C 
ATOM     52  C   UNL A   1      46.516  31.498  27.667  1.00  0.00     0.029 A 
ATOM     53  C   UNL A   1      45.242  31.308  28.182  1.00  0.00     0.049 A 
ATOM     54  H   UNL A   1      44.012  29.597  28.078  1.00  0.00     0.167 HD
ATOM     55  C   UNL A   1      43.198  31.977  29.415  1.00  0.00     0.074 A 
ATOM     56  C   UNL A   1      42.405  32.906  30.194  1.00  0.00     0.031 C 
ATOM     57  C   UNL A   1      44.444  32.237  28.947  1.00  0.00     0.034 A 
BRANCH  44  58
ATOM     58  C   UNL A   1      47.049  27.583  25.822  1.00  0.00     0.023 A 
ATOM     59  C   UNL A   1      47.207  27.935  24.467  1.00  0.00     0.031 A 
ATOM     60  C   UNL A   1      47.958  26.668  26.380  1.00  0.00     0.131 A 
ATOM     61  C   UNL A   1      48.225  27.345  23.707  1.00  0.00     0.055 A 
ATOM     62  C   UNL A   1      48.998  26.116  25.629  1.00  0.00     0.041 A 
ATOM     63  F   UNL A   1      47.851  26.297  27.666  1.00  0.00    -0.206 F 
ATOM     64  C   UNL A   1      49.125  26.443  24.282  1.00  0.00     0.022 A 
BRANCH  61  65
ATOM     65  S   UNL A   1      48.375  27.667  21.928  1.00  0.00     0.124 S 
ATOM     66  O   UNL A   1      47.059  28.219  21.612  1.00  0.00    -0.237 OA
ATOM     67  O   UNL A   1      49.480  28.622  21.883  1.00  0.00    -0.237 OA
ATOM     68  O   UNL A   1      48.651  26.355  21.354  1.00  0.00    -0.744 OA
ENDBRANCH  61  65
ENDBRANCH  44  58
BRANCH  45  69
ATOM     69  C   UNL A   1      38.895  30.574  30.825  1.00  0.00     0.023 A 
ATOM     70  C   UNL A   1      37.857  31.234  30.140  1.00  0.00     0.031 A 
ATOM     71  C   UNL A   1      38.793  30.453  32.220  1.00  0.00     0.131 A 
ATOM     72  C   UNL A   1      36.810  31.822  30.860  1.00  0.00     0.055 A 
ATOM     73  C   UNL A   1      37.705  30.970  32.925  1.00  0.00     0.041 A 
ATOM     74  F   UNL A   1      39.763  29.845  32.919  1.00  0.00    -0.206 F 
ATOM     75  C   UNL A   1      36.716  31.678  32.247  1.00  0.00     0.022 A 
BRANCH  72  76
ATOM     76  S   UNL A   1      35.626  32.925  30.038  1.00  0.00     0.124 S 
ATOM     77  O   UNL A   1      35.034  33.633  31.169  1.00  0.00    -0.237 OA
ATOM     78  O   UNL A   1      36.504  33.722  29.184  1.00  0.00    -0.237 OA
ATOM     79  O   UNL A   1      34.737  32.011  29.328  1.00  0.00    -0.744 OA
ENDBRANCH  72  76
ENDBRANCH  45  69
BRANCH  57  80
ATOM     80  C   UNL A   1      45.062  33.583  29.243  1.00  0.00     0.023 A 
ATOM     81  C   UNL A   1      44.942  34.634  28.313  1.00  0.00     0.031 A 
ATOM     82  C   UNL A   1      45.901  33.773  30.355  1.00  0.00     0.131 A 
ATOM     83  C   UNL A   1      45.683  35.809  28.487  1.00  0.00     0.055 A 
ATOM     84  C   UNL A   1      46.599  34.966  30.551  1.00  0.00     0.041 A 
ATOM     85  F   UNL A   1      46.059  32.798  31.264  1.00  0.00    -0.206 F 
ATOM     86  C   UNL A   1      46.505  35.984  29.606  1.00  0.00     0.022 A 
BRANCH  83  87
ATOM     87  S   UNL A   1      45.686  37.111  27.224  1.00  0.00     0.124 S 
ATOM     88  O   UNL A   1      46.399  36.464  26.125  1.00  0.00    -0.237 OA
ATOM     89  O   UNL A   1      44.259  37.325  27.000  1.00  0.00    -0.237 OA
ATOM     90  O   UNL A   1      46.396  38.217  27.859  1.00  0.00    -0.744 OA
ENDBRANCH  83  87
ENDBRANCH  57  80
ENDBRANCH  31  32
ENDBRANCH  23  26
ENDBRANCH  21  22
ENDBRANCH  20  21
ENDBRANCH   1  20
TORSDOF 18
ENDMDL
MODEL 3
REMARK VINA RESULT:     -11.1      4.762     10.205
REMARK SMILES CCCSc1nc(=O)cc(CC(=O)NCCCCNC(=O)c2ccc(-c3c4nc(c(-c5cc(S(=O)(=O)[O-])ccc5F)c5ccc([nH]5)c(-c5cc(S(=O)(=O)[O-])ccc5F)c5nc(c(-c6cc(S(=O)(=O)[O-])ccc6F)c6ccc3[nH]6)C=C5)C=C4)cc2)[nH]1
REMARK SMILES IDX 16 1 15 2 14 3 12 4 13 5 11 7 10 8 5 9 6 10 85 11 7 12 8 14
REMARK SMILES IDX 9 15 4 16 3 17 2 18 1 19 17 20 18 21 19 22 20 23 21 25 22 26
REMARK SMILES IDX 23 27 84 28 24 29 83 30 25 31 26 32 27 33 77 34 28 35 82 36
REMARK SMILES IDX 76 37 78 38 29 39 81 40 75 41 74 42 30 44 62 45 42 46 61 47
REMARK SMILES IDX 43 48 46 49 60 50 79 51 44 52 45 53 59 55 80 56 47 57 31 58
REMARK SMILES IDX 32 59 40 60 33 61 39 62 41 63 38 64 34 65 35 66 36 67 37 68
REMARK SMILES IDX 63 69 64 70 72 71 65 72 71 73 73 74 70 75 66 76 67 77 68 78
REMARK SMILES IDX 69 79 48 80 49 81 57 82 50 83 56 84 58 85 55 86 51 87 52 88
REMARK SMILES IDX 53 89 54 90
REMARK H PARENT 14 6 85 13 19 24 78 43 46 54
REMARK Flexibility Score: inf
ROOT
ATOM      1  C   UNL A   1      34.825  20.187  24.992  1.00  0.00     0.023 C 
ENDROOT
BRANCH   1   2
ATOM      2  C   UNL A   1      33.322  20.345  25.231  1.00  0.00     0.116 C 
BRANCH   2   3
ATOM      3  N   UNL A   1      33.014  21.353  26.231  1.00  0.00    -0.356 N 
ATOM      4  C   UNL A   1      32.247  22.478  26.113  1.00  0.00     0.225 C 
ATOM      5  O   UNL A   1      32.121  23.224  27.085  1.00  0.00    -0.275 OA
ATOM      6  H   UNL A   1      33.414  21.204  27.118  1.00  0.00     0.163 HD
BRANCH   4   7
ATOM      7  C   UNL A   1      31.566  22.797  24.786  1.00  0.00     0.154 C 
BRANCH   7   8
ATOM      8  C   UNL A   1      32.258  23.928  24.074  1.00  0.00     0.032 A 
ATOM      9  C   UNL A   1      32.987  26.191  24.146  1.00  0.00     0.169 A 
ATOM     10  N   UNL A   1      33.175  26.284  22.877  1.00  0.00    -0.185 NA
ATOM     11  N   UNL A   1      32.584  25.059  24.786  1.00  0.00    -0.337 N 
ATOM     12  C   UNL A   1      33.041  25.149  22.108  1.00  0.00     0.273 A 
ATOM     13  H   UNL A   1      32.527  25.048  25.768  1.00  0.00     0.168 HD
ATOM     14  O   UNL A   1      33.336  25.106  20.922  1.00  0.00    -0.267 OA
ATOM     15  C   UNL A   1      32.486  23.924  22.750  1.00  0.00     0.095 A 
BRANCH   9  16
ATOM     16  S   UNL A   1      33.223  27.563  25.200  1.00  0.00    -0.088 SA
BRANCH  16  17
ATOM     17  C   UNL A   1      32.325  27.066  26.703  1.00  0.00     0.078 C 
BRANCH  17  18
ATOM     18  C   UNL A   1      31.607  28.218  27.410  1.00  0.00     0.008 C 
ATOM     19  C   UNL A   1      32.215  29.591  27.176  1.00  0.00     0.005 C 
ENDBRANCH  17  18
ENDBRANCH  16  17
ENDBRANCH   9  16
ENDBRANCH   7   8
ENDBRANCH   4   7
ENDBRANCH   2   3
ENDBRANCH   1   2
BRANCH   1  20
ATOM     20  C   UNL A   1      35.688  21.349  25.479  1.00  0.00     0.023 C 
BRANCH  20  21
ATOM     21  C   UNL A   1      37.032  21.497  24.782  1.00  0.00     0.116 C 
BRANCH  21  22
ATOM     22  N   UNL A   1      37.943  20.385  25.023  1.00  0.00    -0.352 N 
ATOM     23  C   UNL A   1      39.121  20.389  25.738  1.00  0.00     0.251 C 
ATOM     24  H   UNL A   1      37.684  19.523  24.625  1.00  0.00     0.163 HD
ATOM     25  O   UNL A   1      39.824  19.384  25.773  1.00  0.00    -0.269 OA
BRANCH  23  26
ATOM     26  C   UNL A   1      39.549  21.637  26.408  1.00  0.00     0.039 A 
ATOM     27  C   UNL A   1      38.964  22.856  26.064  1.00  0.00     0.014 A 
ATOM     28  C   UNL A   1      40.608  21.595  27.318  1.00  0.00     0.014 A 
ATOM     29  C   UNL A   1      39.565  24.041  26.470  1.00  0.00     0.010 A 
ATOM     30  C   UNL A   1      41.150  22.790  27.802  1.00  0.00     0.010 A 
ATOM     31  C   UNL A   1      40.674  24.024  27.333  1.00  0.00    -0.014 A 
BRANCH  31  32
ATOM     32  C   UNL A   1      41.321  25.308  27.715  1.00  0.00     0.031 A 
ATOM     33  C   UNL A   1      42.726  25.629  27.278  1.00  0.00     0.074 A 
ATOM     34  C   UNL A   1      40.610  26.217  28.412  1.00  0.00     0.049 A 
ATOM     35  N   UNL A   1      43.428  26.713  27.495  1.00  0.00    -0.248 NA
ATOM     36  C   UNL A   1      43.442  24.603  26.502  1.00  0.00     0.031 C 
ATOM     37  C   UNL A   1      39.238  26.018  28.879  1.00  0.00     0.029 A 
ATOM     38  N   UNL A   1      40.922  27.488  28.825  1.00  0.00    -0.354 N 
ATOM     39  C   UNL A   1      44.665  26.495  26.899  1.00  0.00     0.074 A 
ATOM     40  C   UNL A   1      44.635  25.161  26.344  1.00  0.00     0.031 C 
ATOM     41  C   UNL A   1      38.806  27.143  29.464  1.00  0.00     0.029 A 
ATOM     42  C   UNL A   1      39.893  28.119  29.486  1.00  0.00     0.049 A 
ATOM     43  H   UNL A   1      41.797  27.907  28.664  1.00  0.00     0.167 HD
ATOM     44  C   UNL A   1      45.721  27.340  26.810  1.00  0.00     0.034 A 
ATOM     45  C   UNL A   1      39.828  29.338  30.060  1.00  0.00     0.034 A 
ATOM     46  C   UNL A   1      45.727  28.678  27.349  1.00  0.00     0.049 A 
ATOM     47  C   UNL A   1      41.027  30.245  29.975  1.00  0.00     0.074 A 
ATOM     48  C   UNL A   1      46.740  29.619  27.283  1.00  0.00     0.029 A 
ATOM     49  N   UNL A   1      44.680  29.268  28.043  1.00  0.00    -0.354 N 
ATOM     50  N   UNL A   1      42.174  30.038  29.371  1.00  0.00    -0.248 NA
ATOM     51  C   UNL A   1      40.930  31.550  30.643  1.00  0.00     0.031 C 
ATOM     52  C   UNL A   1      46.334  30.749  27.991  1.00  0.00     0.029 A 
ATOM     53  C   UNL A   1      45.035  30.548  28.435  1.00  0.00     0.049 A 
ATOM     54  H   UNL A   1      43.814  28.840  28.229  1.00  0.00     0.167 HD
ATOM     55  C   UNL A   1      42.928  31.191  29.572  1.00  0.00     0.074 A 
ATOM     56  C   UNL A   1      42.094  32.103  30.328  1.00  0.00     0.031 C 
ATOM     57  C   UNL A   1      44.196  31.462  29.176  1.00  0.00     0.034 A 
BRANCH  44  58
ATOM     58  C   UNL A   1      46.968  26.875  26.095  1.00  0.00     0.023 A 
ATOM     59  C   UNL A   1      48.007  26.260  26.819  1.00  0.00     0.031 A 
ATOM     60  C   UNL A   1      47.188  27.167  24.737  1.00  0.00     0.131 A 
ATOM     61  C   UNL A   1      49.232  25.992  26.193  1.00  0.00     0.055 A 
ATOM     62  C   UNL A   1      48.395  26.858  24.107  1.00  0.00     0.041 A 
ATOM     63  F   UNL A   1      46.231  27.755  24.001  1.00  0.00    -0.206 F 
ATOM     64  C   UNL A   1      49.429  26.281  24.839  1.00  0.00     0.022 A 
BRANCH  61  65
ATOM     65  S   UNL A   1      50.639  25.327  27.126  1.00  0.00     0.124 S 
ATOM     66  O   UNL A   1      51.005  26.467  27.965  1.00  0.00    -0.237 OA
ATOM     67  O   UNL A   1      50.033  24.202  27.832  1.00  0.00    -0.237 OA
ATOM     68  O   UNL A   1      51.611  24.978  26.096  1.00  0.00    -0.744 OA
ENDBRANCH  61  65
ENDBRANCH  44  58
BRANCH  45  69
ATOM     69  C   UNL A   1      38.558  29.758  30.723  1.00  0.00     0.023 A 
ATOM     70  C   UNL A   1      37.588  30.496  30.019  1.00  0.00     0.031 A 
ATOM     71  C   UNL A   1      38.354  29.541  32.095  1.00  0.00     0.131 A 
ATOM     72  C   UNL A   1      36.508  31.063  30.706  1.00  0.00     0.055 A 
ATOM     73  C   UNL A   1      37.232  30.038  32.759  1.00  0.00     0.041 A 
ATOM     74  F   UNL A   1      39.256  28.855  32.813  1.00  0.00    -0.206 F 
ATOM     75  C   UNL A   1      36.312  30.823  32.069  1.00  0.00     0.022 A 
BRANCH  72  76
ATOM     76  S   UNL A   1      35.413  32.257  29.887  1.00  0.00     0.124 S 
ATOM     77  O   UNL A   1      36.337  33.336  29.552  1.00  0.00    -0.237 OA
ATOM     78  O   UNL A   1      34.916  31.477  28.755  1.00  0.00    -0.237 OA
ATOM     79  O   UNL A   1      34.418  32.569  30.907  1.00  0.00    -0.744 OA
ENDBRANCH  72  76
ENDBRANCH  45  69
BRANCH  57  80
ATOM     80  C   UNL A   1      44.796  32.800  29.532  1.00  0.00     0.023 A 
ATOM     81  C   UNL A   1      44.729  33.870  28.617  1.00  0.00     0.031 A 
ATOM     82  C   UNL A   1      45.570  32.968  30.693  1.00  0.00     0.131 A 
ATOM     83  C   UNL A   1      45.459  35.040  28.856  1.00  0.00     0.055 A 
ATOM     84  C   UNL A   1      46.256  34.157  30.952  1.00  0.00     0.041 A 
ATOM     85  F   UNL A   1      45.677  31.976  31.591  1.00  0.00    -0.206 F 
ATOM     86  C   UNL A   1      46.216  35.193  30.023  1.00  0.00     0.022 A 
BRANCH  83  87
ATOM     87  S   UNL A   1      45.533  36.366  27.621  1.00  0.00     0.124 S 
ATOM     88  O   UNL A   1      46.061  35.663  26.454  1.00  0.00    -0.237 OA
ATOM     89  O   UNL A   1      44.133  36.773  27.523  1.00  0.00    -0.237 OA
ATOM     90  O   UNL A   1      46.434  37.350  28.213  1.00  0.00    -0.744 OA
ENDBRANCH  83  87
ENDBRANCH  57  80
ENDBRANCH  31  32
ENDBRANCH  23  26
ENDBRANCH  21  22
ENDBRANCH  20  21
ENDBRANCH   1  20
TORSDOF 18
ENDMDL
