MODEL 1
REMARK VINA RESULT:     -12.4      0.000      0.000
REMARK SMILES C[C@@H]1[C@@H](C(=O)NCCCCNC(=O)c2ccc(-c3c4nc(c(-c5cc(S(=O)(=O)[O-])ccc5F)c5ccc([nH]5)c(-c5cc(S(=O)(=O)[O-])ccc5F)c5nc(c(-c6cc(S(=O)(=O)[O-])ccc6F)c6ccc3[nH]6)C=C5)C=C4)cc2)CCN1C(=O)N1CCC[C@H]2CCC[C@@H]21
REMARK SMILES IDX 9 1 8 2 7 3 6 4 4 5 5 6 3 8 1 9 2 10 79 11 77 12 78 13 80 14
REMARK SMILES IDX 81 15 82 16 83 17 90 18 84 19 86 20 89 21 85 22 87 23 88 24
REMARK SMILES IDX 10 25 11 26 12 27 13 29 14 30 15 31 76 32 16 33 75 34 17 35
REMARK SMILES IDX 18 36 19 37 69 38 20 39 74 40 68 41 70 42 21 43 73 44 67 45
REMARK SMILES IDX 66 46 22 48 54 49 34 50 53 51 35 52 38 53 52 54 71 55 36 56
REMARK SMILES IDX 37 57 51 59 72 60 39 61 23 62 24 63 32 64 25 65 31 66 33 67
REMARK SMILES IDX 30 68 26 69 27 70 28 71 29 72 55 73 56 74 64 75 57 76 63 77
REMARK SMILES IDX 65 78 62 79 58 80 59 81 60 82 61 83 40 84 41 85 49 86 42 87
REMARK SMILES IDX 48 88 50 89 47 90 43 91 44 92 45 93 46 94
REMARK H PARENT 6 7 11 28 70 47 38 58
REMARK Flexibility Score: inf
ROOT
ATOM      1  C   UNL A   1      31.766  31.796  26.599  1.00  0.00     0.023 C 
ENDROOT
BRANCH   1   2
ATOM      2  C   UNL A   1      31.837  30.271  26.538  1.00  0.00     0.023 C 
BRANCH   2   3
ATOM      3  C   UNL A   1      33.237  29.673  26.600  1.00  0.00     0.116 C 
BRANCH   3   4
ATOM      4  N   UNL A   1      33.778  29.303  25.306  1.00  0.00    -0.356 N 
ATOM      5  C   UNL A   1      33.477  28.216  24.530  1.00  0.00     0.225 C 
ATOM      6  O   UNL A   1      34.021  28.121  23.432  1.00  0.00    -0.275 OA
ATOM      7  H   UNL A   1      34.452  29.917  24.935  1.00  0.00     0.163 HD
BRANCH   5   8
ATOM      8  C   UNL A   1      32.574  27.131  25.107  1.00  0.00     0.102 C 
ATOM      9  C   UNL A   1      32.773  24.915  26.219  1.00  0.00     0.032 C 
ATOM     10  C   UNL A   1      33.177  25.711  24.970  1.00  0.00     0.096 C 
ATOM     11  N   UNL A   1      32.583  25.178  23.725  1.00  0.00    -0.321 N 
ATOM     12  C   UNL A   1      31.221  26.982  24.405  1.00  0.00     0.037 C 
ATOM     13  C   UNL A   1      31.507  26.031  23.264  1.00  0.00     0.122 C 
BRANCH  11  14
ATOM     14  C   UNL A   1      33.170  24.356  22.773  1.00  0.00     0.320 C 
ATOM     15  O   UNL A   1      33.569  24.795  21.693  1.00  0.00    -0.248 OA
BRANCH  14  16
ATOM     16  N   UNL A   1      33.395  23.058  23.143  1.00  0.00    -0.321 N 
ATOM     17  C   UNL A   1      32.416  22.012  22.898  1.00  0.00     0.121 C 
ATOM     18  C   UNL A   1      34.736  22.540  23.337  1.00  0.00     0.090 C 
ATOM     19  C   UNL A   1      32.343  21.054  24.091  1.00  0.00     0.022 C 
ATOM     20  C   UNL A   1      34.707  21.727  24.632  1.00  0.00     0.012 C 
ATOM     21  C   UNL A   1      35.901  23.490  23.588  1.00  0.00     0.025 C 
ATOM     22  C   UNL A   1      33.738  20.550  24.510  1.00  0.00     0.007 C 
ATOM     23  C   UNL A   1      36.172  21.399  24.866  1.00  0.00     0.006 C 
ATOM     24  C   UNL A   1      36.922  22.635  24.352  1.00  0.00     0.002 C 
ENDBRANCH  14  16
ENDBRANCH  11  14
ENDBRANCH   5   8
ENDBRANCH   3   4
ENDBRANCH   2   3
ENDBRANCH   1   2
BRANCH   1  25
ATOM     25  C   UNL A   1      32.924  32.483  27.314  1.00  0.00     0.116 C 
BRANCH  25  26
ATOM     26  N   UNL A   1      32.660  33.882  27.612  1.00  0.00    -0.352 N 
ATOM     27  C   UNL A   1      33.226  34.705  28.561  1.00  0.00     0.251 C 
ATOM     28  H   UNL A   1      31.971  34.305  27.050  1.00  0.00     0.163 HD
ATOM     29  O   UNL A   1      32.753  35.817  28.754  1.00  0.00    -0.269 OA
BRANCH  27  30
ATOM     30  C   UNL A   1      34.375  34.228  29.365  1.00  0.00     0.039 A 
ATOM     31  C   UNL A   1      34.129  33.515  30.542  1.00  0.00     0.014 A 
ATOM     32  C   UNL A   1      35.690  34.471  28.959  1.00  0.00     0.014 A 
ATOM     33  C   UNL A   1      35.199  32.978  31.264  1.00  0.00     0.010 A 
ATOM     34  C   UNL A   1      36.747  33.857  29.627  1.00  0.00     0.010 A 
ATOM     35  C   UNL A   1      36.515  33.107  30.791  1.00  0.00    -0.014 A 
BRANCH  35  36
ATOM     36  C   UNL A   1      37.664  32.483  31.503  1.00  0.00     0.031 A 
ATOM     37  C   UNL A   1      38.410  31.339  30.867  1.00  0.00     0.074 A 
ATOM     38  C   UNL A   1      37.997  32.900  32.741  1.00  0.00     0.049 A 
ATOM     39  N   UNL A   1      39.377  30.605  31.357  1.00  0.00    -0.248 NA
ATOM     40  C   UNL A   1      37.987  30.949  29.515  1.00  0.00     0.031 C 
ATOM     41  C   UNL A   1      37.331  33.975  33.480  1.00  0.00     0.029 A 
ATOM     42  N   UNL A   1      38.976  32.467  33.602  1.00  0.00    -0.354 N 
ATOM     43  C   UNL A   1      39.666  29.659  30.380  1.00  0.00     0.074 A 
ATOM     44  C   UNL A   1      38.722  29.870  29.303  1.00  0.00     0.031 C 
ATOM     45  C   UNL A   1      37.937  34.135  34.667  1.00  0.00     0.029 A 
ATOM     46  C   UNL A   1      39.001  33.145  34.800  1.00  0.00     0.049 A 
ATOM     47  H   UNL A   1      39.601  31.739  33.384  1.00  0.00     0.167 HD
ATOM     48  C   UNL A   1      40.645  28.720  30.367  1.00  0.00     0.034 A 
ATOM     49  C   UNL A   1      39.783  32.981  35.886  1.00  0.00     0.034 A 
ATOM     50  C   UNL A   1      41.585  28.528  31.445  1.00  0.00     0.049 A 
ATOM     51  C   UNL A   1      40.843  31.907  35.865  1.00  0.00     0.074 A 
ATOM     52  C   UNL A   1      42.642  27.637  31.520  1.00  0.00     0.029 A 
ATOM     53  N   UNL A   1      41.577  29.233  32.643  1.00  0.00    -0.354 N 
ATOM     54  N   UNL A   1      41.131  31.047  34.916  1.00  0.00    -0.248 NA
ATOM     55  C   UNL A   1      41.690  31.791  37.059  1.00  0.00     0.031 C 
ATOM     56  C   UNL A   1      43.224  27.752  32.787  1.00  0.00     0.029 A 
ATOM     57  C   UNL A   1      42.592  28.777  33.473  1.00  0.00     0.049 A 
ATOM     58  H   UNL A   1      40.945  29.953  32.870  1.00  0.00     0.167 HD
ATOM     59  C   UNL A   1      42.221  30.316  35.383  1.00  0.00     0.074 A 
ATOM     60  C   UNL A   1      42.541  30.844  36.694  1.00  0.00     0.031 C 
ATOM     61  C   UNL A   1      42.901  29.307  34.780  1.00  0.00     0.034 A 
BRANCH  48  62
ATOM     62  C   UNL A   1      40.725  27.816  29.157  1.00  0.00     0.023 A 
ATOM     63  C   UNL A   1      41.672  28.025  28.139  1.00  0.00     0.031 A 
ATOM     64  C   UNL A   1      39.816  26.755  28.997  1.00  0.00     0.131 A 
ATOM     65  C   UNL A   1      41.634  27.249  26.972  1.00  0.00     0.055 A 
ATOM     66  C   UNL A   1      39.844  25.925  27.873  1.00  0.00     0.041 A 
ATOM     67  F   UNL A   1      38.873  26.516  29.921  1.00  0.00    -0.206 F 
ATOM     68  C   UNL A   1      40.743  26.181  26.843  1.00  0.00     0.022 A 
BRANCH  65  69
ATOM     69  S   UNL A   1      42.649  27.761  25.558  1.00  0.00     0.124 S 
ATOM     70  O   UNL A   1      42.650  26.549  24.743  1.00  0.00    -0.237 OA
ATOM     71  O   UNL A   1      41.897  28.890  25.023  1.00  0.00    -0.237 OA
ATOM     72  O   UNL A   1      43.935  28.098  26.163  1.00  0.00    -0.744 OA
ENDBRANCH  65  69
ENDBRANCH  48  62
BRANCH  49  73
ATOM     73  C   UNL A   1      39.600  33.844  37.089  1.00  0.00     0.023 A 
ATOM     74  C   UNL A   1      39.000  33.342  38.256  1.00  0.00     0.031 A 
ATOM     75  C   UNL A   1      39.983  35.198  37.078  1.00  0.00     0.131 A 
ATOM     76  C   UNL A   1      38.754  34.197  39.341  1.00  0.00     0.055 A 
ATOM     77  C   UNL A   1      39.790  36.030  38.181  1.00  0.00     0.041 A 
ATOM     78  F   UNL A   1      40.565  35.729  35.991  1.00  0.00    -0.206 F 
ATOM     79  C   UNL A   1      39.158  35.534  39.318  1.00  0.00     0.022 A 
BRANCH  76  80
ATOM     80  S   UNL A   1      37.814  33.558  40.755  1.00  0.00     0.124 S 
ATOM     81  O   UNL A   1      36.569  33.140  40.118  1.00  0.00    -0.237 OA
ATOM     82  O   UNL A   1      38.680  32.489  41.236  1.00  0.00    -0.237 OA
ATOM     83  O   UNL A   1      37.704  34.716  41.641  1.00  0.00    -0.744 OA
ENDBRANCH  76  80
ENDBRANCH  49  73
BRANCH  61  84
ATOM     84  C   UNL A   1      44.101  28.750  35.510  1.00  0.00     0.023 A 
ATOM     85  C   UNL A   1      43.999  27.671  36.405  1.00  0.00     0.031 A 
ATOM     86  C   UNL A   1      45.371  29.322  35.310  1.00  0.00     0.131 A 
ATOM     87  C   UNL A   1      45.131  27.239  37.111  1.00  0.00     0.055 A 
ATOM     88  C   UNL A   1      46.507  28.842  35.963  1.00  0.00     0.041 A 
ATOM     89  F   UNL A   1      45.530  30.357  34.470  1.00  0.00    -0.206 F 
ATOM     90  C   UNL A   1      46.388  27.804  36.882  1.00  0.00     0.022 A 
BRANCH  87  91
ATOM     91  S   UNL A   1      44.923  25.996  38.417  1.00  0.00     0.124 S 
ATOM     92  O   UNL A   1      44.209  26.749  39.442  1.00  0.00    -0.237 OA
ATOM     93  O   UNL A   1      44.155  24.957  37.738  1.00  0.00    -0.237 OA
ATOM     94  O   UNL A   1      46.295  25.626  38.760  1.00  0.00    -0.744 OA
ENDBRANCH  87  91
ENDBRANCH  61  84
ENDBRANCH  35  36
ENDBRANCH  27  30
ENDBRANCH  25  26
ENDBRANCH   1  25
TORSDOF 16
ENDMDL
MODEL 2
REMARK VINA RESULT:     -12.2      5.812     11.863
REMARK SMILES C[C@@H]1[C@@H](C(=O)NCCCCNC(=O)c2ccc(-c3c4nc(c(-c5cc(S(=O)(=O)[O-])ccc5F)c5ccc([nH]5)c(-c5cc(S(=O)(=O)[O-])ccc5F)c5nc(c(-c6cc(S(=O)(=O)[O-])ccc6F)c6ccc3[nH]6)C=C5)C=C4)cc2)CCN1C(=O)N1CCC[C@H]2CCC[C@@H]21
REMARK SMILES IDX 9 1 8 2 7 3 6 4 4 5 5 6 3 8 1 9 2 10 79 11 77 12 78 13 80 14
REMARK SMILES IDX 81 15 82 16 83 17 90 18 84 19 86 20 89 21 85 22 87 23 88 24
REMARK SMILES IDX 10 25 11 26 12 27 13 29 14 30 15 31 76 32 16 33 75 34 17 35
REMARK SMILES IDX 18 36 19 37 69 38 20 39 74 40 68 41 70 42 21 43 73 44 67 45
REMARK SMILES IDX 66 46 22 48 54 49 34 50 53 51 35 52 38 53 52 54 71 55 36 56
REMARK SMILES IDX 37 57 51 59 72 60 39 61 23 62 24 63 32 64 25 65 31 66 33 67
REMARK SMILES IDX 30 68 26 69 27 70 28 71 29 72 55 73 56 74 64 75 57 76 63 77
REMARK SMILES IDX 65 78 62 79 58 80 59 81 60 82 61 83 40 84 41 85 49 86 42 87
REMARK SMILES IDX 48 88 50 89 47 90 43 91 44 92 45 93 46 94
REMARK H PARENT 6 7 11 28 70 47 38 58
REMARK Flexibility Score: inf
ROOT
ATOM      1  C   UNL A   1      38.246  19.907  25.043  1.00  0.00     0.023 C 
ENDROOT
BRANCH   1   2
ATOM      2  C   UNL A   1      37.203  21.009  24.866  1.00  0.00     0.023 C 
BRANCH   2   3
ATOM      3  C   UNL A   1      35.751  20.573  25.020  1.00  0.00     0.116 C 
BRANCH   3   4
ATOM      4  N   UNL A   1      35.067  21.187  26.142  1.00  0.00    -0.356 N 
ATOM      5  C   UNL A   1      34.171  22.222  26.139  1.00  0.00     0.225 C 
ATOM      6  O   UNL A   1      33.668  22.555  27.210  1.00  0.00    -0.275 OA
ATOM      7  H   UNL A   1      35.276  20.807  27.027  1.00  0.00     0.163 HD
BRANCH   5   8
ATOM      8  C   UNL A   1      33.927  22.975  24.837  1.00  0.00     0.102 C 
ATOM      9  C   UNL A   1      33.998  25.306  23.970  1.00  0.00     0.032 C 
ATOM     10  C   UNL A   1      33.395  24.412  25.063  1.00  0.00     0.096 C 
ATOM     11  N   UNL A   1      31.925  24.280  24.958  1.00  0.00    -0.321 N 
ATOM     12  C   UNL A   1      32.850  22.364  23.934  1.00  0.00     0.037 C 
ATOM     13  C   UNL A   1      31.563  22.977  24.441  1.00  0.00     0.122 C 
BRANCH  11  14
ATOM     14  C   UNL A   1      30.946  24.953  25.675  1.00  0.00     0.320 C 
ATOM     15  O   UNL A   1      30.499  24.513  26.736  1.00  0.00    -0.248 OA
BRANCH  14  16
ATOM     16  N   UNL A   1      30.591  26.190  25.209  1.00  0.00    -0.321 N 
ATOM     17  C   UNL A   1      29.460  26.375  24.315  1.00  0.00     0.121 C 
ATOM     18  C   UNL A   1      30.960  27.406  25.909  1.00  0.00     0.090 C 
ATOM     19  C   UNL A   1      29.789  27.414  23.238  1.00  0.00     0.022 C 
ATOM     20  C   UNL A   1      31.462  28.386  24.847  1.00  0.00     0.012 C 
ATOM     21  C   UNL A   1      32.114  27.402  26.905  1.00  0.00     0.025 C 
ATOM     22  C   UNL A   1      30.354  28.712  23.846  1.00  0.00     0.007 C 
ATOM     23  C   UNL A   1      32.013  29.536  25.673  1.00  0.00     0.006 C 
ATOM     24  C   UNL A   1      32.599  28.859  26.920  1.00  0.00     0.002 C 
ENDBRANCH  14  16
ENDBRANCH  11  14
ENDBRANCH   5   8
ENDBRANCH   3   4
ENDBRANCH   2   3
ENDBRANCH   1   2
BRANCH   1  25
ATOM     25  C   UNL A   1      39.455  20.273  25.897  1.00  0.00     0.116 C 
BRANCH  25  26
ATOM     26  N   UNL A   1      40.438  19.203  25.979  1.00  0.00    -0.352 N 
ATOM     27  C   UNL A   1      41.803  19.271  26.156  1.00  0.00     0.251 C 
ATOM     28  H   UNL A   1      40.073  18.293  25.894  1.00  0.00     0.163 HD
ATOM     29  O   UNL A   1      42.476  18.255  26.043  1.00  0.00    -0.269 OA
BRANCH  27  30
ATOM     30  C   UNL A   1      42.450  20.572  26.445  1.00  0.00     0.039 A 
ATOM     31  C   UNL A   1      42.959  21.325  25.383  1.00  0.00     0.014 A 
ATOM     32  C   UNL A   1      42.546  21.057  27.751  1.00  0.00     0.014 A 
ATOM     33  C   UNL A   1      43.490  22.595  25.626  1.00  0.00     0.010 A 
ATOM     34  C   UNL A   1      42.988  22.357  27.979  1.00  0.00     0.010 A 
ATOM     35  C   UNL A   1      43.470  23.142  26.919  1.00  0.00    -0.014 A 
BRANCH  35  36
ATOM     36  C   UNL A   1      43.962  24.520  27.191  1.00  0.00     0.031 A 
ATOM     37  C   UNL A   1      43.015  25.566  27.720  1.00  0.00     0.074 A 
ATOM     38  C   UNL A   1      45.238  24.849  26.906  1.00  0.00     0.049 A 
ATOM     39  N   UNL A   1      43.223  26.839  27.938  1.00  0.00    -0.248 NA
ATOM     40  C   UNL A   1      41.644  25.123  28.010  1.00  0.00     0.031 C 
ATOM     41  C   UNL A   1      46.245  23.938  26.357  1.00  0.00     0.029 A 
ATOM     42  N   UNL A   1      45.908  26.042  27.030  1.00  0.00    -0.354 N 
ATOM     43  C   UNL A   1      42.007  27.352  28.375  1.00  0.00     0.074 A 
ATOM     44  C   UNL A   1      41.052  26.266  28.319  1.00  0.00     0.031 C 
ATOM     45  C   UNL A   1      47.407  24.595  26.221  1.00  0.00     0.029 A 
ATOM     46  C   UNL A   1      47.221  25.987  26.622  1.00  0.00     0.049 A 
ATOM     47  H   UNL A   1      45.488  26.860  27.379  1.00  0.00     0.167 HD
ATOM     48  C   UNL A   1      41.717  28.605  28.808  1.00  0.00     0.034 A 
ATOM     49  C   UNL A   1      48.165  26.947  26.564  1.00  0.00     0.034 A 
ATOM     50  C   UNL A   1      42.683  29.675  28.866  1.00  0.00     0.049 A 
ATOM     51  C   UNL A   1      47.812  28.343  27.018  1.00  0.00     0.074 A 
ATOM     52  C   UNL A   1      42.510  30.969  29.328  1.00  0.00     0.029 A 
ATOM     53  N   UNL A   1      44.003  29.581  28.441  1.00  0.00    -0.354 N 
ATOM     54  N   UNL A   1      46.667  28.802  27.468  1.00  0.00    -0.248 NA
ATOM     55  C   UNL A   1      48.885  29.345  26.968  1.00  0.00     0.031 C 
ATOM     56  C   UNL A   1      43.699  31.674  29.114  1.00  0.00     0.029 A 
ATOM     57  C   UNL A   1      44.645  30.800  28.603  1.00  0.00     0.049 A 
ATOM     58  H   UNL A   1      44.422  28.767  28.079  1.00  0.00     0.167 HD
ATOM     59  C   UNL A   1      46.895  30.137  27.793  1.00  0.00     0.074 A 
ATOM     60  C   UNL A   1      48.288  30.403  27.496  1.00  0.00     0.031 C 
ATOM     61  C   UNL A   1      46.034  31.057  28.299  1.00  0.00     0.034 A 
BRANCH  48  62
ATOM     62  C   UNL A   1      40.291  28.882  29.227  1.00  0.00     0.023 A 
ATOM     63  C   UNL A   1      39.907  28.894  30.580  1.00  0.00     0.031 A 
ATOM     64  C   UNL A   1      39.291  29.097  28.262  1.00  0.00     0.131 A 
ATOM     65  C   UNL A   1      38.554  29.026  30.927  1.00  0.00     0.055 A 
ATOM     66  C   UNL A   1      37.959  29.322  28.618  1.00  0.00     0.041 A 
ATOM     67  F   UNL A   1      39.588  29.075  26.953  1.00  0.00    -0.206 F 
ATOM     68  C   UNL A   1      37.580  29.268  29.955  1.00  0.00     0.022 A 
BRANCH  65  69
ATOM     69  S   UNL A   1      38.066  28.708  32.644  1.00  0.00     0.124 S 
ATOM     70  O   UNL A   1      38.184  27.254  32.719  1.00  0.00    -0.237 OA
ATOM     71  O   UNL A   1      39.055  29.469  33.399  1.00  0.00    -0.237 OA
ATOM     72  O   UNL A   1      36.699  29.219  32.713  1.00  0.00    -0.744 OA
ENDBRANCH  65  69
ENDBRANCH  48  62
BRANCH  49  73
ATOM     73  C   UNL A   1      49.534  26.637  26.056  1.00  0.00     0.023 A 
ATOM     74  C   UNL A   1      49.948  27.067  24.785  1.00  0.00     0.031 A 
ATOM     75  C   UNL A   1      50.434  25.869  26.817  1.00  0.00     0.131 A 
ATOM     76  C   UNL A   1      51.205  26.684  24.292  1.00  0.00     0.055 A 
ATOM     77  C   UNL A   1      51.706  25.540  26.345  1.00  0.00     0.041 A 
ATOM     78  F   UNL A   1      50.092  25.435  28.040  1.00  0.00    -0.206 F 
ATOM     79  C   UNL A   1      52.093  25.936  25.068  1.00  0.00     0.022 A 
BRANCH  76  80
ATOM     80  S   UNL A   1      51.630  27.102  22.578  1.00  0.00     0.124 S 
ATOM     81  O   UNL A   1      51.982  28.513  22.697  1.00  0.00    -0.237 OA
ATOM     82  O   UNL A   1      52.732  26.186  22.307  1.00  0.00    -0.237 OA
ATOM     83  O   UNL A   1      50.397  26.825  21.844  1.00  0.00    -0.744 OA
ENDBRANCH  76  80
ENDBRANCH  49  73
BRANCH  61  84
ATOM     84  C   UNL A   1      46.594  32.422  28.624  1.00  0.00     0.023 A 
ATOM     85  C   UNL A   1      46.565  33.482  27.700  1.00  0.00     0.031 A 
ATOM     86  C   UNL A   1      47.177  32.661  29.882  1.00  0.00     0.131 A 
ATOM     87  C   UNL A   1      47.163  34.709  28.025  1.00  0.00     0.055 A 
ATOM     88  C   UNL A   1      47.708  33.905  30.225  1.00  0.00     0.041 A 
ATOM     89  F   UNL A   1      47.237  31.686  30.804  1.00  0.00    -0.206 F 
ATOM     90  C   UNL A   1      47.717  34.933  29.288  1.00  0.00     0.022 A 
BRANCH  87  91
ATOM     91  S   UNL A   1      47.304  35.979  26.736  1.00  0.00     0.124 S 
ATOM     92  O   UNL A   1      46.698  35.314  25.588  1.00  0.00    -0.237 OA
ATOM     93  O   UNL A   1      46.544  37.087  27.306  1.00  0.00    -0.237 OA
ATOM     94  O   UNL A   1      48.744  36.205  26.634  1.00  0.00    -0.744 OA
ENDBRANCH  87  91
ENDBRANCH  61  84
ENDBRANCH  35  36
ENDBRANCH  27  30
ENDBRANCH  25  26
ENDBRANCH   1  25
TORSDOF 16
ENDMDL
MODEL 3
REMARK VINA RESULT:     -12.1      1.830      7.793
REMARK SMILES C[C@@H]1[C@@H](C(=O)NCCCCNC(=O)c2ccc(-c3c4nc(c(-c5cc(S(=O)(=O)[O-])ccc5F)c5ccc([nH]5)c(-c5cc(S(=O)(=O)[O-])ccc5F)c5nc(c(-c6cc(S(=O)(=O)[O-])ccc6F)c6ccc3[nH]6)C=C5)C=C4)cc2)CCN1C(=O)N1CCC[C@H]2CCC[C@@H]21
REMARK SMILES IDX 9 1 8 2 7 3 6 4 4 5 5 6 3 8 1 9 2 10 79 11 77 12 78 13 80 14
REMARK SMILES IDX 81 15 82 16 83 17 90 18 84 19 86 20 89 21 85 22 87 23 88 24
REMARK SMILES IDX 10 25 11 26 12 27 13 29 14 30 15 31 76 32 16 33 75 34 17 35
REMARK SMILES IDX 18 36 19 37 69 38 20 39 74 40 68 41 70 42 21 43 73 44 67 45
REMARK SMILES IDX 66 46 22 48 54 49 34 50 53 51 35 52 38 53 52 54 71 55 36 56
REMARK SMILES IDX 37 57 51 59 72 60 39 61 23 62 24 63 32 64 25 65 31 66 33 67
REMARK SMILES IDX 30 68 26 69 27 70 28 71 29 72 55 73 56 74 64 75 57 76 63 77
REMARK SMILES IDX 65 78 62 79 58 80 59 81 60 82 61 83 40 84 41 85 49 86 42 87
REMARK SMILES IDX 48 88 50 89 47 90 43 91 44 92 45 93 46 94
REMARK H PARENT 6 7 11 28 70 47 38 58
REMARK Flexibility Score: inf
ROOT
ATOM      1  C   UNL A   1      31.352  32.235  26.430  1.00  0.00     0.023 C 
ENDROOT
BRANCH   1   2
ATOM      2  C   UNL A   1      31.311  30.895  25.697  1.00  0.00     0.023 C 
BRANCH   2   3
ATOM      3  C   UNL A   1      32.482  29.958  25.968  1.00  0.00     0.116 C 
BRANCH   3   4
ATOM      4  N   UNL A   1      33.142  29.478  24.768  1.00  0.00    -0.356 N 
ATOM      5  C   UNL A   1      33.052  28.248  24.174  1.00  0.00     0.225 C 
ATOM      6  O   UNL A   1      33.662  28.067  23.122  1.00  0.00    -0.275 OA
ATOM      7  H   UNL A   1      33.734  30.125  24.320  1.00  0.00     0.163 HD
BRANCH   5   8
ATOM      8  C   UNL A   1      32.295  27.139  24.896  1.00  0.00     0.102 C 
ATOM      9  C   UNL A   1      32.773  25.040  26.144  1.00  0.00     0.032 C 
ATOM     10  C   UNL A   1      33.011  25.768  24.813  1.00  0.00     0.096 C 
ATOM     11  N   UNL A   1      32.377  25.093  23.660  1.00  0.00    -0.321 N 
ATOM     12  C   UNL A   1      30.913  26.823  24.318  1.00  0.00     0.037 C 
ATOM     13  C   UNL A   1      31.198  25.813  23.228  1.00  0.00     0.122 C 
BRANCH  11  14
ATOM     14  C   UNL A   1      32.964  24.252  22.725  1.00  0.00     0.320 C 
ATOM     15  O   UNL A   1      33.291  24.652  21.606  1.00  0.00    -0.248 OA
BRANCH  14  16
ATOM     16  N   UNL A   1      33.274  22.988  23.150  1.00  0.00    -0.321 N 
ATOM     17  C   UNL A   1      32.383  21.863  22.918  1.00  0.00     0.121 C 
ATOM     18  C   UNL A   1      34.642  22.580  23.400  1.00  0.00     0.090 C 
ATOM     19  C   UNL A   1      32.345  20.945  24.144  1.00  0.00     0.022 C 
ATOM     20  C   UNL A   1      34.634  21.813  24.725  1.00  0.00     0.012 C 
ATOM     21  C   UNL A   1      35.725  23.623  23.648  1.00  0.00     0.025 C 
ATOM     22  C   UNL A   1      33.760  20.563  24.620  1.00  0.00     0.007 C 
ATOM     23  C   UNL A   1      36.112  21.605  25.011  1.00  0.00     0.006 C 
ATOM     24  C   UNL A   1      36.784  22.875  24.472  1.00  0.00     0.002 C 
ENDBRANCH  14  16
ENDBRANCH  11  14
ENDBRANCH   5   8
ENDBRANCH   3   4
ENDBRANCH   2   3
ENDBRANCH   1   2
BRANCH   1  25
ATOM     25  C   UNL A   1      32.509  32.419  27.405  1.00  0.00     0.116 C 
BRANCH  25  26
ATOM     26  N   UNL A   1      32.853  33.815  27.622  1.00  0.00    -0.352 N 
ATOM     27  C   UNL A   1      33.932  34.367  28.279  1.00  0.00     0.251 C 
ATOM     28  H   UNL A   1      32.219  34.465  27.243  1.00  0.00     0.163 HD
ATOM     29  O   UNL A   1      33.960  35.573  28.486  1.00  0.00    -0.269 OA
BRANCH  27  30
ATOM     30  C   UNL A   1      35.031  33.498  28.761  1.00  0.00     0.039 A 
ATOM     31  C   UNL A   1      36.350  33.832  28.440  1.00  0.00     0.014 A 
ATOM     32  C   UNL A   1      34.768  32.365  29.536  1.00  0.00     0.014 A 
ATOM     33  C   UNL A   1      37.403  33.078  28.964  1.00  0.00     0.010 A 
ATOM     34  C   UNL A   1      35.819  31.673  30.132  1.00  0.00     0.010 A 
ATOM     35  C   UNL A   1      37.150  32.017  29.850  1.00  0.00    -0.014 A 
BRANCH  35  36
ATOM     36  C   UNL A   1      38.257  31.245  30.477  1.00  0.00     0.031 A 
ATOM     37  C   UNL A   1      38.680  31.550  31.891  1.00  0.00     0.074 A 
ATOM     38  C   UNL A   1      38.922  30.315  29.761  1.00  0.00     0.049 A 
ATOM     39  N   UNL A   1      39.673  31.056  32.585  1.00  0.00    -0.248 NA
ATOM     40  C   UNL A   1      37.900  32.573  32.603  1.00  0.00     0.031 C 
ATOM     41  C   UNL A   1      38.633  29.951  28.372  1.00  0.00     0.029 A 
ATOM     42  N   UNL A   1      39.983  29.511  30.098  1.00  0.00    -0.354 N 
ATOM     43  C   UNL A   1      39.646  31.717  33.808  1.00  0.00     0.074 A 
ATOM     44  C   UNL A   1      38.584  32.698  33.728  1.00  0.00     0.031 C 
ATOM     45  C   UNL A   1      39.474  28.978  27.988  1.00  0.00     0.029 A 
ATOM     46  C   UNL A   1      40.397  28.682  29.080  1.00  0.00     0.049 A 
ATOM     47  H   UNL A   1      40.409  29.526  30.985  1.00  0.00     0.167 HD
ATOM     48  C   UNL A   1      40.416  31.509  34.906  1.00  0.00     0.034 A 
ATOM     49  C   UNL A   1      41.410  27.794  29.026  1.00  0.00     0.034 A 
ATOM     50  C   UNL A   1      41.465  30.521  34.972  1.00  0.00     0.049 A 
ATOM     51  C   UNL A   1      42.277  27.603  30.247  1.00  0.00     0.074 A 
ATOM     52  C   UNL A   1      42.277  30.196  36.045  1.00  0.00     0.029 A 
ATOM     53  N   UNL A   1      41.856  29.702  33.919  1.00  0.00    -0.354 N 
ATOM     54  N   UNL A   1      42.212  28.208  31.410  1.00  0.00    -0.248 NA
ATOM     55  C   UNL A   1      43.346  26.601  30.148  1.00  0.00     0.031 C 
ATOM     56  C   UNL A   1      43.204  29.238  35.620  1.00  0.00     0.029 A 
ATOM     57  C   UNL A   1      42.915  28.895  34.309  1.00  0.00     0.049 A 
ATOM     58  H   UNL A   1      41.441  29.695  33.026  1.00  0.00     0.167 HD
ATOM     59  C   UNL A   1      43.205  27.628  32.195  1.00  0.00     0.074 A 
ATOM     60  C   UNL A   1      43.846  26.621  31.375  1.00  0.00     0.031 C 
ATOM     61  C   UNL A   1      43.551  27.896  33.481  1.00  0.00     0.034 A 
BRANCH  48  62
ATOM     62  C   UNL A   1      40.161  32.389  36.109  1.00  0.00     0.023 A 
ATOM     63  C   UNL A   1      39.195  32.057  37.076  1.00  0.00     0.031 A 
ATOM     64  C   UNL A   1      40.863  33.596  36.273  1.00  0.00     0.131 A 
ATOM     65  C   UNL A   1      38.894  32.958  38.108  1.00  0.00     0.055 A 
ATOM     66  C   UNL A   1      40.625  34.446  37.357  1.00  0.00     0.041 A 
ATOM     67  F   UNL A   1      41.781  33.981  35.374  1.00  0.00    -0.206 F 
ATOM     68  C   UNL A   1      39.622  34.138  38.271  1.00  0.00     0.022 A 
BRANCH  65  69
ATOM     69  S   UNL A   1      37.429  32.644  39.130  1.00  0.00     0.124 S 
ATOM     70  O   UNL A   1      37.587  33.643  40.185  1.00  0.00    -0.237 OA
ATOM     71  O   UNL A   1      36.336  32.874  38.193  1.00  0.00    -0.237 OA
ATOM     72  O   UNL A   1      37.601  31.259  39.562  1.00  0.00    -0.744 OA
ENDBRANCH  65  69
ENDBRANCH  48  62
BRANCH  49  73
ATOM     73  C   UNL A   1      41.672  27.017  27.779  1.00  0.00     0.023 A 
ATOM     74  C   UNL A   1      41.317  25.661  27.684  1.00  0.00     0.031 A 
ATOM     75  C   UNL A   1      42.320  27.606  26.679  1.00  0.00     0.131 A 
ATOM     76  C   UNL A   1      41.657  24.927  26.537  1.00  0.00     0.055 A 
ATOM     77  C   UNL A   1      42.605  26.886  25.517  1.00  0.00     0.041 A 
ATOM     78  F   UNL A   1      42.678  28.899  26.714  1.00  0.00    -0.206 F 
ATOM     79  C   UNL A   1      42.285  25.533  25.447  1.00  0.00     0.022 A 
BRANCH  76  80
ATOM     80  S   UNL A   1      41.347  23.139  26.526  1.00  0.00     0.124 S 
ATOM     81  O   UNL A   1      42.256  22.688  25.477  1.00  0.00    -0.237 OA
ATOM     82  O   UNL A   1      41.702  22.762  27.890  1.00  0.00    -0.237 OA
ATOM     83  O   UNL A   1      39.924  23.043  26.204  1.00  0.00    -0.744 OA
ENDBRANCH  76  80
ENDBRANCH  49  73
BRANCH  61  84
ATOM     84  C   UNL A   1      44.632  27.041  34.099  1.00  0.00     0.023 A 
ATOM     85  C   UNL A   1      44.374  25.751  34.596  1.00  0.00     0.031 A 
ATOM     86  C   UNL A   1      45.946  27.535  34.200  1.00  0.00     0.131 A 
ATOM     87  C   UNL A   1      45.397  25.026  35.224  1.00  0.00     0.055 A 
ATOM     88  C   UNL A   1      46.976  26.781  34.765  1.00  0.00     0.041 A 
ATOM     89  F   UNL A   1      46.252  28.761  33.747  1.00  0.00    -0.206 F 
ATOM     90  C   UNL A   1      46.700  25.525  35.295  1.00  0.00     0.022 A 
BRANCH  87  91
ATOM     91  S   UNL A   1      44.980  23.464  36.048  1.00  0.00     0.124 S 
ATOM     92  O   UNL A   1      43.633  23.209  35.550  1.00  0.00    -0.237 OA
ATOM     93  O   UNL A   1      46.021  22.566  35.558  1.00  0.00    -0.237 OA
ATOM     94  O   UNL A   1      45.064  23.792  37.469  1.00  0.00    -0.744 OA
ENDBRANCH  87  91
ENDBRANCH  61  84
ENDBRANCH  35  36
ENDBRANCH  27  30
ENDBRANCH  25  26
ENDBRANCH   1  25
TORSDOF 16
ENDMDL
