MODEL 1
REMARK VINA RESULT:     -12.7      0.000      0.000
REMARK SMILES CS(=O)(=O)c1ccc(/C=C(/C(=O)NCCCCNC(=O)c2ccc(-c3c4nc(c(-c5cc(S(=O)(=O)[O-])ccc5F)c5ccc([nH]5)c(-c5cc(S(=O)(=O)[O-])ccc5F)c5nc(c(-c6cc(S(=O)(=O)[O-])ccc6F)c6ccc3[nH]6)C=C5)C=C4)cc2)c2ccc(O)cc2)cc1
REMARK SMILES IDX 16 1 15 2 14 3 13 4 11 5 12 6 10 8 9 9 8 10 5 11 6 12 92 13
REMARK SMILES IDX 7 14 91 15 2 16 1 17 3 18 4 19 84 20 85 21 90 22 86 23 89 24
REMARK SMILES IDX 87 25 88 26 17 28 18 29 19 30 20 32 21 33 22 34 83 35 23 36
REMARK SMILES IDX 82 37 24 38 25 39 26 40 76 41 27 42 81 43 75 44 77 45 28 46
REMARK SMILES IDX 80 47 74 48 73 49 29 51 61 52 41 53 60 54 42 55 45 56 59 57
REMARK SMILES IDX 78 58 43 59 44 60 58 62 79 63 46 64 30 65 31 66 39 67 32 68
REMARK SMILES IDX 38 69 40 70 37 71 33 72 34 73 35 74 36 75 62 76 63 77 71 78
REMARK SMILES IDX 64 79 70 80 72 81 69 82 65 83 66 84 67 85 68 86 47 87 48 88
REMARK SMILES IDX 56 89 49 90 55 91 57 92 54 93 50 94 51 95 52 96 53 97
REMARK H PARENT 13 7 88 27 18 31 77 50 45 61
REMARK Flexibility Score: inf
ROOT
ATOM      1  C   UNL A   1      31.724  28.255  25.888  1.00  0.00     0.023 C 
ENDROOT
BRANCH   1   2
ATOM      2  C   UNL A   1      32.266  26.940  26.466  1.00  0.00     0.023 C 
BRANCH   2   3
ATOM      3  C   UNL A   1      31.608  25.680  25.899  1.00  0.00     0.116 C 
BRANCH   3   4
ATOM      4  N   UNL A   1      31.594  25.726  24.450  1.00  0.00    -0.352 N 
ATOM      5  C   UNL A   1      32.081  24.917  23.472  1.00  0.00     0.251 C 
ATOM      6  O   UNL A   1      31.904  25.306  22.314  1.00  0.00    -0.269 OA
ATOM      7  H   UNL A   1      31.129  26.517  24.096  1.00  0.00     0.163 HD
BRANCH   5   8
ATOM      8  C   UNL A   1      32.735  23.573  23.729  1.00  0.00     0.047 C 
ATOM      9  C   UNL A   1      32.019  22.437  23.897  1.00  0.00     0.022 C 
BRANCH   9  10
ATOM     10  C   UNL A   1      32.471  21.034  24.053  1.00  0.00    -0.025 A 
ATOM     11  C   UNL A   1      33.369  18.369  24.133  1.00  0.00     0.067 A 
ATOM     12  C   UNL A   1      33.588  19.213  25.222  1.00  0.00     0.021 A 
ATOM     13  C   UNL A   1      32.663  18.825  23.021  1.00  0.00     0.021 A 
ATOM     14  C   UNL A   1      33.111  20.529  25.190  1.00  0.00     0.009 A 
ATOM     15  C   UNL A   1      32.225  20.154  22.985  1.00  0.00     0.009 A 
BRANCH  11  16
ATOM     16  S   UNL A   1      34.016  16.715  24.180  1.00  0.00     0.175 S 
ATOM     17  C   UNL A   1      32.827  15.754  25.080  1.00  0.00     0.163 C 
ATOM     18  O   UNL A   1      35.239  16.765  24.954  1.00  0.00    -0.224 OA
ATOM     19  O   UNL A   1      34.010  16.211  22.817  1.00  0.00    -0.224 OA
ENDBRANCH  11  16
ENDBRANCH   9  10
BRANCH   8  20
ATOM     20  C   UNL A   1      34.199  23.582  23.979  1.00  0.00    -0.013 A 
ATOM     21  C   UNL A   1      34.663  24.053  25.222  1.00  0.00     0.013 A 
ATOM     22  C   UNL A   1      35.122  23.046  23.070  1.00  0.00     0.013 A 
ATOM     23  C   UNL A   1      36.006  23.941  25.570  1.00  0.00     0.047 A 
ATOM     24  C   UNL A   1      36.469  22.917  23.430  1.00  0.00     0.047 A 
ATOM     25  C   UNL A   1      36.894  23.351  24.684  1.00  0.00     0.115 A 
BRANCH  25  26
ATOM     26  O   UNL A   1      38.184  23.192  25.094  1.00  0.00    -0.508 OA
ATOM     27  H   UNL A   1      38.721  23.944  25.255  1.00  0.00     0.293 HD
ENDBRANCH  25  26
ENDBRANCH   8  20
ENDBRANCH   5   8
ENDBRANCH   3   4
ENDBRANCH   2   3
ENDBRANCH   1   2
BRANCH   1  28
ATOM     28  C   UNL A   1      32.769  29.336  25.626  1.00  0.00     0.116 C 
BRANCH  28  29
ATOM     29  N   UNL A   1      32.345  30.656  26.063  1.00  0.00    -0.352 N 
ATOM     30  C   UNL A   1      32.936  31.494  26.977  1.00  0.00     0.251 C 
ATOM     31  H   UNL A   1      31.519  30.996  25.647  1.00  0.00     0.163 HD
ATOM     32  O   UNL A   1      32.367  32.530  27.309  1.00  0.00    -0.269 OA
BRANCH  30  33
ATOM     33  C   UNL A   1      34.232  31.120  27.584  1.00  0.00     0.039 A 
ATOM     34  C   UNL A   1      35.207  32.107  27.748  1.00  0.00     0.014 A 
ATOM     35  C   UNL A   1      34.476  29.811  28.008  1.00  0.00     0.014 A 
ATOM     36  C   UNL A   1      36.400  31.798  28.403  1.00  0.00     0.010 A 
ATOM     37  C   UNL A   1      35.641  29.520  28.713  1.00  0.00     0.010 A 
ATOM     38  C   UNL A   1      36.611  30.512  28.926  1.00  0.00    -0.014 A 
BRANCH  38  39
ATOM     39  C   UNL A   1      37.829  30.193  29.715  1.00  0.00     0.031 A 
ATOM     40  C   UNL A   1      38.861  29.247  29.164  1.00  0.00     0.074 A 
ATOM     41  C   UNL A   1      37.967  30.700  30.956  1.00  0.00     0.049 A 
ATOM     42  N   UNL A   1      39.944  28.781  29.732  1.00  0.00    -0.248 NA
ATOM     43  C   UNL A   1      38.627  28.738  27.804  1.00  0.00     0.031 C 
ATOM     44  C   UNL A   1      37.010  31.594  31.614  1.00  0.00     0.029 A 
ATOM     45  N   UNL A   1      38.955  30.528  31.893  1.00  0.00    -0.354 N 
ATOM     46  C   UNL A   1      40.515  27.915  28.806  1.00  0.00     0.074 A 
ATOM     47  C   UNL A   1      39.627  27.880  27.663  1.00  0.00     0.031 C 
ATOM     48  C   UNL A   1      37.469  31.906  32.836  1.00  0.00     0.029 A 
ATOM     49  C   UNL A   1      38.725  31.203  33.071  1.00  0.00     0.049 A 
ATOM     50  H   UNL A   1      39.754  29.976  31.736  1.00  0.00     0.167 HD
ATOM     51  C   UNL A   1      41.680  27.227  28.897  1.00  0.00     0.034 A 
ATOM     52  C   UNL A   1      39.439  31.239  34.213  1.00  0.00     0.034 A 
ATOM     53  C   UNL A   1      42.560  27.284  30.039  1.00  0.00     0.049 A 
ATOM     54  C   UNL A   1      40.724  30.454  34.293  1.00  0.00     0.074 A 
ATOM     55  C   UNL A   1      43.791  26.675  30.211  1.00  0.00     0.029 A 
ATOM     56  N   UNL A   1      42.300  27.986  31.209  1.00  0.00    -0.354 N 
ATOM     57  N   UNL A   1      41.277  29.680  33.387  1.00  0.00    -0.248 NA
ATOM     58  C   UNL A   1      41.486  30.556  35.544  1.00  0.00     0.031 C 
ATOM     59  C   UNL A   1      44.246  26.955  31.504  1.00  0.00     0.029 A 
ATOM     60  C   UNL A   1      43.334  27.800  32.117  1.00  0.00     0.049 A 
ATOM     61  H   UNL A   1      41.500  28.534  31.372  1.00  0.00     0.167 HD
ATOM     62  C   UNL A   1      42.468  29.231  33.951  1.00  0.00     0.074 A 
ATOM     63  C   UNL A   1      42.559  29.832  35.265  1.00  0.00     0.031 C 
ATOM     64  C   UNL A   1      43.406  28.400  33.427  1.00  0.00     0.034 A 
BRANCH  51  65
ATOM     65  C   UNL A   1      42.054  26.338  27.735  1.00  0.00     0.023 A 
ATOM     66  C   UNL A   1      41.639  24.997  27.668  1.00  0.00     0.031 A 
ATOM     67  C   UNL A   1      42.850  26.833  26.687  1.00  0.00     0.131 A 
ATOM     68  C   UNL A   1      42.078  24.178  26.617  1.00  0.00     0.055 A 
ATOM     69  C   UNL A   1      43.218  26.034  25.602  1.00  0.00     0.041 A 
ATOM     70  F   UNL A   1      43.294  28.099  26.705  1.00  0.00    -0.206 F 
ATOM     71  C   UNL A   1      42.844  24.694  25.570  1.00  0.00     0.022 A 
BRANCH  68  72
ATOM     72  S   UNL A   1      41.744  22.398  26.707  1.00  0.00     0.124 S 
ATOM     73  O   UNL A   1      42.135  21.956  25.371  1.00  0.00    -0.237 OA
ATOM     74  O   UNL A   1      42.607  21.969  27.802  1.00  0.00    -0.237 OA
ATOM     75  O   UNL A   1      40.309  22.331  26.982  1.00  0.00    -0.744 OA
ENDBRANCH  68  72
ENDBRANCH  51  65
BRANCH  52  76
ATOM     76  C   UNL A   1      38.961  32.032  35.382  1.00  0.00     0.023 A 
ATOM     77  C   UNL A   1      38.384  31.401  36.495  1.00  0.00     0.031 A 
ATOM     78  C   UNL A   1      39.028  33.436  35.381  1.00  0.00     0.131 A 
ATOM     79  C   UNL A   1      37.849  32.174  37.538  1.00  0.00     0.055 A 
ATOM     80  C   UNL A   1      38.542  34.198  36.446  1.00  0.00     0.041 A 
ATOM     81  F   UNL A   1      39.577  34.091  34.345  1.00  0.00    -0.206 F 
ATOM     82  C   UNL A   1      37.934  33.567  37.526  1.00  0.00     0.022 A 
BRANCH  79  83
ATOM     83  S   UNL A   1      36.952  31.329  38.869  1.00  0.00     0.124 S 
ATOM     84  O   UNL A   1      37.851  31.517  40.001  1.00  0.00    -0.237 OA
ATOM     85  O   UNL A   1      35.700  32.078  38.911  1.00  0.00    -0.237 OA
ATOM     86  O   UNL A   1      36.836  29.956  38.383  1.00  0.00    -0.744 OA
ENDBRANCH  79  83
ENDBRANCH  52  76
BRANCH  64  87
ATOM     87  C   UNL A   1      44.632  28.139  34.266  1.00  0.00     0.023 A 
ATOM     88  C   UNL A   1      44.704  27.050  35.153  1.00  0.00     0.031 A 
ATOM     89  C   UNL A   1      45.739  29.002  34.187  1.00  0.00     0.131 A 
ATOM     90  C   UNL A   1      45.836  26.885  35.965  1.00  0.00     0.055 A 
ATOM     91  C   UNL A   1      46.886  28.800  34.954  1.00  0.00     0.041 A 
ATOM     92  F   UNL A   1      45.722  30.058  33.357  1.00  0.00    -0.206 F 
ATOM     93  C   UNL A   1      46.934  27.744  35.859  1.00  0.00     0.022 A 
BRANCH  90  94
ATOM     94  S   UNL A   1      45.821  25.581  37.226  1.00  0.00     0.124 S 
ATOM     95  O   UNL A   1      44.735  24.723  36.762  1.00  0.00    -0.237 OA
ATOM     96  O   UNL A   1      47.165  25.025  37.118  1.00  0.00    -0.237 OA
ATOM     97  O   UNL A   1      45.550  26.307  38.467  1.00  0.00    -0.744 OA
ENDBRANCH  90  94
ENDBRANCH  64  87
ENDBRANCH  38  39
ENDBRANCH  30  33
ENDBRANCH  28  29
ENDBRANCH   1  28
TORSDOF 18
ENDMDL
MODEL 2
REMARK VINA RESULT:     -12.6      5.577     10.664
REMARK SMILES CS(=O)(=O)c1ccc(/C=C(/C(=O)NCCCCNC(=O)c2ccc(-c3c4nc(c(-c5cc(S(=O)(=O)[O-])ccc5F)c5ccc([nH]5)c(-c5cc(S(=O)(=O)[O-])ccc5F)c5nc(c(-c6cc(S(=O)(=O)[O-])ccc6F)c6ccc3[nH]6)C=C5)C=C4)cc2)c2ccc(O)cc2)cc1
REMARK SMILES IDX 16 1 15 2 14 3 13 4 11 5 12 6 10 8 9 9 8 10 5 11 6 12 92 13
REMARK SMILES IDX 7 14 91 15 2 16 1 17 3 18 4 19 84 20 85 21 90 22 86 23 89 24
REMARK SMILES IDX 87 25 88 26 17 28 18 29 19 30 20 32 21 33 22 34 83 35 23 36
REMARK SMILES IDX 82 37 24 38 25 39 26 40 76 41 27 42 81 43 75 44 77 45 28 46
REMARK SMILES IDX 80 47 74 48 73 49 29 51 61 52 41 53 60 54 42 55 45 56 59 57
REMARK SMILES IDX 78 58 43 59 44 60 58 62 79 63 46 64 30 65 31 66 39 67 32 68
REMARK SMILES IDX 38 69 40 70 37 71 33 72 34 73 35 74 36 75 62 76 63 77 71 78
REMARK SMILES IDX 64 79 70 80 72 81 69 82 65 83 66 84 67 85 68 86 47 87 48 88
REMARK SMILES IDX 56 89 49 90 55 91 57 92 54 93 50 94 51 95 52 96 53 97
REMARK H PARENT 13 7 88 27 18 31 77 50 45 61
REMARK Flexibility Score: inf
ROOT
ATOM      1  C   UNL A   1      36.225  22.112  24.233  1.00  0.00     0.023 C 
ENDROOT
BRANCH   1   2
ATOM      2  C   UNL A   1      34.709  22.354  24.195  1.00  0.00     0.023 C 
BRANCH   2   3
ATOM      3  C   UNL A   1      34.262  23.668  24.842  1.00  0.00     0.116 C 
BRANCH   3   4
ATOM      4  N   UNL A   1      33.276  23.412  25.874  1.00  0.00    -0.352 N 
ATOM      5  C   UNL A   1      32.213  24.105  26.362  1.00  0.00     0.251 C 
ATOM      6  O   UNL A   1      31.605  23.572  27.294  1.00  0.00    -0.269 OA
ATOM      7  H   UNL A   1      33.405  22.545  26.320  1.00  0.00     0.163 HD
BRANCH   5   8
ATOM      8  C   UNL A   1      31.714  25.414  25.780  1.00  0.00     0.047 C 
ATOM      9  C   UNL A   1      30.987  25.472  24.641  1.00  0.00     0.022 C 
BRANCH   9  10
ATOM     10  C   UNL A   1      30.332  26.626  23.980  1.00  0.00    -0.025 A 
ATOM     11  C   UNL A   1      28.937  28.810  22.884  1.00  0.00     0.067 A 
ATOM     12  C   UNL A   1      30.327  28.743  22.775  1.00  0.00     0.021 A 
ATOM     13  C   UNL A   1      28.229  27.775  23.492  1.00  0.00     0.021 A 
ATOM     14  C   UNL A   1      31.013  27.638  23.294  1.00  0.00     0.009 A 
ATOM     15  C   UNL A   1      28.929  26.695  24.041  1.00  0.00     0.009 A 
BRANCH  11  16
ATOM     16  S   UNL A   1      28.091  30.239  22.252  1.00  0.00     0.175 S 
ATOM     17  C   UNL A   1      29.173  31.613  22.544  1.00  0.00     0.163 C 
ATOM     18  O   UNL A   1      26.903  30.416  23.063  1.00  0.00    -0.224 OA
ATOM     19  O   UNL A   1      27.999  30.082  20.811  1.00  0.00    -0.224 OA
ENDBRANCH  11  16
ENDBRANCH   9  10
BRANCH   8  20
ATOM     20  C   UNL A   1      32.219  26.659  26.414  1.00  0.00    -0.013 A 
ATOM     21  C   UNL A   1      33.535  27.069  26.128  1.00  0.00     0.013 A 
ATOM     22  C   UNL A   1      31.405  27.489  27.197  1.00  0.00     0.013 A 
ATOM     23  C   UNL A   1      34.008  28.303  26.567  1.00  0.00     0.047 A 
ATOM     24  C   UNL A   1      31.876  28.738  27.622  1.00  0.00     0.047 A 
ATOM     25  C   UNL A   1      33.168  29.139  27.287  1.00  0.00     0.115 A 
BRANCH  25  26
ATOM     26  O   UNL A   1      33.645  30.368  27.632  1.00  0.00    -0.508 OA
ATOM     27  H   UNL A   1      33.948  30.957  26.968  1.00  0.00     0.293 HD
ENDBRANCH  25  26
ENDBRANCH   8  20
ENDBRANCH   5   8
ENDBRANCH   3   4
ENDBRANCH   2   3
ENDBRANCH   1   2
BRANCH   1  28
ATOM     28  C   UNL A   1      36.839  22.029  25.627  1.00  0.00     0.116 C 
BRANCH  28  29
ATOM     29  N   UNL A   1      37.831  20.972  25.751  1.00  0.00    -0.352 N 
ATOM     30  C   UNL A   1      39.149  21.065  26.126  1.00  0.00     0.251 C 
ATOM     31  H   UNL A   1      37.513  20.065  25.535  1.00  0.00     0.163 HD
ATOM     32  O   UNL A   1      39.871  20.074  26.059  1.00  0.00    -0.269 OA
BRANCH  30  33
ATOM     33  C   UNL A   1      39.696  22.367  26.565  1.00  0.00     0.039 A 
ATOM     34  C   UNL A   1      40.665  22.382  27.572  1.00  0.00     0.014 A 
ATOM     35  C   UNL A   1      39.275  23.560  25.975  1.00  0.00     0.014 A 
ATOM     36  C   UNL A   1      41.263  23.590  27.937  1.00  0.00     0.010 A 
ATOM     37  C   UNL A   1      39.914  24.755  26.298  1.00  0.00     0.010 A 
ATOM     38  C   UNL A   1      40.921  24.781  27.275  1.00  0.00    -0.014 A 
BRANCH  38  39
ATOM     39  C   UNL A   1      41.619  26.056  27.578  1.00  0.00     0.031 A 
ATOM     40  C   UNL A   1      40.907  27.150  28.325  1.00  0.00     0.074 A 
ATOM     41  C   UNL A   1      42.871  26.253  27.116  1.00  0.00     0.049 A 
ATOM     42  N   UNL A   1      41.316  28.360  28.611  1.00  0.00    -0.248 NA
ATOM     43  C   UNL A   1      39.543  26.851  28.788  1.00  0.00     0.031 C 
ATOM     44  C   UNL A   1      43.648  25.281  26.343  1.00  0.00     0.029 A 
ATOM     45  N   UNL A   1      43.705  27.338  27.216  1.00  0.00    -0.354 N 
ATOM     46  C   UNL A   1      40.257  28.972  29.274  1.00  0.00     0.074 A 
ATOM     47  C   UNL A   1      39.170  28.015  29.298  1.00  0.00     0.031 C 
ATOM     48  C   UNL A   1      44.850  25.807  26.057  1.00  0.00     0.029 A 
ATOM     49  C   UNL A   1      44.916  27.166  26.584  1.00  0.00     0.049 A 
ATOM     50  H   UNL A   1      43.462  28.162  27.697  1.00  0.00     0.167 HD
ATOM     51  C   UNL A   1      40.206  30.209  29.826  1.00  0.00     0.034 A 
ATOM     52  C   UNL A   1      45.955  28.011  26.434  1.00  0.00     0.034 A 
ATOM     53  C   UNL A   1      41.304  31.145  29.804  1.00  0.00     0.049 A 
ATOM     54  C   UNL A   1      45.866  29.387  27.046  1.00  0.00     0.074 A 
ATOM     55  C   UNL A   1      41.379  32.401  30.383  1.00  0.00     0.029 A 
ATOM     56  N   UNL A   1      42.518  30.932  29.164  1.00  0.00    -0.354 N 
ATOM     57  N   UNL A   1      44.876  29.931  27.716  1.00  0.00    -0.248 NA
ATOM     58  C   UNL A   1      47.038  30.258  26.889  1.00  0.00     0.031 C 
ATOM     59  C   UNL A   1      42.610  32.971  30.041  1.00  0.00     0.029 A 
ATOM     60  C   UNL A   1      43.335  32.044  29.309  1.00  0.00     0.049 A 
ATOM     61  H   UNL A   1      42.763  30.113  28.677  1.00  0.00     0.167 HD
ATOM     62  C   UNL A   1      45.323  31.196  28.088  1.00  0.00     0.074 A 
ATOM     63  C   UNL A   1      46.673  31.326  27.581  1.00  0.00     0.031 C 
ATOM     64  C   UNL A   1      44.677  32.162  28.791  1.00  0.00     0.034 A 
BRANCH  51  65
ATOM     65  C   UNL A   1      38.909  30.626  30.479  1.00  0.00     0.023 A 
ATOM     66  C   UNL A   1      37.910  31.311  29.766  1.00  0.00     0.031 A 
ATOM     67  C   UNL A   1      38.674  30.346  31.837  1.00  0.00     0.131 A 
ATOM     68  C   UNL A   1      36.756  31.757  30.428  1.00  0.00     0.055 A 
ATOM     69  C   UNL A   1      37.488  30.724  32.471  1.00  0.00     0.041 A 
ATOM     70  F   UNL A   1      39.599  29.713  32.574  1.00  0.00    -0.206 F 
ATOM     71  C   UNL A   1      36.527  31.446  31.770  1.00  0.00     0.022 A 
BRANCH  68  72
ATOM     72  S   UNL A   1      35.623  32.863  29.544  1.00  0.00     0.124 S 
ATOM     73  O   UNL A   1      34.400  32.722  30.331  1.00  0.00    -0.237 OA
ATOM     74  O   UNL A   1      36.300  34.151  29.640  1.00  0.00    -0.237 OA
ATOM     75  O   UNL A   1      35.561  32.289  28.201  1.00  0.00    -0.744 OA
ENDBRANCH  68  72
ENDBRANCH  51  65
BRANCH  52  76
ATOM     76  C   UNL A   1      47.165  27.598  25.669  1.00  0.00     0.023 A 
ATOM     77  C   UNL A   1      47.291  27.893  24.302  1.00  0.00     0.031 A 
ATOM     78  C   UNL A   1      48.192  26.857  26.280  1.00  0.00     0.131 A 
ATOM     79  C   UNL A   1      48.391  27.406  23.579  1.00  0.00     0.055 A 
ATOM     80  C   UNL A   1      49.311  26.420  25.568  1.00  0.00     0.041 A 
ATOM     81  F   UNL A   1      48.126  26.553  27.587  1.00  0.00    -0.206 F 
ATOM     82  C   UNL A   1      49.407  26.682  24.205  1.00  0.00     0.022 A 
BRANCH  79  83
ATOM     83  S   UNL A   1      48.425  27.654  21.783  1.00  0.00     0.124 S 
ATOM     84  O   UNL A   1      47.099  28.206  21.532  1.00  0.00    -0.237 OA
ATOM     85  O   UNL A   1      49.544  28.578  21.627  1.00  0.00    -0.237 OA
ATOM     86  O   UNL A   1      48.654  26.310  21.259  1.00  0.00    -0.744 OA
ENDBRANCH  79  83
ENDBRANCH  52  76
BRANCH  64  87
ATOM     87  C   UNL A   1      45.451  33.422  29.090  1.00  0.00     0.023 A 
ATOM     88  C   UNL A   1      45.435  34.525  28.218  1.00  0.00     0.031 A 
ATOM     89  C   UNL A   1      46.227  33.513  30.258  1.00  0.00     0.131 A 
ATOM     90  C   UNL A   1      46.225  35.650  28.501  1.00  0.00     0.055 A 
ATOM     91  C   UNL A   1      46.965  34.657  30.564  1.00  0.00     0.041 A 
ATOM     92  F   UNL A   1      46.279  32.488  31.124  1.00  0.00    -0.206 F 
ATOM     93  C   UNL A   1      46.977  35.729  29.677  1.00  0.00     0.022 A 
BRANCH  90  94
ATOM     94  S   UNL A   1      46.325  36.976  27.268  1.00  0.00     0.124 S 
ATOM     95  O   UNL A   1      46.659  36.237  26.054  1.00  0.00    -0.237 OA
ATOM     96  O   UNL A   1      44.985  37.551  27.316  1.00  0.00    -0.237 OA
ATOM     97  O   UNL A   1      47.387  37.841  27.780  1.00  0.00    -0.744 OA
ENDBRANCH  90  94
ENDBRANCH  64  87
ENDBRANCH  38  39
ENDBRANCH  30  33
ENDBRANCH  28  29
ENDBRANCH   1  28
TORSDOF 18
ENDMDL
MODEL 3
REMARK VINA RESULT:     -12.5      2.492      7.765
REMARK SMILES CS(=O)(=O)c1ccc(/C=C(/C(=O)NCCCCNC(=O)c2ccc(-c3c4nc(c(-c5cc(S(=O)(=O)[O-])ccc5F)c5ccc([nH]5)c(-c5cc(S(=O)(=O)[O-])ccc5F)c5nc(c(-c6cc(S(=O)(=O)[O-])ccc6F)c6ccc3[nH]6)C=C5)C=C4)cc2)c2ccc(O)cc2)cc1
REMARK SMILES IDX 16 1 15 2 14 3 13 4 11 5 12 6 10 8 9 9 8 10 5 11 6 12 92 13
REMARK SMILES IDX 7 14 91 15 2 16 1 17 3 18 4 19 84 20 85 21 90 22 86 23 89 24
REMARK SMILES IDX 87 25 88 26 17 28 18 29 19 30 20 32 21 33 22 34 83 35 23 36
REMARK SMILES IDX 82 37 24 38 25 39 26 40 76 41 27 42 81 43 75 44 77 45 28 46
REMARK SMILES IDX 80 47 74 48 73 49 29 51 61 52 41 53 60 54 42 55 45 56 59 57
REMARK SMILES IDX 78 58 43 59 44 60 58 62 79 63 46 64 30 65 31 66 39 67 32 68
REMARK SMILES IDX 38 69 40 70 37 71 33 72 34 73 35 74 36 75 62 76 63 77 71 78
REMARK SMILES IDX 64 79 70 80 72 81 69 82 65 83 66 84 67 85 68 86 47 87 48 88
REMARK SMILES IDX 56 89 49 90 55 91 57 92 54 93 50 94 51 95 52 96 53 97
REMARK H PARENT 13 7 88 27 18 31 77 50 45 61
REMARK Flexibility Score: inf
ROOT
ATOM      1  C   UNL A   1      32.851  27.567  25.745  1.00  0.00     0.023 C 
ENDROOT
BRANCH   1   2
ATOM      2  C   UNL A   1      32.037  26.524  26.524  1.00  0.00     0.023 C 
BRANCH   2   3
ATOM      3  C   UNL A   1      31.308  25.504  25.645  1.00  0.00     0.116 C 
BRANCH   3   4
ATOM      4  N   UNL A   1      31.673  25.684  24.254  1.00  0.00    -0.352 N 
ATOM      5  C   UNL A   1      32.424  24.973  23.371  1.00  0.00     0.251 C 
ATOM      6  O   UNL A   1      32.544  25.467  22.247  1.00  0.00    -0.269 OA
ATOM      7  H   UNL A   1      31.294  26.502  23.861  1.00  0.00     0.163 HD
BRANCH   5   8
ATOM      8  C   UNL A   1      33.027  23.615  23.672  1.00  0.00     0.047 C 
ATOM      9  C   UNL A   1      32.275  22.496  23.790  1.00  0.00     0.022 C 
BRANCH   9  10
ATOM     10  C   UNL A   1      32.683  21.083  23.976  1.00  0.00    -0.025 A 
ATOM     11  C   UNL A   1      33.460  18.382  24.111  1.00  0.00     0.067 A 
ATOM     12  C   UNL A   1      33.893  19.283  25.085  1.00  0.00     0.021 A 
ATOM     13  C   UNL A   1      32.603  18.802  23.096  1.00  0.00     0.021 A 
ATOM     14  C   UNL A   1      33.478  20.619  25.031  1.00  0.00     0.009 A 
ATOM     15  C   UNL A   1      32.225  20.148  23.031  1.00  0.00     0.009 A 
BRANCH  11  16
ATOM     16  S   UNL A   1      34.031  16.700  24.177  1.00  0.00     0.175 S 
ATOM     17  C   UNL A   1      32.779  15.797  25.049  1.00  0.00     0.163 C 
ATOM     18  O   UNL A   1      35.236  16.698  24.982  1.00  0.00    -0.224 OA
ATOM     19  O   UNL A   1      34.036  16.194  22.816  1.00  0.00    -0.224 OA
ENDBRANCH  11  16
ENDBRANCH   9  10
BRANCH   8  20
ATOM     20  C   UNL A   1      34.471  23.590  24.022  1.00  0.00    -0.013 A 
ATOM     21  C   UNL A   1      34.855  24.016  25.307  1.00  0.00     0.013 A 
ATOM     22  C   UNL A   1      35.445  23.065  23.163  1.00  0.00     0.013 A 
ATOM     23  C   UNL A   1      36.169  23.870  25.744  1.00  0.00     0.047 A 
ATOM     24  C   UNL A   1      36.762  22.901  23.609  1.00  0.00     0.047 A 
ATOM     25  C   UNL A   1      37.106  23.290  24.902  1.00  0.00     0.115 A 
BRANCH  25  26
ATOM     26  O   UNL A   1      38.362  23.096  25.394  1.00  0.00    -0.508 OA
ATOM     27  H   UNL A   1      38.577  22.292  25.827  1.00  0.00     0.293 HD
ENDBRANCH  25  26
ENDBRANCH   8  20
ENDBRANCH   5   8
ENDBRANCH   3   4
ENDBRANCH   2   3
ENDBRANCH   1   2
BRANCH   1  28
ATOM     28  C   UNL A   1      33.916  28.303  26.552  1.00  0.00     0.116 C 
BRANCH  28  29
ATOM     29  N   UNL A   1      33.580  29.695  26.803  1.00  0.00    -0.352 N 
ATOM     30  C   UNL A   1      34.267  30.630  27.539  1.00  0.00     0.251 C 
ATOM     31  H   UNL A   1      32.745  30.011  26.388  1.00  0.00     0.163 HD
ATOM     32  O   UNL A   1      33.767  31.733  27.738  1.00  0.00    -0.269 OA
BRANCH  30  33
ATOM     33  C   UNL A   1      35.583  30.283  28.119  1.00  0.00     0.039 A 
ATOM     34  C   UNL A   1      35.627  29.750  29.410  1.00  0.00     0.014 A 
ATOM     35  C   UNL A   1      36.760  30.460  27.389  1.00  0.00     0.014 A 
ATOM     36  C   UNL A   1      36.847  29.328  29.942  1.00  0.00     0.010 A 
ATOM     37  C   UNL A   1      37.967  29.984  27.897  1.00  0.00     0.010 A 
ATOM     38  C   UNL A   1      38.021  29.405  29.175  1.00  0.00    -0.014 A 
BRANCH  38  39
ATOM     39  C   UNL A   1      39.309  28.867  29.684  1.00  0.00     0.031 A 
ATOM     40  C   UNL A   1      40.019  29.552  30.819  1.00  0.00     0.074 A 
ATOM     41  C   UNL A   1      39.871  27.805  29.073  1.00  0.00     0.049 A 
ATOM     42  N   UNL A   1      41.187  29.285  31.346  1.00  0.00    -0.248 NA
ATOM     43  C   UNL A   1      39.335  30.706  31.423  1.00  0.00     0.031 C 
ATOM     44  C   UNL A   1      39.297  27.084  27.934  1.00  0.00     0.029 A 
ATOM     45  N   UNL A   1      41.055  27.153  29.313  1.00  0.00    -0.354 N 
ATOM     46  C   UNL A   1      41.385  30.245  32.333  1.00  0.00     0.074 A 
ATOM     47  C   UNL A   1      40.240  31.130  32.292  1.00  0.00     0.031 C 
ATOM     48  C   UNL A   1      40.119  26.080  27.589  1.00  0.00     0.029 A 
ATOM     49  C   UNL A   1      41.298  26.110  28.448  1.00  0.00     0.049 A 
ATOM     50  H   UNL A   1      41.671  27.406  30.037  1.00  0.00     0.167 HD
ATOM     51  C   UNL A   1      42.419  30.362  33.204  1.00  0.00     0.034 A 
ATOM     52  C   UNL A   1      42.357  25.282  28.349  1.00  0.00     0.034 A 
ATOM     53  C   UNL A   1      43.546  29.462  33.240  1.00  0.00     0.049 A 
ATOM     54  C   UNL A   1      43.499  25.444  29.320  1.00  0.00     0.074 A 
ATOM     55  C   UNL A   1      44.617  29.455  34.117  1.00  0.00     0.029 A 
ATOM     56  N   UNL A   1      43.753  28.411  32.355  1.00  0.00    -0.354 N 
ATOM     57  N   UNL A   1      43.647  26.324  30.283  1.00  0.00    -0.248 NA
ATOM     58  C   UNL A   1      44.612  24.493  29.197  1.00  0.00     0.031 C 
ATOM     59  C   UNL A   1      45.501  28.444  33.726  1.00  0.00     0.029 A 
ATOM     60  C   UNL A   1      44.948  27.770  32.648  1.00  0.00     0.049 A 
ATOM     61  H   UNL A   1      43.143  28.159  31.626  1.00  0.00     0.167 HD
ATOM     62  C   UNL A   1      44.855  26.010  30.900  1.00  0.00     0.074 A 
ATOM     63  C   UNL A   1      45.385  24.853  30.211  1.00  0.00     0.031 C 
ATOM     64  C   UNL A   1      45.468  26.621  31.946  1.00  0.00     0.034 A 
BRANCH  51  65
ATOM     65  C   UNL A   1      42.384  31.522  34.171  1.00  0.00     0.023 A 
ATOM     66  C   UNL A   1      41.582  31.496  35.326  1.00  0.00     0.031 A 
ATOM     67  C   UNL A   1      43.152  32.674  33.929  1.00  0.00     0.131 A 
ATOM     68  C   UNL A   1      41.510  32.626  36.154  1.00  0.00     0.055 A 
ATOM     69  C   UNL A   1      43.137  33.765  34.800  1.00  0.00     0.041 A 
ATOM     70  F   UNL A   1      43.921  32.765  32.833  1.00  0.00    -0.206 F 
ATOM     71  C   UNL A   1      42.302  33.751  35.914  1.00  0.00     0.022 A 
BRANCH  68  72
ATOM     72  S   UNL A   1      40.268  32.653  37.476  1.00  0.00     0.124 S 
ATOM     73  O   UNL A   1      39.800  34.035  37.411  1.00  0.00    -0.237 OA
ATOM     74  O   UNL A   1      39.320  31.635  37.039  1.00  0.00    -0.237 OA
ATOM     75  O   UNL A   1      41.035  32.318  38.674  1.00  0.00    -0.744 OA
ENDBRANCH  68  72
ENDBRANCH  51  65
BRANCH  52  76
ATOM     76  C   UNL A   1      42.403  24.232  27.292  1.00  0.00     0.023 A 
ATOM     77  C   UNL A   1      41.675  23.039  27.426  1.00  0.00     0.031 A 
ATOM     78  C   UNL A   1      43.215  24.383  26.154  1.00  0.00     0.131 A 
ATOM     79  C   UNL A   1      41.813  22.023  26.468  1.00  0.00     0.055 A 
ATOM     80  C   UNL A   1      43.309  23.390  25.177  1.00  0.00     0.041 A 
ATOM     81  F   UNL A   1      43.928  25.507  25.972  1.00  0.00    -0.206 F 
ATOM     82  C   UNL A   1      42.616  22.195  25.339  1.00  0.00     0.022 A 
BRANCH  79  83
ATOM     83  S   UNL A   1      40.999  20.430  26.771  1.00  0.00     0.124 S 
ATOM     84  O   UNL A   1      41.982  19.489  26.249  1.00  0.00    -0.237 OA
ATOM     85  O   UNL A   1      40.834  20.448  28.221  1.00  0.00    -0.237 OA
ATOM     86  O   UNL A   1      39.759  20.532  26.005  1.00  0.00    -0.744 OA
ENDBRANCH  79  83
ENDBRANCH  52  76
BRANCH  64  87
ATOM     87  C   UNL A   1      46.758  26.009  32.433  1.00  0.00     0.023 A 
ATOM     88  C   UNL A   1      47.992  26.299  31.824  1.00  0.00     0.031 A 
ATOM     89  C   UNL A   1      46.749  25.110  33.515  1.00  0.00     0.131 A 
ATOM     90  C   UNL A   1      49.157  25.653  32.265  1.00  0.00     0.055 A 
ATOM     91  C   UNL A   1      47.919  24.516  33.987  1.00  0.00     0.041 A 
ATOM     92  F   UNL A   1      45.598  24.797  34.132  1.00  0.00    -0.206 F 
ATOM     93  C   UNL A   1      49.131  24.776  33.353  1.00  0.00     0.022 A 
BRANCH  90  94
ATOM     94  S   UNL A   1      50.696  25.909  31.341  1.00  0.00     0.124 S 
ATOM     95  O   UNL A   1      51.704  25.486  32.309  1.00  0.00    -0.237 OA
ATOM     96  O   UNL A   1      50.516  25.038  30.185  1.00  0.00    -0.237 OA
ATOM     97  O   UNL A   1      50.684  27.341  31.044  1.00  0.00    -0.744 OA
ENDBRANCH  90  94
ENDBRANCH  64  87
ENDBRANCH  38  39
ENDBRANCH  30  33
ENDBRANCH  28  29
ENDBRANCH   1  28
TORSDOF 18
ENDMDL
