MODEL 1
REMARK VINA RESULT:     -11.6      0.000      0.000
REMARK SMILES CC[C@](O)(C(=O)NCCCCNC(=O)c1ccc(-c2c3nc(c(-c4cc(S(=O)(=O)[O-])ccc4F)c4ccc([nH]4)c(-c4cc(S(=O)(=O)[O-])ccc4F)c4nc(c(-c5cc(S(=O)(=O)[O-])ccc5F)c5ccc2[nH]5)C=C4)C=C3)cc1)[C@H](C)c1ccc(F)cc1F
REMARK SMILES IDX 10 1 9 2 8 3 7 4 5 5 6 6 3 8 2 9 1 10 4 11 78 13 79 14 80 15
REMARK SMILES IDX 81 16 86 17 82 18 85 19 87 20 83 21 84 22 11 23 12 24 13 25
REMARK SMILES IDX 14 27 15 28 16 29 77 30 17 31 76 32 18 33 19 34 20 35 70 36
REMARK SMILES IDX 21 37 75 38 69 39 71 40 22 41 74 42 68 43 67 44 23 46 55 47
REMARK SMILES IDX 35 48 54 49 36 50 39 51 53 52 72 53 37 54 38 55 52 57 73 58
REMARK SMILES IDX 40 59 24 60 25 61 33 62 26 63 32 64 34 65 31 66 27 67 28 68
REMARK SMILES IDX 29 69 30 70 56 71 57 72 65 73 58 74 64 75 66 76 63 77 59 78
REMARK SMILES IDX 60 79 61 80 62 81 41 82 42 83 50 84 43 85 49 86 51 87 48 88
REMARK SMILES IDX 44 89 45 90 46 91 47 92
REMARK H PARENT 7 7 4 12 12 26 71 45 39 56
REMARK Flexibility Score: inf
ROOT
ATOM      1  C   UNL A   1      32.445  30.728  26.824  1.00  0.00     0.023 C 
ENDROOT
BRANCH   1   2
ATOM      2  C   UNL A   1      32.721  29.245  27.064  1.00  0.00     0.023 C 
BRANCH   2   3
ATOM      3  C   UNL A   1      32.320  28.323  25.917  1.00  0.00     0.116 C 
BRANCH   3   4
ATOM      4  N   UNL A   1      32.843  28.754  24.639  1.00  0.00    -0.354 N 
ATOM      5  C   UNL A   1      32.421  28.537  23.356  1.00  0.00     0.252 C 
ATOM      6  O   UNL A   1      33.034  29.159  22.484  1.00  0.00    -0.272 OA
ATOM      7  H   UNL A   1      33.653  29.308  24.704  1.00  0.00     0.163 HD
BRANCH   5   8
ATOM      8  C   UNL A   1      31.240  27.539  23.014  1.00  0.00     0.149 C 
BRANCH   8   9
ATOM      9  C   UNL A   1      31.538  26.119  23.585  1.00  0.00     0.043 C 
ATOM     10  C   UNL A   1      31.952  25.008  22.616  1.00  0.00     0.007 C 
ENDBRANCH   8   9
BRANCH   8  11
ATOM     11  O   UNL A   1      31.075  27.567  21.590  1.00  0.00    -0.379 OA
ATOM     12  H   UNL A   1      30.624  26.758  21.302  1.00  0.00     0.212 HD
ENDBRANCH   8  11
BRANCH   8  13
ATOM     13  C   UNL A   1      29.916  28.154  23.637  1.00  0.00     0.060 C 
ATOM     14  C   UNL A   1      28.767  27.124  23.727  1.00  0.00     0.016 C 
BRANCH  13  15
ATOM     15  C   UNL A   1      29.352  29.477  23.094  1.00  0.00    -0.006 A 
ATOM     16  C   UNL A   1      28.604  29.430  21.897  1.00  0.00     0.010 A 
ATOM     17  C   UNL A   1      29.515  30.734  23.691  1.00  0.00     0.129 A 
ATOM     18  C   UNL A   1      28.049  30.585  21.340  1.00  0.00     0.040 A 
ATOM     19  C   UNL A   1      28.952  31.888  23.151  1.00  0.00     0.078 A 
ATOM     20  F   UNL A   1      30.238  30.891  24.801  1.00  0.00    -0.207 F 
ATOM     21  C   UNL A   1      28.224  31.804  21.978  1.00  0.00     0.126 A 
ATOM     22  F   UNL A   1      27.689  32.912  21.450  1.00  0.00    -0.207 F 
ENDBRANCH  13  15
ENDBRANCH   8  13
ENDBRANCH   5   8
ENDBRANCH   3   4
ENDBRANCH   2   3
ENDBRANCH   1   2
BRANCH   1  23
ATOM     23  C   UNL A   1      33.363  31.699  27.561  1.00  0.00     0.116 C 
BRANCH  23  24
ATOM     24  N   UNL A   1      32.837  33.055  27.656  1.00  0.00    -0.352 N 
ATOM     25  C   UNL A   1      33.283  34.087  28.453  1.00  0.00     0.251 C 
ATOM     26  H   UNL A   1      32.067  33.260  27.077  1.00  0.00     0.163 HD
ATOM     27  O   UNL A   1      32.697  35.161  28.469  1.00  0.00    -0.269 OA
BRANCH  25  28
ATOM     28  C   UNL A   1      34.451  33.847  29.326  1.00  0.00     0.039 A 
ATOM     29  C   UNL A   1      34.287  33.066  30.472  1.00  0.00     0.014 A 
ATOM     30  C   UNL A   1      35.717  34.300  28.944  1.00  0.00     0.014 A 
ATOM     31  C   UNL A   1      35.413  32.649  31.183  1.00  0.00     0.010 A 
ATOM     32  C   UNL A   1      36.839  33.832  29.618  1.00  0.00     0.010 A 
ATOM     33  C   UNL A   1      36.699  32.980  30.727  1.00  0.00    -0.014 A 
BRANCH  33  34
ATOM     34  C   UNL A   1      37.920  32.410  31.354  1.00  0.00     0.031 A 
ATOM     35  C   UNL A   1      38.638  31.270  30.689  1.00  0.00     0.074 A 
ATOM     36  C   UNL A   1      38.300  32.837  32.574  1.00  0.00     0.049 A 
ATOM     37  N   UNL A   1      39.614  30.531  31.144  1.00  0.00    -0.248 NA
ATOM     38  C   UNL A   1      38.168  30.890  29.348  1.00  0.00     0.031 C 
ATOM     39  C   UNL A   1      37.647  33.904  33.340  1.00  0.00     0.029 A 
ATOM     40  N   UNL A   1      39.307  32.408  33.404  1.00  0.00    -0.354 N 
ATOM     41  C   UNL A   1      39.859  29.579  30.161  1.00  0.00     0.074 A 
ATOM     42  C   UNL A   1      38.902  29.815  29.101  1.00  0.00     0.031 C 
ATOM     43  C   UNL A   1      38.268  34.042  34.523  1.00  0.00     0.029 A 
ATOM     44  C   UNL A   1      39.329  33.045  34.624  1.00  0.00     0.049 A 
ATOM     45  H   UNL A   1      39.952  31.708  33.150  1.00  0.00     0.167 HD
ATOM     46  C   UNL A   1      40.803  28.607  30.145  1.00  0.00     0.034 A 
ATOM     47  C   UNL A   1      40.095  32.830  35.712  1.00  0.00     0.034 A 
ATOM     48  C   UNL A   1      41.771  28.411  31.194  1.00  0.00     0.049 A 
ATOM     49  C   UNL A   1      41.133  31.739  35.667  1.00  0.00     0.074 A 
ATOM     50  C   UNL A   1      42.844  27.536  31.223  1.00  0.00     0.029 A 
ATOM     51  N   UNL A   1      41.779  29.089  32.405  1.00  0.00    -0.354 N 
ATOM     52  N   UNL A   1      41.406  30.900  34.694  1.00  0.00    -0.248 NA
ATOM     53  C   UNL A   1      41.968  31.564  36.864  1.00  0.00     0.031 C 
ATOM     54  C   UNL A   1      43.460  27.641  32.475  1.00  0.00     0.029 A 
ATOM     55  C   UNL A   1      42.809  28.623  33.205  1.00  0.00     0.049 A 
ATOM     56  H   UNL A   1      41.143  29.797  32.659  1.00  0.00     0.167 HD
ATOM     57  C   UNL A   1      42.459  30.115  35.156  1.00  0.00     0.074 A 
ATOM     58  C   UNL A   1      42.780  30.588  36.487  1.00  0.00     0.031 C 
ATOM     59  C   UNL A   1      43.105  29.097  34.534  1.00  0.00     0.034 A 
BRANCH  46  60
ATOM     60  C   UNL A   1      40.815  27.666  28.968  1.00  0.00     0.023 A 
ATOM     61  C   UNL A   1      41.758  27.783  27.935  1.00  0.00     0.031 A 
ATOM     62  C   UNL A   1      39.861  26.636  28.878  1.00  0.00     0.131 A 
ATOM     63  C   UNL A   1      41.691  26.927  26.826  1.00  0.00     0.055 A 
ATOM     64  C   UNL A   1      39.841  25.744  27.807  1.00  0.00     0.041 A 
ATOM     65  F   UNL A   1      38.924  26.490  29.828  1.00  0.00    -0.206 F 
ATOM     66  C   UNL A   1      40.752  25.893  26.765  1.00  0.00     0.022 A 
BRANCH  63  67
ATOM     67  S   UNL A   1      42.774  27.255  25.410  1.00  0.00     0.124 S 
ATOM     68  O   UNL A   1      42.668  26.005  24.660  1.00  0.00    -0.237 OA
ATOM     69  O   UNL A   1      42.149  28.421  24.797  1.00  0.00    -0.237 OA
ATOM     70  O   UNL A   1      44.078  27.496  26.024  1.00  0.00    -0.744 OA
ENDBRANCH  63  67
ENDBRANCH  46  60
BRANCH  47  71
ATOM     71  C   UNL A   1      39.890  33.629  36.955  1.00  0.00     0.023 A 
ATOM     72  C   UNL A   1      40.673  34.763  37.224  1.00  0.00     0.031 A 
ATOM     73  C   UNL A   1      38.945  33.235  37.919  1.00  0.00     0.131 A 
ATOM     74  C   UNL A   1      40.532  35.435  38.448  1.00  0.00     0.055 A 
ATOM     75  C   UNL A   1      38.775  33.937  39.114  1.00  0.00     0.041 A 
ATOM     76  F   UNL A   1      38.167  32.161  37.709  1.00  0.00    -0.206 F 
ATOM     77  C   UNL A   1      39.582  35.036  39.391  1.00  0.00     0.022 A 
BRANCH  74  78
ATOM     78  S   UNL A   1      41.680  36.787  38.831  1.00  0.00     0.124 S 
ATOM     79  O   UNL A   1      42.419  36.239  39.962  1.00  0.00    -0.237 OA
ATOM     80  O   UNL A   1      42.421  36.916  37.581  1.00  0.00    -0.237 OA
ATOM     81  O   UNL A   1      40.793  37.905  39.147  1.00  0.00    -0.744 OA
ENDBRANCH  74  78
ENDBRANCH  47  71
BRANCH  59  82
ATOM     82  C   UNL A   1      44.244  28.455  35.283  1.00  0.00     0.023 A 
ATOM     83  C   UNL A   1      44.018  27.485  36.273  1.00  0.00     0.031 A 
ATOM     84  C   UNL A   1      45.572  28.820  34.997  1.00  0.00     0.131 A 
ATOM     85  C   UNL A   1      45.103  26.940  36.974  1.00  0.00     0.055 A 
ATOM     86  C   UNL A   1      46.650  28.237  35.663  1.00  0.00     0.041 A 
ATOM     87  F   UNL A   1      45.839  29.742  34.059  1.00  0.00    -0.206 F 
ATOM     88  C   UNL A   1      46.418  27.298  36.663  1.00  0.00     0.022 A 
BRANCH  85  89
ATOM     89  S   UNL A   1      44.773  25.792  38.339  1.00  0.00     0.124 S 
ATOM     90  O   UNL A   1      45.983  25.923  39.144  1.00  0.00    -0.237 OA
ATOM     91  O   UNL A   1      43.556  26.344  38.925  1.00  0.00    -0.237 OA
ATOM     92  O   UNL A   1      44.607  24.503  37.671  1.00  0.00    -0.744 OA
ENDBRANCH  85  89
ENDBRANCH  59  82
ENDBRANCH  33  34
ENDBRANCH  25  28
ENDBRANCH  23  24
ENDBRANCH   1  23
TORSDOF 18
ENDMDL
MODEL 2
REMARK VINA RESULT:     -11.6      3.188      4.771
REMARK SMILES CC[C@](O)(C(=O)NCCCCNC(=O)c1ccc(-c2c3nc(c(-c4cc(S(=O)(=O)[O-])ccc4F)c4ccc([nH]4)c(-c4cc(S(=O)(=O)[O-])ccc4F)c4nc(c(-c5cc(S(=O)(=O)[O-])ccc5F)c5ccc2[nH]5)C=C4)C=C3)cc1)[C@H](C)c1ccc(F)cc1F
REMARK SMILES IDX 10 1 9 2 8 3 7 4 5 5 6 6 3 8 2 9 1 10 4 11 78 13 79 14 80 15
REMARK SMILES IDX 81 16 86 17 82 18 85 19 87 20 83 21 84 22 11 23 12 24 13 25
REMARK SMILES IDX 14 27 15 28 16 29 77 30 17 31 76 32 18 33 19 34 20 35 70 36
REMARK SMILES IDX 21 37 75 38 69 39 71 40 22 41 74 42 68 43 67 44 23 46 55 47
REMARK SMILES IDX 35 48 54 49 36 50 39 51 53 52 72 53 37 54 38 55 52 57 73 58
REMARK SMILES IDX 40 59 24 60 25 61 33 62 26 63 32 64 34 65 31 66 27 67 28 68
REMARK SMILES IDX 29 69 30 70 56 71 57 72 65 73 58 74 64 75 66 76 63 77 59 78
REMARK SMILES IDX 60 79 61 80 62 81 41 82 42 83 50 84 43 85 49 86 51 87 48 88
REMARK SMILES IDX 44 89 45 90 46 91 47 92
REMARK H PARENT 7 7 4 12 12 26 71 45 39 56
REMARK Flexibility Score: inf
ROOT
ATOM      1  C   UNL A   1      31.889  29.917  25.372  1.00  0.00     0.023 C 
ENDROOT
BRANCH   1   2
ATOM      2  C   UNL A   1      32.582  28.679  24.807  1.00  0.00     0.023 C 
BRANCH   2   3
ATOM      3  C   UNL A   1      31.748  27.869  23.820  1.00  0.00     0.116 C 
BRANCH   3   4
ATOM      4  N   UNL A   1      32.523  27.367  22.706  1.00  0.00    -0.354 N 
ATOM      5  C   UNL A   1      33.062  26.137  22.445  1.00  0.00     0.252 C 
ATOM      6  O   UNL A   1      33.573  26.008  21.328  1.00  0.00    -0.272 OA
ATOM      7  H   UNL A   1      32.696  28.035  22.005  1.00  0.00     0.163 HD
BRANCH   5   8
ATOM      8  C   UNL A   1      33.050  24.967  23.512  1.00  0.00     0.149 C 
BRANCH   8   9
ATOM      9  C   UNL A   1      31.593  24.665  23.979  1.00  0.00     0.043 C 
ATOM     10  C   UNL A   1      31.308  24.553  25.479  1.00  0.00     0.007 C 
ENDBRANCH   8   9
BRANCH   8  11
ATOM     11  O   UNL A   1      33.925  25.369  24.575  1.00  0.00    -0.379 OA
ATOM     12  H   UNL A   1      33.870  24.725  25.298  1.00  0.00     0.212 HD
ENDBRANCH   8  11
BRANCH   8  13
ATOM     13  C   UNL A   1      33.719  23.703  22.825  1.00  0.00     0.060 C 
ATOM     14  C   UNL A   1      32.678  22.748  22.196  1.00  0.00     0.016 C 
BRANCH  13  15
ATOM     15  C   UNL A   1      34.755  22.867  23.592  1.00  0.00    -0.006 A 
ATOM     16  C   UNL A   1      36.110  22.987  23.208  1.00  0.00     0.010 A 
ATOM     17  C   UNL A   1      34.470  21.992  24.648  1.00  0.00     0.129 A 
ATOM     18  C   UNL A   1      37.116  22.268  23.858  1.00  0.00     0.040 A 
ATOM     19  C   UNL A   1      35.470  21.284  25.312  1.00  0.00     0.078 A 
ATOM     20  F   UNL A   1      33.219  21.778  25.060  1.00  0.00    -0.207 F 
ATOM     21  C   UNL A   1      36.786  21.427  24.910  1.00  0.00     0.126 A 
ATOM     22  F   UNL A   1      37.748  20.741  25.539  1.00  0.00    -0.207 F 
ENDBRANCH  13  15
ENDBRANCH   8  13
ENDBRANCH   5   8
ENDBRANCH   3   4
ENDBRANCH   2   3
ENDBRANCH   1   2
BRANCH   1  23
ATOM     23  C   UNL A   1      32.338  30.348  26.766  1.00  0.00     0.116 C 
BRANCH  23  24
ATOM     24  N   UNL A   1      32.166  31.771  27.030  1.00  0.00    -0.352 N 
ATOM     25  C   UNL A   1      33.077  32.651  27.573  1.00  0.00     0.251 C 
ATOM     26  H   UNL A   1      31.290  32.152  26.789  1.00  0.00     0.163 HD
ATOM     27  O   UNL A   1      32.766  33.813  27.793  1.00  0.00    -0.269 OA
BRANCH  25  28
ATOM     28  C   UNL A   1      34.418  32.144  27.932  1.00  0.00     0.039 A 
ATOM     29  C   UNL A   1      35.490  33.039  27.963  1.00  0.00     0.014 A 
ATOM     30  C   UNL A   1      34.580  30.818  28.342  1.00  0.00     0.014 A 
ATOM     31  C   UNL A   1      36.708  32.629  28.509  1.00  0.00     0.010 A 
ATOM     32  C   UNL A   1      35.774  30.432  28.941  1.00  0.00     0.010 A 
ATOM     33  C   UNL A   1      36.840  31.341  29.054  1.00  0.00    -0.014 A 
BRANCH  33  34
ATOM     34  C   UNL A   1      38.059  30.931  29.798  1.00  0.00     0.031 A 
ATOM     35  C   UNL A   1      38.993  29.917  29.200  1.00  0.00     0.074 A 
ATOM     36  C   UNL A   1      38.250  31.377  31.055  1.00  0.00     0.049 A 
ATOM     37  N   UNL A   1      40.012  29.310  29.747  1.00  0.00    -0.248 NA
ATOM     38  C   UNL A   1      38.719  29.507  27.815  1.00  0.00     0.031 C 
ATOM     39  C   UNL A   1      37.380  32.326  31.759  1.00  0.00     0.029 A 
ATOM     40  N   UNL A   1      39.218  31.072  31.980  1.00  0.00    -0.354 N 
ATOM     41  C   UNL A   1      40.486  28.425  28.786  1.00  0.00     0.074 A 
ATOM     42  C   UNL A   1      39.617  28.551  27.635  1.00  0.00     0.031 C 
ATOM     43  C   UNL A   1      37.853  32.519  33.001  1.00  0.00     0.029 A 
ATOM     44  C   UNL A   1      39.027  31.677  33.202  1.00  0.00     0.049 A 
ATOM     45  H   UNL A   1      39.977  30.475  31.788  1.00  0.00     0.167 HD
ATOM     46  C   UNL A   1      41.553  27.593  28.859  1.00  0.00     0.034 A 
ATOM     47  C   UNL A   1      39.702  31.545  34.361  1.00  0.00     0.034 A 
ATOM     48  C   UNL A   1      42.429  27.508  29.999  1.00  0.00     0.049 A 
ATOM     49  C   UNL A   1      40.882  30.609  34.414  1.00  0.00     0.074 A 
ATOM     50  C   UNL A   1      43.605  26.790  30.131  1.00  0.00     0.029 A 
ATOM     51  N   UNL A   1      42.219  28.152  31.212  1.00  0.00    -0.354 N 
ATOM     52  N   UNL A   1      41.366  29.840  33.467  1.00  0.00    -0.248 NA
ATOM     53  C   UNL A   1      41.608  30.524  35.689  1.00  0.00     0.031 C 
ATOM     54  C   UNL A   1      44.071  26.949  31.441  1.00  0.00     0.029 A 
ATOM     55  C   UNL A   1      43.219  27.814  32.109  1.00  0.00     0.049 A 
ATOM     56  H   UNL A   1      41.468  28.759  31.405  1.00  0.00     0.167 HD
ATOM     57  C   UNL A   1      42.467  29.198  34.027  1.00  0.00     0.074 A 
ATOM     58  C   UNL A   1      42.583  29.678  35.388  1.00  0.00     0.031 C 
ATOM     59  C   UNL A   1      43.309  28.294  33.466  1.00  0.00     0.034 A 
BRANCH  46  60
ATOM     60  C   UNL A   1      41.816  26.691  27.680  1.00  0.00     0.023 A 
ATOM     61  C   UNL A   1      41.378  25.357  27.655  1.00  0.00     0.031 A 
ATOM     62  C   UNL A   1      42.522  27.176  26.564  1.00  0.00     0.131 A 
ATOM     63  C   UNL A   1      41.703  24.535  26.565  1.00  0.00     0.055 A 
ATOM     64  C   UNL A   1      42.783  26.374  25.453  1.00  0.00     0.041 A 
ATOM     65  F   UNL A   1      42.981  28.438  26.543  1.00  0.00    -0.206 F 
ATOM     66  C   UNL A   1      42.383  25.041  25.454  1.00  0.00     0.022 A 
BRANCH  63  67
ATOM     67  S   UNL A   1      41.324  22.766  26.671  1.00  0.00     0.124 S 
ATOM     68  O   UNL A   1      41.998  22.393  27.913  1.00  0.00    -0.237 OA
ATOM     69  O   UNL A   1      39.866  22.757  26.709  1.00  0.00    -0.237 OA
ATOM     70  O   UNL A   1      41.920  22.213  25.456  1.00  0.00    -0.744 OA
ENDBRANCH  63  67
ENDBRANCH  46  60
BRANCH  47  71
ATOM     71  C   UNL A   1      39.263  32.278  35.583  1.00  0.00     0.023 A 
ATOM     72  C   UNL A   1      38.541  31.629  36.597  1.00  0.00     0.031 A 
ATOM     73  C   UNL A   1      39.509  33.655  35.727  1.00  0.00     0.131 A 
ATOM     74  C   UNL A   1      38.049  32.364  37.686  1.00  0.00     0.055 A 
ATOM     75  C   UNL A   1      39.059  34.373  36.838  1.00  0.00     0.041 A 
ATOM     76  F   UNL A   1      40.199  34.325  34.790  1.00  0.00    -0.206 F 
ATOM     77  C   UNL A   1      38.312  33.730  37.818  1.00  0.00     0.022 A 
BRANCH  74  78
ATOM     78  S   UNL A   1      36.976  31.525  38.885  1.00  0.00     0.124 S 
ATOM     79  O   UNL A   1      37.772  31.603  40.104  1.00  0.00    -0.237 OA
ATOM     80  O   UNL A   1      35.776  32.355  38.847  1.00  0.00    -0.237 OA
ATOM     81  O   UNL A   1      36.823  30.185  38.323  1.00  0.00    -0.744 OA
ENDBRANCH  74  78
ENDBRANCH  47  71
BRANCH  59  82
ATOM     82  C   UNL A   1      44.446  27.798  34.322  1.00  0.00     0.023 A 
ATOM     83  C   UNL A   1      44.325  26.635  35.101  1.00  0.00     0.031 A 
ATOM     84  C   UNL A   1      45.664  28.499  34.355  1.00  0.00     0.131 A 
ATOM     85  C   UNL A   1      45.393  26.229  35.914  1.00  0.00     0.055 A 
ATOM     86  C   UNL A   1      46.739  28.062  35.128  1.00  0.00     0.041 A 
ATOM     87  F   UNL A   1      45.827  29.616  33.628  1.00  0.00    -0.206 F 
ATOM     88  C   UNL A   1      46.605  26.926  35.920  1.00  0.00     0.022 A 
BRANCH  85  89
ATOM     89  S   UNL A   1      45.161  24.803  37.011  1.00  0.00     0.124 S 
ATOM     90  O   UNL A   1      44.914  23.725  36.059  1.00  0.00    -0.237 OA
ATOM     91  O   UNL A   1      46.433  24.745  37.723  1.00  0.00    -0.237 OA
ATOM     92  O   UNL A   1      44.011  25.184  37.830  1.00  0.00    -0.744 OA
ENDBRANCH  85  89
ENDBRANCH  59  82
ENDBRANCH  33  34
ENDBRANCH  25  28
ENDBRANCH  23  24
ENDBRANCH   1  23
TORSDOF 18
ENDMDL
MODEL 3
REMARK VINA RESULT:     -11.5      6.219     10.960
REMARK SMILES CC[C@](O)(C(=O)NCCCCNC(=O)c1ccc(-c2c3nc(c(-c4cc(S(=O)(=O)[O-])ccc4F)c4ccc([nH]4)c(-c4cc(S(=O)(=O)[O-])ccc4F)c4nc(c(-c5cc(S(=O)(=O)[O-])ccc5F)c5ccc2[nH]5)C=C4)C=C3)cc1)[C@H](C)c1ccc(F)cc1F
REMARK SMILES IDX 10 1 9 2 8 3 7 4 5 5 6 6 3 8 2 9 1 10 4 11 78 13 79 14 80 15
REMARK SMILES IDX 81 16 86 17 82 18 85 19 87 20 83 21 84 22 11 23 12 24 13 25
REMARK SMILES IDX 14 27 15 28 16 29 77 30 17 31 76 32 18 33 19 34 20 35 70 36
REMARK SMILES IDX 21 37 75 38 69 39 71 40 22 41 74 42 68 43 67 44 23 46 55 47
REMARK SMILES IDX 35 48 54 49 36 50 39 51 53 52 72 53 37 54 38 55 52 57 73 58
REMARK SMILES IDX 40 59 24 60 25 61 33 62 26 63 32 64 34 65 31 66 27 67 28 68
REMARK SMILES IDX 29 69 30 70 56 71 57 72 65 73 58 74 64 75 66 76 63 77 59 78
REMARK SMILES IDX 60 79 61 80 62 81 41 82 42 83 50 84 43 85 49 86 51 87 48 88
REMARK SMILES IDX 44 89 45 90 46 91 47 92
REMARK H PARENT 7 7 4 12 12 26 71 45 39 56
REMARK Flexibility Score: inf
ROOT
ATOM      1  C   UNL A   1      36.520  21.890  24.175  1.00  0.00     0.023 C 
ENDROOT
BRANCH   1   2
ATOM      2  C   UNL A   1      36.186  23.374  24.033  1.00  0.00     0.023 C 
BRANCH   2   3
ATOM      3  C   UNL A   1      34.724  23.730  24.280  1.00  0.00     0.116 C 
BRANCH   3   4
ATOM      4  N   UNL A   1      34.281  23.394  25.616  1.00  0.00    -0.354 N 
ATOM      5  C   UNL A   1      33.195  22.700  26.075  1.00  0.00     0.252 C 
ATOM      6  O   UNL A   1      33.176  22.487  27.290  1.00  0.00    -0.272 OA
ATOM      7  H   UNL A   1      34.872  23.726  26.329  1.00  0.00     0.163 HD
BRANCH   5   8
ATOM      8  C   UNL A   1      32.031  22.224  25.112  1.00  0.00     0.149 C 
BRANCH   8   9
ATOM      9  C   UNL A   1      31.124  23.427  24.710  1.00  0.00     0.043 C 
ATOM     10  C   UNL A   1      30.674  24.407  25.797  1.00  0.00     0.007 C 
ENDBRANCH   8   9
BRANCH   8  11
ATOM     11  O   UNL A   1      31.331  21.177  25.797  1.00  0.00    -0.379 OA
ATOM     12  H   UNL A   1      31.892  20.386  25.838  1.00  0.00     0.212 HD
ENDBRANCH   8  11
BRANCH   8  13
ATOM     13  C   UNL A   1      32.717  21.559  23.845  1.00  0.00     0.060 C 
ATOM     14  C   UNL A   1      32.060  21.995  22.516  1.00  0.00     0.016 C 
BRANCH  13  15
ATOM     15  C   UNL A   1      32.954  20.041  23.805  1.00  0.00    -0.006 A 
ATOM     16  C   UNL A   1      32.287  19.299  22.806  1.00  0.00     0.010 A 
ATOM     17  C   UNL A   1      33.782  19.326  24.680  1.00  0.00     0.129 A 
ATOM     18  C   UNL A   1      32.453  17.916  22.694  1.00  0.00     0.040 A 
ATOM     19  C   UNL A   1      33.965  17.950  24.566  1.00  0.00     0.078 A 
ATOM     20  F   UNL A   1      34.425  19.928  25.683  1.00  0.00    -0.207 F 
ATOM     21  C   UNL A   1      33.297  17.256  23.573  1.00  0.00     0.126 A 
ATOM     22  F   UNL A   1      33.463  15.931  23.467  1.00  0.00    -0.207 F 
ENDBRANCH  13  15
ENDBRANCH   8  13
ENDBRANCH   5   8
ENDBRANCH   3   4
ENDBRANCH   2   3
ENDBRANCH   1   2
BRANCH   1  23
ATOM     23  C   UNL A   1      37.062  21.462  25.536  1.00  0.00     0.116 C 
BRANCH  23  24
ATOM     24  N   UNL A   1      38.139  20.482  25.463  1.00  0.00    -0.352 N 
ATOM     25  C   UNL A   1      39.433  20.606  25.920  1.00  0.00     0.251 C 
ATOM     26  H   UNL A   1      37.914  19.625  25.034  1.00  0.00     0.163 HD
ATOM     27  O   UNL A   1      40.249  19.714  25.731  1.00  0.00    -0.269 OA
BRANCH  25  28
ATOM     28  C   UNL A   1      39.824  21.861  26.595  1.00  0.00     0.039 A 
ATOM     29  C   UNL A   1      40.739  21.802  27.650  1.00  0.00     0.014 A 
ATOM     30  C   UNL A   1      39.373  23.090  26.108  1.00  0.00     0.014 A 
ATOM     31  C   UNL A   1      41.285  22.985  28.150  1.00  0.00     0.010 A 
ATOM     32  C   UNL A   1      39.964  24.262  26.567  1.00  0.00     0.010 A 
ATOM     33  C   UNL A   1      40.944  24.219  27.572  1.00  0.00    -0.014 A 
BRANCH  33  34
ATOM     34  C   UNL A   1      41.634  25.477  27.958  1.00  0.00     0.031 A 
ATOM     35  C   UNL A   1      40.862  26.574  28.636  1.00  0.00     0.074 A 
ATOM     36  C   UNL A   1      42.914  25.673  27.585  1.00  0.00     0.049 A 
ATOM     37  N   UNL A   1      41.232  27.798  28.907  1.00  0.00    -0.248 NA
ATOM     38  C   UNL A   1      39.481  26.260  29.029  1.00  0.00     0.031 C 
ATOM     39  C   UNL A   1      43.748  24.698  26.876  1.00  0.00     0.029 A 
ATOM     40  N   UNL A   1      43.732  26.768  27.718  1.00  0.00    -0.354 N 
ATOM     41  C   UNL A   1      40.122  28.412  29.474  1.00  0.00     0.074 A 
ATOM     42  C   UNL A   1      39.055  27.432  29.475  1.00  0.00     0.031 C 
ATOM     43  C   UNL A   1      44.953  25.239  26.636  1.00  0.00     0.029 A 
ATOM     44  C   UNL A   1      44.966  26.613  27.128  1.00  0.00     0.049 A 
ATOM     45  H   UNL A   1      43.461  27.588  28.191  1.00  0.00     0.167 HD
ATOM     46  C   UNL A   1      40.010  29.673  29.957  1.00  0.00     0.034 A 
ATOM     47  C   UNL A   1      45.980  27.487  26.972  1.00  0.00     0.034 A 
ATOM     48  C   UNL A   1      41.094  30.622  29.982  1.00  0.00     0.049 A 
ATOM     49  C   UNL A   1      45.827  28.884  27.515  1.00  0.00     0.074 A 
ATOM     50  C   UNL A   1      41.123  31.881  30.556  1.00  0.00     0.029 A 
ATOM     51  N   UNL A   1      42.337  30.424  29.395  1.00  0.00    -0.354 N 
ATOM     52  N   UNL A   1      44.795  29.423  28.125  1.00  0.00    -0.248 NA
ATOM     53  C   UNL A   1      46.971  29.792  27.353  1.00  0.00     0.031 C 
ATOM     54  C   UNL A   1      42.360  32.467  30.263  1.00  0.00     0.029 A 
ATOM     55  C   UNL A   1      43.124  31.552  29.557  1.00  0.00     0.049 A 
ATOM     56  H   UNL A   1      42.617  29.601  28.932  1.00  0.00     0.167 HD
ATOM     57  C   UNL A   1      45.178  30.725  28.437  1.00  0.00     0.074 A 
ATOM     58  C   UNL A   1      46.537  30.886  27.962  1.00  0.00     0.031 C 
ATOM     59  C   UNL A   1      44.471  31.698  29.064  1.00  0.00     0.034 A 
BRANCH  46  60
ATOM     60  C   UNL A   1      38.662  30.105  30.475  1.00  0.00     0.023 A 
ATOM     61  C   UNL A   1      37.760  30.828  29.679  1.00  0.00     0.031 A 
ATOM     62  C   UNL A   1      38.278  29.790  31.791  1.00  0.00     0.131 A 
ATOM     63  C   UNL A   1      36.543  31.267  30.224  1.00  0.00     0.055 A 
ATOM     64  C   UNL A   1      37.038  30.169  32.306  1.00  0.00     0.041 A 
ATOM     65  F   UNL A   1      39.110  29.117  32.602  1.00  0.00    -0.206 F 
ATOM     66  C   UNL A   1      36.166  30.923  31.525  1.00  0.00     0.022 A 
BRANCH  63  67
ATOM     67  S   UNL A   1      35.511  32.391  29.245  1.00  0.00     0.124 S 
ATOM     68  O   UNL A   1      35.347  31.636  28.005  1.00  0.00    -0.237 OA
ATOM     69  O   UNL A   1      34.318  32.525  30.073  1.00  0.00    -0.237 OA
ATOM     70  O   UNL A   1      36.330  33.596  29.130  1.00  0.00    -0.744 OA
ENDBRANCH  63  67
ENDBRANCH  46  60
BRANCH  47  71
ATOM     71  C   UNL A   1      47.216  27.093  26.237  1.00  0.00     0.023 A 
ATOM     72  C   UNL A   1      48.241  26.378  26.875  1.00  0.00     0.031 A 
ATOM     73  C   UNL A   1      47.414  27.478  24.899  1.00  0.00     0.131 A 
ATOM     74  C   UNL A   1      49.438  26.111  26.192  1.00  0.00     0.055 A 
ATOM     75  C   UNL A   1      48.587  27.167  24.208  1.00  0.00     0.041 A 
ATOM     76  F   UNL A   1      46.464  28.160  24.240  1.00  0.00    -0.206 F 
ATOM     77  C   UNL A   1      49.614  26.492  24.859  1.00  0.00     0.022 A 
BRANCH  74  78
ATOM     78  S   UNL A   1      50.803  25.338  27.104  1.00  0.00     0.124 S 
ATOM     79  O   UNL A   1      50.114  24.278  27.830  1.00  0.00    -0.237 OA
ATOM     80  O   UNL A   1      51.682  24.909  26.022  1.00  0.00    -0.237 OA
ATOM     81  O   UNL A   1      51.319  26.428  27.930  1.00  0.00    -0.744 OA
ENDBRANCH  74  78
ENDBRANCH  47  71
BRANCH  59  82
ATOM     82  C   UNL A   1      45.176  33.010  29.296  1.00  0.00     0.023 A 
ATOM     83  C   UNL A   1      45.943  33.236  30.452  1.00  0.00     0.031 A 
ATOM     84  C   UNL A   1      45.080  34.042  28.347  1.00  0.00     0.131 A 
ATOM     85  C   UNL A   1      46.552  34.484  30.649  1.00  0.00     0.055 A 
ATOM     86  C   UNL A   1      45.729  35.264  28.526  1.00  0.00     0.041 A 
ATOM     87  F   UNL A   1      44.359  33.874  27.227  1.00  0.00    -0.206 F 
ATOM     88  C   UNL A   1      46.463  35.493  29.686  1.00  0.00     0.022 A 
BRANCH  85  89
ATOM     89  S   UNL A   1      47.419  34.794  32.211  1.00  0.00     0.124 S 
ATOM     90  O   UNL A   1      46.903  36.105  32.590  1.00  0.00    -0.237 OA
ATOM     91  O   UNL A   1      46.983  33.675  33.040  1.00  0.00    -0.237 OA
ATOM     92  O   UNL A   1      48.831  34.768  31.832  1.00  0.00    -0.744 OA
ENDBRANCH  85  89
ENDBRANCH  59  82
ENDBRANCH  33  34
ENDBRANCH  25  28
ENDBRANCH  23  24
ENDBRANCH   1  23
TORSDOF 18
ENDMDL
