MODEL 1
REMARK VINA RESULT:     -12.0      0.000      0.000
REMARK SMILES Cc1cc(NC(=O)CC2(CC(=O)NCCCCNC(=O)c3ccc(-c4c5nc(c(-c6cc(S(=O)(=O)[O-])ccc6F)c6ccc([nH]6)c(-c6cc(S(=O)(=O)[O-])ccc6F)c6nc(c(-c7cc(S(=O)(=O)[O-])ccc7F)c7ccc4[nH]7)C=C6)C=C5)cc3)CCCC2)ccn1
REMARK SMILES IDX 15 1 14 2 13 3 11 4 12 5 10 7 9 8 84 9 87 10 85 11 86 12
REMARK SMILES IDX 8 13 6 14 5 15 7 17 4 18 1 19 2 20 3 21 90 22 89 23 88 24
REMARK SMILES IDX 16 25 17 26 18 27 19 28 20 30 21 31 22 32 83 33 23 34 82 35
REMARK SMILES IDX 24 36 25 37 26 38 76 39 27 40 81 41 75 42 77 43 28 44 80 45
REMARK SMILES IDX 74 46 73 47 29 49 61 50 41 51 60 52 42 53 45 54 59 55 78 56
REMARK SMILES IDX 43 57 44 58 58 60 79 61 46 62 30 63 31 64 39 65 32 66 38 67
REMARK SMILES IDX 40 68 37 69 33 70 34 71 35 72 36 73 62 74 63 75 71 76 64 77
REMARK SMILES IDX 70 78 72 79 69 80 65 81 66 82 67 83 68 84 47 85 48 86 56 87
REMARK SMILES IDX 49 88 55 89 57 90 54 91 50 92 51 93 52 94 53 95
REMARK H PARENT 13 6 5 16 18 29 77 48 45 59
REMARK Flexibility Score: inf
ROOT
ATOM      1  C   UNL A   1      35.448  20.476  24.962  1.00  0.00     0.023 C 
ENDROOT
BRANCH   1   2
ATOM      2  C   UNL A   1      34.103  21.012  25.453  1.00  0.00     0.116 C 
BRANCH   2   3
ATOM      3  N   UNL A   1      33.112  20.928  24.405  1.00  0.00    -0.356 N 
ATOM      4  C   UNL A   1      32.815  21.809  23.414  1.00  0.00     0.220 C 
ATOM      5  O   UNL A   1      31.887  21.531  22.654  1.00  0.00    -0.275 OA
ATOM      6  H   UNL A   1      32.568  20.107  24.409  1.00  0.00     0.163 HD
BRANCH   4   7
ATOM      7  C   UNL A   1      33.635  23.077  23.218  1.00  0.00     0.107 C 
BRANCH   7   8
ATOM      8  C   UNL A   1      33.049  24.451  23.685  1.00  0.00    -0.012 C 
ATOM      9  C   UNL A   1      34.255  25.336  24.094  1.00  0.00     0.008 C 
ATOM     10  C   UNL A   1      32.341  24.397  25.055  1.00  0.00     0.008 C 
ATOM     11  C   UNL A   1      34.686  24.838  25.476  1.00  0.00     0.001 C 
ATOM     12  C   UNL A   1      33.424  24.278  26.119  1.00  0.00     0.001 C 
BRANCH   8  13
ATOM     13  C   UNL A   1      32.077  25.057  22.629  1.00  0.00     0.108 C 
BRANCH  13  14
ATOM     14  C   UNL A   1      32.660  25.989  21.586  1.00  0.00     0.224 C 
ATOM     15  N   UNL A   1      32.665  27.347  21.720  1.00  0.00    -0.326 N 
ATOM     16  H   UNL A   1      33.078  27.817  20.960  1.00  0.00     0.169 HD
ATOM     17  O   UNL A   1      33.227  25.529  20.590  1.00  0.00    -0.275 OA
BRANCH  15  18
ATOM     18  C   UNL A   1      32.200  28.208  22.728  1.00  0.00     0.044 A 
ATOM     19  C   UNL A   1      33.566  29.365  26.054  1.00  0.00     0.067 C 
ATOM     20  C   UNL A   1      32.667  29.195  24.868  1.00  0.00     0.039 A 
ATOM     21  C   UNL A   1      33.108  28.506  23.745  1.00  0.00     0.049 A 
ATOM     22  N   UNL A   1      31.397  29.638  24.994  1.00  0.00    -0.261 NA
ATOM     23  C   UNL A   1      30.558  29.407  23.964  1.00  0.00     0.113 A 
ATOM     24  C   UNL A   1      30.912  28.713  22.817  1.00  0.00     0.046 A 
ENDBRANCH  15  18
ENDBRANCH  13  14
ENDBRANCH   8  13
ENDBRANCH   7   8
ENDBRANCH   4   7
ENDBRANCH   2   3
ENDBRANCH   1   2
BRANCH   1  25
ATOM     25  C   UNL A   1      36.462  21.541  24.577  1.00  0.00     0.023 C 
BRANCH  25  26
ATOM     26  C   UNL A   1      37.441  21.907  25.678  1.00  0.00     0.116 C 
BRANCH  26  27
ATOM     27  N   UNL A   1      38.580  21.004  25.784  1.00  0.00    -0.352 N 
ATOM     28  C   UNL A   1      39.825  21.283  26.307  1.00  0.00     0.251 C 
ATOM     29  H   UNL A   1      38.445  20.090  25.443  1.00  0.00     0.163 HD
ATOM     30  O   UNL A   1      40.724  20.457  26.265  1.00  0.00    -0.269 OA
BRANCH  28  31
ATOM     31  C   UNL A   1      40.044  22.632  26.867  1.00  0.00     0.039 A 
ATOM     32  C   UNL A   1      40.926  22.787  27.937  1.00  0.00     0.014 A 
ATOM     33  C   UNL A   1      39.495  23.742  26.222  1.00  0.00     0.014 A 
ATOM     34  C   UNL A   1      41.327  24.070  28.305  1.00  0.00     0.010 A 
ATOM     35  C   UNL A   1      39.976  25.007  26.523  1.00  0.00     0.010 A 
ATOM     36  C   UNL A   1      40.894  25.186  27.570  1.00  0.00    -0.014 A 
BRANCH  36  37
ATOM     37  C   UNL A   1      41.365  26.558  27.885  1.00  0.00     0.031 A 
ATOM     38  C   UNL A   1      42.779  26.946  27.549  1.00  0.00     0.074 A 
ATOM     39  C   UNL A   1      40.561  27.413  28.548  1.00  0.00     0.049 A 
ATOM     40  N   UNL A   1      43.432  28.041  27.840  1.00  0.00    -0.248 NA
ATOM     41  C   UNL A   1      43.580  25.940  26.835  1.00  0.00     0.031 C 
ATOM     42  C   UNL A   1      39.192  27.127  28.985  1.00  0.00     0.029 A 
ATOM     43  N   UNL A   1      40.782  28.697  28.978  1.00  0.00    -0.354 N 
ATOM     44  C   UNL A   1      44.727  27.840  27.373  1.00  0.00     0.074 A 
ATOM     45  C   UNL A   1      44.782  26.492  26.854  1.00  0.00     0.031 C 
ATOM     46  C   UNL A   1      38.687  28.213  29.592  1.00  0.00     0.029 A 
ATOM     47  C   UNL A   1      39.705  29.258  29.625  1.00  0.00     0.049 A 
ATOM     48  H   UNL A   1      41.633  29.172  28.838  1.00  0.00     0.167 HD
ATOM     49  C   UNL A   1      45.764  28.713  27.348  1.00  0.00     0.034 A 
ATOM     50  C   UNL A   1      39.560  30.475  30.182  1.00  0.00     0.034 A 
ATOM     51  C   UNL A   1      45.675  30.066  27.836  1.00  0.00     0.049 A 
ATOM     52  C   UNL A   1      40.716  31.441  30.123  1.00  0.00     0.074 A 
ATOM     53  C   UNL A   1      46.633  31.063  27.799  1.00  0.00     0.029 A 
ATOM     54  N   UNL A   1      44.555  30.613  28.453  1.00  0.00    -0.354 N 
ATOM     55  N   UNL A   1      41.919  31.260  29.627  1.00  0.00    -0.248 NA
ATOM     56  C   UNL A   1      40.492  32.777  30.687  1.00  0.00     0.031 C 
ATOM     57  C   UNL A   1      46.111  32.195  28.439  1.00  0.00     0.029 A 
ATOM     58  C   UNL A   1      44.806  31.926  28.818  1.00  0.00     0.049 A 
ATOM     59  H   UNL A   1      43.708  30.136  28.607  1.00  0.00     0.167 HD
ATOM     60  C   UNL A   1      42.585  32.469  29.796  1.00  0.00     0.074 A 
ATOM     61  C   UNL A   1      41.646  33.375  30.428  1.00  0.00     0.031 C 
ATOM     62  C   UNL A   1      43.856  32.806  29.457  1.00  0.00     0.034 A 
BRANCH  49  63
ATOM     63  C   UNL A   1      47.073  28.209  26.787  1.00  0.00     0.023 A 
ATOM     64  C   UNL A   1      47.312  28.165  25.401  1.00  0.00     0.031 A 
ATOM     65  C   UNL A   1      48.066  27.698  27.640  1.00  0.00     0.131 A 
ATOM     66  C   UNL A   1      48.460  27.530  24.906  1.00  0.00     0.055 A 
ATOM     67  C   UNL A   1      49.253  27.152  27.143  1.00  0.00     0.041 A 
ATOM     68  F   UNL A   1      47.889  27.693  28.970  1.00  0.00    -0.206 F 
ATOM     69  C   UNL A   1      49.445  27.046  25.769  1.00  0.00     0.022 A 
BRANCH  66  70
ATOM     70  S   UNL A   1      48.556  27.188  23.128  1.00  0.00     0.124 S 
ATOM     71  O   UNL A   1      48.232  25.763  23.085  1.00  0.00    -0.237 OA
ATOM     72  O   UNL A   1      47.550  28.089  22.578  1.00  0.00    -0.237 OA
ATOM     73  O   UNL A   1      49.940  27.515  22.790  1.00  0.00    -0.744 OA
ENDBRANCH  66  70
ENDBRANCH  49  63
BRANCH  50  74
ATOM     74  C   UNL A   1      38.277  30.861  30.833  1.00  0.00     0.023 A 
ATOM     75  C   UNL A   1      37.279  31.536  30.114  1.00  0.00     0.031 A 
ATOM     76  C   UNL A   1      38.039  30.583  32.190  1.00  0.00     0.131 A 
ATOM     77  C   UNL A   1      36.105  31.948  30.762  1.00  0.00     0.055 A 
ATOM     78  C   UNL A   1      36.852  30.957  32.822  1.00  0.00     0.041 A 
ATOM     79  F   UNL A   1      38.958  29.929  32.920  1.00  0.00    -0.206 F 
ATOM     80  C   UNL A   1      35.879  31.653  32.109  1.00  0.00     0.022 A 
BRANCH  77  81
ATOM     81  S   UNL A   1      34.895  32.930  29.833  1.00  0.00     0.124 S 
ATOM     82  O   UNL A   1      35.738  33.972  29.259  1.00  0.00    -0.237 OA
ATOM     83  O   UNL A   1      34.364  31.945  28.896  1.00  0.00    -0.237 OA
ATOM     84  O   UNL A   1      33.958  33.377  30.861  1.00  0.00    -0.744 OA
ENDBRANCH  77  81
ENDBRANCH  50  74
BRANCH  62  85
ATOM     85  C   UNL A   1      44.278  34.227  29.726  1.00  0.00     0.023 A 
ATOM     86  C   UNL A   1      44.093  35.245  28.774  1.00  0.00     0.031 A 
ATOM     87  C   UNL A   1      44.880  34.565  30.951  1.00  0.00     0.131 A 
ATOM     88  C   UNL A   1      44.553  36.543  29.043  1.00  0.00     0.055 A 
ATOM     89  C   UNL A   1      45.286  35.868  31.234  1.00  0.00     0.041 A 
ATOM     90  F   UNL A   1      45.080  33.630  31.893  1.00  0.00    -0.206 F 
ATOM     91  C   UNL A   1      45.133  36.863  30.272  1.00  0.00     0.022 A 
BRANCH  88  92
ATOM     92  S   UNL A   1      44.454  37.791  27.730  1.00  0.00     0.124 S 
ATOM     93  O   UNL A   1      45.692  37.555  26.995  1.00  0.00    -0.237 OA
ATOM     94  O   UNL A   1      43.222  37.422  27.040  1.00  0.00    -0.237 OA
ATOM     95  O   UNL A   1      44.399  39.054  28.463  1.00  0.00    -0.744 OA
ENDBRANCH  88  92
ENDBRANCH  62  85
ENDBRANCH  36  37
ENDBRANCH  28  31
ENDBRANCH  26  27
ENDBRANCH  25  26
ENDBRANCH   1  25
TORSDOF 18
ENDMDL
MODEL 2
REMARK VINA RESULT:     -11.9      2.579      8.194
REMARK SMILES Cc1cc(NC(=O)CC2(CC(=O)NCCCCNC(=O)c3ccc(-c4c5nc(c(-c6cc(S(=O)(=O)[O-])ccc6F)c6ccc([nH]6)c(-c6cc(S(=O)(=O)[O-])ccc6F)c6nc(c(-c7cc(S(=O)(=O)[O-])ccc7F)c7ccc4[nH]7)C=C6)C=C5)cc3)CCCC2)ccn1
REMARK SMILES IDX 15 1 14 2 13 3 11 4 12 5 10 7 9 8 84 9 87 10 85 11 86 12
REMARK SMILES IDX 8 13 6 14 5 15 7 17 4 18 1 19 2 20 3 21 90 22 89 23 88 24
REMARK SMILES IDX 16 25 17 26 18 27 19 28 20 30 21 31 22 32 83 33 23 34 82 35
REMARK SMILES IDX 24 36 25 37 26 38 76 39 27 40 81 41 75 42 77 43 28 44 80 45
REMARK SMILES IDX 74 46 73 47 29 49 61 50 41 51 60 52 42 53 45 54 59 55 78 56
REMARK SMILES IDX 43 57 44 58 58 60 79 61 46 62 30 63 31 64 39 65 32 66 38 67
REMARK SMILES IDX 40 68 37 69 33 70 34 71 35 72 36 73 62 74 63 75 71 76 64 77
REMARK SMILES IDX 70 78 72 79 69 80 65 81 66 82 67 83 68 84 47 85 48 86 56 87
REMARK SMILES IDX 49 88 55 89 57 90 54 91 50 92 51 93 52 94 53 95
REMARK H PARENT 13 6 5 16 18 29 77 48 45 59
REMARK Flexibility Score: inf
ROOT
ATOM      1  C   UNL A   1      37.365  22.567  24.998  1.00  0.00     0.023 C 
ENDROOT
BRANCH   1   2
ATOM      2  C   UNL A   1      36.626  23.308  26.113  1.00  0.00     0.116 C 
BRANCH   2   3
ATOM      3  N   UNL A   1      35.617  22.458  26.702  1.00  0.00    -0.356 N 
ATOM      4  C   UNL A   1      34.265  22.592  26.715  1.00  0.00     0.220 C 
ATOM      5  O   UNL A   1      33.609  21.749  27.327  1.00  0.00    -0.275 OA
ATOM      6  H   UNL A   1      35.962  21.661  27.166  1.00  0.00     0.163 HD
BRANCH   4   7
ATOM      7  C   UNL A   1      33.578  23.720  25.956  1.00  0.00     0.107 C 
BRANCH   7   8
ATOM      8  C   UNL A   1      32.647  23.376  24.747  1.00  0.00    -0.012 C 
ATOM      9  C   UNL A   1      33.326  22.216  23.974  1.00  0.00     0.008 C 
ATOM     10  C   UNL A   1      32.666  24.431  23.621  1.00  0.00     0.008 C 
ATOM     11  C   UNL A   1      34.453  22.861  23.162  1.00  0.00     0.001 C 
ATOM     12  C   UNL A   1      33.993  24.287  22.888  1.00  0.00     0.001 C 
BRANCH   8  13
ATOM     13  C   UNL A   1      31.175  23.134  25.197  1.00  0.00     0.108 C 
BRANCH  13  14
ATOM     14  C   UNL A   1      30.693  23.848  26.444  1.00  0.00     0.224 C 
ATOM     15  N   UNL A   1      30.363  25.172  26.462  1.00  0.00    -0.326 N 
ATOM     16  H   UNL A   1      30.068  25.493  27.345  1.00  0.00     0.169 HD
ATOM     17  O   UNL A   1      30.511  23.217  27.490  1.00  0.00    -0.275 OA
BRANCH  15  18
ATOM     18  C   UNL A   1      30.359  26.168  25.473  1.00  0.00     0.044 A 
ATOM     19  C   UNL A   1      31.950  29.580  25.150  1.00  0.00     0.067 C 
ATOM     20  C   UNL A   1      31.157  28.346  24.844  1.00  0.00     0.039 A 
ATOM     21  C   UNL A   1      31.235  27.236  25.676  1.00  0.00     0.049 A 
ATOM     22  N   UNL A   1      30.296  28.414  23.805  1.00  0.00    -0.261 NA
ATOM     23  C   UNL A   1      29.515  27.338  23.580  1.00  0.00     0.113 A 
ATOM     24  C   UNL A   1      29.518  26.200  24.371  1.00  0.00     0.046 A 
ENDBRANCH  15  18
ENDBRANCH  13  14
ENDBRANCH   8  13
ENDBRANCH   7   8
ENDBRANCH   4   7
ENDBRANCH   2   3
ENDBRANCH   1   2
BRANCH   1  25
ATOM     25  C   UNL A   1      37.900  21.197  25.384  1.00  0.00     0.023 C 
BRANCH  25  26
ATOM     26  C   UNL A   1      39.252  21.219  26.074  1.00  0.00     0.116 C 
BRANCH  26  27
ATOM     27  N   UNL A   1      39.982  19.960  25.990  1.00  0.00    -0.352 N 
ATOM     28  C   UNL A   1      41.345  19.774  26.074  1.00  0.00     0.251 C 
ATOM     29  H   UNL A   1      39.439  19.149  25.858  1.00  0.00     0.163 HD
ATOM     30  O   UNL A   1      41.841  18.670  25.907  1.00  0.00    -0.269 OA
BRANCH  28  31
ATOM     31  C   UNL A   1      42.183  20.966  26.316  1.00  0.00     0.039 A 
ATOM     32  C   UNL A   1      42.511  21.793  25.241  1.00  0.00     0.014 A 
ATOM     33  C   UNL A   1      42.498  21.331  27.626  1.00  0.00     0.014 A 
ATOM     34  C   UNL A   1      43.084  23.039  25.494  1.00  0.00     0.010 A 
ATOM     35  C   UNL A   1      42.970  22.610  27.878  1.00  0.00     0.010 A 
ATOM     36  C   UNL A   1      43.271  23.478  26.815  1.00  0.00    -0.014 A 
BRANCH  36  37
ATOM     37  C   UNL A   1      43.803  24.829  27.121  1.00  0.00     0.031 A 
ATOM     38  C   UNL A   1      42.885  25.866  27.707  1.00  0.00     0.074 A 
ATOM     39  C   UNL A   1      45.070  25.148  26.789  1.00  0.00     0.049 A 
ATOM     40  N   UNL A   1      43.103  27.134  27.939  1.00  0.00    -0.248 NA
ATOM     41  C   UNL A   1      41.518  25.424  28.024  1.00  0.00     0.031 C 
ATOM     42  C   UNL A   1      46.036  24.246  26.156  1.00  0.00     0.029 A 
ATOM     43  N   UNL A   1      45.763  26.323  26.931  1.00  0.00    -0.354 N 
ATOM     44  C   UNL A   1      41.893  27.645  28.398  1.00  0.00     0.074 A 
ATOM     45  C   UNL A   1      40.931  26.568  28.334  1.00  0.00     0.031 C 
ATOM     46  C   UNL A   1      47.202  24.891  25.994  1.00  0.00     0.029 A 
ATOM     47  C   UNL A   1      47.058  26.262  26.473  1.00  0.00     0.049 A 
ATOM     48  H   UNL A   1      45.369  27.135  27.325  1.00  0.00     0.167 HD
ATOM     49  C   UNL A   1      41.620  28.890  28.862  1.00  0.00     0.034 A 
ATOM     50  C   UNL A   1      48.018  27.207  26.441  1.00  0.00     0.034 A 
ATOM     51  C   UNL A   1      42.605  29.937  28.952  1.00  0.00     0.049 A 
ATOM     52  C   UNL A   1      47.702  28.578  26.984  1.00  0.00     0.074 A 
ATOM     53  C   UNL A   1      42.466  31.212  29.470  1.00  0.00     0.029 A 
ATOM     54  N   UNL A   1      43.919  29.828  28.511  1.00  0.00    -0.354 N 
ATOM     55  N   UNL A   1      46.569  29.033  27.469  1.00  0.00    -0.248 NA
ATOM     56  C   UNL A   1      48.796  29.556  26.987  1.00  0.00     0.031 C 
ATOM     57  C   UNL A   1      43.678  31.891  29.296  1.00  0.00     0.029 A 
ATOM     58  C   UNL A   1      44.594  31.019  28.727  1.00  0.00     0.049 A 
ATOM     59  H   UNL A   1      44.312  29.023  28.104  1.00  0.00     0.167 HD
ATOM     60  C   UNL A   1      46.824  30.344  27.859  1.00  0.00     0.074 A 
ATOM     61  C   UNL A   1      48.220  30.600  27.564  1.00  0.00     0.031 C 
ATOM     62  C   UNL A   1      45.984  31.254  28.415  1.00  0.00     0.034 A 
BRANCH  49  63
ATOM     63  C   UNL A   1      40.197  29.167  29.286  1.00  0.00     0.023 A 
ATOM     64  C   UNL A   1      39.816  29.153  30.640  1.00  0.00     0.031 A 
ATOM     65  C   UNL A   1      39.193  29.376  28.324  1.00  0.00     0.131 A 
ATOM     66  C   UNL A   1      38.460  29.238  30.988  1.00  0.00     0.055 A 
ATOM     67  C   UNL A   1      37.855  29.556  28.685  1.00  0.00     0.041 A 
ATOM     68  F   UNL A   1      39.489  29.380  27.015  1.00  0.00    -0.206 F 
ATOM     69  C   UNL A   1      37.479  29.465  30.022  1.00  0.00     0.022 A 
BRANCH  66  70
ATOM     70  S   UNL A   1      37.986  28.867  32.700  1.00  0.00     0.124 S 
ATOM     71  O   UNL A   1      36.652  29.460  32.770  1.00  0.00    -0.237 OA
ATOM     72  O   UNL A   1      38.040  27.410  32.734  1.00  0.00    -0.237 OA
ATOM     73  O   UNL A   1      39.005  29.550  33.494  1.00  0.00    -0.744 OA
ENDBRANCH  66  70
ENDBRANCH  49  63
BRANCH  50  74
ATOM     74  C   UNL A   1      49.366  26.897  25.890  1.00  0.00     0.023 A 
ATOM     75  C   UNL A   1      49.713  27.271  24.581  1.00  0.00     0.031 A 
ATOM     76  C   UNL A   1      50.320  26.202  26.652  1.00  0.00     0.131 A 
ATOM     77  C   UNL A   1      50.965  26.912  24.059  1.00  0.00     0.055 A 
ATOM     78  C   UNL A   1      51.581  25.884  26.144  1.00  0.00     0.041 A 
ATOM     79  F   UNL A   1      50.042  25.832  27.913  1.00  0.00    -0.206 F 
ATOM     80  C   UNL A   1      51.906  26.231  24.835  1.00  0.00     0.022 A 
BRANCH  77  81
ATOM     81  S   UNL A   1      51.328  27.299  22.325  1.00  0.00     0.124 S 
ATOM     82  O   UNL A   1      52.590  26.597  22.121  1.00  0.00    -0.237 OA
ATOM     83  O   UNL A   1      50.166  26.739  21.642  1.00  0.00    -0.237 OA
ATOM     84  O   UNL A   1      51.413  28.757  22.311  1.00  0.00    -0.744 OA
ENDBRANCH  77  81
ENDBRANCH  50  74
BRANCH  62  85
ATOM     85  C   UNL A   1      46.575  32.592  28.778  1.00  0.00     0.023 A 
ATOM     86  C   UNL A   1      46.543  33.678  27.887  1.00  0.00     0.031 A 
ATOM     87  C   UNL A   1      47.185  32.778  30.031  1.00  0.00     0.131 A 
ATOM     88  C   UNL A   1      47.156  34.890  28.242  1.00  0.00     0.055 A 
ATOM     89  C   UNL A   1      47.745  34.000  30.400  1.00  0.00     0.041 A 
ATOM     90  F   UNL A   1      47.242  31.772  30.917  1.00  0.00    -0.206 F 
ATOM     91  C   UNL A   1      47.742  35.061  29.498  1.00  0.00     0.022 A 
BRANCH  88  92
ATOM     92  S   UNL A   1      47.248  36.214  27.007  1.00  0.00     0.124 S 
ATOM     93  O   UNL A   1      48.204  37.133  27.617  1.00  0.00    -0.237 OA
ATOM     94  O   UNL A   1      47.715  35.503  25.821  1.00  0.00    -0.237 OA
ATOM     95  O   UNL A   1      45.874  36.708  26.931  1.00  0.00    -0.744 OA
ENDBRANCH  88  92
ENDBRANCH  62  85
ENDBRANCH  36  37
ENDBRANCH  28  31
ENDBRANCH  26  27
ENDBRANCH  25  26
ENDBRANCH   1  25
TORSDOF 18
ENDMDL
MODEL 3
REMARK VINA RESULT:     -11.9      1.248      2.927
REMARK SMILES Cc1cc(NC(=O)CC2(CC(=O)NCCCCNC(=O)c3ccc(-c4c5nc(c(-c6cc(S(=O)(=O)[O-])ccc6F)c6ccc([nH]6)c(-c6cc(S(=O)(=O)[O-])ccc6F)c6nc(c(-c7cc(S(=O)(=O)[O-])ccc7F)c7ccc4[nH]7)C=C6)C=C5)cc3)CCCC2)ccn1
REMARK SMILES IDX 15 1 14 2 13 3 11 4 12 5 10 7 9 8 84 9 87 10 85 11 86 12
REMARK SMILES IDX 8 13 6 14 5 15 7 17 4 18 1 19 2 20 3 21 90 22 89 23 88 24
REMARK SMILES IDX 16 25 17 26 18 27 19 28 20 30 21 31 22 32 83 33 23 34 82 35
REMARK SMILES IDX 24 36 25 37 26 38 76 39 27 40 81 41 75 42 77 43 28 44 80 45
REMARK SMILES IDX 74 46 73 47 29 49 61 50 41 51 60 52 42 53 45 54 59 55 78 56
REMARK SMILES IDX 43 57 44 58 58 60 79 61 46 62 30 63 31 64 39 65 32 66 38 67
REMARK SMILES IDX 40 68 37 69 33 70 34 71 35 72 36 73 62 74 63 75 71 76 64 77
REMARK SMILES IDX 70 78 72 79 69 80 65 81 66 82 67 83 68 84 47 85 48 86 56 87
REMARK SMILES IDX 49 88 55 89 57 90 54 91 50 92 51 93 52 94 53 95
REMARK H PARENT 13 6 5 16 18 29 77 48 45 59
REMARK Flexibility Score: inf
ROOT
ATOM      1  C   UNL A   1      35.357  22.736  23.592  1.00  0.00     0.023 C 
ENDROOT
BRANCH   1   2
ATOM      2  C   UNL A   1      34.709  24.055  24.013  1.00  0.00     0.116 C 
BRANCH   2   3
ATOM      3  N   UNL A   1      34.006  24.650  22.900  1.00  0.00    -0.356 N 
ATOM      4  C   UNL A   1      33.331  25.827  22.827  1.00  0.00     0.220 C 
ATOM      5  O   UNL A   1      32.770  26.104  21.766  1.00  0.00    -0.275 OA
ATOM      6  H   UNL A   1      34.017  24.123  22.069  1.00  0.00     0.163 HD
BRANCH   4   7
ATOM      7  C   UNL A   1      33.310  26.797  24.000  1.00  0.00     0.107 C 
BRANCH   7   8
ATOM      8  C   UNL A   1      32.144  26.719  25.041  1.00  0.00    -0.012 C 
ATOM      9  C   UNL A   1      31.399  28.078  24.982  1.00  0.00     0.008 C 
ATOM     10  C   UNL A   1      32.610  26.789  26.511  1.00  0.00     0.008 C 
ATOM     11  C   UNL A   1      32.275  29.067  25.757  1.00  0.00     0.001 C 
ATOM     12  C   UNL A   1      33.020  28.229  26.788  1.00  0.00     0.001 C 
BRANCH   8  13
ATOM     13  C   UNL A   1      31.270  25.446  24.840  1.00  0.00     0.108 C 
BRANCH  13  14
ATOM     14  C   UNL A   1      30.506  24.919  26.038  1.00  0.00     0.224 C 
ATOM     15  N   UNL A   1      30.876  23.797  26.722  1.00  0.00    -0.326 N 
ATOM     16  H   UNL A   1      30.281  23.580  27.476  1.00  0.00     0.169 HD
ATOM     17  O   UNL A   1      29.541  25.547  26.485  1.00  0.00    -0.275 OA
BRANCH  15  18
ATOM     18  C   UNL A   1      31.937  22.891  26.565  1.00  0.00     0.044 A 
ATOM     19  C   UNL A   1      32.516  19.846  24.406  1.00  0.00     0.067 C 
ATOM     20  C   UNL A   1      32.728  20.939  25.407  1.00  0.00     0.039 A 
ATOM     21  C   UNL A   1      31.815  21.983  25.512  1.00  0.00     0.049 A 
ATOM     22  N   UNL A   1      33.768  20.798  26.258  1.00  0.00    -0.261 NA
ATOM     23  C   UNL A   1      33.911  21.733  27.219  1.00  0.00     0.113 A 
ATOM     24  C   UNL A   1      33.037  22.793  27.404  1.00  0.00     0.046 A 
ENDBRANCH  15  18
ENDBRANCH  13  14
ENDBRANCH   8  13
ENDBRANCH   7   8
ENDBRANCH   4   7
ENDBRANCH   2   3
ENDBRANCH   1   2
BRANCH   1  25
ATOM     25  C   UNL A   1      36.844  22.625  23.893  1.00  0.00     0.023 C 
BRANCH  25  26
ATOM     26  C   UNL A   1      37.175  22.364  25.351  1.00  0.00     0.116 C 
BRANCH  26  27
ATOM     27  N   UNL A   1      38.228  21.376  25.553  1.00  0.00    -0.352 N 
ATOM     28  C   UNL A   1      39.435  21.557  26.193  1.00  0.00     0.251 C 
ATOM     29  H   UNL A   1      38.057  20.476  25.190  1.00  0.00     0.163 HD
ATOM     30  O   UNL A   1      40.270  20.665  26.224  1.00  0.00    -0.269 OA
BRANCH  28  31
ATOM     31  C   UNL A   1      39.702  22.882  26.786  1.00  0.00     0.039 A 
ATOM     32  C   UNL A   1      40.581  22.978  27.866  1.00  0.00     0.014 A 
ATOM     33  C   UNL A   1      39.202  24.029  26.163  1.00  0.00     0.014 A 
ATOM     34  C   UNL A   1      41.028  24.236  28.268  1.00  0.00     0.010 A 
ATOM     35  C   UNL A   1      39.730  25.266  26.498  1.00  0.00     0.010 A 
ATOM     36  C   UNL A   1      40.646  25.385  27.556  1.00  0.00    -0.014 A 
BRANCH  36  37
ATOM     37  C   UNL A   1      41.167  26.729  27.907  1.00  0.00     0.031 A 
ATOM     38  C   UNL A   1      42.596  27.071  27.586  1.00  0.00     0.074 A 
ATOM     39  C   UNL A   1      40.393  27.597  28.588  1.00  0.00     0.049 A 
ATOM     40  N   UNL A   1      43.288  28.133  27.907  1.00  0.00    -0.248 NA
ATOM     41  C   UNL A   1      43.361  26.054  26.850  1.00  0.00     0.031 C 
ATOM     42  C   UNL A   1      39.012  27.353  29.013  1.00  0.00     0.029 A 
ATOM     43  N   UNL A   1      40.661  28.860  29.052  1.00  0.00    -0.354 N 
ATOM     44  C   UNL A   1      44.577  27.895  27.439  1.00  0.00     0.074 A 
ATOM     45  C   UNL A   1      44.583  26.559  26.887  1.00  0.00     0.031 C 
ATOM     46  C   UNL A   1      38.545  28.442  29.646  1.00  0.00     0.029 A 
ATOM     47  C   UNL A   1      39.603  29.446  29.708  1.00  0.00     0.049 A 
ATOM     48  H   UNL A   1      41.529  29.306  28.927  1.00  0.00     0.167 HD
ATOM     49  C   UNL A   1      45.647  28.728  27.441  1.00  0.00     0.034 A 
ATOM     50  C   UNL A   1      39.502  30.654  30.296  1.00  0.00     0.034 A 
ATOM     51  C   UNL A   1      45.607  30.070  27.962  1.00  0.00     0.049 A 
ATOM     52  C   UNL A   1      40.694  31.576  30.266  1.00  0.00     0.074 A 
ATOM     53  C   UNL A   1      46.602  31.031  27.954  1.00  0.00     0.029 A 
ATOM     54  N   UNL A   1      44.506  30.644  28.589  1.00  0.00    -0.354 N 
ATOM     55  N   UNL A   1      41.891  31.361  29.769  1.00  0.00    -0.248 NA
ATOM     56  C   UNL A   1      40.518  32.904  30.863  1.00  0.00     0.031 C 
ATOM     57  C   UNL A   1      46.121  32.165  28.620  1.00  0.00     0.029 A 
ATOM     58  C   UNL A   1      44.804  31.937  28.988  1.00  0.00     0.049 A 
ATOM     59  H   UNL A   1      43.640  30.196  28.728  1.00  0.00     0.167 HD
ATOM     60  C   UNL A   1      42.602  32.540  29.971  1.00  0.00     0.074 A 
ATOM     61  C   UNL A   1      41.695  33.464  30.623  1.00  0.00     0.031 C 
ATOM     62  C   UNL A   1      43.886  32.836  29.645  1.00  0.00     0.034 A 
BRANCH  49  63
ATOM     63  C   UNL A   1      46.938  28.188  26.871  1.00  0.00     0.023 A 
ATOM     64  C   UNL A   1      47.215  28.243  25.493  1.00  0.00     0.031 A 
ATOM     65  C   UNL A   1      47.872  27.547  27.703  1.00  0.00     0.131 A 
ATOM     66  C   UNL A   1      48.336  27.578  24.976  1.00  0.00     0.055 A 
ATOM     67  C   UNL A   1      49.037  26.969  27.191  1.00  0.00     0.041 A 
ATOM     68  F   UNL A   1      47.656  27.445  29.024  1.00  0.00    -0.206 F 
ATOM     69  C   UNL A   1      49.263  26.963  25.819  1.00  0.00     0.022 A 
BRANCH  66  70
ATOM     70  S   UNL A   1      48.463  27.377  23.177  1.00  0.00     0.124 S 
ATOM     71  O   UNL A   1      48.376  25.924  23.038  1.00  0.00    -0.237 OA
ATOM     72  O   UNL A   1      47.317  28.135  22.692  1.00  0.00    -0.237 OA
ATOM     73  O   UNL A   1      49.771  27.947  22.860  1.00  0.00    -0.744 OA
ENDBRANCH  66  70
ENDBRANCH  49  63
BRANCH  50  74
ATOM     74  C   UNL A   1      38.231  31.071  30.952  1.00  0.00     0.023 A 
ATOM     75  C   UNL A   1      37.231  31.737  30.226  1.00  0.00     0.031 A 
ATOM     76  C   UNL A   1      38.008  30.835  32.320  1.00  0.00     0.131 A 
ATOM     77  C   UNL A   1      36.069  32.179  30.878  1.00  0.00     0.055 A 
ATOM     78  C   UNL A   1      36.833  31.239  32.955  1.00  0.00     0.041 A 
ATOM     79  F   UNL A   1      38.929  30.192  33.056  1.00  0.00    -0.206 F 
ATOM     80  C   UNL A   1      35.858  31.925  32.235  1.00  0.00     0.022 A 
BRANCH  77  81
ATOM     81  S   UNL A   1      34.858  33.147  29.936  1.00  0.00     0.124 S 
ATOM     82  O   UNL A   1      35.715  34.101  29.242  1.00  0.00    -0.237 OA
ATOM     83  O   UNL A   1      34.234  32.122  29.105  1.00  0.00    -0.237 OA
ATOM     84  O   UNL A   1      33.998  33.716  30.972  1.00  0.00    -0.744 OA
ENDBRANCH  77  81
ENDBRANCH  50  74
BRANCH  62  85
ATOM     85  C   UNL A   1      44.360  34.233  29.951  1.00  0.00     0.023 A 
ATOM     86  C   UNL A   1      44.176  35.291  29.044  1.00  0.00     0.031 A 
ATOM     87  C   UNL A   1      45.013  34.506  31.167  1.00  0.00     0.131 A 
ATOM     88  C   UNL A   1      44.684  36.564  29.345  1.00  0.00     0.055 A 
ATOM     89  C   UNL A   1      45.468  35.785  31.483  1.00  0.00     0.041 A 
ATOM     90  F   UNL A   1      45.215  33.531  32.066  1.00  0.00    -0.206 F 
ATOM     91  C   UNL A   1      45.315  36.820  30.565  1.00  0.00     0.022 A 
BRANCH  88  92
ATOM     92  S   UNL A   1      44.581  37.863  28.083  1.00  0.00     0.124 S 
ATOM     93  O   UNL A   1      45.361  37.288  26.992  1.00  0.00    -0.237 OA
ATOM     94  O   UNL A   1      43.143  37.963  27.855  1.00  0.00    -0.237 OA
ATOM     95  O   UNL A   1      45.187  39.022  28.735  1.00  0.00    -0.744 OA
ENDBRANCH  88  92
ENDBRANCH  62  85
ENDBRANCH  36  37
ENDBRANCH  28  31
ENDBRANCH  26  27
ENDBRANCH  25  26
ENDBRANCH   1  25
TORSDOF 18
ENDMDL
