MODEL 1
REMARK VINA RESULT:     -13.1      0.000      0.000
REMARK SMILES Cc1ccc(-c2cc([C@@H](C)C(=O)NCCCCNC(=O)c3ccc(-c4c5nc(c(-c6cc(S(=O)(=O)[O-])ccc6F)c6ccc([nH]6)c(-c6cc(S(=O)(=O)[O-])ccc6F)c6nc(c(-c7cc(S(=O)(=O)[O-])ccc7F)c7ccc4[nH]7)C=C6)C=C5)cc3)ccc2C[C@H]2CCCC2=O)cc1
REMARK SMILES IDX 15 1 14 2 13 3 11 4 12 5 9 7 10 8 8 9 6 10 7 11 86 12 85 13
REMARK SMILES IDX 84 14 5 15 1 16 2 17 3 18 95 19 4 20 94 21 87 22 88 23 89 24
REMARK SMILES IDX 92 25 90 26 91 27 93 28 16 29 17 30 18 31 19 32 20 34 21 35
REMARK SMILES IDX 22 36 83 37 23 38 82 39 24 40 25 41 26 42 76 43 27 44 81 45
REMARK SMILES IDX 75 46 77 47 28 48 80 49 74 50 73 51 29 53 61 54 41 55 60 56
REMARK SMILES IDX 42 57 45 58 59 59 78 60 43 61 44 62 58 64 79 65 46 66 30 67
REMARK SMILES IDX 31 68 39 69 32 70 38 71 40 72 37 73 33 74 34 75 35 76 36 77
REMARK SMILES IDX 62 78 63 79 71 80 64 81 70 82 72 83 69 84 65 85 66 86 67 87
REMARK SMILES IDX 68 88 47 89 48 90 56 91 49 92 55 93 57 94 54 95 50 96 51 97
REMARK SMILES IDX 52 98 53 99
REMARK H PARENT 13 6 18 33 77 52 45 63
REMARK Flexibility Score: inf
ROOT
ATOM      1  C   UNL A   1      37.401  22.011  25.222  1.00  0.00     0.023 C 
ENDROOT
BRANCH   1   2
ATOM      2  C   UNL A   1      35.872  22.116  25.123  1.00  0.00     0.116 C 
BRANCH   2   3
ATOM      3  N   UNL A   1      35.236  21.986  26.427  1.00  0.00    -0.356 N 
ATOM      4  C   UNL A   1      33.933  21.830  26.787  1.00  0.00     0.227 C 
ATOM      5  O   UNL A   1      33.689  21.881  28.002  1.00  0.00    -0.274 OA
ATOM      6  H   UNL A   1      35.863  22.017  27.186  1.00  0.00     0.163 HD
BRANCH   4   7
ATOM      7  C   UNL A   1      32.786  21.587  25.791  1.00  0.00     0.105 C 
ATOM      8  C   UNL A   1      33.071  20.470  24.789  1.00  0.00     0.023 C 
BRANCH   7   9
ATOM      9  C   UNL A   1      32.186  22.866  25.225  1.00  0.00    -0.035 A 
ATOM     10  C   UNL A   1      32.227  25.326  25.082  1.00  0.00    -0.015 A 
ATOM     11  C   UNL A   1      32.687  24.114  25.638  1.00  0.00     0.013 A 
ATOM     12  C   UNL A   1      31.358  25.271  23.966  1.00  0.00    -0.039 A 
ATOM     13  C   UNL A   1      30.791  24.037  23.620  1.00  0.00     0.004 A 
ATOM     14  C   UNL A   1      31.153  22.864  24.287  1.00  0.00     0.005 A 
BRANCH  10  15
ATOM     15  C   UNL A   1      32.544  26.594  25.764  1.00  0.00    -0.018 A 
ATOM     16  C   UNL A   1      33.657  30.330  27.643  1.00  0.00     0.044 C 
ATOM     17  C   UNL A   1      33.245  29.047  26.986  1.00  0.00    -0.051 A 
ATOM     18  C   UNL A   1      34.019  28.535  25.944  1.00  0.00     0.004 A 
ATOM     19  C   UNL A   1      32.110  28.340  27.402  1.00  0.00     0.004 A 
ATOM     20  C   UNL A   1      33.660  27.334  25.334  1.00  0.00     0.009 A 
ATOM     21  C   UNL A   1      31.759  27.126  26.794  1.00  0.00     0.009 A 
ENDBRANCH  10  15
BRANCH  12  22
ATOM     22  C   UNL A   1      31.008  26.484  23.127  1.00  0.00     0.047 C 
BRANCH  22  23
ATOM     23  C   UNL A   1      30.218  27.613  23.810  1.00  0.00     0.060 C 
ATOM     24  C   UNL A   1      30.559  29.063  23.455  1.00  0.00     0.012 C 
ATOM     25  C   UNL A   1      28.744  27.558  23.498  1.00  0.00     0.136 C 
ATOM     26  C   UNL A   1      29.559  29.481  22.385  1.00  0.00     0.009 C 
ATOM     27  C   UNL A   1      28.263  28.774  22.757  1.00  0.00     0.076 C 
ATOM     28  O   UNL A   1      28.007  26.657  23.878  1.00  0.00    -0.299 OA
ENDBRANCH  22  23
ENDBRANCH  12  22
ENDBRANCH   7   9
ENDBRANCH   4   7
ENDBRANCH   2   3
ENDBRANCH   1   2
BRANCH   1  29
ATOM     29  C   UNL A   1      38.068  23.198  25.906  1.00  0.00     0.023 C 
BRANCH  29  30
ATOM     30  C   UNL A   1      39.340  22.821  26.642  1.00  0.00     0.116 C 
BRANCH  30  31
ATOM     31  N   UNL A   1      40.007  21.609  26.181  1.00  0.00    -0.352 N 
ATOM     32  C   UNL A   1      41.379  21.365  26.106  1.00  0.00     0.251 C 
ATOM     33  H   UNL A   1      39.420  20.875  25.888  1.00  0.00     0.163 HD
ATOM     34  O   UNL A   1      41.830  20.352  25.627  1.00  0.00    -0.269 OA
BRANCH  32  35
ATOM     35  C   UNL A   1      42.285  22.354  26.755  1.00  0.00     0.039 A 
ATOM     36  C   UNL A   1      42.507  22.210  28.128  1.00  0.00     0.014 A 
ATOM     37  C   UNL A   1      42.619  23.538  26.106  1.00  0.00     0.014 A 
ATOM     38  C   UNL A   1      42.812  23.339  28.886  1.00  0.00     0.010 A 
ATOM     39  C   UNL A   1      42.784  24.677  26.869  1.00  0.00     0.010 A 
ATOM     40  C   UNL A   1      42.821  24.590  28.265  1.00  0.00    -0.014 A 
BRANCH  40  41
ATOM     41  C   UNL A   1      42.711  25.845  29.008  1.00  0.00     0.031 A 
ATOM     42  C   UNL A   1      41.494  26.679  28.918  1.00  0.00     0.074 A 
ATOM     43  C   UNL A   1      43.727  26.275  29.792  1.00  0.00     0.049 A 
ATOM     44  N   UNL A   1      41.498  27.964  29.048  1.00  0.00    -0.248 NA
ATOM     45  C   UNL A   1      40.171  26.137  28.635  1.00  0.00     0.031 C 
ATOM     46  C   UNL A   1      43.702  27.388  30.740  1.00  0.00     0.029 A 
ATOM     47  N   UNL A   1      45.075  25.940  29.693  1.00  0.00    -0.354 N 
ATOM     48  C   UNL A   1      40.194  28.383  29.138  1.00  0.00     0.074 A 
ATOM     49  C   UNL A   1      39.402  27.215  28.824  1.00  0.00     0.031 C 
ATOM     50  C   UNL A   1      44.956  27.827  30.927  1.00  0.00     0.029 A 
ATOM     51  C   UNL A   1      45.819  27.083  30.032  1.00  0.00     0.049 A 
ATOM     52  H   UNL A   1      45.440  25.064  29.433  1.00  0.00     0.167 HD
ATOM     53  C   UNL A   1      39.912  29.638  29.586  1.00  0.00     0.034 A 
ATOM     54  C   UNL A   1      46.734  27.620  29.176  1.00  0.00     0.034 A 
ATOM     55  C   UNL A   1      41.121  30.387  29.914  1.00  0.00     0.049 A 
ATOM     56  C   UNL A   1      46.437  29.050  28.786  1.00  0.00     0.074 A 
ATOM     57  C   UNL A   1      41.760  30.674  31.109  1.00  0.00     0.029 A 
ATOM     58  N   UNL A   1      42.000  30.749  28.902  1.00  0.00    -0.354 N 
ATOM     59  N   UNL A   1      45.308  29.656  29.029  1.00  0.00    -0.248 NA
ATOM     60  C   UNL A   1      47.376  29.899  28.065  1.00  0.00     0.031 C 
ATOM     61  C   UNL A   1      43.044  31.198  30.807  1.00  0.00     0.029 A 
ATOM     62  C   UNL A   1      43.174  31.251  29.431  1.00  0.00     0.049 A 
ATOM     63  H   UNL A   1      41.814  30.660  27.940  1.00  0.00     0.167 HD
ATOM     64  C   UNL A   1      45.329  30.921  28.489  1.00  0.00     0.074 A 
ATOM     65  C   UNL A   1      46.662  31.031  27.922  1.00  0.00     0.031 C 
ATOM     66  C   UNL A   1      44.231  31.740  28.551  1.00  0.00     0.034 A 
BRANCH  53  67
ATOM     67  C   UNL A   1      38.528  30.087  29.986  1.00  0.00     0.023 A 
ATOM     68  C   UNL A   1      37.973  31.240  29.395  1.00  0.00     0.031 A 
ATOM     69  C   UNL A   1      37.720  29.446  30.943  1.00  0.00     0.131 A 
ATOM     70  C   UNL A   1      36.740  31.763  29.824  1.00  0.00     0.055 A 
ATOM     71  C   UNL A   1      36.523  29.997  31.417  1.00  0.00     0.041 A 
ATOM     72  F   UNL A   1      38.036  28.235  31.427  1.00  0.00    -0.206 F 
ATOM     73  C   UNL A   1      36.032  31.172  30.866  1.00  0.00     0.022 A 
BRANCH  70  74
ATOM     74  S   UNL A   1      36.066  33.225  28.987  1.00  0.00     0.124 S 
ATOM     75  O   UNL A   1      37.129  34.207  29.173  1.00  0.00    -0.237 OA
ATOM     76  O   UNL A   1      35.866  32.739  27.626  1.00  0.00    -0.237 OA
ATOM     77  O   UNL A   1      34.836  33.502  29.729  1.00  0.00    -0.744 OA
ENDBRANCH  70  74
ENDBRANCH  53  67
BRANCH  54  78
ATOM     78  C   UNL A   1      47.412  26.592  28.337  1.00  0.00     0.023 A 
ATOM     79  C   UNL A   1      47.080  26.592  26.963  1.00  0.00     0.031 A 
ATOM     80  C   UNL A   1      48.606  25.974  28.725  1.00  0.00     0.131 A 
ATOM     81  C   UNL A   1      48.020  26.180  26.011  1.00  0.00     0.055 A 
ATOM     82  C   UNL A   1      49.502  25.471  27.772  1.00  0.00     0.041 A 
ATOM     83  F   UNL A   1      48.988  25.972  30.011  1.00  0.00    -0.206 F 
ATOM     84  C   UNL A   1      49.236  25.621  26.408  1.00  0.00     0.022 A 
BRANCH  81  85
ATOM     85  S   UNL A   1      47.771  26.682  24.278  1.00  0.00     0.124 S 
ATOM     86  O   UNL A   1      48.789  27.712  24.111  1.00  0.00    -0.237 OA
ATOM     87  O   UNL A   1      47.992  25.440  23.537  1.00  0.00    -0.237 OA
ATOM     88  O   UNL A   1      46.385  27.141  24.254  1.00  0.00    -0.744 OA
ENDBRANCH  81  85
ENDBRANCH  54  78
BRANCH  66  89
ATOM     89  C   UNL A   1      44.036  33.089  27.869  1.00  0.00     0.023 A 
ATOM     90  C   UNL A   1      44.004  34.319  28.541  1.00  0.00     0.031 A 
ATOM     91  C   UNL A   1      43.914  33.181  26.455  1.00  0.00     0.131 A 
ATOM     92  C   UNL A   1      43.811  35.535  27.852  1.00  0.00     0.055 A 
ATOM     93  C   UNL A   1      43.781  34.392  25.766  1.00  0.00     0.041 A 
ATOM     94  F   UNL A   1      43.929  32.097  25.666  1.00  0.00    -0.206 F 
ATOM     95  C   UNL A   1      43.718  35.582  26.465  1.00  0.00     0.022 A 
BRANCH  92  96
ATOM     96  S   UNL A   1      43.646  37.056  28.824  1.00  0.00     0.124 S 
ATOM     97  O   UNL A   1      44.862  37.779  28.461  1.00  0.00    -0.237 OA
ATOM     98  O   UNL A   1      42.401  37.619  28.312  1.00  0.00    -0.237 OA
ATOM     99  O   UNL A   1      43.593  36.582  30.204  1.00  0.00    -0.744 OA
ENDBRANCH  92  96
ENDBRANCH  66  89
ENDBRANCH  40  41
ENDBRANCH  32  35
ENDBRANCH  30  31
ENDBRANCH  29  30
ENDBRANCH   1  29
TORSDOF 18
ENDMDL
MODEL 2
REMARK VINA RESULT:     -12.0      5.038     13.087
REMARK SMILES Cc1ccc(-c2cc([C@@H](C)C(=O)NCCCCNC(=O)c3ccc(-c4c5nc(c(-c6cc(S(=O)(=O)[O-])ccc6F)c6ccc([nH]6)c(-c6cc(S(=O)(=O)[O-])ccc6F)c6nc(c(-c7cc(S(=O)(=O)[O-])ccc7F)c7ccc4[nH]7)C=C6)C=C5)cc3)ccc2C[C@H]2CCCC2=O)cc1
REMARK SMILES IDX 15 1 14 2 13 3 11 4 12 5 9 7 10 8 8 9 6 10 7 11 86 12 85 13
REMARK SMILES IDX 84 14 5 15 1 16 2 17 3 18 95 19 4 20 94 21 87 22 88 23 89 24
REMARK SMILES IDX 92 25 90 26 91 27 93 28 16 29 17 30 18 31 19 32 20 34 21 35
REMARK SMILES IDX 22 36 83 37 23 38 82 39 24 40 25 41 26 42 76 43 27 44 81 45
REMARK SMILES IDX 75 46 77 47 28 48 80 49 74 50 73 51 29 53 61 54 41 55 60 56
REMARK SMILES IDX 42 57 45 58 59 59 78 60 43 61 44 62 58 64 79 65 46 66 30 67
REMARK SMILES IDX 31 68 39 69 32 70 38 71 40 72 37 73 33 74 34 75 35 76 36 77
REMARK SMILES IDX 62 78 63 79 71 80 64 81 70 82 72 83 69 84 65 85 66 86 67 87
REMARK SMILES IDX 68 88 47 89 48 90 56 91 49 92 55 93 57 94 54 95 50 96 51 97
REMARK SMILES IDX 52 98 53 99
REMARK H PARENT 13 6 18 33 77 52 45 63
REMARK Flexibility Score: inf
ROOT
ATOM      1  C   UNL A   1      39.916  34.697  30.047  1.00  0.00     0.023 C 
ENDROOT
BRANCH   1   2
ATOM      2  C   UNL A   1      40.934  34.993  28.936  1.00  0.00     0.116 C 
BRANCH   2   3
ATOM      3  N   UNL A   1      42.202  34.314  29.171  1.00  0.00    -0.356 N 
ATOM      4  C   UNL A   1      43.405  34.400  28.541  1.00  0.00     0.227 C 
ATOM      5  O   UNL A   1      44.271  33.587  28.896  1.00  0.00    -0.274 OA
ATOM      6  H   UNL A   1      42.185  33.676  29.922  1.00  0.00     0.163 HD
BRANCH   4   7
ATOM      7  C   UNL A   1      43.737  35.437  27.454  1.00  0.00     0.105 C 
ATOM      8  C   UNL A   1      44.966  35.081  26.621  1.00  0.00     0.023 C 
BRANCH   7   9
ATOM      9  C   UNL A   1      43.639  36.878  27.933  1.00  0.00    -0.035 A 
ATOM     10  C   UNL A   1      43.111  39.233  27.429  1.00  0.00    -0.015 A 
ATOM     11  C   UNL A   1      43.300  37.895  27.022  1.00  0.00     0.013 A 
ATOM     12  C   UNL A   1      43.103  39.522  28.814  1.00  0.00    -0.039 A 
ATOM     13  C   UNL A   1      43.531  38.531  29.708  1.00  0.00     0.004 A 
ATOM     14  C   UNL A   1      43.857  37.248  29.260  1.00  0.00     0.005 A 
BRANCH  10  15
ATOM     15  C   UNL A   1      43.077  40.295  26.408  1.00  0.00    -0.018 A 
ATOM     16  C   UNL A   1      42.766  43.360  23.369  1.00  0.00     0.044 C 
ATOM     17  C   UNL A   1      42.883  42.319  24.440  1.00  0.00    -0.051 A 
ATOM     18  C   UNL A   1      41.764  41.556  24.776  1.00  0.00     0.004 A 
ATOM     19  C   UNL A   1      44.093  42.081  25.104  1.00  0.00     0.004 A 
ATOM     20  C   UNL A   1      41.860  40.571  25.757  1.00  0.00     0.009 A 
ATOM     21  C   UNL A   1      44.189  41.081  26.082  1.00  0.00     0.009 A 
ENDBRANCH  10  15
BRANCH  12  22
ATOM     22  C   UNL A   1      42.656  40.856  29.379  1.00  0.00     0.047 C 
BRANCH  22  23
ATOM     23  C   UNL A   1      43.527  41.488  30.476  1.00  0.00     0.060 C 
ATOM     24  C   UNL A   1      43.947  42.953  30.324  1.00  0.00     0.012 C 
ATOM     25  C   UNL A   1      42.846  41.502  31.821  1.00  0.00     0.136 C 
ATOM     26  C   UNL A   1      42.945  43.765  31.136  1.00  0.00     0.009 C 
ATOM     27  C   UNL A   1      42.613  42.893  32.339  1.00  0.00     0.076 C 
ATOM     28  O   UNL A   1      42.583  40.487  32.454  1.00  0.00    -0.299 OA
ENDBRANCH  22  23
ENDBRANCH  12  22
ENDBRANCH   7   9
ENDBRANCH   4   7
ENDBRANCH   2   3
ENDBRANCH   1   2
BRANCH   1  29
ATOM     29  C   UNL A   1      38.649  34.000  29.568  1.00  0.00     0.023 C 
BRANCH  29  30
ATOM     30  C   UNL A   1      38.049  33.077  30.612  1.00  0.00     0.116 C 
BRANCH  30  31
ATOM     31  N   UNL A   1      36.595  32.971  30.609  1.00  0.00    -0.352 N 
ATOM     32  C   UNL A   1      35.814  31.959  30.051  1.00  0.00     0.251 C 
ATOM     33  H   UNL A   1      36.106  33.700  31.055  1.00  0.00     0.163 HD
ATOM     34  O   UNL A   1      34.607  32.011  30.031  1.00  0.00    -0.269 OA
BRANCH  32  35
ATOM     35  C   UNL A   1      36.518  30.733  29.580  1.00  0.00     0.039 A 
ATOM     36  C   UNL A   1      36.936  29.823  30.556  1.00  0.00     0.014 A 
ATOM     37  C   UNL A   1      37.022  30.661  28.286  1.00  0.00     0.014 A 
ATOM     38  C   UNL A   1      38.048  29.022  30.302  1.00  0.00     0.010 A 
ATOM     39  C   UNL A   1      38.202  29.972  28.082  1.00  0.00     0.010 A 
ATOM     40  C   UNL A   1      38.752  29.198  29.109  1.00  0.00    -0.014 A 
BRANCH  40  41
ATOM     41  C   UNL A   1      40.126  28.734  28.923  1.00  0.00     0.031 A 
ATOM     42  C   UNL A   1      40.418  27.310  28.650  1.00  0.00     0.074 A 
ATOM     43  C   UNL A   1      41.164  29.598  29.003  1.00  0.00     0.049 A 
ATOM     44  N   UNL A   1      41.512  26.725  29.008  1.00  0.00    -0.248 NA
ATOM     45  C   UNL A   1      39.483  26.414  27.982  1.00  0.00     0.031 C 
ATOM     46  C   UNL A   1      42.560  29.338  28.652  1.00  0.00     0.029 A 
ATOM     47  N   UNL A   1      41.200  30.821  29.668  1.00  0.00    -0.354 N 
ATOM     48  C   UNL A   1      41.549  25.494  28.403  1.00  0.00     0.074 A 
ATOM     49  C   UNL A   1      40.240  25.325  27.815  1.00  0.00     0.031 C 
ATOM     50  C   UNL A   1      43.342  30.197  29.321  1.00  0.00     0.029 A 
ATOM     51  C   UNL A   1      42.491  30.971  30.202  1.00  0.00     0.049 A 
ATOM     52  H   UNL A   1      40.458  31.462  29.749  1.00  0.00     0.167 HD
ATOM     53  C   UNL A   1      42.717  24.794  28.355  1.00  0.00     0.034 A 
ATOM     54  C   UNL A   1      42.694  31.172  31.535  1.00  0.00     0.034 A 
ATOM     55  C   UNL A   1      43.812  25.511  29.002  1.00  0.00     0.049 A 
ATOM     56  C   UNL A   1      43.540  30.103  32.189  1.00  0.00     0.074 A 
ATOM     57  C   UNL A   1      44.861  26.274  28.515  1.00  0.00     0.029 A 
ATOM     58  N   UNL A   1      43.780  25.717  30.375  1.00  0.00    -0.354 N 
ATOM     59  N   UNL A   1      43.856  28.970  31.624  1.00  0.00    -0.248 NA
ATOM     60  C   UNL A   1      44.071  30.212  33.542  1.00  0.00     0.031 C 
ATOM     61  C   UNL A   1      45.453  26.957  29.609  1.00  0.00     0.029 A 
ATOM     62  C   UNL A   1      44.779  26.592  30.760  1.00  0.00     0.049 A 
ATOM     63  H   UNL A   1      43.136  25.299  30.989  1.00  0.00     0.167 HD
ATOM     64  C   UNL A   1      44.573  28.192  32.503  1.00  0.00     0.074 A 
ATOM     65  C   UNL A   1      44.704  29.033  33.680  1.00  0.00     0.031 C 
ATOM     66  C   UNL A   1      44.968  26.922  32.169  1.00  0.00     0.034 A 
BRANCH  53  67
ATOM     67  C   UNL A   1      42.926  23.584  27.479  1.00  0.00     0.023 A 
ATOM     68  C   UNL A   1      43.883  23.631  26.444  1.00  0.00     0.031 A 
ATOM     69  C   UNL A   1      42.214  22.375  27.594  1.00  0.00     0.131 A 
ATOM     70  C   UNL A   1      44.025  22.573  25.528  1.00  0.00     0.055 A 
ATOM     71  C   UNL A   1      42.309  21.346  26.648  1.00  0.00     0.041 A 
ATOM     72  F   UNL A   1      41.430  22.124  28.653  1.00  0.00    -0.206 F 
ATOM     73  C   UNL A   1      43.211  21.447  25.598  1.00  0.00     0.022 A 
BRANCH  70  74
ATOM     74  S   UNL A   1      45.308  22.684  24.249  1.00  0.00     0.124 S 
ATOM     75  O   UNL A   1      44.593  22.243  23.055  1.00  0.00    -0.237 OA
ATOM     76  O   UNL A   1      45.674  24.095  24.299  1.00  0.00    -0.237 OA
ATOM     77  O   UNL A   1      46.339  21.762  24.724  1.00  0.00    -0.744 OA
ENDBRANCH  70  74
ENDBRANCH  53  67
BRANCH  54  78
ATOM     78  C   UNL A   1      41.598  31.952  32.175  1.00  0.00     0.023 A 
ATOM     79  C   UNL A   1      40.537  31.200  32.727  1.00  0.00     0.031 A 
ATOM     80  C   UNL A   1      41.775  33.267  32.623  1.00  0.00     0.131 A 
ATOM     81  C   UNL A   1      39.832  31.684  33.835  1.00  0.00     0.055 A 
ATOM     82  C   UNL A   1      40.999  33.784  33.668  1.00  0.00     0.041 A 
ATOM     83  F   UNL A   1      42.786  34.017  32.159  1.00  0.00    -0.206 F 
ATOM     84  C   UNL A   1      40.059  32.975  34.314  1.00  0.00     0.022 A 
BRANCH  81  85
ATOM     85  S   UNL A   1      38.866  30.501  34.828  1.00  0.00     0.124 S 
ATOM     86  O   UNL A   1      38.649  29.415  33.881  1.00  0.00    -0.237 OA
ATOM     87  O   UNL A   1      39.758  30.202  35.948  1.00  0.00    -0.237 OA
ATOM     88  O   UNL A   1      37.682  31.265  35.208  1.00  0.00    -0.744 OA
ENDBRANCH  81  85
ENDBRANCH  54  78
BRANCH  66  89
ATOM     89  C   UNL A   1      45.618  25.881  33.074  1.00  0.00     0.023 A 
ATOM     90  C   UNL A   1      44.909  24.962  33.860  1.00  0.00     0.031 A 
ATOM     91  C   UNL A   1      47.032  25.753  33.139  1.00  0.00     0.131 A 
ATOM     92  C   UNL A   1      45.570  24.027  34.684  1.00  0.00     0.055 A 
ATOM     93  C   UNL A   1      47.688  24.787  33.911  1.00  0.00     0.041 A 
ATOM     94  F   UNL A   1      47.854  26.553  32.445  1.00  0.00    -0.206 F 
ATOM     95  C   UNL A   1      46.956  23.920  34.701  1.00  0.00     0.022 A 
BRANCH  92  96
ATOM     96  S   UNL A   1      44.566  22.976  35.766  1.00  0.00     0.124 S 
ATOM     97  O   UNL A   1      45.157  23.241  37.076  1.00  0.00    -0.237 OA
ATOM     98  O   UNL A   1      43.224  23.508  35.561  1.00  0.00    -0.237 OA
ATOM     99  O   UNL A   1      44.788  21.629  35.246  1.00  0.00    -0.744 OA
ENDBRANCH  92  96
ENDBRANCH  66  89
ENDBRANCH  40  41
ENDBRANCH  32  35
ENDBRANCH  30  31
ENDBRANCH  29  30
ENDBRANCH   1  29
TORSDOF 18
ENDMDL
MODEL 3
REMARK VINA RESULT:     -12.0      4.077      9.638
REMARK SMILES Cc1ccc(-c2cc([C@@H](C)C(=O)NCCCCNC(=O)c3ccc(-c4c5nc(c(-c6cc(S(=O)(=O)[O-])ccc6F)c6ccc([nH]6)c(-c6cc(S(=O)(=O)[O-])ccc6F)c6nc(c(-c7cc(S(=O)(=O)[O-])ccc7F)c7ccc4[nH]7)C=C6)C=C5)cc3)ccc2C[C@H]2CCCC2=O)cc1
REMARK SMILES IDX 15 1 14 2 13 3 11 4 12 5 9 7 10 8 8 9 6 10 7 11 86 12 85 13
REMARK SMILES IDX 84 14 5 15 1 16 2 17 3 18 95 19 4 20 94 21 87 22 88 23 89 24
REMARK SMILES IDX 92 25 90 26 91 27 93 28 16 29 17 30 18 31 19 32 20 34 21 35
REMARK SMILES IDX 22 36 83 37 23 38 82 39 24 40 25 41 26 42 76 43 27 44 81 45
REMARK SMILES IDX 75 46 77 47 28 48 80 49 74 50 73 51 29 53 61 54 41 55 60 56
REMARK SMILES IDX 42 57 45 58 59 59 78 60 43 61 44 62 58 64 79 65 46 66 30 67
REMARK SMILES IDX 31 68 39 69 32 70 38 71 40 72 37 73 33 74 34 75 35 76 36 77
REMARK SMILES IDX 62 78 63 79 71 80 64 81 70 82 72 83 69 84 65 85 66 86 67 87
REMARK SMILES IDX 68 88 47 89 48 90 56 91 49 92 55 93 57 94 54 95 50 96 51 97
REMARK SMILES IDX 52 98 53 99
REMARK H PARENT 13 6 18 33 77 52 45 63
REMARK Flexibility Score: inf
ROOT
ATOM      1  C   UNL A   1      33.919  33.638  27.714  1.00  0.00     0.023 C 
ENDROOT
BRANCH   1   2
ATOM      2  C   UNL A   1      33.611  32.170  28.041  1.00  0.00     0.116 C 
BRANCH   2   3
ATOM      3  N   UNL A   1      32.690  31.584  27.075  1.00  0.00    -0.356 N 
ATOM      4  C   UNL A   1      32.595  30.327  26.563  1.00  0.00     0.227 C 
ATOM      5  O   UNL A   1      31.775  30.167  25.647  1.00  0.00    -0.274 OA
ATOM      6  H   UNL A   1      32.015  32.213  26.729  1.00  0.00     0.163 HD
BRANCH   4   7
ATOM      7  C   UNL A   1      33.420  29.127  27.062  1.00  0.00     0.105 C 
ATOM      8  C   UNL A   1      34.929  29.324  26.934  1.00  0.00     0.023 C 
BRANCH   7   9
ATOM      9  C   UNL A   1      32.873  27.780  26.613  1.00  0.00    -0.035 A 
ATOM     10  C   UNL A   1      33.271  25.387  26.175  1.00  0.00    -0.015 A 
ATOM     11  C   UNL A   1      33.739  26.677  26.504  1.00  0.00     0.013 A 
ATOM     12  C   UNL A   1      31.874  25.171  26.115  1.00  0.00    -0.039 A 
ATOM     13  C   UNL A   1      31.023  26.284  26.132  1.00  0.00     0.004 A 
ATOM     14  C   UNL A   1      31.526  27.575  26.312  1.00  0.00     0.005 A 
BRANCH  10  15
ATOM     15  C   UNL A   1      34.240  24.356  25.764  1.00  0.00    -0.018 A 
ATOM     16  C   UNL A   1      37.138  21.453  24.383  1.00  0.00     0.044 C 
ATOM     17  C   UNL A   1      36.147  22.458  24.887  1.00  0.00    -0.051 A 
ATOM     18  C   UNL A   1      35.990  23.664  24.203  1.00  0.00     0.004 A 
ATOM     19  C   UNL A   1      35.363  22.212  26.021  1.00  0.00     0.004 A 
ATOM     20  C   UNL A   1      35.061  24.603  24.648  1.00  0.00     0.009 A 
ATOM     21  C   UNL A   1      34.421  23.154  26.459  1.00  0.00     0.009 A 
ENDBRANCH  10  15
BRANCH  12  22
ATOM     22  C   UNL A   1      31.252  23.790  26.032  1.00  0.00     0.047 C 
BRANCH  22  23
ATOM     23  C   UNL A   1      30.869  23.269  24.638  1.00  0.00     0.060 C 
ATOM     24  C   UNL A   1      30.870  24.252  23.463  1.00  0.00     0.012 C 
ATOM     25  C   UNL A   1      31.808  22.198  24.143  1.00  0.00     0.136 C 
ATOM     26  C   UNL A   1      32.219  24.086  22.775  1.00  0.00     0.009 C 
ATOM     27  C   UNL A   1      32.544  22.603  22.897  1.00  0.00     0.076 C 
ATOM     28  O   UNL A   1      31.900  21.091  24.658  1.00  0.00    -0.299 OA
ENDBRANCH  22  23
ENDBRANCH  12  22
ENDBRANCH   7   9
ENDBRANCH   4   7
ENDBRANCH   2   3
ENDBRANCH   1   2
BRANCH   1  29
ATOM     29  C   UNL A   1      33.713  34.597  28.880  1.00  0.00     0.023 C 
BRANCH  29  30
ATOM     30  C   UNL A   1      33.876  33.930  30.233  1.00  0.00     0.116 C 
BRANCH  30  31
ATOM     31  N   UNL A   1      34.772  34.599  31.169  1.00  0.00    -0.352 N 
ATOM     32  C   UNL A   1      36.032  34.176  31.595  1.00  0.00     0.251 C 
ATOM     33  H   UNL A   1      34.450  35.450  31.544  1.00  0.00     0.163 HD
ATOM     34  O   UNL A   1      36.659  34.767  32.443  1.00  0.00    -0.269 OA
BRANCH  32  35
ATOM     35  C   UNL A   1      36.646  33.024  30.876  1.00  0.00     0.039 A 
ATOM     36  C   UNL A   1      36.969  31.897  31.638  1.00  0.00     0.014 A 
ATOM     37  C   UNL A   1      37.171  33.188  29.599  1.00  0.00     0.014 A 
ATOM     38  C   UNL A   1      38.019  31.079  31.223  1.00  0.00     0.010 A 
ATOM     39  C   UNL A   1      38.296  32.463  29.258  1.00  0.00     0.010 A 
ATOM     40  C   UNL A   1      38.760  31.446  30.098  1.00  0.00    -0.014 A 
BRANCH  40  41
ATOM     41  C   UNL A   1      40.097  30.920  29.823  1.00  0.00     0.031 A 
ATOM     42  C   UNL A   1      40.280  29.581  29.223  1.00  0.00     0.074 A 
ATOM     43  C   UNL A   1      41.199  31.647  30.118  1.00  0.00     0.049 A 
ATOM     44  N   UNL A   1      41.309  28.835  29.444  1.00  0.00    -0.248 NA
ATOM     45  C   UNL A   1      39.295  28.954  28.350  1.00  0.00     0.031 C 
ATOM     46  C   UNL A   1      42.579  31.356  29.732  1.00  0.00     0.029 A 
ATOM     47  N   UNL A   1      41.315  32.671  31.055  1.00  0.00    -0.354 N 
ATOM     48  C   UNL A   1      41.264  27.782  28.564  1.00  0.00     0.074 A 
ATOM     49  C   UNL A   1      39.965  27.872  27.938  1.00  0.00     0.031 C 
ATOM     50  C   UNL A   1      43.408  31.961  30.595  1.00  0.00     0.029 A 
ATOM     51  C   UNL A   1      42.596  32.577  31.625  1.00  0.00     0.049 A 
ATOM     52  H   UNL A   1      40.625  33.337  31.278  1.00  0.00     0.167 HD
ATOM     53  C   UNL A   1      42.372  27.015  28.365  1.00  0.00     0.034 A 
ATOM     54  C   UNL A   1      42.772  32.438  32.970  1.00  0.00     0.034 A 
ATOM     55  C   UNL A   1      43.500  27.460  29.176  1.00  0.00     0.049 A 
ATOM     56  C   UNL A   1      43.505  31.176  33.360  1.00  0.00     0.074 A 
ATOM     57  C   UNL A   1      44.624  28.221  28.897  1.00  0.00     0.029 A 
ATOM     58  N   UNL A   1      43.442  27.338  30.558  1.00  0.00    -0.354 N 
ATOM     59  N   UNL A   1      43.745  30.185  32.546  1.00  0.00    -0.248 NA
ATOM     60  C   UNL A   1      44.000  30.916  34.706  1.00  0.00     0.031 C 
ATOM     61  C   UNL A   1      45.235  28.572  30.129  1.00  0.00     0.029 A 
ATOM     62  C   UNL A   1      44.497  28.006  31.152  1.00  0.00     0.049 A 
ATOM     63  H   UNL A   1      42.746  26.845  31.048  1.00  0.00     0.167 HD
ATOM     64  C   UNL A   1      44.368  29.162  33.223  1.00  0.00     0.074 A 
ATOM     65  C   UNL A   1      44.529  29.687  34.567  1.00  0.00     0.031 C 
ATOM     66  C   UNL A   1      44.666  27.977  32.601  1.00  0.00     0.034 A 
BRANCH  53  67
ATOM     67  C   UNL A   1      42.508  26.032  27.228  1.00  0.00     0.023 A 
ATOM     68  C   UNL A   1      42.072  24.702  27.402  1.00  0.00     0.031 A 
ATOM     69  C   UNL A   1      43.068  26.328  25.972  1.00  0.00     0.131 A 
ATOM     70  C   UNL A   1      42.290  23.724  26.416  1.00  0.00     0.055 A 
ATOM     71  C   UNL A   1      43.343  25.344  25.013  1.00  0.00     0.041 A 
ATOM     72  F   UNL A   1      43.331  27.590  25.603  1.00  0.00    -0.206 F 
ATOM     73  C   UNL A   1      42.965  24.028  25.238  1.00  0.00     0.022 A 
BRANCH  70  74
ATOM     74  S   UNL A   1      41.662  22.043  26.690  1.00  0.00     0.124 S 
ATOM     75  O   UNL A   1      42.154  21.333  25.514  1.00  0.00    -0.237 OA
ATOM     76  O   UNL A   1      42.275  21.687  27.965  1.00  0.00    -0.237 OA
ATOM     77  O   UNL A   1      40.211  22.228  26.734  1.00  0.00    -0.744 OA
ENDBRANCH  70  74
ENDBRANCH  53  67
BRANCH  54  78
ATOM     78  C   UNL A   1      41.724  33.139  33.764  1.00  0.00     0.023 A 
ATOM     79  C   UNL A   1      40.505  32.446  33.937  1.00  0.00     0.031 A 
ATOM     80  C   UNL A   1      42.025  34.172  34.659  1.00  0.00     0.131 A 
ATOM     81  C   UNL A   1      39.738  32.645  35.091  1.00  0.00     0.055 A 
ATOM     82  C   UNL A   1      41.202  34.437  35.761  1.00  0.00     0.041 A 
ATOM     83  F   UNL A   1      43.183  34.843  34.564  1.00  0.00    -0.206 F 
ATOM     84  C   UNL A   1      40.082  33.637  36.011  1.00  0.00     0.022 A 
BRANCH  81  85
ATOM     85  S   UNL A   1      38.495  31.388  35.530  1.00  0.00     0.124 S 
ATOM     86  O   UNL A   1      38.893  30.262  34.695  1.00  0.00    -0.237 OA
ATOM     87  O   UNL A   1      38.692  31.215  36.970  1.00  0.00    -0.237 OA
ATOM     88  O   UNL A   1      37.230  32.027  35.183  1.00  0.00    -0.744 OA
ENDBRANCH  81  85
ENDBRANCH  54  78
BRANCH  66  89
ATOM     89  C   UNL A   1      45.199  26.699  33.240  1.00  0.00     0.023 A 
ATOM     90  C   UNL A   1      44.402  25.749  33.893  1.00  0.00     0.031 A 
ATOM     91  C   UNL A   1      46.580  26.369  33.168  1.00  0.00     0.131 A 
ATOM     92  C   UNL A   1      44.958  24.588  34.472  1.00  0.00     0.055 A 
ATOM     93  C   UNL A   1      47.123  25.189  33.691  1.00  0.00     0.041 A 
ATOM     94  F   UNL A   1      47.475  27.170  32.573  1.00  0.00    -0.206 F 
ATOM     95  C   UNL A   1      46.312  24.292  34.359  1.00  0.00     0.022 A 
BRANCH  92  96
ATOM     96  S   UNL A   1      43.865  23.491  35.413  1.00  0.00     0.124 S 
ATOM     97  O   UNL A   1      44.086  22.207  34.753  1.00  0.00    -0.237 OA
ATOM     98  O   UNL A   1      44.399  23.605  36.766  1.00  0.00    -0.237 OA
ATOM     99  O   UNL A   1      42.538  24.070  35.218  1.00  0.00    -0.744 OA
ENDBRANCH  92  96
ENDBRANCH  66  89
ENDBRANCH  40  41
ENDBRANCH  32  35
ENDBRANCH  30  31
ENDBRANCH  29  30
ENDBRANCH   1  29
TORSDOF 18
ENDMDL
