MODEL 1
REMARK VINA RESULT:     -12.5      0.000      0.000
REMARK SMILES Cc1nc(SCc2ccccc2)[nH]c(=O)c1CCC(=O)NCCCCNC(=O)c1ccc(-c2c3nc(c(-c4cc(S(=O)(=O)[O-])ccc4F)c4ccc([nH]4)c(-c4cc(S(=O)(=O)[O-])ccc4F)c4nc(c(-c5cc(S(=O)(=O)[O-])ccc5F)c5ccc2[nH]5)C=C4)C=C3)cc1
REMARK SMILES IDX 22 1 21 2 19 3 20 4 18 6 17 7 16 8 1 9 2 10 3 11 4 12 14 13
REMARK SMILES IDX 13 14 15 15 5 17 6 18 7 19 8 20 12 21 9 22 11 23 10 24 23 25
REMARK SMILES IDX 24 26 25 27 26 28 27 29 28 31 29 32 30 33 91 34 31 35 90 36
REMARK SMILES IDX 32 37 33 38 34 39 84 40 35 41 89 42 83 43 85 44 36 45 88 46
REMARK SMILES IDX 82 47 81 48 37 50 69 51 49 52 68 53 50 54 53 55 67 56 86 57
REMARK SMILES IDX 51 58 52 59 66 61 87 62 54 63 38 64 39 65 47 66 40 67 46 68
REMARK SMILES IDX 48 69 45 70 41 71 42 72 43 73 44 74 70 75 71 76 79 77 72 78
REMARK SMILES IDX 78 79 80 80 77 81 73 82 74 83 75 84 76 85 55 86 56 87 64 88
REMARK SMILES IDX 57 89 63 90 65 91 62 92 58 93 59 94 60 95 61 96
REMARK H PARENT 21 5 13 16 26 30 85 49 53 60
REMARK Flexibility Score: inf
ROOT
ATOM      1  C   UNL A   1      30.460  28.687  23.729  1.00  0.00     0.116 C 
ENDROOT
BRANCH   1   2
ATOM      2  N   UNL A   1      30.944  27.521  23.008  1.00  0.00    -0.356 N 
ATOM      3  C   UNL A   1      30.826  26.189  23.252  1.00  0.00     0.220 C 
ATOM      4  O   UNL A   1      31.429  25.405  22.516  1.00  0.00    -0.275 OA
ATOM      5  H   UNL A   1      31.450  27.736  22.193  1.00  0.00     0.163 HD
BRANCH   3   6
ATOM      6  C   UNL A   1      29.932  25.664  24.357  1.00  0.00     0.105 C 
BRANCH   6   7
ATOM      7  C   UNL A   1      30.483  25.935  25.771  1.00  0.00     0.053 C 
BRANCH   7   8
ATOM      8  C   UNL A   1      31.452  24.865  26.207  1.00  0.00     0.039 A 
ATOM      9  C   UNL A   1      33.570  26.093  25.705  1.00  0.00     0.067 C 
ATOM     10  C   UNL A   1      32.801  24.871  26.129  1.00  0.00     0.049 A 
ATOM     11  N   UNL A   1      33.578  23.728  26.258  1.00  0.00    -0.229 NA
ATOM     12  C   UNL A   1      32.950  22.616  26.423  1.00  0.00     0.168 A 
ATOM     13  C   UNL A   1      30.858  23.648  26.791  1.00  0.00     0.254 A 
ATOM     14  N   UNL A   1      31.635  22.543  26.733  1.00  0.00    -0.301 N 
ATOM     15  O   UNL A   1      29.716  23.637  27.250  1.00  0.00    -0.269 OA
ATOM     16  H   UNL A   1      31.234  21.664  26.921  1.00  0.00     0.172 HD
BRANCH  12  17
ATOM     17  S   UNL A   1      33.586  21.025  26.226  1.00  0.00    -0.083 SA
BRANCH  17  18
ATOM     18  C   UNL A   1      32.435  20.138  25.177  1.00  0.00     0.113 C 
BRANCH  18  19
ATOM     19  C   UNL A   1      32.684  18.709  24.728  1.00  0.00    -0.038 A 
ATOM     20  C   UNL A   1      32.769  17.713  25.720  1.00  0.00     0.004 A 
ATOM     21  C   UNL A   1      33.025  18.338  23.423  1.00  0.00     0.004 A 
ATOM     22  C   UNL A   1      33.239  16.428  25.425  1.00  0.00     0.000 A 
ATOM     23  C   UNL A   1      33.518  17.063  23.128  1.00  0.00     0.000 A 
ATOM     24  C   UNL A   1      33.640  16.112  24.132  1.00  0.00     0.000 A 
ENDBRANCH  18  19
ENDBRANCH  17  18
ENDBRANCH  12  17
ENDBRANCH   7   8
ENDBRANCH   6   7
ENDBRANCH   3   6
ENDBRANCH   1   2
BRANCH   1  25
ATOM     25  C   UNL A   1      31.601  29.353  24.502  1.00  0.00     0.023 C 
BRANCH  25  26
ATOM     26  C   UNL A   1      31.241  30.523  25.398  1.00  0.00     0.023 C 
BRANCH  26  27
ATOM     27  C   UNL A   1      32.178  30.802  26.559  1.00  0.00     0.116 C 
BRANCH  27  28
ATOM     28  N   UNL A   1      32.157  32.160  27.090  1.00  0.00    -0.352 N 
ATOM     29  C   UNL A   1      33.194  32.885  27.655  1.00  0.00     0.251 C 
ATOM     30  H   UNL A   1      31.290  32.625  27.040  1.00  0.00     0.163 HD
ATOM     31  O   UNL A   1      33.018  34.034  28.040  1.00  0.00    -0.269 OA
BRANCH  29  32
ATOM     32  C   UNL A   1      34.502  32.221  27.857  1.00  0.00     0.039 A 
ATOM     33  C   UNL A   1      35.653  33.002  27.973  1.00  0.00     0.014 A 
ATOM     34  C   UNL A   1      34.556  30.854  28.112  1.00  0.00     0.014 A 
ATOM     35  C   UNL A   1      36.816  32.435  28.501  1.00  0.00     0.010 A 
ATOM     36  C   UNL A   1      35.653  30.340  28.788  1.00  0.00     0.010 A 
ATOM     37  C   UNL A   1      36.801  31.122  29.000  1.00  0.00    -0.014 A 
BRANCH  37  38
ATOM     38  C   UNL A   1      37.957  30.535  29.740  1.00  0.00     0.031 A 
ATOM     39  C   UNL A   1      38.206  30.945  31.170  1.00  0.00     0.074 A 
ATOM     40  C   UNL A   1      38.832  29.720  29.112  1.00  0.00     0.049 A 
ATOM     41  N   UNL A   1      39.229  30.683  31.945  1.00  0.00    -0.248 NA
ATOM     42  C   UNL A   1      37.195  31.815  31.795  1.00  0.00     0.031 C 
ATOM     43  C   UNL A   1      38.752  29.299  27.710  1.00  0.00     0.029 A 
ATOM     44  N   UNL A   1      39.972  29.101  29.569  1.00  0.00    -0.354 N 
ATOM     45  C   UNL A   1      38.996  31.383  33.124  1.00  0.00     0.074 A 
ATOM     46  C   UNL A   1      37.790  32.154  32.926  1.00  0.00     0.031 C 
ATOM     47  C   UNL A   1      39.766  28.460  27.438  1.00  0.00     0.029 A 
ATOM     48  C   UNL A   1      40.606  28.326  28.622  1.00  0.00     0.049 A 
ATOM     49  H   UNL A   1      40.306  29.204  30.489  1.00  0.00     0.167 HD
ATOM     50  C   UNL A   1      39.695  31.353  34.285  1.00  0.00     0.034 A 
ATOM     51  C   UNL A   1      41.739  27.597  28.696  1.00  0.00     0.034 A 
ATOM     52  C   UNL A   1      40.867  30.542  34.486  1.00  0.00     0.049 A 
ATOM     53  C   UNL A   1      42.498  27.571  30.001  1.00  0.00     0.074 A 
ATOM     54  C   UNL A   1      41.619  30.385  35.637  1.00  0.00     0.029 A 
ATOM     55  N   UNL A   1      41.455  29.742  33.514  1.00  0.00    -0.354 N 
ATOM     56  N   UNL A   1      42.233  28.201  31.124  1.00  0.00    -0.248 NA
ATOM     57  C   UNL A   1      43.701  26.728  30.055  1.00  0.00     0.031 C 
ATOM     58  C   UNL A   1      42.695  29.540  35.345  1.00  0.00     0.029 A 
ATOM     59  C   UNL A   1      42.571  29.107  34.034  1.00  0.00     0.049 A 
ATOM     60  H   UNL A   1      41.127  29.643  32.591  1.00  0.00     0.167 HD
ATOM     61  C   UNL A   1      43.217  27.800  32.024  1.00  0.00     0.074 A 
ATOM     62  C   UNL A   1      44.068  26.863  31.320  1.00  0.00     0.031 C 
ATOM     63  C   UNL A   1      43.404  28.172  33.316  1.00  0.00     0.034 A 
BRANCH  50  64
ATOM     64  C   UNL A   1      39.201  32.224  35.417  1.00  0.00     0.023 A 
ATOM     65  C   UNL A   1      39.622  33.559  35.556  1.00  0.00     0.031 A 
ATOM     66  C   UNL A   1      38.327  31.709  36.389  1.00  0.00     0.131 A 
ATOM     67  C   UNL A   1      39.245  34.301  36.684  1.00  0.00     0.055 A 
ATOM     68  C   UNL A   1      37.878  32.484  37.461  1.00  0.00     0.041 A 
ATOM     69  F   UNL A   1      37.905  30.436  36.323  1.00  0.00    -0.206 F 
ATOM     70  C   UNL A   1      38.352  33.783  37.624  1.00  0.00     0.022 A 
BRANCH  67  71
ATOM     71  S   UNL A   1      40.060  35.893  36.983  1.00  0.00     0.124 S 
ATOM     72  O   UNL A   1      39.395  36.338  38.206  1.00  0.00    -0.237 OA
ATOM     73  O   UNL A   1      41.460  35.510  37.123  1.00  0.00    -0.237 OA
ATOM     74  O   UNL A   1      39.741  36.672  35.789  1.00  0.00    -0.744 OA
ENDBRANCH  67  71
ENDBRANCH  50  64
BRANCH  51  75
ATOM     75  C   UNL A   1      42.242  26.834  27.512  1.00  0.00     0.023 A 
ATOM     76  C   UNL A   1      41.922  25.477  27.335  1.00  0.00     0.031 A 
ATOM     77  C   UNL A   1      43.104  27.430  26.574  1.00  0.00     0.131 A 
ATOM     78  C   UNL A   1      42.503  24.748  26.284  1.00  0.00     0.055 A 
ATOM     79  C   UNL A   1      43.631  26.717  25.495  1.00  0.00     0.041 A 
ATOM     80  F   UNL A   1      43.444  28.724  26.690  1.00  0.00    -0.206 F 
ATOM     81  C   UNL A   1      43.346  25.363  25.356  1.00  0.00     0.022 A 
BRANCH  78  82
ATOM     82  S   UNL A   1      42.231  22.955  26.214  1.00  0.00     0.124 S 
ATOM     83  O   UNL A   1      42.731  22.631  24.883  1.00  0.00    -0.237 OA
ATOM     84  O   UNL A   1      43.037  22.483  27.335  1.00  0.00    -0.237 OA
ATOM     85  O   UNL A   1      40.785  22.824  26.388  1.00  0.00    -0.744 OA
ENDBRANCH  78  82
ENDBRANCH  51  75
BRANCH  63  86
ATOM     86  C   UNL A   1      44.538  27.517  34.064  1.00  0.00     0.023 A 
ATOM     87  C   UNL A   1      44.335  26.397  34.887  1.00  0.00     0.031 A 
ATOM     88  C   UNL A   1      45.845  28.026  33.948  1.00  0.00     0.131 A 
ATOM     89  C   UNL A   1      45.410  25.854  35.606  1.00  0.00     0.055 A 
ATOM     90  C   UNL A   1      46.922  27.443  34.615  1.00  0.00     0.041 A 
ATOM     91  F   UNL A   1      46.097  29.096  33.177  1.00  0.00    -0.206 F 
ATOM     92  C   UNL A   1      46.706  26.358  35.460  1.00  0.00     0.022 A 
BRANCH  89  93
ATOM     93  S   UNL A   1      45.077  24.539  36.808  1.00  0.00     0.124 S 
ATOM     94  O   UNL A   1      43.727  24.870  37.253  1.00  0.00    -0.237 OA
ATOM     95  O   UNL A   1      45.202  23.334  35.995  1.00  0.00    -0.237 OA
ATOM     96  O   UNL A   1      46.123  24.720  37.813  1.00  0.00    -0.744 OA
ENDBRANCH  89  93
ENDBRANCH  63  86
ENDBRANCH  37  38
ENDBRANCH  29  32
ENDBRANCH  27  28
ENDBRANCH  26  27
ENDBRANCH  25  26
ENDBRANCH   1  25
TORSDOF 19
ENDMDL
MODEL 2
REMARK VINA RESULT:     -12.1      1.966      2.268
REMARK SMILES Cc1nc(SCc2ccccc2)[nH]c(=O)c1CCC(=O)NCCCCNC(=O)c1ccc(-c2c3nc(c(-c4cc(S(=O)(=O)[O-])ccc4F)c4ccc([nH]4)c(-c4cc(S(=O)(=O)[O-])ccc4F)c4nc(c(-c5cc(S(=O)(=O)[O-])ccc5F)c5ccc2[nH]5)C=C4)C=C3)cc1
REMARK SMILES IDX 22 1 21 2 19 3 20 4 18 6 17 7 16 8 1 9 2 10 3 11 4 12 14 13
REMARK SMILES IDX 13 14 15 15 5 17 6 18 7 19 8 20 12 21 9 22 11 23 10 24 23 25
REMARK SMILES IDX 24 26 25 27 26 28 27 29 28 31 29 32 30 33 91 34 31 35 90 36
REMARK SMILES IDX 32 37 33 38 34 39 84 40 35 41 89 42 83 43 85 44 36 45 88 46
REMARK SMILES IDX 82 47 81 48 37 50 69 51 49 52 68 53 50 54 53 55 67 56 86 57
REMARK SMILES IDX 51 58 52 59 66 61 87 62 54 63 38 64 39 65 47 66 40 67 46 68
REMARK SMILES IDX 48 69 45 70 41 71 42 72 43 73 44 74 70 75 71 76 79 77 72 78
REMARK SMILES IDX 78 79 80 80 77 81 73 82 74 83 75 84 76 85 55 86 56 87 64 88
REMARK SMILES IDX 57 89 63 90 65 91 62 92 58 93 59 94 60 95 61 96
REMARK H PARENT 21 5 13 16 26 30 85 49 53 60
REMARK Flexibility Score: inf
ROOT
ATOM      1  C   UNL A   1      30.624  28.488  23.556  1.00  0.00     0.116 C 
ENDROOT
BRANCH   1   2
ATOM      2  N   UNL A   1      31.181  27.384  22.791  1.00  0.00    -0.356 N 
ATOM      3  C   UNL A   1      31.123  26.038  22.966  1.00  0.00     0.220 C 
ATOM      4  O   UNL A   1      31.780  25.322  22.207  1.00  0.00    -0.275 OA
ATOM      5  H   UNL A   1      31.693  27.664  21.999  1.00  0.00     0.163 HD
BRANCH   3   6
ATOM      6  C   UNL A   1      30.232  25.416  24.022  1.00  0.00     0.105 C 
BRANCH   6   7
ATOM      7  C   UNL A   1      30.562  25.883  25.454  1.00  0.00     0.053 C 
BRANCH   7   8
ATOM      8  C   UNL A   1      31.576  24.983  26.115  1.00  0.00     0.039 A 
ATOM      9  C   UNL A   1      33.624  26.298  25.547  1.00  0.00     0.067 C 
ATOM     10  C   UNL A   1      32.922  25.095  26.117  1.00  0.00     0.049 A 
ATOM     11  N   UNL A   1      33.774  24.059  26.476  1.00  0.00    -0.229 NA
ATOM     12  C   UNL A   1      33.222  22.936  26.781  1.00  0.00     0.168 A 
ATOM     13  C   UNL A   1      31.036  23.825  26.852  1.00  0.00     0.254 A 
ATOM     14  N   UNL A   1      31.898  22.797  27.020  1.00  0.00    -0.301 N 
ATOM     15  O   UNL A   1      29.868  23.786  27.237  1.00  0.00    -0.269 OA
ATOM     16  H   UNL A   1      31.553  21.927  27.323  1.00  0.00     0.172 HD
BRANCH  12  17
ATOM     17  S   UNL A   1      33.992  21.396  26.883  1.00  0.00    -0.083 SA
BRANCH  17  18
ATOM     18  C   UNL A   1      34.383  20.904  25.205  1.00  0.00     0.113 C 
BRANCH  18  19
ATOM     19  C   UNL A   1      33.861  19.616  24.595  1.00  0.00    -0.038 A 
ATOM     20  C   UNL A   1      34.703  18.487  24.622  1.00  0.00     0.004 A 
ATOM     21  C   UNL A   1      32.688  19.515  23.839  1.00  0.00     0.004 A 
ATOM     22  C   UNL A   1      34.413  17.342  23.873  1.00  0.00     0.000 A 
ATOM     23  C   UNL A   1      32.406  18.383  23.069  1.00  0.00     0.000 A 
ATOM     24  C   UNL A   1      33.276  17.301  23.073  1.00  0.00     0.000 A 
ENDBRANCH  18  19
ENDBRANCH  17  18
ENDBRANCH  12  17
ENDBRANCH   7   8
ENDBRANCH   6   7
ENDBRANCH   3   6
ENDBRANCH   1   2
BRANCH   1  25
ATOM     25  C   UNL A   1      31.739  29.296  24.224  1.00  0.00     0.023 C 
BRANCH  25  26
ATOM     26  C   UNL A   1      31.454  29.866  25.600  1.00  0.00     0.023 C 
BRANCH  26  27
ATOM     27  C   UNL A   1      32.659  30.262  26.433  1.00  0.00     0.116 C 
BRANCH  27  28
ATOM     28  N   UNL A   1      32.609  31.584  27.049  1.00  0.00    -0.352 N 
ATOM     29  C   UNL A   1      33.627  32.287  27.673  1.00  0.00     0.251 C 
ATOM     30  H   UNL A   1      31.735  32.037  27.016  1.00  0.00     0.163 HD
ATOM     31  O   UNL A   1      33.426  33.407  28.128  1.00  0.00    -0.269 OA
BRANCH  29  32
ATOM     32  C   UNL A   1      34.943  31.632  27.851  1.00  0.00     0.039 A 
ATOM     33  C   UNL A   1      36.082  32.423  28.004  1.00  0.00     0.014 A 
ATOM     34  C   UNL A   1      35.013  30.256  28.050  1.00  0.00     0.014 A 
ATOM     35  C   UNL A   1      37.252  31.849  28.510  1.00  0.00     0.010 A 
ATOM     36  C   UNL A   1      36.116  29.730  28.708  1.00  0.00     0.010 A 
ATOM     37  C   UNL A   1      37.252  30.517  28.955  1.00  0.00    -0.014 A 
BRANCH  37  38
ATOM     38  C   UNL A   1      38.414  29.915  29.674  1.00  0.00     0.031 A 
ATOM     39  C   UNL A   1      38.745  30.382  31.070  1.00  0.00     0.074 A 
ATOM     40  C   UNL A   1      39.225  29.032  29.051  1.00  0.00     0.049 A 
ATOM     41  N   UNL A   1      39.789  30.112  31.811  1.00  0.00    -0.248 NA
ATOM     42  C   UNL A   1      37.802  31.326  31.692  1.00  0.00     0.031 C 
ATOM     43  C   UNL A   1      39.062  28.546  27.676  1.00  0.00     0.029 A 
ATOM     44  N   UNL A   1      40.356  28.383  29.489  1.00  0.00    -0.354 N 
ATOM     45  C   UNL A   1      39.641  30.879  32.963  1.00  0.00     0.074 A 
ATOM     46  C   UNL A   1      38.461  31.693  32.778  1.00  0.00     0.031 C 
ATOM     47  C   UNL A   1      40.026  27.650  27.404  1.00  0.00     0.029 A 
ATOM     48  C   UNL A   1      40.912  27.535  28.557  1.00  0.00     0.049 A 
ATOM     49  H   UNL A   1      40.735  28.516  30.388  1.00  0.00     0.167 HD
ATOM     50  C   UNL A   1      40.389  30.874  34.093  1.00  0.00     0.034 A 
ATOM     51  C   UNL A   1      42.015  26.761  28.618  1.00  0.00     0.034 A 
ATOM     52  C   UNL A   1      41.534  30.021  34.285  1.00  0.00     0.049 A 
ATOM     53  C   UNL A   1      42.830  26.763  29.890  1.00  0.00     0.074 A 
ATOM     54  C   UNL A   1      42.329  29.886  35.409  1.00  0.00     0.029 A 
ATOM     55  N   UNL A   1      42.042  29.149  33.330  1.00  0.00    -0.354 N 
ATOM     56  N   UNL A   1      42.644  27.459  30.989  1.00  0.00    -0.248 NA
ATOM     57  C   UNL A   1      43.997  25.871  29.934  1.00  0.00     0.031 C 
ATOM     58  C   UNL A   1      43.353  28.979  35.114  1.00  0.00     0.029 A 
ATOM     59  C   UNL A   1      43.151  28.489  33.833  1.00  0.00     0.049 A 
ATOM     60  H   UNL A   1      41.668  29.020  32.428  1.00  0.00     0.167 HD
ATOM     61  C   UNL A   1      43.649  27.058  31.866  1.00  0.00     0.074 A 
ATOM     62  C   UNL A   1      44.426  26.050  31.174  1.00  0.00     0.031 C 
ATOM     63  C   UNL A   1      43.910  27.484  33.129  1.00  0.00     0.034 A 
BRANCH  50  64
ATOM     64  C   UNL A   1      39.985  31.821  35.199  1.00  0.00     0.023 A 
ATOM     65  C   UNL A   1      39.165  31.401  36.263  1.00  0.00     0.031 A 
ATOM     66  C   UNL A   1      40.390  33.166  35.176  1.00  0.00     0.131 A 
ATOM     67  C   UNL A   1      38.705  32.332  37.205  1.00  0.00     0.055 A 
ATOM     68  C   UNL A   1      40.005  34.068  36.170  1.00  0.00     0.041 A 
ATOM     69  F   UNL A   1      41.155  33.632  34.176  1.00  0.00    -0.206 F 
ATOM     70  C   UNL A   1      39.143  33.658  37.183  1.00  0.00     0.022 A 
BRANCH  67  71
ATOM     71  S   UNL A   1      37.407  31.820  38.362  1.00  0.00     0.124 S 
ATOM     72  O   UNL A   1      38.089  31.956  39.648  1.00  0.00    -0.237 OA
ATOM     73  O   UNL A   1      36.348  32.787  38.098  1.00  0.00    -0.237 OA
ATOM     74  O   UNL A   1      37.114  30.446  37.963  1.00  0.00    -0.744 OA
ENDBRANCH  67  71
ENDBRANCH  50  64
BRANCH  51  75
ATOM     75  C   UNL A   1      42.431  25.918  27.455  1.00  0.00     0.023 A 
ATOM     76  C   UNL A   1      42.000  24.586  27.333  1.00  0.00     0.031 A 
ATOM     77  C   UNL A   1      43.317  26.410  26.480  1.00  0.00     0.131 A 
ATOM     78  C   UNL A   1      42.499  23.777  26.299  1.00  0.00     0.055 A 
ATOM     79  C   UNL A   1      43.764  25.620  25.418  1.00  0.00     0.041 A 
ATOM     80  F   UNL A   1      43.762  27.676  26.543  1.00  0.00    -0.206 F 
ATOM     81  C   UNL A   1      43.368  24.289  25.334  1.00  0.00     0.022 A 
BRANCH  78  82
ATOM     82  S   UNL A   1      42.083  22.010  26.299  1.00  0.00     0.124 S 
ATOM     83  O   UNL A   1      40.666  22.040  25.954  1.00  0.00    -0.237 OA
ATOM     84  O   UNL A   1      42.983  21.489  25.276  1.00  0.00    -0.237 OA
ATOM     85  O   UNL A   1      42.385  21.589  27.666  1.00  0.00    -0.744 OA
ENDBRANCH  78  82
ENDBRANCH  51  75
BRANCH  63  86
ATOM     86  C   UNL A   1      45.047  26.815  33.859  1.00  0.00     0.023 A 
ATOM     87  C   UNL A   1      46.352  27.336  33.835  1.00  0.00     0.031 A 
ATOM     88  C   UNL A   1      44.818  25.637  34.593  1.00  0.00     0.131 A 
ATOM     89  C   UNL A   1      47.390  26.650  34.484  1.00  0.00     0.055 A 
ATOM     90  C   UNL A   1      45.840  24.995  35.291  1.00  0.00     0.041 A 
ATOM     91  F   UNL A   1      43.590  25.095  34.649  1.00  0.00    -0.206 F 
ATOM     92  C   UNL A   1      47.138  25.494  35.228  1.00  0.00     0.022 A 
BRANCH  89  93
ATOM     93  S   UNL A   1      49.090  27.238  34.267  1.00  0.00     0.124 S 
ATOM     94  O   UNL A   1      49.249  27.178  32.817  1.00  0.00    -0.237 OA
ATOM     95  O   UNL A   1      49.034  28.576  34.846  1.00  0.00    -0.237 OA
ATOM     96  O   UNL A   1      49.886  26.271  35.020  1.00  0.00    -0.744 OA
ENDBRANCH  89  93
ENDBRANCH  63  86
ENDBRANCH  37  38
ENDBRANCH  29  32
ENDBRANCH  27  28
ENDBRANCH  26  27
ENDBRANCH  25  26
ENDBRANCH   1  25
TORSDOF 19
ENDMDL
MODEL 3
REMARK VINA RESULT:     -12.1      1.506      1.817
REMARK SMILES Cc1nc(SCc2ccccc2)[nH]c(=O)c1CCC(=O)NCCCCNC(=O)c1ccc(-c2c3nc(c(-c4cc(S(=O)(=O)[O-])ccc4F)c4ccc([nH]4)c(-c4cc(S(=O)(=O)[O-])ccc4F)c4nc(c(-c5cc(S(=O)(=O)[O-])ccc5F)c5ccc2[nH]5)C=C4)C=C3)cc1
REMARK SMILES IDX 22 1 21 2 19 3 20 4 18 6 17 7 16 8 1 9 2 10 3 11 4 12 14 13
REMARK SMILES IDX 13 14 15 15 5 17 6 18 7 19 8 20 12 21 9 22 11 23 10 24 23 25
REMARK SMILES IDX 24 26 25 27 26 28 27 29 28 31 29 32 30 33 91 34 31 35 90 36
REMARK SMILES IDX 32 37 33 38 34 39 84 40 35 41 89 42 83 43 85 44 36 45 88 46
REMARK SMILES IDX 82 47 81 48 37 50 69 51 49 52 68 53 50 54 53 55 67 56 86 57
REMARK SMILES IDX 51 58 52 59 66 61 87 62 54 63 38 64 39 65 47 66 40 67 46 68
REMARK SMILES IDX 48 69 45 70 41 71 42 72 43 73 44 74 70 75 71 76 79 77 72 78
REMARK SMILES IDX 78 79 80 80 77 81 73 82 74 83 75 84 76 85 55 86 56 87 64 88
REMARK SMILES IDX 57 89 63 90 65 91 62 92 58 93 59 94 60 95 61 96
REMARK H PARENT 21 5 13 16 26 30 85 49 53 60
REMARK Flexibility Score: inf
ROOT
ATOM      1  C   UNL A   1      30.352  28.856  23.924  1.00  0.00     0.116 C 
ENDROOT
BRANCH   1   2
ATOM      2  N   UNL A   1      30.804  27.644  23.263  1.00  0.00    -0.356 N 
ATOM      3  C   UNL A   1      30.745  26.336  23.624  1.00  0.00     0.220 C 
ATOM      4  O   UNL A   1      31.304  25.505  22.905  1.00  0.00    -0.275 OA
ATOM      5  H   UNL A   1      31.232  27.800  22.390  1.00  0.00     0.163 HD
BRANCH   3   6
ATOM      6  C   UNL A   1      29.965  25.887  24.844  1.00  0.00     0.105 C 
BRANCH   6   7
ATOM      7  C   UNL A   1      30.760  26.010  26.158  1.00  0.00     0.053 C 
BRANCH   7   8
ATOM      8  C   UNL A   1      31.807  24.931  26.279  1.00  0.00     0.039 A 
ATOM      9  C   UNL A   1      33.797  26.313  25.664  1.00  0.00     0.067 C 
ATOM     10  C   UNL A   1      33.128  25.009  26.005  1.00  0.00     0.049 A 
ATOM     11  N   UNL A   1      33.942  23.896  25.842  1.00  0.00    -0.229 NA
ATOM     12  C   UNL A   1      33.370  22.744  25.926  1.00  0.00     0.168 A 
ATOM     13  C   UNL A   1      31.336  23.616  26.751  1.00  0.00     0.254 A 
ATOM     14  N   UNL A   1      32.120  22.568  26.411  1.00  0.00    -0.301 N 
ATOM     15  O   UNL A   1      30.278  23.486  27.365  1.00  0.00    -0.269 OA
ATOM     16  H   UNL A   1      31.772  21.654  26.519  1.00  0.00     0.172 HD
BRANCH  12  17
ATOM     17  S   UNL A   1      34.004  21.230  25.398  1.00  0.00    -0.083 SA
BRANCH  17  18
ATOM     18  C   UNL A   1      32.597  20.165  25.086  1.00  0.00     0.113 C 
BRANCH  18  19
ATOM     19  C   UNL A   1      32.753  18.688  24.769  1.00  0.00    -0.038 A 
ATOM     20  C   UNL A   1      32.606  17.769  25.826  1.00  0.00     0.004 A 
ATOM     21  C   UNL A   1      33.220  18.185  23.550  1.00  0.00     0.004 A 
ATOM     22  C   UNL A   1      32.974  16.428  25.683  1.00  0.00     0.000 A 
ATOM     23  C   UNL A   1      33.613  16.851  23.409  1.00  0.00     0.000 A 
ATOM     24  C   UNL A   1      33.505  15.974  24.480  1.00  0.00     0.000 A 
ENDBRANCH  18  19
ENDBRANCH  17  18
ENDBRANCH  12  17
ENDBRANCH   7   8
ENDBRANCH   6   7
ENDBRANCH   3   6
ENDBRANCH   1   2
BRANCH   1  25
ATOM     25  C   UNL A   1      31.540  29.625  24.510  1.00  0.00     0.023 C 
BRANCH  25  26
ATOM     26  C   UNL A   1      31.787  29.490  26.000  1.00  0.00     0.023 C 
BRANCH  26  27
ATOM     27  C   UNL A   1      33.091  30.061  26.527  1.00  0.00     0.116 C 
BRANCH  27  28
ATOM     28  N   UNL A   1      33.004  31.359  27.186  1.00  0.00    -0.352 N 
ATOM     29  C   UNL A   1      34.001  32.066  27.840  1.00  0.00     0.251 C 
ATOM     30  H   UNL A   1      32.119  31.790  27.164  1.00  0.00     0.163 HD
ATOM     31  O   UNL A   1      33.769  33.164  28.331  1.00  0.00    -0.269 OA
BRANCH  29  32
ATOM     32  C   UNL A   1      35.332  31.439  28.003  1.00  0.00     0.039 A 
ATOM     33  C   UNL A   1      36.453  32.253  28.171  1.00  0.00     0.014 A 
ATOM     34  C   UNL A   1      35.435  30.061  28.171  1.00  0.00     0.014 A 
ATOM     35  C   UNL A   1      37.637  31.696  28.664  1.00  0.00     0.010 A 
ATOM     36  C   UNL A   1      36.551  29.547  28.817  1.00  0.00     0.010 A 
ATOM     37  C   UNL A   1      37.669  30.355  29.080  1.00  0.00    -0.014 A 
BRANCH  37  38
ATOM     38  C   UNL A   1      38.845  29.766  29.785  1.00  0.00     0.031 A 
ATOM     39  C   UNL A   1      39.211  30.263  31.161  1.00  0.00     0.074 A 
ATOM     40  C   UNL A   1      39.638  28.865  29.163  1.00  0.00     0.049 A 
ATOM     41  N   UNL A   1      40.272  30.007  31.884  1.00  0.00    -0.248 NA
ATOM     42  C   UNL A   1      38.286  31.225  31.784  1.00  0.00     0.031 C 
ATOM     43  C   UNL A   1      39.442  28.349  27.804  1.00  0.00     0.029 A 
ATOM     44  N   UNL A   1      40.778  28.223  29.589  1.00  0.00    -0.354 N 
ATOM     45  C   UNL A   1      40.153  30.800  33.021  1.00  0.00     0.074 A 
ATOM     46  C   UNL A   1      38.972  31.614  32.845  1.00  0.00     0.031 C 
ATOM     47  C   UNL A   1      40.396  27.444  27.530  1.00  0.00     0.029 A 
ATOM     48  C   UNL A   1      41.309  27.352  28.663  1.00  0.00     0.049 A 
ATOM     49  H   UNL A   1      41.178  28.375  30.475  1.00  0.00     0.167 HD
ATOM     50  C   UNL A   1      40.928  30.818  34.133  1.00  0.00     0.034 A 
ATOM     51  C   UNL A   1      42.411  26.575  28.717  1.00  0.00     0.034 A 
ATOM     52  C   UNL A   1      42.074  29.966  34.317  1.00  0.00     0.049 A 
ATOM     53  C   UNL A   1      43.255  26.603  29.968  1.00  0.00     0.074 A 
ATOM     54  C   UNL A   1      42.895  29.853  35.424  1.00  0.00     0.029 A 
ATOM     55  N   UNL A   1      42.557  29.070  33.370  1.00  0.00    -0.354 N 
ATOM     56  N   UNL A   1      43.097  27.325  31.056  1.00  0.00    -0.248 NA
ATOM     57  C   UNL A   1      44.420  25.708  30.006  1.00  0.00     0.031 C 
ATOM     58  C   UNL A   1      43.909  28.937  35.126  1.00  0.00     0.029 A 
ATOM     59  C   UNL A   1      43.675  28.418  33.862  1.00  0.00     0.049 A 
ATOM     60  H   UNL A   1      42.161  28.921  32.481  1.00  0.00     0.167 HD
ATOM     61  C   UNL A   1      44.122  26.941  31.917  1.00  0.00     0.074 A 
ATOM     62  C   UNL A   1      44.879  25.914  31.231  1.00  0.00     0.031 C 
ATOM     63  C   UNL A   1      44.415  27.394  33.163  1.00  0.00     0.034 A 
BRANCH  50  64
ATOM     64  C   UNL A   1      40.553  31.791  35.226  1.00  0.00     0.023 A 
ATOM     65  C   UNL A   1      39.522  31.508  36.140  1.00  0.00     0.031 A 
ATOM     66  C   UNL A   1      41.205  33.031  35.338  1.00  0.00     0.131 A 
ATOM     67  C   UNL A   1      39.114  32.482  37.063  1.00  0.00     0.055 A 
ATOM     68  C   UNL A   1      40.857  33.960  36.321  1.00  0.00     0.041 A 
ATOM     69  F   UNL A   1      42.183  33.368  34.482  1.00  0.00    -0.206 F 
ATOM     70  C   UNL A   1      39.794  33.696  37.179  1.00  0.00     0.022 A 
BRANCH  67  71
ATOM     71  S   UNL A   1      37.587  32.199  37.998  1.00  0.00     0.124 S 
ATOM     72  O   UNL A   1      36.617  32.961  37.213  1.00  0.00    -0.237 OA
ATOM     73  O   UNL A   1      37.448  30.749  37.948  1.00  0.00    -0.237 OA
ATOM     74  O   UNL A   1      37.884  32.754  39.317  1.00  0.00    -0.744 OA
ENDBRANCH  67  71
ENDBRANCH  50  64
BRANCH  51  75
ATOM     75  C   UNL A   1      42.796  25.705  27.563  1.00  0.00     0.023 A 
ATOM     76  C   UNL A   1      42.248  24.419  27.409  1.00  0.00     0.031 A 
ATOM     77  C   UNL A   1      43.766  26.117  26.632  1.00  0.00     0.131 A 
ATOM     78  C   UNL A   1      42.714  23.573  26.390  1.00  0.00     0.055 A 
ATOM     79  C   UNL A   1      44.182  25.295  25.582  1.00  0.00     0.041 A 
ATOM     80  F   UNL A   1      44.323  27.336  26.727  1.00  0.00    -0.206 F 
ATOM     81  C   UNL A   1      43.668  24.008  25.467  1.00  0.00     0.022 A 
BRANCH  78  82
ATOM     82  S   UNL A   1      42.135  21.854  26.354  1.00  0.00     0.124 S 
ATOM     83  O   UNL A   1      42.867  21.318  25.212  1.00  0.00    -0.237 OA
ATOM     84  O   UNL A   1      42.549  21.369  27.666  1.00  0.00    -0.237 OA
ATOM     85  O   UNL A   1      40.691  21.984  26.166  1.00  0.00    -0.744 OA
ENDBRANCH  78  82
ENDBRANCH  51  75
BRANCH  63  86
ATOM     86  C   UNL A   1      45.567  26.738  33.882  1.00  0.00     0.023 A 
ATOM     87  C   UNL A   1      45.404  25.551  34.614  1.00  0.00     0.031 A 
ATOM     88  C   UNL A   1      46.849  27.314  33.830  1.00  0.00     0.131 A 
ATOM     89  C   UNL A   1      46.493  25.006  35.312  1.00  0.00     0.055 A 
ATOM     90  C   UNL A   1      47.943  26.734  34.472  1.00  0.00     0.041 A 
ATOM     91  F   UNL A   1      47.061  28.451  33.145  1.00  0.00    -0.206 F 
ATOM     92  C   UNL A   1      47.765  25.580  35.229  1.00  0.00     0.022 A 
BRANCH  89  93
ATOM     93  S   UNL A   1      46.204  23.590  36.406  1.00  0.00     0.124 S 
ATOM     94  O   UNL A   1      47.405  22.789  36.187  1.00  0.00    -0.237 OA
ATOM     95  O   UNL A   1      46.092  24.224  37.715  1.00  0.00    -0.237 OA
ATOM     96  O   UNL A   1      44.967  23.007  35.892  1.00  0.00    -0.744 OA
ENDBRANCH  89  93
ENDBRANCH  63  86
ENDBRANCH  37  38
ENDBRANCH  29  32
ENDBRANCH  27  28
ENDBRANCH  26  27
ENDBRANCH  25  26
ENDBRANCH   1  25
TORSDOF 19
ENDMDL
