MODEL 1
REMARK VINA RESULT:     -10.9      0.000      0.000
REMARK SMILES CC[C@H](C)[C@H](NC(=O)[C@H](C)Oc1ccc2c(C)c(C)c(=O)oc2c1C)C(=O)NCCCCNC(=O)c1ccc(-c2c3nc(c(-c4cc(S(=O)(=O)[O-])ccc4F)c4ccc([nH]4)c(-c4cc(S(=O)(=O)[O-])ccc4F)c4nc(c(-c5cc(S(=O)(=O)[O-])ccc5F)c5ccc2[nH]5)C=C4)C=C3)cc1
REMARK SMILES IDX 30 1 29 2 28 3 26 4 27 5 5 7 3 8 4 9 2 10 1 11 6 12 7 13
REMARK SMILES IDX 8 15 9 16 10 17 11 18 12 19 13 20 24 21 14 22 23 23 25 24
REMARK SMILES IDX 15 25 22 26 16 27 20 28 17 29 18 30 21 31 19 32 31 33 32 34
REMARK SMILES IDX 33 35 34 36 35 38 36 39 37 40 98 41 38 42 97 43 39 44 40 45
REMARK SMILES IDX 41 46 91 47 42 48 96 49 90 50 92 51 43 52 95 53 89 54 88 55
REMARK SMILES IDX 44 57 76 58 56 59 75 60 57 61 60 62 74 63 93 64 58 65 59 66
REMARK SMILES IDX 73 68 94 69 61 70 45 71 46 72 54 73 47 74 53 75 55 76 52 77
REMARK SMILES IDX 48 78 49 79 50 80 51 81 77 82 78 83 86 84 79 85 85 86 87 87
REMARK SMILES IDX 84 88 80 89 81 90 82 91 83 92 62 93 63 94 71 95 64 96 70 97
REMARK SMILES IDX 72 98 69 99 65 100 66 101 67 102 68 103
REMARK H PARENT 28 6 6 14 33 37 92 56 60 67
REMARK Flexibility Score: inf
ROOT
ATOM      1  C   UNL A   1      39.117  22.996  26.343  1.00  0.00     0.023 C 
ENDROOT
BRANCH   1   2
ATOM      2  C   UNL A   1      37.832  23.680  25.883  1.00  0.00     0.116 C 
BRANCH   2   3
ATOM      3  N   UNL A   1      37.420  23.291  24.541  1.00  0.00    -0.354 N 
ATOM      4  C   UNL A   1      36.191  22.949  24.031  1.00  0.00     0.242 C 
ATOM      5  O   UNL A   1      36.070  22.928  22.803  1.00  0.00    -0.273 OA
ATOM      6  H   UNL A   1      38.152  23.270  23.882  1.00  0.00     0.163 HD
BRANCH   4   7
ATOM      7  C   UNL A   1      34.936  22.749  24.946  1.00  0.00     0.174 C 
BRANCH   7   8
ATOM      8  C   UNL A   1      35.128  21.399  25.690  1.00  0.00     0.018 C 
ATOM      9  C   UNL A   1      34.476  21.470  27.081  1.00  0.00     0.010 C 
BRANCH   8  10
ATOM     10  C   UNL A   1      34.742  20.150  24.885  1.00  0.00     0.002 C 
ATOM     11  C   UNL A   1      33.306  19.695  25.097  1.00  0.00     0.004 C 
ENDBRANCH   8  10
ENDBRANCH   7   8
BRANCH   7  12
ATOM     12  N   UNL A   1      33.752  22.968  24.110  1.00  0.00    -0.341 N 
ATOM     13  C   UNL A   1      32.616  23.666  23.997  1.00  0.00     0.261 C 
ATOM     14  H   UNL A   1      33.819  22.371  23.329  1.00  0.00     0.164 HD
ATOM     15  O   UNL A   1      32.080  23.463  22.891  1.00  0.00    -0.271 OA
BRANCH  13  16
ATOM     16  C   UNL A   1      31.983  24.701  24.958  1.00  0.00     0.258 C 
ATOM     17  C   UNL A   1      30.505  24.865  25.261  1.00  0.00     0.064 C 
BRANCH  16  18
ATOM     18  O   UNL A   1      32.520  26.016  24.689  1.00  0.00    -0.480 OA
BRANCH  18  19
ATOM     19  C   UNL A   1      31.735  27.005  24.149  1.00  0.00     0.127 A 
ATOM     20  C   UNL A   1      31.031  26.915  22.944  1.00  0.00     0.047 A 
ATOM     21  C   UNL A   1      31.654  28.192  24.890  1.00  0.00     0.035 A 
ATOM     22  C   UNL A   1      30.194  27.952  22.511  1.00  0.00     0.016 A 
ATOM     23  C   UNL A   1      30.841  29.237  24.405  1.00  0.00     0.145 A 
ATOM     24  C   UNL A   1      32.464  28.399  26.141  1.00  0.00     0.052 C 
ATOM     25  C   UNL A   1      30.071  29.128  23.248  1.00  0.00     0.021 A 
ATOM     26  O   UNL A   1      30.858  30.447  25.127  1.00  0.00    -0.422 OA
ATOM     27  C   UNL A   1      29.190  30.243  22.856  1.00  0.00    -0.030 A 
ATOM     28  C   UNL A   1      30.214  31.583  24.669  1.00  0.00     0.339 A 
ATOM     29  C   UNL A   1      28.192  29.994  21.752  1.00  0.00     0.045 C 
ATOM     30  C   UNL A   1      29.291  31.417  23.513  1.00  0.00     0.038 A 
ATOM     31  O   UNL A   1      30.364  32.661  25.237  1.00  0.00    -0.246 OA
ATOM     32  C   UNL A   1      28.495  32.639  23.144  1.00  0.00     0.052 C 
ENDBRANCH  18  19
ENDBRANCH  16  18
ENDBRANCH  13  16
ENDBRANCH   7  12
ENDBRANCH   4   7
ENDBRANCH   2   3
ENDBRANCH   1   2
BRANCH   1  33
ATOM     33  C   UNL A   1      39.227  21.520  25.964  1.00  0.00     0.023 C 
BRANCH  33  34
ATOM     34  C   UNL A   1      40.120  20.671  26.866  1.00  0.00     0.116 C 
BRANCH  34  35
ATOM     35  N   UNL A   1      41.113  19.884  26.144  1.00  0.00    -0.352 N 
ATOM     36  C   UNL A   1      42.382  20.263  25.769  1.00  0.00     0.251 C 
ATOM     37  H   UNL A   1      40.843  18.971  25.893  1.00  0.00     0.163 HD
ATOM     38  O   UNL A   1      43.105  19.507  25.126  1.00  0.00    -0.269 OA
BRANCH  36  39
ATOM     39  C   UNL A   1      42.840  21.616  26.130  1.00  0.00     0.039 A 
ATOM     40  C   UNL A   1      42.861  22.609  25.147  1.00  0.00     0.014 A 
ATOM     41  C   UNL A   1      43.130  21.916  27.464  1.00  0.00     0.014 A 
ATOM     42  C   UNL A   1      43.100  23.932  25.518  1.00  0.00     0.010 A 
ATOM     43  C   UNL A   1      43.317  23.243  27.836  1.00  0.00     0.010 A 
ATOM     44  C   UNL A   1      43.294  24.261  26.870  1.00  0.00    -0.014 A 
BRANCH  44  45
ATOM     45  C   UNL A   1      43.476  25.667  27.303  1.00  0.00     0.031 A 
ATOM     46  C   UNL A   1      44.849  26.270  27.292  1.00  0.00     0.074 A 
ATOM     47  C   UNL A   1      42.428  26.364  27.785  1.00  0.00     0.049 A 
ATOM     48  N   UNL A   1      45.235  27.444  27.718  1.00  0.00    -0.248 NA
ATOM     49  C   UNL A   1      45.936  25.436  26.750  1.00  0.00     0.031 C 
ATOM     50  C   UNL A   1      41.057  25.865  27.881  1.00  0.00     0.029 A 
ATOM     51  N   UNL A   1      42.358  27.634  28.304  1.00  0.00    -0.354 N 
ATOM     52  C   UNL A   1      46.607  27.484  27.509  1.00  0.00     0.074 A 
ATOM     53  C   UNL A   1      46.995  26.204  26.963  1.00  0.00     0.031 C 
ATOM     54  C   UNL A   1      40.280  26.818  28.421  1.00  0.00     0.029 A 
ATOM     55  C   UNL A   1      41.101  27.984  28.742  1.00  0.00     0.049 A 
ATOM     56  H   UNL A   1      43.134  28.237  28.357  1.00  0.00     0.167 HD
ATOM     57  C   UNL A   1      47.461  28.510  27.729  1.00  0.00     0.034 A 
ATOM     58  C   UNL A   1      40.662  29.110  29.341  1.00  0.00     0.034 A 
ATOM     59  C   UNL A   1      47.060  29.790  28.246  1.00  0.00     0.049 A 
ATOM     60  C   UNL A   1      41.634  30.239  29.581  1.00  0.00     0.074 A 
ATOM     61  C   UNL A   1      47.843  30.913  28.439  1.00  0.00     0.029 A 
ATOM     62  N   UNL A   1      45.775  30.120  28.645  1.00  0.00    -0.354 N 
ATOM     63  N   UNL A   1      42.912  30.297  29.292  1.00  0.00    -0.248 NA
ATOM     64  C   UNL A   1      41.110  31.456  30.220  1.00  0.00     0.031 C 
ATOM     65  C   UNL A   1      47.040  31.911  28.995  1.00  0.00     0.029 A 
ATOM     66  C   UNL A   1      45.746  31.424  29.103  1.00  0.00     0.049 A 
ATOM     67  H   UNL A   1      44.998  29.516  28.607  1.00  0.00     0.167 HD
ATOM     68  C   UNL A   1      43.338  31.561  29.688  1.00  0.00     0.074 A 
ATOM     69  C   UNL A   1      42.180  32.242  30.227  1.00  0.00     0.031 C 
ATOM     70  C   UNL A   1      44.579  32.103  29.612  1.00  0.00     0.034 A 
BRANCH  57  71
ATOM     71  C   UNL A   1      48.912  28.315  27.385  1.00  0.00     0.023 A 
ATOM     72  C   UNL A   1      49.344  28.435  26.053  1.00  0.00     0.031 A 
ATOM     73  C   UNL A   1      49.841  27.908  28.359  1.00  0.00     0.131 A 
ATOM     74  C   UNL A   1      50.670  28.126  25.726  1.00  0.00     0.055 A 
ATOM     75  C   UNL A   1      51.169  27.632  28.033  1.00  0.00     0.041 A 
ATOM     76  F   UNL A   1      49.471  27.786  29.645  1.00  0.00    -0.206 F 
ATOM     77  C   UNL A   1      51.585  27.732  26.709  1.00  0.00     0.022 A 
BRANCH  74  78
ATOM     78  S   UNL A   1      51.251  28.196  24.010  1.00  0.00     0.124 S 
ATOM     79  O   UNL A   1      52.540  27.512  24.100  1.00  0.00    -0.237 OA
ATOM     80  O   UNL A   1      50.203  27.465  23.305  1.00  0.00    -0.237 OA
ATOM     81  O   UNL A   1      51.330  29.625  23.726  1.00  0.00    -0.744 OA
ENDBRANCH  74  78
ENDBRANCH  57  71
BRANCH  58  82
ATOM     82  C   UNL A   1      39.220  29.232  29.696  1.00  0.00     0.023 A 
ATOM     83  C   UNL A   1      38.328  29.949  28.879  1.00  0.00     0.031 A 
ATOM     84  C   UNL A   1      38.736  28.710  30.907  1.00  0.00     0.131 A 
ATOM     85  C   UNL A   1      37.013  30.169  29.311  1.00  0.00     0.055 A 
ATOM     86  C   UNL A   1      37.410  28.882  31.306  1.00  0.00     0.041 A 
ATOM     87  F   UNL A   1      39.555  28.027  31.723  1.00  0.00    -0.206 F 
ATOM     88  C   UNL A   1      36.544  29.627  30.512  1.00  0.00     0.022 A 
BRANCH  85  89
ATOM     89  S   UNL A   1      35.893  31.245  28.373  1.00  0.00     0.124 S 
ATOM     90  O   UNL A   1      34.849  31.532  29.352  1.00  0.00    -0.237 OA
ATOM     91  O   UNL A   1      36.770  32.364  28.039  1.00  0.00    -0.237 OA
ATOM     92  O   UNL A   1      35.485  30.417  27.243  1.00  0.00    -0.744 OA
ENDBRANCH  85  89
ENDBRANCH  58  82
BRANCH  70  93
ATOM     93  C   UNL A   1      44.789  33.513  30.102  1.00  0.00     0.023 A 
ATOM     94  C   UNL A   1      45.037  33.746  31.469  1.00  0.00     0.031 A 
ATOM     95  C   UNL A   1      44.548  34.616  29.267  1.00  0.00     0.131 A 
ATOM     96  C   UNL A   1      44.983  35.052  31.971  1.00  0.00     0.055 A 
ATOM     97  C   UNL A   1      44.538  35.919  29.765  1.00  0.00     0.041 A 
ATOM     98  F   UNL A   1      44.297  34.437  27.961  1.00  0.00    -0.206 F 
ATOM     99  C   UNL A   1      44.740  36.140  31.125  1.00  0.00     0.022 A 
BRANCH  96 100
ATOM    100  S   UNL A   1      45.148  35.376  33.748  1.00  0.00     0.124 S 
ATOM    101  O   UNL A   1      46.129  34.371  34.152  1.00  0.00    -0.237 OA
ATOM    102  O   UNL A   1      45.625  36.756  33.763  1.00  0.00    -0.237 OA
ATOM    103  O   UNL A   1      43.800  35.168  34.269  1.00  0.00    -0.744 OA
ENDBRANCH  96 100
ENDBRANCH  70  93
ENDBRANCH  44  45
ENDBRANCH  36  39
ENDBRANCH  34  35
ENDBRANCH  33  34
ENDBRANCH   1  33
TORSDOF 20
ENDMDL
MODEL 2
REMARK VINA RESULT:     -10.9      2.589      7.829
REMARK SMILES CC[C@H](C)[C@H](NC(=O)[C@H](C)Oc1ccc2c(C)c(C)c(=O)oc2c1C)C(=O)NCCCCNC(=O)c1ccc(-c2c3nc(c(-c4cc(S(=O)(=O)[O-])ccc4F)c4ccc([nH]4)c(-c4cc(S(=O)(=O)[O-])ccc4F)c4nc(c(-c5cc(S(=O)(=O)[O-])ccc5F)c5ccc2[nH]5)C=C4)C=C3)cc1
REMARK SMILES IDX 30 1 29 2 28 3 26 4 27 5 5 7 3 8 4 9 2 10 1 11 6 12 7 13
REMARK SMILES IDX 8 15 9 16 10 17 11 18 12 19 13 20 24 21 14 22 23 23 25 24
REMARK SMILES IDX 15 25 22 26 16 27 20 28 17 29 18 30 21 31 19 32 31 33 32 34
REMARK SMILES IDX 33 35 34 36 35 38 36 39 37 40 98 41 38 42 97 43 39 44 40 45
REMARK SMILES IDX 41 46 91 47 42 48 96 49 90 50 92 51 43 52 95 53 89 54 88 55
REMARK SMILES IDX 44 57 76 58 56 59 75 60 57 61 60 62 74 63 93 64 58 65 59 66
REMARK SMILES IDX 73 68 94 69 61 70 45 71 46 72 54 73 47 74 53 75 55 76 52 77
REMARK SMILES IDX 48 78 49 79 50 80 51 81 77 82 78 83 86 84 79 85 85 86 87 87
REMARK SMILES IDX 84 88 80 89 81 90 82 91 83 92 62 93 63 94 71 95 64 96 70 97
REMARK SMILES IDX 72 98 69 99 65 100 66 101 67 102 68 103
REMARK H PARENT 28 6 6 14 33 37 92 56 60 67
REMARK Flexibility Score: inf
ROOT
ATOM      1  C   UNL A   1      38.133  23.058  25.235  1.00  0.00     0.023 C 
ENDROOT
BRANCH   1   2
ATOM      2  C   UNL A   1      36.734  23.563  25.580  1.00  0.00     0.116 C 
BRANCH   2   3
ATOM      3  N   UNL A   1      36.039  22.720  26.544  1.00  0.00    -0.354 N 
ATOM      4  C   UNL A   1      34.724  22.335  26.632  1.00  0.00     0.242 C 
ATOM      5  O   UNL A   1      34.455  21.397  27.388  1.00  0.00    -0.273 OA
ATOM      6  H   UNL A   1      36.614  22.362  27.259  1.00  0.00     0.163 HD
BRANCH   4   7
ATOM      7  C   UNL A   1      33.616  22.934  25.701  1.00  0.00     0.174 C 
BRANCH   7   8
ATOM      8  C   UNL A   1      32.312  22.138  25.980  1.00  0.00     0.018 C 
ATOM      9  C   UNL A   1      31.206  23.094  26.457  1.00  0.00     0.010 C 
BRANCH   8  10
ATOM     10  C   UNL A   1      31.872  21.190  24.854  1.00  0.00     0.002 C 
ATOM     11  C   UNL A   1      32.530  19.820  24.906  1.00  0.00     0.004 C 
ENDBRANCH   8  10
ENDBRANCH   7   8
BRANCH   7  12
ATOM     12  N   UNL A   1      34.172  22.986  24.346  1.00  0.00    -0.341 N 
ATOM     13  C   UNL A   1      34.113  23.625  23.171  1.00  0.00     0.261 C 
ATOM     14  H   UNL A   1      34.852  22.278  24.271  1.00  0.00     0.164 HD
ATOM     15  O   UNL A   1      35.020  23.238  22.410  1.00  0.00    -0.271 OA
BRANCH  13  16
ATOM     16  C   UNL A   1      33.188  24.777  22.710  1.00  0.00     0.258 C 
ATOM     17  C   UNL A   1      33.625  26.093  22.094  1.00  0.00     0.064 C 
BRANCH  16  18
ATOM     18  O   UNL A   1      32.226  25.080  23.745  1.00  0.00    -0.480 OA
BRANCH  18  19
ATOM     19  C   UNL A   1      32.316  26.237  24.480  1.00  0.00     0.127 A 
ATOM     20  C   UNL A   1      33.118  26.420  25.611  1.00  0.00     0.047 A 
ATOM     21  C   UNL A   1      31.525  27.306  24.035  1.00  0.00     0.035 A 
ATOM     22  C   UNL A   1      33.202  27.663  26.251  1.00  0.00     0.016 A 
ATOM     23  C   UNL A   1      31.594  28.531  24.729  1.00  0.00     0.145 A 
ATOM     24  C   UNL A   1      30.562  27.151  22.890  1.00  0.00     0.052 C 
ATOM     25  C   UNL A   1      32.450  28.749  25.806  1.00  0.00     0.021 A 
ATOM     26  O   UNL A   1      30.716  29.551  24.310  1.00  0.00    -0.422 OA
ATOM     27  C   UNL A   1      32.513  30.086  26.424  1.00  0.00    -0.030 A 
ATOM     28  C   UNL A   1      30.594  30.743  25.004  1.00  0.00     0.339 A 
ATOM     29  C   UNL A   1      33.622  30.352  27.411  1.00  0.00     0.045 C 
ATOM     30  C   UNL A   1      31.604  31.015  26.062  1.00  0.00     0.038 A 
ATOM     31  O   UNL A   1      29.721  31.554  24.707  1.00  0.00    -0.246 OA
ATOM     32  C   UNL A   1      31.530  32.383  26.685  1.00  0.00     0.052 C 
ENDBRANCH  18  19
ENDBRANCH  16  18
ENDBRANCH  13  16
ENDBRANCH   7  12
ENDBRANCH   4   7
ENDBRANCH   2   3
ENDBRANCH   1   2
BRANCH   1  33
ATOM     33  C   UNL A   1      38.324  21.550  25.383  1.00  0.00     0.023 C 
BRANCH  33  34
ATOM     34  C   UNL A   1      39.279  21.110  26.491  1.00  0.00     0.116 C 
BRANCH  34  35
ATOM     35  N   UNL A   1      40.138  19.992  26.122  1.00  0.00    -0.352 N 
ATOM     36  C   UNL A   1      41.510  19.979  26.013  1.00  0.00     0.251 C 
ATOM     37  H   UNL A   1      39.681  19.141  25.926  1.00  0.00     0.163 HD
ATOM     38  O   UNL A   1      42.108  18.968  25.654  1.00  0.00    -0.269 OA
BRANCH  36  39
ATOM     39  C   UNL A   1      42.243  21.222  26.306  1.00  0.00     0.039 A 
ATOM     40  C   UNL A   1      42.522  22.107  25.261  1.00  0.00     0.014 A 
ATOM     41  C   UNL A   1      42.541  21.555  27.631  1.00  0.00     0.014 A 
ATOM     42  C   UNL A   1      43.035  23.370  25.555  1.00  0.00     0.010 A 
ATOM     43  C   UNL A   1      43.004  22.834  27.922  1.00  0.00     0.010 A 
ATOM     44  C   UNL A   1      43.245  23.753  26.890  1.00  0.00    -0.014 A 
BRANCH  44  45
ATOM     45  C   UNL A   1      43.719  25.114  27.237  1.00  0.00     0.031 A 
ATOM     46  C   UNL A   1      42.737  26.132  27.738  1.00  0.00     0.074 A 
ATOM     47  C   UNL A   1      45.005  25.456  27.020  1.00  0.00     0.049 A 
ATOM     48  N   UNL A   1      42.929  27.396  28.006  1.00  0.00    -0.248 NA
ATOM     49  C   UNL A   1      41.354  25.673  27.944  1.00  0.00     0.031 C 
ATOM     50  C   UNL A   1      46.037  24.560  26.498  1.00  0.00     0.029 A 
ATOM     51  N   UNL A   1      45.656  26.652  27.191  1.00  0.00    -0.354 N 
ATOM     52  C   UNL A   1      41.690  27.887  28.398  1.00  0.00     0.074 A 
ATOM     53  C   UNL A   1      40.746  26.798  28.289  1.00  0.00     0.031 C 
ATOM     54  C   UNL A   1      47.192  25.237  26.395  1.00  0.00     0.029 A 
ATOM     55  C   UNL A   1      46.979  26.622  26.810  1.00  0.00     0.049 A 
ATOM     56  H   UNL A   1      45.219  27.457  27.552  1.00  0.00     0.167 HD
ATOM     57  C   UNL A   1      41.377  29.127  28.836  1.00  0.00     0.034 A 
ATOM     58  C   UNL A   1      47.909  27.598  26.790  1.00  0.00     0.034 A 
ATOM     59  C   UNL A   1      42.331  30.195  28.967  1.00  0.00     0.049 A 
ATOM     60  C   UNL A   1      47.536  28.976  27.277  1.00  0.00     0.074 A 
ATOM     61  C   UNL A   1      42.121  31.467  29.466  1.00  0.00     0.029 A 
ATOM     62  N   UNL A   1      43.667  30.118  28.606  1.00  0.00    -0.354 N 
ATOM     63  N   UNL A   1      46.382  29.401  27.735  1.00  0.00    -0.248 NA
ATOM     64  C   UNL A   1      48.585  30.007  27.256  1.00  0.00     0.031 C 
ATOM     65  C   UNL A   1      43.321  32.175  29.367  1.00  0.00     0.029 A 
ATOM     66  C   UNL A   1      44.290  31.328  28.852  1.00  0.00     0.049 A 
ATOM     67  H   UNL A   1      44.107  29.321  28.231  1.00  0.00     0.167 HD
ATOM     68  C   UNL A   1      46.572  30.735  28.078  1.00  0.00     0.074 A 
ATOM     69  C   UNL A   1      47.956  31.048  27.788  1.00  0.00     0.031 C 
ATOM     70  C   UNL A   1      45.678  31.619  28.586  1.00  0.00     0.034 A 
BRANCH  57  71
ATOM     71  C   UNL A   1      39.955  29.404  29.239  1.00  0.00     0.023 A 
ATOM     72  C   UNL A   1      39.595  29.406  30.598  1.00  0.00     0.031 A 
ATOM     73  C   UNL A   1      38.944  29.558  28.275  1.00  0.00     0.131 A 
ATOM     74  C   UNL A   1      38.248  29.535  30.955  1.00  0.00     0.055 A 
ATOM     75  C   UNL A   1      37.607  29.719  28.638  1.00  0.00     0.041 A 
ATOM     76  F   UNL A   1      39.245  29.567  26.966  1.00  0.00    -0.206 F 
ATOM     77  C   UNL A   1      37.254  29.699  29.984  1.00  0.00     0.022 A 
BRANCH  74  78
ATOM     78  S   UNL A   1      37.730  29.469  32.691  1.00  0.00     0.124 S 
ATOM     79  O   UNL A   1      38.817  30.184  33.358  1.00  0.00    -0.237 OA
ATOM     80  O   UNL A   1      36.451  30.170  32.653  1.00  0.00    -0.237 OA
ATOM     81  O   UNL A   1      37.663  28.041  32.982  1.00  0.00    -0.744 OA
ENDBRANCH  74  78
ENDBRANCH  57  71
BRANCH  58  82
ATOM     82  C   UNL A   1      49.294  27.276  26.342  1.00  0.00     0.023 A 
ATOM     83  C   UNL A   1      50.327  27.061  27.271  1.00  0.00     0.031 A 
ATOM     84  C   UNL A   1      49.619  27.273  24.975  1.00  0.00     0.131 A 
ATOM     85  C   UNL A   1      51.645  26.904  26.821  1.00  0.00     0.055 A 
ATOM     86  C   UNL A   1      50.924  27.059  24.529  1.00  0.00     0.041 A 
ATOM     87  F   UNL A   1      48.666  27.485  24.054  1.00  0.00    -0.206 F 
ATOM     88  C   UNL A   1      51.948  26.886  25.456  1.00  0.00     0.022 A 
BRANCH  85  89
ATOM     89  S   UNL A   1      53.025  26.810  27.996  1.00  0.00     0.124 S 
ATOM     90  O   UNL A   1      53.716  28.073  27.760  1.00  0.00    -0.237 OA
ATOM     91  O   UNL A   1      52.319  26.706  29.271  1.00  0.00    -0.237 OA
ATOM     92  O   UNL A   1      53.746  25.610  27.586  1.00  0.00    -0.744 OA
ENDBRANCH  85  89
ENDBRANCH  58  82
BRANCH  70  93
ATOM     93  C   UNL A   1      46.134  33.023  28.890  1.00  0.00     0.023 A 
ATOM     94  C   UNL A   1      46.266  33.956  27.843  1.00  0.00     0.031 A 
ATOM     95  C   UNL A   1      46.620  33.370  30.161  1.00  0.00     0.131 A 
ATOM     96  C   UNL A   1      46.921  35.171  28.074  1.00  0.00     0.055 A 
ATOM     97  C   UNL A   1      47.234  34.600  30.397  1.00  0.00     0.041 A 
ATOM     98  F   UNL A   1      46.524  32.506  31.184  1.00  0.00    -0.206 F 
ATOM     99  C   UNL A   1      47.401  35.501  29.347  1.00  0.00     0.022 A 
BRANCH  96 100
ATOM    100  S   UNL A   1      47.243  36.331  26.718  1.00  0.00     0.124 S 
ATOM    101  O   UNL A   1      48.565  36.848  27.065  1.00  0.00    -0.237 OA
ATOM    102  O   UNL A   1      47.202  35.454  25.551  1.00  0.00    -0.237 OA
ATOM    103  O   UNL A   1      46.155  37.299  26.819  1.00  0.00    -0.744 OA
ENDBRANCH  96 100
ENDBRANCH  70  93
ENDBRANCH  44  45
ENDBRANCH  36  39
ENDBRANCH  34  35
ENDBRANCH  33  34
ENDBRANCH   1  33
TORSDOF 20
ENDMDL
MODEL 3
REMARK VINA RESULT:     -10.6      2.143      7.620
REMARK SMILES CC[C@H](C)[C@H](NC(=O)[C@H](C)Oc1ccc2c(C)c(C)c(=O)oc2c1C)C(=O)NCCCCNC(=O)c1ccc(-c2c3nc(c(-c4cc(S(=O)(=O)[O-])ccc4F)c4ccc([nH]4)c(-c4cc(S(=O)(=O)[O-])ccc4F)c4nc(c(-c5cc(S(=O)(=O)[O-])ccc5F)c5ccc2[nH]5)C=C4)C=C3)cc1
REMARK SMILES IDX 30 1 29 2 28 3 26 4 27 5 5 7 3 8 4 9 2 10 1 11 6 12 7 13
REMARK SMILES IDX 8 15 9 16 10 17 11 18 12 19 13 20 24 21 14 22 23 23 25 24
REMARK SMILES IDX 15 25 22 26 16 27 20 28 17 29 18 30 21 31 19 32 31 33 32 34
REMARK SMILES IDX 33 35 34 36 35 38 36 39 37 40 98 41 38 42 97 43 39 44 40 45
REMARK SMILES IDX 41 46 91 47 42 48 96 49 90 50 92 51 43 52 95 53 89 54 88 55
REMARK SMILES IDX 44 57 76 58 56 59 75 60 57 61 60 62 74 63 93 64 58 65 59 66
REMARK SMILES IDX 73 68 94 69 61 70 45 71 46 72 54 73 47 74 53 75 55 76 52 77
REMARK SMILES IDX 48 78 49 79 50 80 51 81 77 82 78 83 86 84 79 85 85 86 87 87
REMARK SMILES IDX 84 88 80 89 81 90 82 91 83 92 62 93 63 94 71 95 64 96 70 97
REMARK SMILES IDX 72 98 69 99 65 100 66 101 67 102 68 103
REMARK H PARENT 28 6 6 14 33 37 92 56 60 67
REMARK Flexibility Score: inf
ROOT
ATOM      1  C   UNL A   1      38.252  22.848  25.477  1.00  0.00     0.023 C 
ENDROOT
BRANCH   1   2
ATOM      2  C   UNL A   1      36.783  23.201  25.694  1.00  0.00     0.116 C 
BRANCH   2   3
ATOM      3  N   UNL A   1      35.996  23.169  24.468  1.00  0.00    -0.354 N 
ATOM      4  C   UNL A   1      34.935  23.934  24.049  1.00  0.00     0.242 C 
ATOM      5  O   UNL A   1      34.630  23.878  22.854  1.00  0.00    -0.273 OA
ATOM      6  H   UNL A   1      36.274  22.476  23.826  1.00  0.00     0.163 HD
BRANCH   4   7
ATOM      7  C   UNL A   1      34.229  24.967  24.991  1.00  0.00     0.174 C 
BRANCH   7   8
ATOM      8  C   UNL A   1      32.920  24.300  25.493  1.00  0.00     0.018 C 
ATOM      9  C   UNL A   1      31.735  24.746  24.619  1.00  0.00     0.010 C 
BRANCH   8  10
ATOM     10  C   UNL A   1      33.000  22.781  25.705  1.00  0.00     0.002 C 
ATOM     11  C   UNL A   1      31.646  22.090  25.751  1.00  0.00     0.004 C 
ENDBRANCH   8  10
ENDBRANCH   7   8
BRANCH   7  12
ATOM     12  N   UNL A   1      34.177  26.243  24.271  1.00  0.00    -0.341 N 
ATOM     13  C   UNL A   1      33.870  27.541  24.382  1.00  0.00     0.261 C 
ATOM     14  H   UNL A   1      34.488  26.083  23.350  1.00  0.00     0.164 HD
ATOM     15  O   UNL A   1      34.207  28.165  23.358  1.00  0.00    -0.271 OA
BRANCH  13  16
ATOM     16  C   UNL A   1      33.283  28.326  25.580  1.00  0.00     0.258 C 
ATOM     17  C   UNL A   1      33.743  28.244  27.024  1.00  0.00     0.064 C 
BRANCH  16  18
ATOM     18  O   UNL A   1      31.841  28.225  25.576  1.00  0.00    -0.480 OA
BRANCH  18  19
ATOM     19  C   UNL A   1      31.090  28.837  24.604  1.00  0.00     0.127 A 
ATOM     20  C   UNL A   1      30.621  28.226  23.436  1.00  0.00     0.047 A 
ATOM     21  C   UNL A   1      30.784  30.187  24.827  1.00  0.00     0.035 A 
ATOM     22  C   UNL A   1      29.795  28.912  22.536  1.00  0.00     0.016 A 
ATOM     23  C   UNL A   1      29.990  30.866  23.880  1.00  0.00     0.145 A 
ATOM     24  C   UNL A   1      31.339  30.937  26.007  1.00  0.00     0.052 C 
ATOM     25  C   UNL A   1      29.450  30.245  22.755  1.00  0.00     0.021 A 
ATOM     26  O   UNL A   1      29.783  32.243  24.091  1.00  0.00    -0.422 OA
ATOM     27  C   UNL A   1      28.567  31.012  21.857  1.00  0.00    -0.030 A 
ATOM     28  C   UNL A   1      29.143  33.040  23.157  1.00  0.00     0.339 A 
ATOM     29  C   UNL A   1      27.805  30.249  20.802  1.00  0.00     0.045 C 
ATOM     30  C   UNL A   1      28.457  32.345  22.034  1.00  0.00     0.038 A 
ATOM     31  O   UNL A   1      29.103  34.258  23.295  1.00  0.00    -0.246 OA
ATOM     32  C   UNL A   1      27.646  33.232  21.129  1.00  0.00     0.052 C 
ENDBRANCH  18  19
ENDBRANCH  16  18
ENDBRANCH  13  16
ENDBRANCH   7  12
ENDBRANCH   4   7
ENDBRANCH   2   3
ENDBRANCH   1   2
BRANCH   1  33
ATOM     33  C   UNL A   1      38.551  21.351  25.433  1.00  0.00     0.023 C 
BRANCH  33  34
ATOM     34  C   UNL A   1      39.463  20.825  26.539  1.00  0.00     0.116 C 
BRANCH  34  35
ATOM     35  N   UNL A   1      40.320  19.720  26.124  1.00  0.00    -0.352 N 
ATOM     36  C   UNL A   1      41.689  19.718  25.988  1.00  0.00     0.251 C 
ATOM     37  H   UNL A   1      39.863  18.873  25.916  1.00  0.00     0.163 HD
ATOM     38  O   UNL A   1      42.285  18.720  25.591  1.00  0.00    -0.269 OA
BRANCH  36  39
ATOM     39  C   UNL A   1      42.422  20.958  26.299  1.00  0.00     0.039 A 
ATOM     40  C   UNL A   1      42.829  21.785  25.250  1.00  0.00     0.014 A 
ATOM     41  C   UNL A   1      42.593  21.346  27.631  1.00  0.00     0.014 A 
ATOM     42  C   UNL A   1      43.344  23.049  25.537  1.00  0.00     0.010 A 
ATOM     43  C   UNL A   1      43.058  22.626  27.911  1.00  0.00     0.010 A 
ATOM     44  C   UNL A   1      43.427  23.490  26.868  1.00  0.00    -0.014 A 
BRANCH  44  45
ATOM     45  C   UNL A   1      43.900  24.856  27.201  1.00  0.00     0.031 A 
ATOM     46  C   UNL A   1      42.918  25.876  27.696  1.00  0.00     0.074 A 
ATOM     47  C   UNL A   1      45.184  25.197  26.976  1.00  0.00     0.049 A 
ATOM     48  N   UNL A   1      43.108  27.143  27.951  1.00  0.00    -0.248 NA
ATOM     49  C   UNL A   1      41.536  25.416  27.911  1.00  0.00     0.031 C 
ATOM     50  C   UNL A   1      46.216  24.299  26.459  1.00  0.00     0.029 A 
ATOM     51  N   UNL A   1      45.834  26.397  27.133  1.00  0.00    -0.354 N 
ATOM     52  C   UNL A   1      41.870  27.635  28.343  1.00  0.00     0.074 A 
ATOM     53  C   UNL A   1      40.927  26.544  28.248  1.00  0.00     0.031 C 
ATOM     54  C   UNL A   1      47.370  24.976  26.345  1.00  0.00     0.029 A 
ATOM     55  C   UNL A   1      47.155  26.365  26.748  1.00  0.00     0.049 A 
ATOM     56  H   UNL A   1      45.396  27.204  27.488  1.00  0.00     0.167 HD
ATOM     57  C   UNL A   1      41.556  28.879  28.770  1.00  0.00     0.034 A 
ATOM     58  C   UNL A   1      48.083  27.343  26.715  1.00  0.00     0.034 A 
ATOM     59  C   UNL A   1      42.508  29.950  28.888  1.00  0.00     0.049 A 
ATOM     60  C   UNL A   1      47.709  28.725  27.191  1.00  0.00     0.074 A 
ATOM     61  C   UNL A   1      42.298  31.226  29.375  1.00  0.00     0.029 A 
ATOM     62  N   UNL A   1      43.843  29.872  28.522  1.00  0.00    -0.354 N 
ATOM     63  N   UNL A   1      46.556  29.152  27.648  1.00  0.00    -0.248 NA
ATOM     64  C   UNL A   1      48.757  29.757  27.156  1.00  0.00     0.031 C 
ATOM     65  C   UNL A   1      43.496  31.935  29.265  1.00  0.00     0.029 A 
ATOM     66  C   UNL A   1      44.465  31.085  28.755  1.00  0.00     0.049 A 
ATOM     67  H   UNL A   1      44.283  29.072  28.153  1.00  0.00     0.167 HD
ATOM     68  C   UNL A   1      46.745  30.490  27.979  1.00  0.00     0.074 A 
ATOM     69  C   UNL A   1      48.127  30.802  27.680  1.00  0.00     0.031 C 
ATOM     70  C   UNL A   1      45.851  31.377  28.481  1.00  0.00     0.034 A 
BRANCH  57  71
ATOM     71  C   UNL A   1      40.135  29.157  29.176  1.00  0.00     0.023 A 
ATOM     72  C   UNL A   1      39.767  29.113  30.531  1.00  0.00     0.031 A 
ATOM     73  C   UNL A   1      39.130  29.358  28.212  1.00  0.00     0.131 A 
ATOM     74  C   UNL A   1      38.419  29.244  30.886  1.00  0.00     0.055 A 
ATOM     75  C   UNL A   1      37.794  29.521  28.574  1.00  0.00     0.041 A 
ATOM     76  F   UNL A   1      39.440  29.412  26.906  1.00  0.00    -0.206 F 
ATOM     77  C   UNL A   1      37.433  29.455  29.916  1.00  0.00     0.022 A 
BRANCH  74  78
ATOM     78  S   UNL A   1      37.891  29.121  32.616  1.00  0.00     0.124 S 
ATOM     79  O   UNL A   1      36.518  29.619  32.549  1.00  0.00    -0.237 OA
ATOM     80  O   UNL A   1      38.025  27.691  32.873  1.00  0.00    -0.237 OA
ATOM     81  O   UNL A   1      38.825  29.985  33.330  1.00  0.00    -0.744 OA
ENDBRANCH  74  78
ENDBRANCH  57  71
BRANCH  58  82
ATOM     82  C   UNL A   1      49.467  27.019  26.265  1.00  0.00     0.023 A 
ATOM     83  C   UNL A   1      50.508  26.834  27.192  1.00  0.00     0.031 A 
ATOM     84  C   UNL A   1      49.783  26.984  24.897  1.00  0.00     0.131 A 
ATOM     85  C   UNL A   1      51.824  26.675  26.737  1.00  0.00     0.055 A 
ATOM     86  C   UNL A   1      51.087  26.768  24.447  1.00  0.00     0.041 A 
ATOM     87  F   UNL A   1      48.822  27.167  23.978  1.00  0.00    -0.206 F 
ATOM     88  C   UNL A   1      52.118  26.625  25.371  1.00  0.00     0.022 A 
BRANCH  85  89
ATOM     89  S   UNL A   1      53.213  26.620  27.904  1.00  0.00     0.124 S 
ATOM     90  O   UNL A   1      53.755  27.971  27.801  1.00  0.00    -0.237 OA
ATOM     91  O   UNL A   1      52.531  26.307  29.158  1.00  0.00    -0.237 OA
ATOM     92  O   UNL A   1      54.064  25.558  27.378  1.00  0.00    -0.744 OA
ENDBRANCH  85  89
ENDBRANCH  58  82
BRANCH  70  93
ATOM     93  C   UNL A   1      46.305  32.785  28.770  1.00  0.00     0.023 A 
ATOM     94  C   UNL A   1      46.713  33.132  30.072  1.00  0.00     0.031 A 
ATOM     95  C   UNL A   1      46.145  33.808  27.822  1.00  0.00     0.131 A 
ATOM     96  C   UNL A   1      46.894  34.480  30.406  1.00  0.00     0.055 A 
ATOM     97  C   UNL A   1      46.368  35.146  28.148  1.00  0.00     0.041 A 
ATOM     98  F   UNL A   1      45.747  33.521  26.572  1.00  0.00    -0.206 F 
ATOM     99  C   UNL A   1      46.729  35.488  29.449  1.00  0.00     0.022 A 
BRANCH  96 100
ATOM    100  S   UNL A   1      47.272  34.977  32.109  1.00  0.00     0.124 S 
ATOM    101  O   UNL A   1      48.147  33.895  32.556  1.00  0.00    -0.237 OA
ATOM    102  O   UNL A   1      47.926  36.268  31.911  1.00  0.00    -0.237 OA
ATOM    103  O   UNL A   1      45.966  35.025  32.759  1.00  0.00    -0.744 OA
ENDBRANCH  96 100
ENDBRANCH  70  93
ENDBRANCH  44  45
ENDBRANCH  36  39
ENDBRANCH  34  35
ENDBRANCH  33  34
ENDBRANCH   1  33
TORSDOF 20
ENDMDL
