MODEL 1
REMARK VINA RESULT:     -12.3      0.000      0.000
REMARK SMILES COC(=O)c1ccc(-c2ccc(C(=O)NCCCCNC(=O)c3ccc(-c4c5nc(c(-c6cc(S(=O)(=O)[O-])ccc6F)c6ccc([nH]6)c(-c6cc(S(=O)(=O)[O-])ccc6F)c6nc(c(-c7cc(S(=O)(=O)[O-])ccc7F)c7ccc4[nH]7)C=C6)C=C5)cc3)cc2O)cc1F
REMARK SMILES IDX 17 1 16 2 15 3 13 4 14 5 12 7 9 8 10 9 87 10 11 11 86 12
REMARK SMILES IDX 8 13 5 14 6 15 90 16 7 17 89 18 91 19 3 20 4 21 2 22 1 23
REMARK SMILES IDX 88 24 18 26 19 27 20 28 21 29 22 31 23 32 24 33 85 34 25 35
REMARK SMILES IDX 84 36 26 37 27 38 28 39 78 40 29 41 83 42 77 43 79 44 30 45
REMARK SMILES IDX 82 46 76 47 75 48 31 50 63 51 43 52 62 53 44 54 47 55 61 56
REMARK SMILES IDX 80 57 45 58 46 59 60 61 81 62 48 63 32 64 33 65 41 66 34 67
REMARK SMILES IDX 40 68 42 69 39 70 35 71 36 72 37 73 38 74 64 75 65 76 73 77
REMARK SMILES IDX 66 78 72 79 74 80 71 81 67 82 68 83 69 84 70 85 49 86 50 87
REMARK SMILES IDX 58 88 51 89 57 90 59 91 56 92 52 93 53 94 54 95 55 96
REMARK H PARENT 15 6 88 25 20 30 79 49 47 60
REMARK Flexibility Score: inf
ROOT
ATOM      1  C   UNL A   1      31.565  30.292  26.440  1.00  0.00     0.023 C 
ENDROOT
BRANCH   1   2
ATOM      2  C   UNL A   1      32.348  29.712  25.260  1.00  0.00     0.116 C 
BRANCH   2   3
ATOM      3  N   UNL A   1      31.526  29.690  24.068  1.00  0.00    -0.352 N 
ATOM      4  C   UNL A   1      31.148  28.687  23.216  1.00  0.00     0.251 C 
ATOM      5  O   UNL A   1      30.427  28.999  22.267  1.00  0.00    -0.269 OA
ATOM      6  H   UNL A   1      31.167  30.573  23.822  1.00  0.00     0.163 HD
BRANCH   4   7
ATOM      7  C   UNL A   1      31.524  27.250  23.387  1.00  0.00     0.043 A 
ATOM      8  C   UNL A   1      32.035  24.486  23.805  1.00  0.00     0.024 A 
ATOM      9  C   UNL A   1      30.842  25.069  24.251  1.00  0.00     0.013 A 
ATOM     10  C   UNL A   1      32.959  25.309  23.149  1.00  0.00     0.124 A 
ATOM     11  C   UNL A   1      30.598  26.433  24.055  1.00  0.00     0.015 A 
ATOM     12  C   UNL A   1      32.692  26.659  22.904  1.00  0.00     0.060 A 
BRANCH   8  13
ATOM     13  C   UNL A   1      32.276  23.049  23.974  1.00  0.00    -0.012 A 
ATOM     14  C   UNL A   1      32.603  20.285  24.354  1.00  0.00     0.095 A 
ATOM     15  C   UNL A   1      32.764  21.161  25.432  1.00  0.00     0.019 A 
ATOM     16  C   UNL A   1      32.272  20.785  23.098  1.00  0.00     0.138 A 
ATOM     17  C   UNL A   1      32.611  22.534  25.238  1.00  0.00     0.010 A 
ATOM     18  C   UNL A   1      32.113  22.156  22.904  1.00  0.00     0.049 A 
ATOM     19  F   UNL A   1      32.063  19.966  22.057  1.00  0.00    -0.206 F 
BRANCH  14  20
ATOM     20  C   UNL A   1      32.766  18.842  24.601  1.00  0.00     0.340 C 
ATOM     21  O   UNL A   1      31.992  18.186  25.272  1.00  0.00    -0.246 OA
BRANCH  20  22
ATOM     22  O   UNL A   1      33.946  18.422  24.082  1.00  0.00    -0.465 OA
ATOM     23  C   UNL A   1      33.853  17.187  23.375  1.00  0.00     0.282 C 
ENDBRANCH  20  22
ENDBRANCH  14  20
ENDBRANCH   8  13
BRANCH  10  24
ATOM     24  O   UNL A   1      34.143  24.771  22.717  1.00  0.00    -0.507 OA
ATOM     25  H   UNL A   1      34.863  25.332  22.505  1.00  0.00     0.293 HD
ENDBRANCH  10  24
ENDBRANCH   4   7
ENDBRANCH   2   3
ENDBRANCH   1   2
BRANCH   1  26
ATOM     26  C   UNL A   1      31.575  31.823  26.503  1.00  0.00     0.023 C 
BRANCH  26  27
ATOM     27  C   UNL A   1      32.764  32.421  27.246  1.00  0.00     0.116 C 
BRANCH  27  28
ATOM     28  N   UNL A   1      32.544  33.798  27.656  1.00  0.00    -0.352 N 
ATOM     29  C   UNL A   1      33.210  34.519  28.615  1.00  0.00     0.251 C 
ATOM     30  H   UNL A   1      31.823  34.275  27.185  1.00  0.00     0.163 HD
ATOM     31  O   UNL A   1      32.807  35.635  28.927  1.00  0.00    -0.269 OA
BRANCH  29  32
ATOM     32  C   UNL A   1      34.382  33.921  29.288  1.00  0.00     0.039 A 
ATOM     33  C   UNL A   1      34.168  33.017  30.329  1.00  0.00     0.014 A 
ATOM     34  C   UNL A   1      35.682  34.237  28.881  1.00  0.00     0.014 A 
ATOM     35  C   UNL A   1      35.261  32.397  30.935  1.00  0.00     0.010 A 
ATOM     36  C   UNL A   1      36.763  33.557  29.430  1.00  0.00     0.010 A 
ATOM     37  C   UNL A   1      36.566  32.642  30.474  1.00  0.00    -0.014 A 
BRANCH  37  38
ATOM     38  C   UNL A   1      37.732  31.977  31.107  1.00  0.00     0.031 A 
ATOM     39  C   UNL A   1      38.166  32.382  32.490  1.00  0.00     0.074 A 
ATOM     40  C   UNL A   1      38.404  31.023  30.433  1.00  0.00     0.049 A 
ATOM     41  N   UNL A   1      39.160  31.927  33.206  1.00  0.00    -0.248 NA
ATOM     42  C   UNL A   1      37.398  33.455  33.145  1.00  0.00     0.031 C 
ATOM     43  C   UNL A   1      38.095  30.574  29.072  1.00  0.00     0.029 A 
ATOM     44  N   UNL A   1      39.473  30.246  30.801  1.00  0.00    -0.354 N 
ATOM     45  C   UNL A   1      39.139  32.658  34.388  1.00  0.00     0.074 A 
ATOM     46  C   UNL A   1      38.078  33.631  34.267  1.00  0.00     0.031 C 
ATOM     47  C   UNL A   1      38.922  29.570  28.741  1.00  0.00     0.029 A 
ATOM     48  C   UNL A   1      39.847  29.329  29.845  1.00  0.00     0.049 A 
ATOM     49  H   UNL A   1      39.930  30.337  31.668  1.00  0.00     0.167 HD
ATOM     50  C   UNL A   1      39.913  32.507  35.489  1.00  0.00     0.034 A 
ATOM     51  C   UNL A   1      40.824  28.400  29.857  1.00  0.00     0.034 A 
ATOM     52  C   UNL A   1      40.941  31.507  35.611  1.00  0.00     0.049 A 
ATOM     53  C   UNL A   1      41.693  28.272  31.080  1.00  0.00     0.074 A 
ATOM     54  C   UNL A   1      41.737  31.227  36.707  1.00  0.00     0.029 A 
ATOM     55  N   UNL A   1      41.317  30.629  34.606  1.00  0.00    -0.354 N 
ATOM     56  N   UNL A   1      41.634  28.950  32.203  1.00  0.00    -0.248 NA
ATOM     57  C   UNL A   1      42.759  27.261  31.041  1.00  0.00     0.031 C 
ATOM     58  C   UNL A   1      42.637  30.222  36.345  1.00  0.00     0.029 A 
ATOM     59  C   UNL A   1      42.359  29.830  35.044  1.00  0.00     0.049 A 
ATOM     60  H   UNL A   1      40.903  30.580  33.714  1.00  0.00     0.167 HD
ATOM     61  C   UNL A   1      42.646  28.438  33.007  1.00  0.00     0.074 A 
ATOM     62  C   UNL A   1      43.296  27.391  32.247  1.00  0.00     0.031 C 
ATOM     63  C   UNL A   1      43.002  28.801  34.265  1.00  0.00     0.034 A 
BRANCH  50  64
ATOM     64  C   UNL A   1      39.676  33.437  36.649  1.00  0.00     0.023 A 
ATOM     65  C   UNL A   1      39.054  32.994  37.828  1.00  0.00     0.031 A 
ATOM     66  C   UNL A   1      40.105  34.774  36.586  1.00  0.00     0.131 A 
ATOM     67  C   UNL A   1      38.838  33.893  38.883  1.00  0.00     0.055 A 
ATOM     68  C   UNL A   1      39.946  35.647  37.663  1.00  0.00     0.041 A 
ATOM     69  F   UNL A   1      40.688  35.252  35.475  1.00  0.00    -0.206 F 
ATOM     70  C   UNL A   1      39.303  35.210  38.817  1.00  0.00     0.022 A 
BRANCH  67  71
ATOM     71  S   UNL A   1      37.872  33.338  40.312  1.00  0.00     0.124 S 
ATOM     72  O   UNL A   1      36.573  33.068  39.700  1.00  0.00    -0.237 OA
ATOM     73  O   UNL A   1      38.618  32.170  40.766  1.00  0.00    -0.237 OA
ATOM     74  O   UNL A   1      37.903  34.487  41.214  1.00  0.00    -0.744 OA
ENDBRANCH  67  71
ENDBRANCH  50  64
BRANCH  51  75
ATOM     75  C   UNL A   1      41.029  27.523  28.671  1.00  0.00     0.023 A 
ATOM     76  C   UNL A   1      42.028  27.805  27.727  1.00  0.00     0.031 A 
ATOM     77  C   UNL A   1      40.237  26.378  28.474  1.00  0.00     0.131 A 
ATOM     78  C   UNL A   1      42.199  26.962  26.617  1.00  0.00     0.055 A 
ATOM     79  C   UNL A   1      40.434  25.522  27.389  1.00  0.00     0.041 A 
ATOM     80  F   UNL A   1      39.274  26.060  29.355  1.00  0.00    -0.206 F 
ATOM     81  C   UNL A   1      41.418  25.816  26.450  1.00  0.00     0.022 A 
BRANCH  78  82
ATOM     82  S   UNL A   1      43.447  27.396  25.374  1.00  0.00     0.124 S 
ATOM     83  O   UNL A   1      44.254  28.374  26.095  1.00  0.00    -0.237 OA
ATOM     84  O   UNL A   1      44.079  26.107  25.114  1.00  0.00    -0.237 OA
ATOM     85  O   UNL A   1      42.654  27.931  24.270  1.00  0.00    -0.744 OA
ENDBRANCH  78  82
ENDBRANCH  51  75
BRANCH  63  86
ATOM     86  C   UNL A   1      44.139  28.062  34.913  1.00  0.00     0.023 A 
ATOM     87  C   UNL A   1      43.952  26.788  35.472  1.00  0.00     0.031 A 
ATOM     88  C   UNL A   1      45.439  28.595  34.878  1.00  0.00     0.131 A 
ATOM     89  C   UNL A   1      45.053  26.087  35.984  1.00  0.00     0.055 A 
ATOM     90  C   UNL A   1      46.536  27.876  35.351  1.00  0.00     0.041 A 
ATOM     91  F   UNL A   1      45.667  29.806  34.345  1.00  0.00    -0.206 F 
ATOM     92  C   UNL A   1      46.346  26.614  35.908  1.00  0.00     0.022 A 
BRANCH  89  93
ATOM     93  S   UNL A   1      44.776  24.467  36.749  1.00  0.00     0.124 S 
ATOM     94  O   UNL A   1      43.591  23.996  36.038  1.00  0.00    -0.237 OA
ATOM     95  O   UNL A   1      46.018  23.759  36.455  1.00  0.00    -0.237 OA
ATOM     96  O   UNL A   1      44.567  24.786  38.159  1.00  0.00    -0.744 OA
ENDBRANCH  89  93
ENDBRANCH  63  86
ENDBRANCH  37  38
ENDBRANCH  29  32
ENDBRANCH  27  28
ENDBRANCH  26  27
ENDBRANCH   1  26
TORSDOF 18
ENDMDL
MODEL 2
REMARK VINA RESULT:     -12.2      2.766      3.370
REMARK SMILES COC(=O)c1ccc(-c2ccc(C(=O)NCCCCNC(=O)c3ccc(-c4c5nc(c(-c6cc(S(=O)(=O)[O-])ccc6F)c6ccc([nH]6)c(-c6cc(S(=O)(=O)[O-])ccc6F)c6nc(c(-c7cc(S(=O)(=O)[O-])ccc7F)c7ccc4[nH]7)C=C6)C=C5)cc3)cc2O)cc1F
REMARK SMILES IDX 17 1 16 2 15 3 13 4 14 5 12 7 9 8 10 9 87 10 11 11 86 12
REMARK SMILES IDX 8 13 5 14 6 15 90 16 7 17 89 18 91 19 3 20 4 21 2 22 1 23
REMARK SMILES IDX 88 24 18 26 19 27 20 28 21 29 22 31 23 32 24 33 85 34 25 35
REMARK SMILES IDX 84 36 26 37 27 38 28 39 78 40 29 41 83 42 77 43 79 44 30 45
REMARK SMILES IDX 82 46 76 47 75 48 31 50 63 51 43 52 62 53 44 54 47 55 61 56
REMARK SMILES IDX 80 57 45 58 46 59 60 61 81 62 48 63 32 64 33 65 41 66 34 67
REMARK SMILES IDX 40 68 42 69 39 70 35 71 36 72 37 73 38 74 64 75 65 76 73 77
REMARK SMILES IDX 66 78 72 79 74 80 71 81 67 82 68 83 69 84 70 85 49 86 50 87
REMARK SMILES IDX 58 88 51 89 57 90 59 91 56 92 52 93 53 94 54 95 55 96
REMARK H PARENT 15 6 88 25 20 30 79 49 47 60
REMARK Flexibility Score: inf
ROOT
ATOM      1  C   UNL A   1      30.939  29.345  24.315  1.00  0.00     0.023 C 
ENDROOT
BRANCH   1   2
ATOM      2  C   UNL A   1      31.024  28.480  23.056  1.00  0.00     0.116 C 
BRANCH   2   3
ATOM      3  N   UNL A   1      32.314  28.640  22.417  1.00  0.00    -0.352 N 
ATOM      4  C   UNL A   1      33.394  27.809  22.278  1.00  0.00     0.251 C 
ATOM      5  O   UNL A   1      34.368  28.252  21.667  1.00  0.00    -0.269 OA
ATOM      6  H   UNL A   1      32.439  29.523  22.000  1.00  0.00     0.163 HD
BRANCH   4   7
ATOM      7  C   UNL A   1      33.445  26.403  22.784  1.00  0.00     0.043 A 
ATOM      8  C   UNL A   1      33.512  23.663  23.533  1.00  0.00     0.024 A 
ATOM      9  C   UNL A   1      33.257  24.036  22.208  1.00  0.00     0.013 A 
ATOM     10  C   UNL A   1      33.732  24.682  24.469  1.00  0.00     0.124 A 
ATOM     11  C   UNL A   1      33.212  25.387  21.843  1.00  0.00     0.015 A 
ATOM     12  C   UNL A   1      33.743  26.028  24.095  1.00  0.00     0.060 A 
BRANCH   8  13
ATOM     13  C   UNL A   1      33.599  22.248  23.910  1.00  0.00    -0.012 A 
ATOM     14  C   UNL A   1      33.790  19.505  24.490  1.00  0.00     0.095 A 
ATOM     15  C   UNL A   1      32.609  20.023  23.950  1.00  0.00     0.019 A 
ATOM     16  C   UNL A   1      34.871  20.350  24.730  1.00  0.00     0.138 A 
ATOM     17  C   UNL A   1      32.513  21.388  23.673  1.00  0.00     0.010 A 
ATOM     18  C   UNL A   1      34.779  21.711  24.447  1.00  0.00     0.049 A 
ATOM     19  F   UNL A   1      36.033  19.874  25.200  1.00  0.00    -0.206 F 
BRANCH  14  20
ATOM     20  C   UNL A   1      33.855  18.060  24.762  1.00  0.00     0.340 C 
ATOM     21  O   UNL A   1      34.565  17.292  24.141  1.00  0.00    -0.246 OA
BRANCH  20  22
ATOM     22  O   UNL A   1      32.929  17.731  25.697  1.00  0.00    -0.465 OA
ATOM     23  C   UNL A   1      32.608  16.342  25.721  1.00  0.00     0.282 C 
ENDBRANCH  20  22
ENDBRANCH  14  20
ENDBRANCH   8  13
BRANCH  10  24
ATOM     24  O   UNL A   1      33.967  24.348  25.777  1.00  0.00    -0.507 OA
ATOM     25  H   UNL A   1      33.248  24.202  26.360  1.00  0.00     0.293 HD
ENDBRANCH  10  24
ENDBRANCH   4   7
ENDBRANCH   2   3
ENDBRANCH   1   2
BRANCH   1  26
ATOM     26  C   UNL A   1      31.758  28.811  25.495  1.00  0.00     0.023 C 
BRANCH  26  27
ATOM     27  C   UNL A   1      32.967  29.662  25.867  1.00  0.00     0.116 C 
BRANCH  27  28
ATOM     28  N   UNL A   1      32.610  31.012  26.270  1.00  0.00    -0.352 N 
ATOM     29  C   UNL A   1      33.235  31.823  27.185  1.00  0.00     0.251 C 
ATOM     30  H   UNL A   1      31.816  31.394  25.832  1.00  0.00     0.163 HD
ATOM     31  O   UNL A   1      32.722  32.891  27.503  1.00  0.00    -0.269 OA
BRANCH  29  32
ATOM     32  C   UNL A   1      34.501  31.377  27.803  1.00  0.00     0.039 A 
ATOM     33  C   UNL A   1      35.548  32.292  27.920  1.00  0.00     0.014 A 
ATOM     34  C   UNL A   1      34.646  30.071  28.281  1.00  0.00     0.014 A 
ATOM     35  C   UNL A   1      36.728  31.906  28.555  1.00  0.00     0.010 A 
ATOM     36  C   UNL A   1      35.791  29.715  28.985  1.00  0.00     0.010 A 
ATOM     37  C   UNL A   1      36.851  30.624  29.115  1.00  0.00    -0.014 A 
BRANCH  37  38
ATOM     38  C   UNL A   1      38.100  30.211  29.803  1.00  0.00     0.031 A 
ATOM     39  C   UNL A   1      38.386  30.703  31.196  1.00  0.00     0.074 A 
ATOM     40  C   UNL A   1      38.978  29.409  29.168  1.00  0.00     0.049 A 
ATOM     41  N   UNL A   1      39.421  30.462  31.957  1.00  0.00    -0.248 NA
ATOM     42  C   UNL A   1      37.391  31.602  31.806  1.00  0.00     0.031 C 
ATOM     43  C   UNL A   1      38.822  28.900  27.803  1.00  0.00     0.029 A 
ATOM     44  N   UNL A   1      40.166  28.867  29.589  1.00  0.00    -0.354 N 
ATOM     45  C   UNL A   1      39.204  31.180  33.127  1.00  0.00     0.074 A 
ATOM     46  C   UNL A   1      37.974  31.918  32.952  1.00  0.00     0.031 C 
ATOM     47  C   UNL A   1      39.848  28.082  27.518  1.00  0.00     0.029 A 
ATOM     48  C   UNL A   1      40.756  28.039  28.661  1.00  0.00     0.049 A 
ATOM     49  H   UNL A   1      40.559  29.053  30.472  1.00  0.00     0.167 HD
ATOM     50  C   UNL A   1      39.947  31.195  34.259  1.00  0.00     0.034 A 
ATOM     51  C   UNL A   1      41.899  27.327  28.724  1.00  0.00     0.034 A 
ATOM     52  C   UNL A   1      41.149  30.425  34.436  1.00  0.00     0.049 A 
ATOM     53  C   UNL A   1      42.725  27.384  29.982  1.00  0.00     0.074 A 
ATOM     54  C   UNL A   1      41.939  30.317  35.566  1.00  0.00     0.029 A 
ATOM     55  N   UNL A   1      41.736  29.635  33.458  1.00  0.00    -0.354 N 
ATOM     56  N   UNL A   1      42.485  28.042  31.092  1.00  0.00    -0.248 NA
ATOM     57  C   UNL A   1      43.974  26.610  29.999  1.00  0.00     0.031 C 
ATOM     58  C   UNL A   1      43.038  29.513  35.252  1.00  0.00     0.029 A 
ATOM     59  C   UNL A   1      42.898  29.066  33.947  1.00  0.00     0.049 A 
ATOM     60  H   UNL A   1      41.377  29.499  32.551  1.00  0.00     0.167 HD
ATOM     61  C   UNL A   1      43.545  27.750  31.943  1.00  0.00     0.074 A 
ATOM     62  C   UNL A   1      44.424  26.852  31.222  1.00  0.00     0.031 C 
ATOM     63  C   UNL A   1      43.768  28.184  33.208  1.00  0.00     0.034 A 
BRANCH  50  64
ATOM     64  C   UNL A   1      39.479  32.064  35.396  1.00  0.00     0.023 A 
ATOM     65  C   UNL A   1      39.924  33.390  35.536  1.00  0.00     0.031 A 
ATOM     66  C   UNL A   1      38.555  31.572  36.334  1.00  0.00     0.131 A 
ATOM     67  C   UNL A   1      39.478  34.166  36.615  1.00  0.00     0.055 A 
ATOM     68  C   UNL A   1      38.064  32.370  37.368  1.00  0.00     0.041 A 
ATOM     69  F   UNL A   1      38.112  30.307  36.256  1.00  0.00    -0.206 F 
ATOM     70  C   UNL A   1      38.531  33.673  37.518  1.00  0.00     0.022 A 
BRANCH  67  71
ATOM     71  S   UNL A   1      40.211  35.804  36.868  1.00  0.00     0.124 S 
ATOM     72  O   UNL A   1      41.638  35.491  36.855  1.00  0.00    -0.237 OA
ATOM     73  O   UNL A   1      39.712  36.556  35.722  1.00  0.00    -0.237 OA
ATOM     74  O   UNL A   1      39.681  36.219  38.165  1.00  0.00    -0.744 OA
ENDBRANCH  67  71
ENDBRANCH  50  64
BRANCH  51  75
ATOM     75  C   UNL A   1      42.326  26.504  27.559  1.00  0.00     0.023 A 
ATOM     76  C   UNL A   1      41.995  25.142  27.476  1.00  0.00     0.031 A 
ATOM     77  C   UNL A   1      43.060  27.072  26.503  1.00  0.00     0.131 A 
ATOM     78  C   UNL A   1      42.412  24.389  26.367  1.00  0.00     0.055 A 
ATOM     79  C   UNL A   1      43.440  26.328  25.385  1.00  0.00     0.041 A 
ATOM     80  F   UNL A   1      43.393  28.372  26.532  1.00  0.00    -0.206 F 
ATOM     81  C   UNL A   1      43.120  24.976  25.316  1.00  0.00     0.022 A 
BRANCH  78  82
ATOM     82  S   UNL A   1      42.035  22.615  26.325  1.00  0.00     0.124 S 
ATOM     83  O   UNL A   1      40.576  22.623  26.282  1.00  0.00    -0.237 OA
ATOM     84  O   UNL A   1      42.710  22.188  25.104  1.00  0.00    -0.237 OA
ATOM     85  O   UNL A   1      42.621  22.113  27.565  1.00  0.00    -0.744 OA
ENDBRANCH  78  82
ENDBRANCH  51  75
BRANCH  63  86
ATOM     86  C   UNL A   1      45.003  27.694  33.911  1.00  0.00     0.023 A 
ATOM     87  C   UNL A   1      46.191  28.441  33.896  1.00  0.00     0.031 A 
ATOM     88  C   UNL A   1      44.957  26.521  34.684  1.00  0.00     0.131 A 
ATOM     89  C   UNL A   1      47.296  28.002  34.640  1.00  0.00     0.055 A 
ATOM     90  C   UNL A   1      46.045  26.111  35.454  1.00  0.00     0.041 A 
ATOM     91  F   UNL A   1      43.839  25.780  34.735  1.00  0.00    -0.206 F 
ATOM     92  C   UNL A   1      47.223  26.853  35.433  1.00  0.00     0.022 A 
BRANCH  89  93
ATOM     93  S   UNL A   1      48.835  28.956  34.561  1.00  0.00     0.124 S 
ATOM     94  O   UNL A   1      48.830  29.423  33.178  1.00  0.00    -0.237 OA
ATOM     95  O   UNL A   1      48.628  29.980  35.579  1.00  0.00    -0.237 OA
ATOM     96  O   UNL A   1      49.866  27.970  34.879  1.00  0.00    -0.744 OA
ENDBRANCH  89  93
ENDBRANCH  63  86
ENDBRANCH  37  38
ENDBRANCH  29  32
ENDBRANCH  27  28
ENDBRANCH  26  27
ENDBRANCH   1  26
TORSDOF 18
ENDMDL
MODEL 3
REMARK VINA RESULT:     -12.2      5.033      9.958
REMARK SMILES COC(=O)c1ccc(-c2ccc(C(=O)NCCCCNC(=O)c3ccc(-c4c5nc(c(-c6cc(S(=O)(=O)[O-])ccc6F)c6ccc([nH]6)c(-c6cc(S(=O)(=O)[O-])ccc6F)c6nc(c(-c7cc(S(=O)(=O)[O-])ccc7F)c7ccc4[nH]7)C=C6)C=C5)cc3)cc2O)cc1F
REMARK SMILES IDX 17 1 16 2 15 3 13 4 14 5 12 7 9 8 10 9 87 10 11 11 86 12
REMARK SMILES IDX 8 13 5 14 6 15 90 16 7 17 89 18 91 19 3 20 4 21 2 22 1 23
REMARK SMILES IDX 88 24 18 26 19 27 20 28 21 29 22 31 23 32 24 33 85 34 25 35
REMARK SMILES IDX 84 36 26 37 27 38 28 39 78 40 29 41 83 42 77 43 79 44 30 45
REMARK SMILES IDX 82 46 76 47 75 48 31 50 63 51 43 52 62 53 44 54 47 55 61 56
REMARK SMILES IDX 80 57 45 58 46 59 60 61 81 62 48 63 32 64 33 65 41 66 34 67
REMARK SMILES IDX 40 68 42 69 39 70 35 71 36 72 37 73 38 74 64 75 65 76 73 77
REMARK SMILES IDX 66 78 72 79 74 80 71 81 67 82 68 83 69 84 70 85 49 86 50 87
REMARK SMILES IDX 58 88 51 89 57 90 59 91 56 92 52 93 53 94 54 95 55 96
REMARK H PARENT 15 6 88 25 20 30 79 49 47 60
REMARK Flexibility Score: inf
ROOT
ATOM      1  C   UNL A   1      35.386  21.561  26.183  1.00  0.00     0.023 C 
ENDROOT
BRANCH   1   2
ATOM      2  C   UNL A   1      35.316  20.566  25.022  1.00  0.00     0.116 C 
BRANCH   2   3
ATOM      3  N   UNL A   1      34.070  19.828  25.062  1.00  0.00    -0.352 N 
ATOM      4  C   UNL A   1      32.757  20.214  25.005  1.00  0.00     0.251 C 
ATOM      5  O   UNL A   1      31.908  19.324  25.068  1.00  0.00    -0.269 OA
ATOM      6  H   UNL A   1      34.192  18.855  25.147  1.00  0.00     0.163 HD
BRANCH   4   7
ATOM      7  C   UNL A   1      32.301  21.628  24.836  1.00  0.00     0.043 A 
ATOM      8  C   UNL A   1      31.458  24.287  24.294  1.00  0.00     0.024 A 
ATOM      9  C   UNL A   1      31.879  23.444  23.257  1.00  0.00     0.013 A 
ATOM     10  C   UNL A   1      31.467  23.774  25.598  1.00  0.00     0.124 A 
ATOM     11  C   UNL A   1      32.305  22.138  23.528  1.00  0.00     0.015 A 
ATOM     12  C   UNL A   1      31.840  22.454  25.862  1.00  0.00     0.060 A 
BRANCH   8  13
ATOM     13  C   UNL A   1      30.973  25.641  24.008  1.00  0.00    -0.012 A 
ATOM     14  C   UNL A   1      30.072  28.212  23.319  1.00  0.00     0.095 A 
ATOM     15  C   UNL A   1      31.443  27.959  23.430  1.00  0.00     0.019 A 
ATOM     16  C   UNL A   1      29.158  27.185  23.541  1.00  0.00     0.138 A 
ATOM     17  C   UNL A   1      31.887  26.684  23.783  1.00  0.00     0.010 A 
ATOM     18  C   UNL A   1      29.600  25.910  23.887  1.00  0.00     0.049 A 
ATOM     19  F   UNL A   1      27.841  27.384  23.393  1.00  0.00    -0.206 F 
BRANCH  14  20
ATOM     20  C   UNL A   1      29.644  29.568  22.938  1.00  0.00     0.340 C 
ATOM     21  O   UNL A   1      29.508  30.476  23.735  1.00  0.00    -0.246 OA
BRANCH  20  22
ATOM     22  O   UNL A   1      29.315  29.589  21.622  1.00  0.00    -0.465 OA
ATOM     23  C   UNL A   1      28.214  30.443  21.320  1.00  0.00     0.282 C 
ENDBRANCH  20  22
ENDBRANCH  14  20
ENDBRANCH   8  13
BRANCH  10  24
ATOM     24  O   UNL A   1      31.077  24.582  26.635  1.00  0.00    -0.507 OA
ATOM     25  H   UNL A   1      30.780  25.453  26.464  1.00  0.00     0.293 HD
ENDBRANCH  10  24
ENDBRANCH   4   7
ENDBRANCH   2   3
ENDBRANCH   1   2
BRANCH   1  26
ATOM     26  C   UNL A   1      35.547  23.020  25.746  1.00  0.00     0.023 C 
BRANCH  26  27
ATOM     27  C   UNL A   1      36.933  23.607  25.987  1.00  0.00     0.116 C 
BRANCH  27  28
ATOM     28  N   UNL A   1      37.976  22.596  26.052  1.00  0.00    -0.352 N 
ATOM     29  C   UNL A   1      39.290  22.748  26.417  1.00  0.00     0.251 C 
ATOM     30  H   UNL A   1      37.703  21.684  25.801  1.00  0.00     0.163 HD
ATOM     31  O   UNL A   1      40.070  21.810  26.289  1.00  0.00    -0.269 OA
BRANCH  29  32
ATOM     32  C   UNL A   1      39.755  24.056  26.922  1.00  0.00     0.039 A 
ATOM     33  C   UNL A   1      40.185  25.015  26.004  1.00  0.00     0.014 A 
ATOM     34  C   UNL A   1      39.749  24.341  28.291  1.00  0.00     0.014 A 
ATOM     35  C   UNL A   1      40.570  26.276  26.458  1.00  0.00     0.010 A 
ATOM     36  C   UNL A   1      40.055  25.624  28.733  1.00  0.00     0.010 A 
ATOM     37  C   UNL A   1      40.485  26.600  27.823  1.00  0.00    -0.014 A 
BRANCH  37  38
ATOM     38  C   UNL A   1      40.882  27.944  28.311  1.00  0.00     0.031 A 
ATOM     39  C   UNL A   1      42.332  28.346  28.300  1.00  0.00     0.074 A 
ATOM     40  C   UNL A   1      39.942  28.792  28.773  1.00  0.00     0.049 A 
ATOM     41  N   UNL A   1      42.878  29.468  28.691  1.00  0.00    -0.248 NA
ATOM     42  C   UNL A   1      43.299  27.350  27.809  1.00  0.00     0.031 C 
ATOM     43  C   UNL A   1      38.509  28.495  28.865  1.00  0.00     0.029 A 
ATOM     44  N   UNL A   1      40.043  30.078  29.239  1.00  0.00    -0.354 N 
ATOM     45  C   UNL A   1      44.245  29.310  28.497  1.00  0.00     0.074 A 
ATOM     46  C   UNL A   1      44.454  27.963  28.018  1.00  0.00     0.031 C 
ATOM     47  C   UNL A   1      37.862  29.585  29.308  1.00  0.00     0.029 A 
ATOM     48  C   UNL A   1      38.833  30.643  29.573  1.00  0.00     0.049 A 
ATOM     49  H   UNL A   1      40.901  30.553  29.327  1.00  0.00     0.167 HD
ATOM     50  C   UNL A   1      45.233  30.220  28.670  1.00  0.00     0.034 A 
ATOM     51  C   UNL A   1      38.539  31.873  30.040  1.00  0.00     0.034 A 
ATOM     52  C   UNL A   1      45.007  31.571  29.111  1.00  0.00     0.049 A 
ATOM     53  C   UNL A   1      39.659  32.858  30.254  1.00  0.00     0.074 A 
ATOM     54  C   UNL A   1      45.931  32.590  29.255  1.00  0.00     0.029 A 
ATOM     55  N   UNL A   1      43.775  32.089  29.480  1.00  0.00    -0.354 N 
ATOM     56  N   UNL A   1      40.943  32.701  30.032  1.00  0.00    -0.248 NA
ATOM     57  C   UNL A   1      39.296  34.179  30.785  1.00  0.00     0.031 C 
ATOM     58  C   UNL A   1      45.267  33.706  29.771  1.00  0.00     0.029 A 
ATOM     59  C   UNL A   1      43.919  33.403  29.887  1.00  0.00     0.049 A 
ATOM     60  H   UNL A   1      42.923  31.595  29.454  1.00  0.00     0.167 HD
ATOM     61  C   UNL A   1      41.539  33.907  30.383  1.00  0.00     0.074 A 
ATOM     62  C   UNL A   1      40.475  34.786  30.825  1.00  0.00     0.031 C 
ATOM     63  C   UNL A   1      42.848  34.257  30.338  1.00  0.00     0.034 A 
BRANCH  50  64
ATOM     64  C   UNL A   1      46.646  29.788  28.379  1.00  0.00     0.023 A 
ATOM     65  C   UNL A   1      47.463  29.231  29.378  1.00  0.00     0.031 A 
ATOM     66  C   UNL A   1      47.171  29.906  27.081  1.00  0.00     0.131 A 
ATOM     67  C   UNL A   1      48.778  28.853  29.073  1.00  0.00     0.055 A 
ATOM     68  C   UNL A   1      48.459  29.467  26.768  1.00  0.00     0.041 A 
ATOM     69  F   UNL A   1      46.439  30.447  26.094  1.00  0.00    -0.206 F 
ATOM     70  C   UNL A   1      49.273  28.944  27.769  1.00  0.00     0.022 A 
BRANCH  67  71
ATOM     71  S   UNL A   1      49.860  28.312  30.422  1.00  0.00     0.124 S 
ATOM     72  O   UNL A   1      51.177  28.403  29.795  1.00  0.00    -0.237 OA
ATOM     73  O   UNL A   1      49.582  29.292  31.466  1.00  0.00    -0.237 OA
ATOM     74  O   UNL A   1      49.403  26.953  30.704  1.00  0.00    -0.744 OA
ENDBRANCH  67  71
ENDBRANCH  50  64
BRANCH  51  75
ATOM     75  C   UNL A   1      37.126  32.238  30.335  1.00  0.00     0.023 A 
ATOM     76  C   UNL A   1      36.265  32.677  29.317  1.00  0.00     0.031 A 
ATOM     77  C   UNL A   1      36.612  32.138  31.639  1.00  0.00     0.131 A 
ATOM     78  C   UNL A   1      34.938  33.016  29.624  1.00  0.00     0.055 A 
ATOM     79  C   UNL A   1      35.282  32.441  31.933  1.00  0.00     0.041 A 
ATOM     80  F   UNL A   1      37.394  31.714  32.645  1.00  0.00    -0.206 F 
ATOM     81  C   UNL A   1      34.437  32.888  30.921  1.00  0.00     0.022 A 
BRANCH  78  82
ATOM     82  S   UNL A   1      33.871  33.653  28.302  1.00  0.00     0.124 S 
ATOM     83  O   UNL A   1      32.916  34.459  29.055  1.00  0.00    -0.237 OA
ATOM     84  O   UNL A   1      34.819  34.389  27.472  1.00  0.00    -0.237 OA
ATOM     85  O   UNL A   1      33.324  32.443  27.693  1.00  0.00    -0.744 OA
ENDBRANCH  78  82
ENDBRANCH  51  75
BRANCH  63  86
ATOM     86  C   UNL A   1      43.217  35.650  30.768  1.00  0.00     0.023 A 
ATOM     87  C   UNL A   1      43.390  35.969  32.123  1.00  0.00     0.031 A 
ATOM     88  C   UNL A   1      43.497  36.635  29.805  1.00  0.00     0.131 A 
ATOM     89  C   UNL A   1      43.826  37.252  32.484  1.00  0.00     0.055 A 
ATOM     90  C   UNL A   1      43.970  37.896  30.167  1.00  0.00     0.041 A 
ATOM     91  F   UNL A   1      43.355  36.371  28.497  1.00  0.00    -0.206 F 
ATOM     92  C   UNL A   1      44.136  38.210  31.513  1.00  0.00     0.022 A 
BRANCH  89  93
ATOM     93  S   UNL A   1      43.990  37.655  34.243  1.00  0.00     0.124 S 
ATOM     94  O   UNL A   1      44.315  36.355  34.822  1.00  0.00    -0.237 OA
ATOM     95  O   UNL A   1      45.066  38.641  34.247  1.00  0.00    -0.237 OA
ATOM     96  O   UNL A   1      42.672  38.180  34.598  1.00  0.00    -0.744 OA
ENDBRANCH  89  93
ENDBRANCH  63  86
ENDBRANCH  37  38
ENDBRANCH  29  32
ENDBRANCH  27  28
ENDBRANCH  26  27
ENDBRANCH   1  26
TORSDOF 18
ENDMDL
