MODEL 1
REMARK VINA RESULT:     -11.9      0.000      0.000
REMARK SMILES O=C(NCCCCNC(=O)c1ccccc1C(=O)c1cccc(S(=O)(=O)N2CCOCC2)c1)c1ccc(-c2c3nc(c(-c4cc(S(=O)(=O)[O-])ccc4F)c4ccc([nH]4)c(-c4cc(S(=O)(=O)[O-])ccc4F)c4nc(c(-c5cc(S(=O)(=O)[O-])ccc5F)c5ccc2[nH]5)C=C4)C=C3)cc1
REMARK SMILES IDX 6 1 5 2 4 3 3 4 1 5 2 6 34 8 35 9 96 10 36 11 95 12 37 13
REMARK SMILES IDX 38 14 39 15 89 16 40 17 94 18 88 19 90 20 41 21 93 22 87 23
REMARK SMILES IDX 86 24 42 26 74 27 54 28 73 29 55 30 58 31 72 32 91 33 56 34
REMARK SMILES IDX 57 35 71 37 92 38 59 39 43 40 44 41 52 42 45 43 51 44 53 45
REMARK SMILES IDX 50 46 46 47 47 48 48 49 49 50 75 51 76 52 84 53 77 54 83 55
REMARK SMILES IDX 85 56 82 57 78 58 79 59 80 60 81 61 60 62 61 63 69 64 62 65
REMARK SMILES IDX 68 66 70 67 67 68 63 69 64 70 65 71 66 72 7 73 8 74 9 75
REMARK SMILES IDX 10 77 11 78 12 79 16 80 13 81 15 82 14 83 17 84 18 85 19 86
REMARK SMILES IDX 20 87 33 88 21 89 23 90 22 91 24 92 25 93 26 94 27 95 28 96
REMARK SMILES IDX 32 97 29 98 31 99 30 100
REMARK H PARENT 3 7 90 25 58 36 8 76
REMARK Flexibility Score: inf
ROOT
ATOM      1  C   UNL A   1      32.012  29.446  27.093  1.00  0.00     0.023 C 
ENDROOT
BRANCH   1   2
ATOM      2  C   UNL A   1      33.316  28.642  27.141  1.00  0.00     0.023 C 
BRANCH   2   3
ATOM      3  C   UNL A   1      34.596  29.448  27.332  1.00  0.00     0.116 C 
BRANCH   3   4
ATOM      4  N   UNL A   1      34.409  30.605  28.193  1.00  0.00    -0.352 N 
ATOM      5  O   UNL A   1      34.844  31.994  29.916  1.00  0.00    -0.269 OA
ATOM      6  C   UNL A   1      35.234  31.092  29.180  1.00  0.00     0.251 C 
ATOM      7  H   UNL A   1      33.576  31.109  28.052  1.00  0.00     0.163 HD
BRANCH   6   8
ATOM      8  C   UNL A   1      36.585  30.518  29.366  1.00  0.00     0.039 A 
ATOM      9  C   UNL A   1      36.789  29.431  30.221  1.00  0.00     0.014 A 
ATOM     10  C   UNL A   1      37.660  31.069  28.663  1.00  0.00     0.014 A 
ATOM     11  C   UNL A   1      38.081  28.969  30.462  1.00  0.00     0.010 A 
ATOM     12  C   UNL A   1      38.951  30.569  28.866  1.00  0.00     0.010 A 
ATOM     13  C   UNL A   1      39.175  29.534  29.788  1.00  0.00    -0.014 A 
BRANCH  13  14
ATOM     14  C   UNL A   1      40.549  29.025  30.042  1.00  0.00     0.031 A 
ATOM     15  C   UNL A   1      41.404  29.635  31.119  1.00  0.00     0.074 A 
ATOM     16  C   UNL A   1      41.020  28.002  29.304  1.00  0.00     0.049 A 
ATOM     17  N   UNL A   1      42.638  29.357  31.453  1.00  0.00    -0.248 NA
ATOM     18  C   UNL A   1      40.791  30.705  31.920  1.00  0.00     0.031 C 
ATOM     19  C   UNL A   1      40.279  27.320  28.241  1.00  0.00     0.029 A 
ATOM     20  N   UNL A   1      42.228  27.354  29.335  1.00  0.00    -0.354 N 
ATOM     21  C   UNL A   1      42.957  30.221  32.496  1.00  0.00     0.074 A 
ATOM     22  C   UNL A   1      41.793  31.057  32.712  1.00  0.00     0.031 C 
ATOM     23  C   UNL A   1      41.039  26.336  27.738  1.00  0.00     0.029 A 
ATOM     24  C   UNL A   1      42.340  26.352  28.399  1.00  0.00     0.049 A 
ATOM     25  H   UNL A   1      42.947  27.583  29.967  1.00  0.00     0.167 HD
ATOM     26  C   UNL A   1      44.108  30.304  33.209  1.00  0.00     0.034 A 
ATOM     27  C   UNL A   1      43.379  25.554  28.088  1.00  0.00     0.034 A 
ATOM     28  C   UNL A   1      45.262  29.464  32.978  1.00  0.00     0.049 A 
ATOM     29  C   UNL A   1      44.667  25.705  28.853  1.00  0.00     0.074 A 
ATOM     30  C   UNL A   1      46.472  29.453  33.651  1.00  0.00     0.029 A 
ATOM     31  N   UNL A   1      45.353  28.490  31.990  1.00  0.00    -0.354 N 
ATOM     32  N   UNL A   1      44.954  26.533  29.830  1.00  0.00    -0.248 NA
ATOM     33  C   UNL A   1      45.769  24.813  28.472  1.00  0.00     0.031 C 
ATOM     34  C   UNL A   1      47.313  28.517  33.035  1.00  0.00     0.029 A 
ATOM     35  C   UNL A   1      46.606  27.894  32.020  1.00  0.00     0.049 A 
ATOM     36  H   UNL A   1      44.632  28.256  31.362  1.00  0.00     0.167 HD
ATOM     37  C   UNL A   1      46.267  26.248  30.192  1.00  0.00     0.074 A 
ATOM     38  C   UNL A   1      46.707  25.162  29.340  1.00  0.00     0.031 C 
ATOM     39  C   UNL A   1      47.038  26.828  31.147  1.00  0.00     0.034 A 
BRANCH  26  40
ATOM     40  C   UNL A   1      44.191  31.371  34.274  1.00  0.00     0.023 A 
ATOM     41  C   UNL A   1      43.773  31.133  35.595  1.00  0.00     0.031 A 
ATOM     42  C   UNL A   1      44.674  32.653  33.957  1.00  0.00     0.131 A 
ATOM     43  C   UNL A   1      43.783  32.179  36.532  1.00  0.00     0.055 A 
ATOM     44  C   UNL A   1      44.751  33.669  34.913  1.00  0.00     0.041 A 
ATOM     45  F   UNL A   1      45.068  32.946  32.708  1.00  0.00    -0.206 F 
ATOM     46  C   UNL A   1      44.291  33.439  36.206  1.00  0.00     0.022 A 
BRANCH  43  47
ATOM     47  S   UNL A   1      42.998  31.909  38.145  1.00  0.00     0.124 S 
ATOM     48  O   UNL A   1      42.879  33.275  38.650  1.00  0.00    -0.237 OA
ATOM     49  O   UNL A   1      41.749  31.251  37.781  1.00  0.00    -0.237 OA
ATOM     50  O   UNL A   1      43.960  31.073  38.860  1.00  0.00    -0.744 OA
ENDBRANCH  43  47
ENDBRANCH  26  40
BRANCH  27  51
ATOM     51  C   UNL A   1      43.260  24.569  26.978  1.00  0.00     0.023 A 
ATOM     52  C   UNL A   1      42.587  23.351  27.159  1.00  0.00     0.031 A 
ATOM     53  C   UNL A   1      43.841  24.826  25.723  1.00  0.00     0.131 A 
ATOM     54  C   UNL A   1      42.540  22.420  26.111  1.00  0.00     0.055 A 
ATOM     55  C   UNL A   1      43.750  23.917  24.671  1.00  0.00     0.041 A 
ATOM     56  F   UNL A   1      44.492  25.979  25.500  1.00  0.00    -0.206 F 
ATOM     57  C   UNL A   1      43.106  22.699  24.864  1.00  0.00     0.022 A 
BRANCH  54  58
ATOM     58  S   UNL A   1      41.784  20.801  26.421  1.00  0.00     0.124 S 
ATOM     59  O   UNL A   1      42.168  20.552  27.805  1.00  0.00    -0.237 OA
ATOM     60  O   UNL A   1      40.370  21.078  26.187  1.00  0.00    -0.237 OA
ATOM     61  O   UNL A   1      42.419  19.933  25.430  1.00  0.00    -0.744 OA
ENDBRANCH  54  58
ENDBRANCH  27  51
BRANCH  39  62
ATOM     62  C   UNL A   1      48.425  26.266  31.331  1.00  0.00     0.023 A 
ATOM     63  C   UNL A   1      48.680  25.208  32.221  1.00  0.00     0.031 A 
ATOM     64  C   UNL A   1      49.510  26.815  30.625  1.00  0.00     0.131 A 
ATOM     65  C   UNL A   1      49.997  24.768  32.424  1.00  0.00     0.055 A 
ATOM     66  C   UNL A   1      50.810  26.338  30.791  1.00  0.00     0.041 A 
ATOM     67  F   UNL A   1      49.322  27.827  29.764  1.00  0.00    -0.206 F 
ATOM     68  C   UNL A   1      51.062  25.317  31.704  1.00  0.00     0.022 A 
BRANCH  65  69
ATOM     69  S   UNL A   1      50.314  23.522  33.704  1.00  0.00     0.124 S 
ATOM     70  O   UNL A   1      51.010  22.483  32.952  1.00  0.00    -0.237 OA
ATOM     71  O   UNL A   1      51.124  24.263  34.667  1.00  0.00    -0.237 OA
ATOM     72  O   UNL A   1      48.977  23.160  34.170  1.00  0.00    -0.744 OA
ENDBRANCH  65  69
ENDBRANCH  39  62
ENDBRANCH  13  14
ENDBRANCH   6   8
ENDBRANCH   3   4
ENDBRANCH   2   3
ENDBRANCH   1   2
BRANCH   1  73
ATOM     73  C   UNL A   1      31.749  30.211  25.798  1.00  0.00     0.116 C 
BRANCH  73  74
ATOM     74  N   UNL A   1      32.541  29.729  24.682  1.00  0.00    -0.352 N 
ATOM     75  C   UNL A   1      32.143  29.013  23.591  1.00  0.00     0.252 C 
ATOM     76  H   UNL A   1      33.499  29.949  24.717  1.00  0.00     0.163 HD
ATOM     77  O   UNL A   1      32.953  28.644  22.743  1.00  0.00    -0.269 OA
BRANCH  75  78
ATOM     78  C   UNL A   1      30.738  28.636  23.391  1.00  0.00     0.050 A 
ATOM     79  C   UNL A   1      29.962  29.603  22.720  1.00  0.00     0.014 A 
ATOM     80  C   UNL A   1      30.140  27.470  23.880  1.00  0.00     0.035 A 
ATOM     81  C   UNL A   1      28.604  29.393  22.494  1.00  0.00     0.001 A 
ATOM     82  C   UNL A   1      28.767  27.271  23.629  1.00  0.00     0.013 A 
ATOM     83  C   UNL A   1      28.007  28.223  22.944  1.00  0.00     0.001 A 
BRANCH  80  84
ATOM     84  C   UNL A   1      30.826  26.352  24.581  1.00  0.00     0.193 C 
ATOM     85  O   UNL A   1      30.803  26.388  25.813  1.00  0.00    -0.289 OA
BRANCH  84  86
ATOM     86  C   UNL A   1      31.548  25.223  23.931  1.00  0.00     0.024 A 
ATOM     87  C   UNL A   1      32.083  25.434  22.649  1.00  0.00     0.012 A 
ATOM     88  C   UNL A   1      31.678  23.963  24.509  1.00  0.00     0.034 A 
ATOM     89  C   UNL A   1      32.760  24.413  21.973  1.00  0.00     0.002 A 
ATOM     90  C   UNL A   1      32.361  22.942  23.834  1.00  0.00     0.083 A 
ATOM     91  C   UNL A   1      32.904  23.163  22.568  1.00  0.00     0.022 A 
BRANCH  90  92
ATOM     92  S   UNL A   1      32.459  21.311  24.546  1.00  0.00     0.243 S 
ATOM     93  O   UNL A   1      31.471  21.259  25.601  1.00  0.00    -0.207 OA
ATOM     94  O   UNL A   1      32.465  20.377  23.445  1.00  0.00    -0.207 OA
BRANCH  92  95
ATOM     95  N   UNL A   1      33.958  21.318  25.284  1.00  0.00    -0.193 NA
ATOM     96  C   UNL A   1      34.263  22.223  26.402  1.00  0.00     0.131 C 
ATOM     97  C   UNL A   1      35.034  20.384  24.908  1.00  0.00     0.131 C 
ATOM     98  C   UNL A   1      35.603  22.914  26.139  1.00  0.00     0.177 C 
ATOM     99  C   UNL A   1      36.369  21.132  24.778  1.00  0.00     0.177 C 
ATOM    100  O   UNL A   1      36.652  21.957  25.921  1.00  0.00    -0.379 OA
ENDBRANCH  92  95
ENDBRANCH  90  92
ENDBRANCH  84  86
ENDBRANCH  80  84
ENDBRANCH  75  78
ENDBRANCH  73  74
ENDBRANCH   1  73
TORSDOF 18
ENDMDL
MODEL 2
REMARK VINA RESULT:     -11.7      4.519      8.594
REMARK SMILES O=C(NCCCCNC(=O)c1ccccc1C(=O)c1cccc(S(=O)(=O)N2CCOCC2)c1)c1ccc(-c2c3nc(c(-c4cc(S(=O)(=O)[O-])ccc4F)c4ccc([nH]4)c(-c4cc(S(=O)(=O)[O-])ccc4F)c4nc(c(-c5cc(S(=O)(=O)[O-])ccc5F)c5ccc2[nH]5)C=C4)C=C3)cc1
REMARK SMILES IDX 6 1 5 2 4 3 3 4 1 5 2 6 34 8 35 9 96 10 36 11 95 12 37 13
REMARK SMILES IDX 38 14 39 15 89 16 40 17 94 18 88 19 90 20 41 21 93 22 87 23
REMARK SMILES IDX 86 24 42 26 74 27 54 28 73 29 55 30 58 31 72 32 91 33 56 34
REMARK SMILES IDX 57 35 71 37 92 38 59 39 43 40 44 41 52 42 45 43 51 44 53 45
REMARK SMILES IDX 50 46 46 47 47 48 48 49 49 50 75 51 76 52 84 53 77 54 83 55
REMARK SMILES IDX 85 56 82 57 78 58 79 59 80 60 81 61 60 62 61 63 69 64 62 65
REMARK SMILES IDX 68 66 70 67 67 68 63 69 64 70 65 71 66 72 7 73 8 74 9 75
REMARK SMILES IDX 10 77 11 78 12 79 16 80 13 81 15 82 14 83 17 84 18 85 19 86
REMARK SMILES IDX 20 87 33 88 21 89 23 90 22 91 24 92 25 93 26 94 27 95 28 96
REMARK SMILES IDX 32 97 29 98 31 99 30 100
REMARK H PARENT 3 7 90 25 58 36 8 76
REMARK Flexibility Score: inf
ROOT
ATOM      1  C   UNL A   1      37.815  21.682  24.924  1.00  0.00     0.023 C 
ENDROOT
BRANCH   1   2
ATOM      2  C   UNL A   1      38.434  20.319  25.252  1.00  0.00     0.023 C 
BRANCH   2   3
ATOM      3  C   UNL A   1      39.499  20.309  26.343  1.00  0.00     0.116 C 
BRANCH   3   4
ATOM      4  N   UNL A   1      40.573  19.367  26.072  1.00  0.00    -0.352 N 
ATOM      5  O   UNL A   1      42.668  18.710  25.560  1.00  0.00    -0.269 OA
ATOM      6  C   UNL A   1      41.922  19.605  25.944  1.00  0.00     0.251 C 
ATOM      7  H   UNL A   1      40.297  18.428  25.965  1.00  0.00     0.163 HD
BRANCH   6   8
ATOM      8  C   UNL A   1      42.470  20.945  26.251  1.00  0.00     0.039 A 
ATOM      9  C   UNL A   1      42.704  21.336  27.573  1.00  0.00     0.014 A 
ATOM     10  C   UNL A   1      42.766  21.815  25.199  1.00  0.00     0.014 A 
ATOM     11  C   UNL A   1      43.125  22.635  27.849  1.00  0.00     0.010 A 
ATOM     12  C   UNL A   1      43.239  23.102  25.475  1.00  0.00     0.010 A 
ATOM     13  C   UNL A   1      43.395  23.532  26.803  1.00  0.00    -0.014 A 
BRANCH  13  14
ATOM     14  C   UNL A   1      43.855  24.912  27.108  1.00  0.00     0.031 A 
ATOM     15  C   UNL A   1      42.907  25.924  27.691  1.00  0.00     0.074 A 
ATOM     16  C   UNL A   1      45.136  25.248  26.865  1.00  0.00     0.049 A 
ATOM     17  N   UNL A   1      43.115  27.184  27.977  1.00  0.00    -0.248 NA
ATOM     18  C   UNL A   1      41.544  25.458  27.983  1.00  0.00     0.031 C 
ATOM     19  C   UNL A   1      46.152  24.349  26.314  1.00  0.00     0.029 A 
ATOM     20  N   UNL A   1      45.807  26.430  27.054  1.00  0.00    -0.354 N 
ATOM     21  C   UNL A   1      41.909  27.668  28.474  1.00  0.00     0.074 A 
ATOM     22  C   UNL A   1      40.965  26.569  28.415  1.00  0.00     0.031 C 
ATOM     23  C   UNL A   1      47.320  25.004  26.231  1.00  0.00     0.029 A 
ATOM     24  C   UNL A   1      47.126  26.383  26.666  1.00  0.00     0.049 A 
ATOM     25  H   UNL A   1      45.384  27.235  27.430  1.00  0.00     0.167 HD
ATOM     26  C   UNL A   1      41.619  28.908  28.941  1.00  0.00     0.034 A 
ATOM     27  C   UNL A   1      48.066  27.346  26.638  1.00  0.00     0.034 A 
ATOM     28  C   UNL A   1      42.571  29.994  28.990  1.00  0.00     0.049 A 
ATOM     29  C   UNL A   1      47.704  28.731  27.105  1.00  0.00     0.074 A 
ATOM     30  C   UNL A   1      42.387  31.284  29.458  1.00  0.00     0.029 A 
ATOM     31  N   UNL A   1      43.886  29.921  28.547  1.00  0.00    -0.354 N 
ATOM     32  N   UNL A   1      46.556  29.174  27.564  1.00  0.00    -0.248 NA
ATOM     33  C   UNL A   1      48.765  29.745  27.050  1.00  0.00     0.031 C 
ATOM     34  C   UNL A   1      43.569  32.006  29.244  1.00  0.00     0.029 A 
ATOM     35  C   UNL A   1      44.514  31.148  28.704  1.00  0.00     0.049 A 
ATOM     36  H   UNL A   1      44.311  29.115  28.176  1.00  0.00     0.167 HD
ATOM     37  C   UNL A   1      46.764  30.515  27.869  1.00  0.00     0.074 A 
ATOM     38  C   UNL A   1      48.150  30.803  27.558  1.00  0.00     0.031 C 
ATOM     39  C   UNL A   1      45.890  31.426  28.367  1.00  0.00     0.034 A 
BRANCH  26  40
ATOM     40  C   UNL A   1      40.201  29.167  29.392  1.00  0.00     0.023 A 
ATOM     41  C   UNL A   1      39.830  29.101  30.747  1.00  0.00     0.031 A 
ATOM     42  C   UNL A   1      39.199  29.462  28.450  1.00  0.00     0.131 A 
ATOM     43  C   UNL A   1      38.484  29.260  31.114  1.00  0.00     0.055 A 
ATOM     44  C   UNL A   1      37.875  29.693  28.829  1.00  0.00     0.041 A 
ATOM     45  F   UNL A   1      39.488  29.518  27.140  1.00  0.00    -0.206 F 
ATOM     46  C   UNL A   1      37.508  29.578  30.166  1.00  0.00     0.022 A 
BRANCH  43  47
ATOM     47  S   UNL A   1      38.003  28.910  32.827  1.00  0.00     0.124 S 
ATOM     48  O   UNL A   1      39.038  29.619  33.576  1.00  0.00    -0.237 OA
ATOM     49  O   UNL A   1      36.661  29.476  32.901  1.00  0.00    -0.237 OA
ATOM     50  O   UNL A   1      38.072  27.453  32.914  1.00  0.00    -0.744 OA
ENDBRANCH  43  47
ENDBRANCH  26  40
BRANCH  27  51
ATOM     51  C   UNL A   1      49.427  27.048  26.113  1.00  0.00     0.023 A 
ATOM     52  C   UNL A   1      50.501  26.803  26.983  1.00  0.00     0.031 A 
ATOM     53  C   UNL A   1      49.677  27.027  24.729  1.00  0.00     0.131 A 
ATOM     54  C   UNL A   1      51.783  26.580  26.460  1.00  0.00     0.055 A 
ATOM     55  C   UNL A   1      50.943  26.758  24.214  1.00  0.00     0.041 A 
ATOM     56  F   UNL A   1      48.680  27.252  23.857  1.00  0.00    -0.206 F 
ATOM     57  C   UNL A   1      52.010  26.544  25.081  1.00  0.00     0.022 A 
BRANCH  54  58
ATOM     58  S   UNL A   1      53.173  26.405  27.612  1.00  0.00     0.124 S 
ATOM     59  O   UNL A   1      52.485  26.256  28.889  1.00  0.00    -0.237 OA
ATOM     60  O   UNL A   1      53.842  25.213  27.100  1.00  0.00    -0.237 OA
ATOM     61  O   UNL A   1      53.915  27.654  27.443  1.00  0.00    -0.744 OA
ENDBRANCH  54  58
ENDBRANCH  27  51
BRANCH  39  62
ATOM     62  C   UNL A   1      46.431  32.809  28.632  1.00  0.00     0.023 A 
ATOM     63  C   UNL A   1      46.423  33.807  27.642  1.00  0.00     0.031 A 
ATOM     64  C   UNL A   1      46.984  33.122  29.886  1.00  0.00     0.131 A 
ATOM     65  C   UNL A   1      47.009  35.055  27.904  1.00  0.00     0.055 A 
ATOM     66  C   UNL A   1      47.518  34.382  30.158  1.00  0.00     0.041 A 
ATOM     67  F   UNL A   1      47.018  32.206  30.866  1.00  0.00    -0.206 F 
ATOM     68  C   UNL A   1      47.544  35.352  29.161  1.00  0.00     0.022 A 
BRANCH  65  69
ATOM     69  S   UNL A   1      47.139  36.258  26.553  1.00  0.00     0.124 S 
ATOM     70  O   UNL A   1      47.366  35.396  25.398  1.00  0.00    -0.237 OA
ATOM     71  O   UNL A   1      45.842  36.927  26.605  1.00  0.00    -0.237 OA
ATOM     72  O   UNL A   1      48.278  37.088  26.941  1.00  0.00    -0.744 OA
ENDBRANCH  65  69
ENDBRANCH  39  62
ENDBRANCH  13  14
ENDBRANCH   6   8
ENDBRANCH   3   4
ENDBRANCH   2   3
ENDBRANCH   1   2
BRANCH   1  73
ATOM     73  C   UNL A   1      36.307  21.689  24.687  1.00  0.00     0.116 C 
BRANCH  73  74
ATOM     74  N   UNL A   1      35.538  21.640  25.917  1.00  0.00    -0.352 N 
ATOM     75  C   UNL A   1      34.371  20.982  26.176  1.00  0.00     0.252 C 
ATOM     76  H   UNL A   1      35.910  22.153  26.669  1.00  0.00     0.163 HD
ATOM     77  O   UNL A   1      33.819  21.072  27.270  1.00  0.00    -0.269 OA
BRANCH  75  78
ATOM     78  C   UNL A   1      33.714  20.153  25.156  1.00  0.00     0.050 A 
ATOM     79  C   UNL A   1      34.357  18.927  24.895  1.00  0.00     0.014 A 
ATOM     80  C   UNL A   1      32.594  20.534  24.408  1.00  0.00     0.035 A 
ATOM     81  C   UNL A   1      33.864  18.057  23.925  1.00  0.00     0.001 A 
ATOM     82  C   UNL A   1      32.103  19.634  23.441  1.00  0.00     0.013 A 
ATOM     83  C   UNL A   1      32.732  18.409  23.201  1.00  0.00     0.001 A 
BRANCH  80  84
ATOM     84  C   UNL A   1      31.797  21.778  24.582  1.00  0.00     0.193 C 
ATOM     85  O   UNL A   1      30.939  21.753  25.467  1.00  0.00    -0.289 OA
BRANCH  84  86
ATOM     86  C   UNL A   1      31.931  23.023  23.777  1.00  0.00     0.024 A 
ATOM     87  C   UNL A   1      32.983  23.097  22.848  1.00  0.00     0.012 A 
ATOM     88  C   UNL A   1      31.097  24.128  23.929  1.00  0.00     0.034 A 
ATOM     89  C   UNL A   1      33.178  24.243  22.069  1.00  0.00     0.002 A 
ATOM     90  C   UNL A   1      31.289  25.273  23.145  1.00  0.00     0.083 A 
ATOM     91  C   UNL A   1      32.326  25.334  22.213  1.00  0.00     0.022 A 
BRANCH  90  92
ATOM     92  S   UNL A   1      30.266  26.710  23.397  1.00  0.00     0.243 S 
ATOM     93  O   UNL A   1      30.362  27.504  22.192  1.00  0.00    -0.207 OA
ATOM     94  O   UNL A   1      29.003  26.237  23.913  1.00  0.00    -0.207 OA
BRANCH  92  95
ATOM     95  N   UNL A   1      31.084  27.542  24.593  1.00  0.00    -0.193 NA
ATOM     96  C   UNL A   1      31.405  28.971  24.456  1.00  0.00     0.131 C 
ATOM     97  C   UNL A   1      31.472  26.921  25.872  1.00  0.00     0.131 C 
ATOM     98  C   UNL A   1      32.876  29.193  24.818  1.00  0.00     0.177 C 
ATOM     99  C   UNL A   1      32.922  27.285  26.224  1.00  0.00     0.177 C 
ATOM    100  O   UNL A   1      33.172  28.699  26.134  1.00  0.00    -0.379 OA
ENDBRANCH  92  95
ENDBRANCH  90  92
ENDBRANCH  84  86
ENDBRANCH  80  84
ENDBRANCH  75  78
ENDBRANCH  73  74
ENDBRANCH   1  73
TORSDOF 18
ENDMDL
MODEL 3
REMARK VINA RESULT:     -11.6      4.815      8.719
REMARK SMILES O=C(NCCCCNC(=O)c1ccccc1C(=O)c1cccc(S(=O)(=O)N2CCOCC2)c1)c1ccc(-c2c3nc(c(-c4cc(S(=O)(=O)[O-])ccc4F)c4ccc([nH]4)c(-c4cc(S(=O)(=O)[O-])ccc4F)c4nc(c(-c5cc(S(=O)(=O)[O-])ccc5F)c5ccc2[nH]5)C=C4)C=C3)cc1
REMARK SMILES IDX 6 1 5 2 4 3 3 4 1 5 2 6 34 8 35 9 96 10 36 11 95 12 37 13
REMARK SMILES IDX 38 14 39 15 89 16 40 17 94 18 88 19 90 20 41 21 93 22 87 23
REMARK SMILES IDX 86 24 42 26 74 27 54 28 73 29 55 30 58 31 72 32 91 33 56 34
REMARK SMILES IDX 57 35 71 37 92 38 59 39 43 40 44 41 52 42 45 43 51 44 53 45
REMARK SMILES IDX 50 46 46 47 47 48 48 49 49 50 75 51 76 52 84 53 77 54 83 55
REMARK SMILES IDX 85 56 82 57 78 58 79 59 80 60 81 61 60 62 61 63 69 64 62 65
REMARK SMILES IDX 68 66 70 67 67 68 63 69 64 70 65 71 66 72 7 73 8 74 9 75
REMARK SMILES IDX 10 77 11 78 12 79 16 80 13 81 15 82 14 83 17 84 18 85 19 86
REMARK SMILES IDX 20 87 33 88 21 89 23 90 22 91 24 92 25 93 26 94 27 95 28 96
REMARK SMILES IDX 32 97 29 98 31 99 30 100
REMARK H PARENT 3 7 90 25 58 36 8 76
REMARK Flexibility Score: inf
ROOT
ATOM      1  C   UNL A   1      37.672  20.182  24.987  1.00  0.00     0.023 C 
ENDROOT
BRANCH   1   2
ATOM      2  C   UNL A   1      39.104  20.621  25.313  1.00  0.00     0.023 C 
BRANCH   2   3
ATOM      3  C   UNL A   1      39.787  19.886  26.461  1.00  0.00     0.116 C 
BRANCH   3   4
ATOM      4  N   UNL A   1      40.968  19.152  26.037  1.00  0.00    -0.352 N 
ATOM      5  O   UNL A   1      43.079  18.881  25.293  1.00  0.00    -0.269 OA
ATOM      6  C   UNL A   1      42.239  19.620  25.798  1.00  0.00     0.251 C 
ATOM      7  H   UNL A   1      40.840  18.185  25.900  1.00  0.00     0.163 HD
BRANCH   6   8
ATOM      8  C   UNL A   1      42.589  21.018  26.131  1.00  0.00     0.039 A 
ATOM      9  C   UNL A   1      42.699  21.987  25.128  1.00  0.00     0.014 A 
ATOM     10  C   UNL A   1      42.796  21.367  27.468  1.00  0.00     0.014 A 
ATOM     11  C   UNL A   1      43.127  23.273  25.449  1.00  0.00     0.010 A 
ATOM     12  C   UNL A   1      43.175  22.673  27.795  1.00  0.00     0.010 A 
ATOM     13  C   UNL A   1      43.371  23.629  26.785  1.00  0.00    -0.014 A 
BRANCH  13  14
ATOM     14  C   UNL A   1      43.816  25.008  27.117  1.00  0.00     0.031 A 
ATOM     15  C   UNL A   1      42.843  26.015  27.667  1.00  0.00     0.074 A 
ATOM     16  C   UNL A   1      45.106  25.346  26.931  1.00  0.00     0.049 A 
ATOM     17  N   UNL A   1      43.038  27.274  27.969  1.00  0.00    -0.248 NA
ATOM     18  C   UNL A   1      41.469  25.546  27.898  1.00  0.00     0.031 C 
ATOM     19  C   UNL A   1      46.145  24.451  26.418  1.00  0.00     0.029 A 
ATOM     20  N   UNL A   1      45.766  26.527  27.156  1.00  0.00    -0.354 N 
ATOM     21  C   UNL A   1      41.811  27.753  28.417  1.00  0.00     0.074 A 
ATOM     22  C   UNL A   1      40.872  26.654  28.312  1.00  0.00     0.031 C 
ATOM     23  C   UNL A   1      47.315  25.108  26.388  1.00  0.00     0.029 A 
ATOM     24  C   UNL A   1      47.101  26.484  26.823  1.00  0.00     0.049 A 
ATOM     25  H   UNL A   1      45.328  27.329  27.519  1.00  0.00     0.167 HD
ATOM     26  C   UNL A   1      41.500  28.990  28.880  1.00  0.00     0.034 A 
ATOM     27  C   UNL A   1      48.040  27.448  26.841  1.00  0.00     0.034 A 
ATOM     28  C   UNL A   1      42.448  30.077  28.976  1.00  0.00     0.049 A 
ATOM     29  C   UNL A   1      47.658  28.829  27.301  1.00  0.00     0.074 A 
ATOM     30  C   UNL A   1      42.244  31.364  29.444  1.00  0.00     0.029 A 
ATOM     31  N   UNL A   1      43.781  30.007  28.588  1.00  0.00    -0.354 N 
ATOM     32  N   UNL A   1      46.491  29.268  27.714  1.00  0.00    -0.248 NA
ATOM     33  C   UNL A   1      48.719  29.844  27.298  1.00  0.00     0.031 C 
ATOM     34  C   UNL A   1      43.432  32.087  29.285  1.00  0.00     0.029 A 
ATOM     35  C   UNL A   1      44.400  31.234  28.780  1.00  0.00     0.049 A 
ATOM     36  H   UNL A   1      44.222  29.204  28.230  1.00  0.00     0.167 HD
ATOM     37  C   UNL A   1      46.685  30.608  28.037  1.00  0.00     0.074 A 
ATOM     38  C   UNL A   1      48.082  30.899  27.786  1.00  0.00     0.031 C 
ATOM     39  C   UNL A   1      45.789  31.515  28.503  1.00  0.00     0.034 A 
BRANCH  26  40
ATOM     40  C   UNL A   1      40.064  29.245  29.272  1.00  0.00     0.023 A 
ATOM     41  C   UNL A   1      39.657  29.270  30.618  1.00  0.00     0.031 A 
ATOM     42  C   UNL A   1      39.083  29.444  28.284  1.00  0.00     0.131 A 
ATOM     43  C   UNL A   1      38.297  29.421  30.935  1.00  0.00     0.055 A 
ATOM     44  C   UNL A   1      37.744  29.668  28.609  1.00  0.00     0.041 A 
ATOM     45  F   UNL A   1      39.408  29.410  26.982  1.00  0.00    -0.206 F 
ATOM     46  C   UNL A   1      37.341  29.643  29.941  1.00  0.00     0.022 A 
BRANCH  43  47
ATOM     47  S   UNL A   1      37.776  29.187  32.657  1.00  0.00     0.124 S 
ATOM     48  O   UNL A   1      36.447  29.794  32.650  1.00  0.00    -0.237 OA
ATOM     49  O   UNL A   1      37.816  27.738  32.806  1.00  0.00    -0.237 OA
ATOM     50  O   UNL A   1      38.781  29.922  33.423  1.00  0.00    -0.744 OA
ENDBRANCH  43  47
ENDBRANCH  26  40
BRANCH  27  51
ATOM     51  C   UNL A   1      49.423  27.154  26.373  1.00  0.00     0.023 A 
ATOM     52  C   UNL A   1      49.879  27.612  25.127  1.00  0.00     0.031 A 
ATOM     53  C   UNL A   1      50.301  26.386  27.159  1.00  0.00     0.131 A 
ATOM     54  C   UNL A   1      51.168  27.271  24.690  1.00  0.00     0.055 A 
ATOM     55  C   UNL A   1      51.597  26.090  26.740  1.00  0.00     0.041 A 
ATOM     56  F   UNL A   1      49.911  25.928  28.360  1.00  0.00    -0.206 F 
ATOM     57  C   UNL A   1      52.034  26.524  25.493  1.00  0.00     0.022 A 
BRANCH  54  58
ATOM     58  S   UNL A   1      51.676  27.762  23.020  1.00  0.00     0.124 S 
ATOM     59  O   UNL A   1      53.098  27.443  23.034  1.00  0.00    -0.237 OA
ATOM     60  O   UNL A   1      50.834  26.910  22.185  1.00  0.00    -0.237 OA
ATOM     61  O   UNL A   1      51.355  29.188  22.972  1.00  0.00    -0.744 OA
ENDBRANCH  54  58
ENDBRANCH  27  51
BRANCH  39  62
ATOM     62  C   UNL A   1      46.317  32.896  28.800  1.00  0.00     0.023 A 
ATOM     63  C   UNL A   1      46.287  33.920  27.837  1.00  0.00     0.031 A 
ATOM     64  C   UNL A   1      46.881  33.182  30.056  1.00  0.00     0.131 A 
ATOM     65  C   UNL A   1      46.861  35.168  28.126  1.00  0.00     0.055 A 
ATOM     66  C   UNL A   1      47.403  34.440  30.356  1.00  0.00     0.041 A 
ATOM     67  F   UNL A   1      46.937  32.240  31.010  1.00  0.00    -0.206 F 
ATOM     68  C   UNL A   1      47.407  35.438  29.385  1.00  0.00     0.022 A 
BRANCH  65  69
ATOM     69  S   UNL A   1      46.962  36.409  26.808  1.00  0.00     0.124 S 
ATOM     70  O   UNL A   1      48.364  36.810  26.874  1.00  0.00    -0.237 OA
ATOM     71  O   UNL A   1      46.573  35.643  25.627  1.00  0.00    -0.237 OA
ATOM     72  O   UNL A   1      46.004  37.431  27.224  1.00  0.00    -0.744 OA
ENDBRANCH  65  69
ENDBRANCH  39  62
ENDBRANCH  13  14
ENDBRANCH   6   8
ENDBRANCH   3   4
ENDBRANCH   2   3
ENDBRANCH   1   2
BRANCH   1  73
ATOM     73  C   UNL A   1      36.657  21.307  24.800  1.00  0.00     0.116 C 
BRANCH  73  74
ATOM     74  N   UNL A   1      35.873  21.571  25.992  1.00  0.00    -0.352 N 
ATOM     75  C   UNL A   1      34.540  21.377  26.205  1.00  0.00     0.252 C 
ATOM     76  H   UNL A   1      36.374  21.940  26.755  1.00  0.00     0.163 HD
ATOM     77  O   UNL A   1      34.014  21.691  27.271  1.00  0.00    -0.269 OA
BRANCH  75  78
ATOM     78  C   UNL A   1      33.672  20.806  25.167  1.00  0.00     0.050 A 
ATOM     79  C   UNL A   1      33.442  19.422  25.292  1.00  0.00     0.014 A 
ATOM     80  C   UNL A   1      33.158  21.509  24.070  1.00  0.00     0.035 A 
ATOM     81  C   UNL A   1      32.667  18.741  24.357  1.00  0.00     0.001 A 
ATOM     82  C   UNL A   1      32.365  20.804  23.143  1.00  0.00     0.013 A 
ATOM     83  C   UNL A   1      32.123  19.435  23.283  1.00  0.00     0.001 A 
BRANCH  80  84
ATOM     84  C   UNL A   1      33.293  22.967  23.815  1.00  0.00     0.193 C 
ATOM     85  O   UNL A   1      34.228  23.307  23.088  1.00  0.00    -0.289 OA
BRANCH  84  86
ATOM     86  C   UNL A   1      32.419  24.038  24.372  1.00  0.00     0.024 A 
ATOM     87  C   UNL A   1      31.555  23.700  25.427  1.00  0.00     0.012 A 
ATOM     88  C   UNL A   1      32.387  25.337  23.872  1.00  0.00     0.034 A 
ATOM     89  C   UNL A   1      30.697  24.651  25.988  1.00  0.00     0.002 A 
ATOM     90  C   UNL A   1      31.531  26.291  24.439  1.00  0.00     0.083 A 
ATOM     91  C   UNL A   1      30.686  25.953  25.497  1.00  0.00     0.022 A 
BRANCH  90  92
ATOM     92  S   UNL A   1      31.439  27.931  23.747  1.00  0.00     0.243 S 
ATOM     93  O   UNL A   1      32.198  27.905  22.516  1.00  0.00    -0.207 OA
ATOM     94  O   UNL A   1      30.050  28.324  23.790  1.00  0.00    -0.207 OA
BRANCH  92  95
ATOM     95  N   UNL A   1      32.314  28.844  24.838  1.00  0.00    -0.193 NA
ATOM     96  C   UNL A   1      33.738  28.579  25.098  1.00  0.00     0.131 C 
ATOM     97  C   UNL A   1      31.740  29.998  25.552  1.00  0.00     0.131 C 
ATOM     98  C   UNL A   1      33.975  28.538  26.610  1.00  0.00     0.177 C 
ATOM     99  C   UNL A   1      32.119  29.948  27.040  1.00  0.00     0.177 C 
ATOM    100  O   UNL A   1      33.528  29.748  27.243  1.00  0.00    -0.379 OA
ENDBRANCH  92  95
ENDBRANCH  90  92
ENDBRANCH  84  86
ENDBRANCH  80  84
ENDBRANCH  75  78
ENDBRANCH  73  74
ENDBRANCH   1  73
TORSDOF 18
ENDMDL
