MODEL 1
REMARK VINA RESULT:     -11.7      0.000      0.000
REMARK SMILES CCSc1nc(CC(=O)N[C@@H](C(=O)NCCCCNC(=O)c2ccc(-c3c4nc(c(-c5cc(S(=O)(=O)[O-])ccc5F)c5ccc([nH]5)c(-c5cc(S(=O)(=O)[O-])ccc5F)c5nc(c(-c6cc(S(=O)(=O)[O-])ccc6F)c6ccc3[nH]6)C=C5)C=C4)cc2)C2=C(C)N=N[C@@H]2C)cs1
REMARK SMILES IDX 15 1 14 2 12 3 13 4 11 6 10 7 8 8 9 9 7 11 6 12 4 13 5 14
REMARK SMILES IDX 93 15 92 16 3 17 2 18 1 19 85 20 86 21 90 22 87 23 88 24
REMARK SMILES IDX 89 25 91 26 16 27 17 28 18 29 19 30 20 31 21 33 22 34 23 35
REMARK SMILES IDX 84 36 24 37 83 38 25 39 26 40 27 41 77 42 28 43 82 44 76 45
REMARK SMILES IDX 78 46 29 47 81 48 75 49 74 50 30 52 62 53 42 54 61 55 43 56
REMARK SMILES IDX 46 57 60 58 79 59 44 60 45 61 59 63 80 64 47 65 31 66 32 67
REMARK SMILES IDX 40 68 33 69 39 70 41 71 38 72 34 73 35 74 36 75 37 76 63 77
REMARK SMILES IDX 64 78 72 79 65 80 71 81 73 82 70 83 66 84 67 85 68 86 69 87
REMARK SMILES IDX 48 88 49 89 57 90 50 91 56 92 58 93 55 94 51 95 52 96 53 97
REMARK SMILES IDX 54 98
REMARK H PARENT 14 5 10 10 19 32 78 51 46 62
REMARK Flexibility Score: inf
ROOT
ATOM      1  C   UNL A   1      35.018  22.861  26.014  1.00  0.00     0.116 C 
ENDROOT
BRANCH   1   2
ATOM      2  N   UNL A   1      33.999  22.947  27.033  1.00  0.00    -0.354 N 
ATOM      3  C   UNL A   1      32.835  23.665  27.017  1.00  0.00     0.247 C 
ATOM      4  O   UNL A   1      31.888  23.132  27.608  1.00  0.00    -0.272 OA
ATOM      5  H   UNL A   1      34.163  22.419  27.847  1.00  0.00     0.163 HD
BRANCH   3   6
ATOM      6  C   UNL A   1      32.653  25.042  26.251  1.00  0.00     0.202 C 
BRANCH   6   7
ATOM      7  N   UNL A   1      31.858  26.036  26.969  1.00  0.00    -0.340 N 
ATOM      8  C   UNL A   1      31.926  27.402  26.937  1.00  0.00     0.226 C 
ATOM      9  O   UNL A   1      31.264  28.025  27.773  1.00  0.00    -0.275 OA
ATOM     10  H   UNL A   1      31.169  25.666  27.568  1.00  0.00     0.164 HD
BRANCH   8  11
ATOM     11  C   UNL A   1      32.768  28.148  25.912  1.00  0.00     0.157 C 
BRANCH  11  12
ATOM     12  C   UNL A   1      32.021  28.561  24.688  1.00  0.00     0.062 A 
ATOM     13  C   UNL A   1      30.433  29.732  23.667  1.00  0.00     0.150 A 
ATOM     14  N   UNL A   1      30.980  29.469  24.833  1.00  0.00    -0.234 NA
ATOM     15  S   UNL A   1      31.133  28.919  22.328  1.00  0.00    -0.116 S 
ATOM     16  C   UNL A   1      32.253  28.159  23.384  1.00  0.00     0.092 A 
BRANCH  13  17
ATOM     17  S   UNL A   1      29.060  30.802  23.499  1.00  0.00    -0.096 SA
BRANCH  17  18
ATOM     18  C   UNL A   1      27.975  29.863  22.386  1.00  0.00     0.074 C 
ATOM     19  C   UNL A   1      27.240  28.746  23.104  1.00  0.00     0.016 C 
ENDBRANCH  17  18
ENDBRANCH  13  17
ENDBRANCH  11  12
ENDBRANCH   8  11
ENDBRANCH   6   7
BRANCH   6  20
ATOM     20  C   UNL A   1      32.020  24.866  24.887  1.00  0.00     0.011 C 
ATOM     21  C   UNL A   1      32.576  24.757  23.671  1.00  0.00     0.064 C 
ATOM     22  C   UNL A   1      30.554  24.646  24.636  1.00  0.00     0.156 C 
ATOM     23  C   UNL A   1      34.000  24.836  23.251  1.00  0.00     0.069 C 
ATOM     24  N   UNL A   1      31.657  24.517  22.679  1.00  0.00    -0.160 NA
ATOM     25  N   UNL A   1      30.501  24.436  23.162  1.00  0.00    -0.181 NA
ATOM     26  C   UNL A   1      29.651  25.827  24.964  1.00  0.00     0.040 C 
ENDBRANCH   6  20
ENDBRANCH   3   6
ENDBRANCH   1   2
BRANCH   1  27
ATOM     27  C   UNL A   1      34.834  21.717  25.031  1.00  0.00     0.023 C 
BRANCH  27  28
ATOM     28  C   UNL A   1      36.095  20.903  24.746  1.00  0.00     0.023 C 
BRANCH  28  29
ATOM     29  C   UNL A   1      37.406  21.487  25.274  1.00  0.00     0.116 C 
BRANCH  29  30
ATOM     30  N   UNL A   1      38.479  20.510  25.411  1.00  0.00    -0.352 N 
ATOM     31  C   UNL A   1      39.690  20.645  26.057  1.00  0.00     0.251 C 
ATOM     32  H   UNL A   1      38.319  19.637  24.986  1.00  0.00     0.163 HD
ATOM     33  O   UNL A   1      40.513  19.738  26.026  1.00  0.00    -0.269 OA
BRANCH  31  34
ATOM     34  C   UNL A   1      39.999  21.922  26.735  1.00  0.00     0.039 A 
ATOM     35  C   UNL A   1      40.917  21.921  27.789  1.00  0.00     0.014 A 
ATOM     36  C   UNL A   1      39.464  23.122  26.260  1.00  0.00     0.014 A 
ATOM     37  C   UNL A   1      41.394  23.136  28.285  1.00  0.00     0.010 A 
ATOM     38  C   UNL A   1      39.987  24.329  26.713  1.00  0.00     0.010 A 
ATOM     39  C   UNL A   1      40.982  24.347  27.704  1.00  0.00    -0.014 A 
BRANCH  39  40
ATOM     40  C   UNL A   1      41.632  25.637  28.054  1.00  0.00     0.031 A 
ATOM     41  C   UNL A   1      40.848  26.719  28.739  1.00  0.00     0.074 A 
ATOM     42  C   UNL A   1      42.897  25.869  27.652  1.00  0.00     0.049 A 
ATOM     43  N   UNL A   1      41.194  27.953  28.998  1.00  0.00    -0.248 NA
ATOM     44  C   UNL A   1      39.483  26.373  29.160  1.00  0.00     0.031 C 
ATOM     45  C   UNL A   1      43.748  24.911  26.940  1.00  0.00     0.029 A 
ATOM     46  N   UNL A   1      43.684  26.990  27.760  1.00  0.00    -0.354 N 
ATOM     47  C   UNL A   1      40.088  28.538  29.602  1.00  0.00     0.074 A 
ATOM     48  C   UNL A   1      39.043  27.533  29.622  1.00  0.00     0.031 C 
ATOM     49  C   UNL A   1      44.937  25.480  26.685  1.00  0.00     0.029 A 
ATOM     50  C   UNL A   1      44.919  26.857  27.166  1.00  0.00     0.049 A 
ATOM     51  H   UNL A   1      43.392  27.810  28.219  1.00  0.00     0.167 HD
ATOM     52  C   UNL A   1      39.961  29.789  30.109  1.00  0.00     0.034 A 
ATOM     53  C   UNL A   1      45.914  27.751  27.002  1.00  0.00     0.034 A 
ATOM     54  C   UNL A   1      41.015  30.775  30.090  1.00  0.00     0.049 A 
ATOM     55  C   UNL A   1      45.731  29.152  27.524  1.00  0.00     0.074 A 
ATOM     56  C   UNL A   1      41.025  32.039  30.655  1.00  0.00     0.029 A 
ATOM     57  N   UNL A   1      42.243  30.613  29.460  1.00  0.00    -0.354 N 
ATOM     58  N   UNL A   1      44.698  29.671  28.145  1.00  0.00    -0.248 NA
ATOM     59  C   UNL A   1      46.846  30.086  27.319  1.00  0.00     0.031 C 
ATOM     60  C   UNL A   1      42.229  32.664  30.310  1.00  0.00     0.029 A 
ATOM     61  C   UNL A   1      42.998  31.771  29.583  1.00  0.00     0.049 A 
ATOM     62  H   UNL A   1      42.534  29.797  28.993  1.00  0.00     0.167 HD
ATOM     63  C   UNL A   1      45.045  30.991  28.416  1.00  0.00     0.074 A 
ATOM     64  C   UNL A   1      46.387  31.183  27.905  1.00  0.00     0.031 C 
ATOM     65  C   UNL A   1      44.322  31.956  29.037  1.00  0.00     0.034 A 
BRANCH  52  66
ATOM     66  C   UNL A   1      38.626  30.162  30.702  1.00  0.00     0.023 A 
ATOM     67  C   UNL A   1      37.637  30.808  29.940  1.00  0.00     0.031 A 
ATOM     68  C   UNL A   1      38.348  29.899  32.054  1.00  0.00     0.131 A 
ATOM     69  C   UNL A   1      36.451  31.239  30.552  1.00  0.00     0.055 A 
ATOM     70  C   UNL A   1      37.133  30.262  32.640  1.00  0.00     0.041 A 
ATOM     71  F   UNL A   1      39.261  29.300  32.836  1.00  0.00    -0.206 F 
ATOM     72  C   UNL A   1      36.183  30.950  31.892  1.00  0.00     0.022 A 
BRANCH  69  73
ATOM     73  S   UNL A   1      35.329  32.306  29.607  1.00  0.00     0.124 S 
ATOM     74  O   UNL A   1      34.802  31.374  28.613  1.00  0.00    -0.237 OA
ATOM     75  O   UNL A   1      34.388  32.754  30.627  1.00  0.00    -0.237 OA
ATOM     76  O   UNL A   1      36.211  33.342  29.073  1.00  0.00    -0.744 OA
ENDBRANCH  69  73
ENDBRANCH  52  66
BRANCH  53  77
ATOM     77  C   UNL A   1      47.158  27.368  26.279  1.00  0.00     0.023 A 
ATOM     78  C   UNL A   1      47.321  27.664  24.917  1.00  0.00     0.031 A 
ATOM     79  C   UNL A   1      48.188  26.670  26.934  1.00  0.00     0.131 A 
ATOM     80  C   UNL A   1      48.474  27.234  24.243  1.00  0.00     0.055 A 
ATOM     81  C   UNL A   1      49.353  26.282  26.269  1.00  0.00     0.041 A 
ATOM     82  F   UNL A   1      48.083  26.370  28.238  1.00  0.00    -0.206 F 
ATOM     83  C   UNL A   1      49.496  26.555  24.912  1.00  0.00     0.022 A 
BRANCH  80  84
ATOM     84  S   UNL A   1      48.595  27.524  22.456  1.00  0.00     0.124 S 
ATOM     85  O   UNL A   1      47.326  28.186  22.177  1.00  0.00    -0.237 OA
ATOM     86  O   UNL A   1      49.788  28.358  22.366  1.00  0.00    -0.237 OA
ATOM     87  O   UNL A   1      48.735  26.179  21.902  1.00  0.00    -0.744 OA
ENDBRANCH  80  84
ENDBRANCH  53  77
BRANCH  65  88
ATOM     88  C   UNL A   1      44.983  33.299  29.204  1.00  0.00     0.023 A 
ATOM     89  C   UNL A   1      44.851  34.307  28.234  1.00  0.00     0.031 A 
ATOM     90  C   UNL A   1      45.763  33.569  30.343  1.00  0.00     0.131 A 
ATOM     91  C   UNL A   1      45.524  35.526  28.400  1.00  0.00     0.055 A 
ATOM     92  C   UNL A   1      46.390  34.802  30.526  1.00  0.00     0.041 A 
ATOM     93  F   UNL A   1      45.923  32.639  31.296  1.00  0.00    -0.206 F 
ATOM     94  C   UNL A   1      46.280  35.786  29.547  1.00  0.00     0.022 A 
BRANCH  91  95
ATOM     95  S   UNL A   1      45.446  36.754  27.067  1.00  0.00     0.124 S 
ATOM     96  O   UNL A   1      44.009  36.849  26.826  1.00  0.00    -0.237 OA
ATOM     97  O   UNL A   1      46.068  37.924  27.679  1.00  0.00    -0.237 OA
ATOM     98  O   UNL A   1      46.216  36.140  25.987  1.00  0.00    -0.744 OA
ENDBRANCH  91  95
ENDBRANCH  65  88
ENDBRANCH  39  40
ENDBRANCH  31  34
ENDBRANCH  29  30
ENDBRANCH  28  29
ENDBRANCH  27  28
ENDBRANCH   1  27
TORSDOF 20
ENDMDL
MODEL 2
REMARK VINA RESULT:     -11.5      4.965      9.798
REMARK SMILES CCSc1nc(CC(=O)N[C@@H](C(=O)NCCCCNC(=O)c2ccc(-c3c4nc(c(-c5cc(S(=O)(=O)[O-])ccc5F)c5ccc([nH]5)c(-c5cc(S(=O)(=O)[O-])ccc5F)c5nc(c(-c6cc(S(=O)(=O)[O-])ccc6F)c6ccc3[nH]6)C=C5)C=C4)cc2)C2=C(C)N=N[C@@H]2C)cs1
REMARK SMILES IDX 15 1 14 2 12 3 13 4 11 6 10 7 8 8 9 9 7 11 6 12 4 13 5 14
REMARK SMILES IDX 93 15 92 16 3 17 2 18 1 19 85 20 86 21 90 22 87 23 88 24
REMARK SMILES IDX 89 25 91 26 16 27 17 28 18 29 19 30 20 31 21 33 22 34 23 35
REMARK SMILES IDX 84 36 24 37 83 38 25 39 26 40 27 41 77 42 28 43 82 44 76 45
REMARK SMILES IDX 78 46 29 47 81 48 75 49 74 50 30 52 62 53 42 54 61 55 43 56
REMARK SMILES IDX 46 57 60 58 79 59 44 60 45 61 59 63 80 64 47 65 31 66 32 67
REMARK SMILES IDX 40 68 33 69 39 70 41 71 38 72 34 73 35 74 36 75 37 76 63 77
REMARK SMILES IDX 64 78 72 79 65 80 71 81 73 82 70 83 66 84 67 85 68 86 69 87
REMARK SMILES IDX 48 88 49 89 57 90 50 91 56 92 58 93 55 94 51 95 52 96 53 97
REMARK SMILES IDX 54 98
REMARK H PARENT 14 5 10 10 19 32 78 51 46 62
REMARK Flexibility Score: inf
ROOT
ATOM      1  C   UNL A   1      32.347  26.916  26.687  1.00  0.00     0.116 C 
ENDROOT
BRANCH   1   2
ATOM      2  N   UNL A   1      31.344  26.128  26.012  1.00  0.00    -0.354 N 
ATOM      3  C   UNL A   1      31.518  25.073  25.160  1.00  0.00     0.247 C 
ATOM      4  O   UNL A   1      30.641  24.202  25.226  1.00  0.00    -0.272 OA
ATOM      5  H   UNL A   1      30.410  26.385  26.187  1.00  0.00     0.163 HD
BRANCH   3   6
ATOM      6  C   UNL A   1      32.770  24.904  24.201  1.00  0.00     0.202 C 
BRANCH   6   7
ATOM      7  N   UNL A   1      32.470  25.057  22.779  1.00  0.00    -0.340 N 
ATOM      8  C   UNL A   1      31.960  26.130  22.102  1.00  0.00     0.226 C 
ATOM      9  O   UNL A   1      31.627  25.955  20.925  1.00  0.00    -0.275 OA
ATOM     10  H   UNL A   1      32.665  24.267  22.224  1.00  0.00     0.164 HD
BRANCH   8  11
ATOM     11  C   UNL A   1      31.811  27.501  22.747  1.00  0.00     0.157 C 
BRANCH  11  12
ATOM     12  C   UNL A   1      30.419  28.038  22.733  1.00  0.00     0.062 A 
ATOM     13  C   UNL A   1      28.899  29.516  22.069  1.00  0.00     0.150 A 
ATOM     14  N   UNL A   1      30.166  29.179  21.981  1.00  0.00    -0.234 NA
ATOM     15  S   UNL A   1      27.932  28.488  23.043  1.00  0.00    -0.116 S 
ATOM     16  C   UNL A   1      29.309  27.518  23.374  1.00  0.00     0.092 A 
BRANCH  13  17
ATOM     17  S   UNL A   1      28.254  30.937  21.281  1.00  0.00    -0.096 SA
BRANCH  17  18
ATOM     18  C   UNL A   1      28.139  32.120  22.654  1.00  0.00     0.074 C 
ATOM     19  C   UNL A   1      29.004  31.718  23.835  1.00  0.00     0.016 C 
ENDBRANCH  17  18
ENDBRANCH  13  17
ENDBRANCH  11  12
ENDBRANCH   8  11
ENDBRANCH   6   7
BRANCH   6  20
ATOM     20  C   UNL A   1      33.454  23.564  24.371  1.00  0.00     0.011 C 
ATOM     21  C   UNL A   1      33.187  22.369  23.822  1.00  0.00     0.064 C 
ATOM     22  C   UNL A   1      34.720  23.332  25.148  1.00  0.00     0.156 C 
ATOM     23  C   UNL A   1      32.090  21.949  22.910  1.00  0.00     0.069 C 
ATOM     24  N   UNL A   1      34.102  21.405  24.163  1.00  0.00    -0.160 NA
ATOM     25  N   UNL A   1      34.995  21.887  24.903  1.00  0.00    -0.181 NA
ATOM     26  C   UNL A   1      34.606  23.527  26.654  1.00  0.00     0.040 C 
ENDBRANCH   6  20
ENDBRANCH   3   6
ENDBRANCH   1   2
BRANCH   1  27
ATOM     27  C   UNL A   1      31.804  28.121  27.439  1.00  0.00     0.023 C 
BRANCH  27  28
ATOM     28  C   UNL A   1      31.526  29.349  26.573  1.00  0.00     0.023 C 
BRANCH  28  29
ATOM     29  C   UNL A   1      32.704  30.299  26.357  1.00  0.00     0.116 C 
BRANCH  29  30
ATOM     30  N   UNL A   1      32.485  31.645  26.873  1.00  0.00    -0.352 N 
ATOM     31  C   UNL A   1      33.354  32.449  27.580  1.00  0.00     0.251 C 
ATOM     32  H   UNL A   1      31.598  32.032  26.692  1.00  0.00     0.163 HD
ATOM     33  O   UNL A   1      32.987  33.542  27.995  1.00  0.00    -0.269 OA
BRANCH  31  34
ATOM     34  C   UNL A   1      34.712  31.946  27.876  1.00  0.00     0.039 A 
ATOM     35  C   UNL A   1      35.772  32.855  27.926  1.00  0.00     0.014 A 
ATOM     36  C   UNL A   1      34.911  30.602  28.207  1.00  0.00     0.014 A 
ATOM     37  C   UNL A   1      37.008  32.441  28.429  1.00  0.00     0.010 A 
ATOM     38  C   UNL A   1      36.124  30.210  28.765  1.00  0.00     0.010 A 
ATOM     39  C   UNL A   1      37.171  31.133  28.914  1.00  0.00    -0.014 A 
BRANCH  39  40
ATOM     40  C   UNL A   1      38.395  30.726  29.654  1.00  0.00     0.031 A 
ATOM     41  C   UNL A   1      39.333  29.712  29.067  1.00  0.00     0.074 A 
ATOM     42  C   UNL A   1      38.594  31.191  30.903  1.00  0.00     0.049 A 
ATOM     43  N   UNL A   1      40.368  29.129  29.614  1.00  0.00    -0.248 NA
ATOM     44  C   UNL A   1      39.049  29.275  27.692  1.00  0.00     0.031 C 
ATOM     45  C   UNL A   1      37.729  32.148  31.599  1.00  0.00     0.029 A 
ATOM     46  N   UNL A   1      39.574  30.905  31.822  1.00  0.00    -0.354 N 
ATOM     47  C   UNL A   1      40.855  28.247  28.657  1.00  0.00     0.074 A 
ATOM     48  C   UNL A   1      39.967  28.337  27.515  1.00  0.00     0.031 C 
ATOM     49  C   UNL A   1      38.221  32.375  32.828  1.00  0.00     0.029 A 
ATOM     50  C   UNL A   1      39.403  31.545  33.029  1.00  0.00     0.049 A 
ATOM     51  H   UNL A   1      40.327  30.299  31.636  1.00  0.00     0.167 HD
ATOM     52  C   UNL A   1      41.951  27.450  28.719  1.00  0.00     0.034 A 
ATOM     53  C   UNL A   1      40.104  31.454  34.177  1.00  0.00     0.034 A 
ATOM     54  C   UNL A   1      42.831  27.380  29.861  1.00  0.00     0.049 A 
ATOM     55  C   UNL A   1      41.284  30.522  34.241  1.00  0.00     0.074 A 
ATOM     56  C   UNL A   1      44.016  26.676  29.995  1.00  0.00     0.029 A 
ATOM     57  N   UNL A   1      42.613  28.024  31.072  1.00  0.00    -0.354 N 
ATOM     58  N   UNL A   1      41.765  29.737  33.306  1.00  0.00    -0.248 NA
ATOM     59  C   UNL A   1      42.011  30.460  35.516  1.00  0.00     0.031 C 
ATOM     60  C   UNL A   1      44.479  26.842  31.306  1.00  0.00     0.029 A 
ATOM     61  C   UNL A   1      43.617  27.698  31.973  1.00  0.00     0.049 A 
ATOM     62  H   UNL A   1      41.856  28.624  31.264  1.00  0.00     0.167 HD
ATOM     63  C   UNL A   1      42.861  29.097  33.878  1.00  0.00     0.074 A 
ATOM     64  C   UNL A   1      42.978  29.599  35.232  1.00  0.00     0.031 C 
ATOM     65  C   UNL A   1      43.699  28.182  33.330  1.00  0.00     0.034 A 
BRANCH  52  66
ATOM     66  C   UNL A   1      42.237  26.576  27.524  1.00  0.00     0.023 A 
ATOM     67  C   UNL A   1      41.813  25.237  27.474  1.00  0.00     0.031 A 
ATOM     68  C   UNL A   1      42.970  27.076  26.434  1.00  0.00     0.131 A 
ATOM     69  C   UNL A   1      42.192  24.422  26.397  1.00  0.00     0.055 A 
ATOM     70  C   UNL A   1      43.278  26.282  25.328  1.00  0.00     0.041 A 
ATOM     71  F   UNL A   1      43.416  28.343  26.434  1.00  0.00    -0.206 F 
ATOM     72  C   UNL A   1      42.903  24.942  25.312  1.00  0.00     0.022 A 
BRANCH  69  73
ATOM     73  S   UNL A   1      41.864  22.641  26.503  1.00  0.00     0.124 S 
ATOM     74  O   UNL A   1      40.404  22.610  26.515  1.00  0.00    -0.237 OA
ATOM     75  O   UNL A   1      42.504  22.131  25.296  1.00  0.00    -0.237 OA
ATOM     76  O   UNL A   1      42.499  22.250  27.759  1.00  0.00    -0.744 OA
ENDBRANCH  69  73
ENDBRANCH  52  66
BRANCH  53  77
ATOM     77  C   UNL A   1      39.688  32.236  35.375  1.00  0.00     0.023 A 
ATOM     78  C   UNL A   1      38.880  31.659  36.367  1.00  0.00     0.031 A 
ATOM     79  C   UNL A   1      40.067  33.581  35.527  1.00  0.00     0.131 A 
ATOM     80  C   UNL A   1      38.448  32.436  37.453  1.00  0.00     0.055 A 
ATOM     81  C   UNL A   1      39.669  34.338  36.631  1.00  0.00     0.041 A 
ATOM     82  F   UNL A   1      40.844  34.176  34.609  1.00  0.00    -0.206 F 
ATOM     83  C   UNL A   1      38.846  33.767  37.598  1.00  0.00     0.022 A 
BRANCH  80  84
ATOM     84  S   UNL A   1      37.305  31.695  38.650  1.00  0.00     0.124 S 
ATOM     85  O   UNL A   1      36.138  32.561  38.523  1.00  0.00    -0.237 OA
ATOM     86  O   UNL A   1      37.158  30.340  38.129  1.00  0.00    -0.237 OA
ATOM     87  O   UNL A   1      38.025  31.797  39.917  1.00  0.00    -0.744 OA
ENDBRANCH  80  84
ENDBRANCH  53  77
BRANCH  65  88
ATOM     88  C   UNL A   1      44.821  27.681  34.202  1.00  0.00     0.023 A 
ATOM     89  C   UNL A   1      44.601  26.710  35.194  1.00  0.00     0.031 A 
ATOM     90  C   UNL A   1      46.123  28.189  34.045  1.00  0.00     0.131 A 
ATOM     91  C   UNL A   1      45.659  26.307  36.021  1.00  0.00     0.055 A 
ATOM     92  C   UNL A   1      47.182  27.747  34.838  1.00  0.00     0.041 A 
ATOM     93  F   UNL A   1      46.384  29.119  33.114  1.00  0.00    -0.206 F 
ATOM     94  C   UNL A   1      46.952  26.808  35.839  1.00  0.00     0.022 A 
BRANCH  91  95
ATOM     95  S   UNL A   1      45.315  25.156  37.381  1.00  0.00     0.124 S 
ATOM     96  O   UNL A   1      46.519  24.330  37.389  1.00  0.00    -0.237 OA
ATOM     97  O   UNL A   1      45.151  26.055  38.520  1.00  0.00    -0.237 OA
ATOM     98  O   UNL A   1      44.096  24.473  36.953  1.00  0.00    -0.744 OA
ENDBRANCH  91  95
ENDBRANCH  65  88
ENDBRANCH  39  40
ENDBRANCH  31  34
ENDBRANCH  29  30
ENDBRANCH  28  29
ENDBRANCH  27  28
ENDBRANCH   1  27
TORSDOF 20
ENDMDL
MODEL 3
REMARK VINA RESULT:     -11.5      5.248     10.534
REMARK SMILES CCSc1nc(CC(=O)N[C@@H](C(=O)NCCCCNC(=O)c2ccc(-c3c4nc(c(-c5cc(S(=O)(=O)[O-])ccc5F)c5ccc([nH]5)c(-c5cc(S(=O)(=O)[O-])ccc5F)c5nc(c(-c6cc(S(=O)(=O)[O-])ccc6F)c6ccc3[nH]6)C=C5)C=C4)cc2)C2=C(C)N=N[C@@H]2C)cs1
REMARK SMILES IDX 15 1 14 2 12 3 13 4 11 6 10 7 8 8 9 9 7 11 6 12 4 13 5 14
REMARK SMILES IDX 93 15 92 16 3 17 2 18 1 19 85 20 86 21 90 22 87 23 88 24
REMARK SMILES IDX 89 25 91 26 16 27 17 28 18 29 19 30 20 31 21 33 22 34 23 35
REMARK SMILES IDX 84 36 24 37 83 38 25 39 26 40 27 41 77 42 28 43 82 44 76 45
REMARK SMILES IDX 78 46 29 47 81 48 75 49 74 50 30 52 62 53 42 54 61 55 43 56
REMARK SMILES IDX 46 57 60 58 79 59 44 60 45 61 59 63 80 64 47 65 31 66 32 67
REMARK SMILES IDX 40 68 33 69 39 70 41 71 38 72 34 73 35 74 36 75 37 76 63 77
REMARK SMILES IDX 64 78 72 79 65 80 71 81 73 82 70 83 66 84 67 85 68 86 69 87
REMARK SMILES IDX 48 88 49 89 57 90 50 91 56 92 58 93 55 94 51 95 52 96 53 97
REMARK SMILES IDX 54 98
REMARK H PARENT 14 5 10 10 19 32 78 51 46 62
REMARK Flexibility Score: inf
ROOT
ATOM      1  C   UNL A   1      31.966  27.720  26.176  1.00  0.00     0.116 C 
ENDROOT
BRANCH   1   2
ATOM      2  N   UNL A   1      31.089  26.630  26.530  1.00  0.00    -0.354 N 
ATOM      3  C   UNL A   1      30.974  25.400  25.942  1.00  0.00     0.247 C 
ATOM      4  O   UNL A   1      30.701  24.476  26.718  1.00  0.00    -0.272 OA
ATOM      5  H   UNL A   1      30.493  26.792  27.297  1.00  0.00     0.163 HD
BRANCH   3   6
ATOM      6  C   UNL A   1      31.235  25.127  24.401  1.00  0.00     0.202 C 
BRANCH   6   7
ATOM      7  N   UNL A   1      32.636  24.897  24.054  1.00  0.00    -0.340 N 
ATOM      8  C   UNL A   1      33.248  23.766  23.586  1.00  0.00     0.226 C 
ATOM      9  O   UNL A   1      34.481  23.765  23.536  1.00  0.00    -0.275 OA
ATOM     10  H   UNL A   1      33.230  25.673  24.175  1.00  0.00     0.164 HD
BRANCH   8  11
ATOM     11  C   UNL A   1      32.459  22.547  23.127  1.00  0.00     0.157 C 
BRANCH  11  12
ATOM     12  C   UNL A   1      32.628  21.345  23.995  1.00  0.00     0.062 A 
ATOM     13  C   UNL A   1      32.786  19.148  24.285  1.00  0.00     0.150 A 
ATOM     14  N   UNL A   1      32.621  20.095  23.389  1.00  0.00    -0.234 NA
ATOM     15  S   UNL A   1      32.969  19.691  25.902  1.00  0.00    -0.116 S 
ATOM     16  C   UNL A   1      32.817  21.315  25.366  1.00  0.00     0.092 A 
BRANCH  13  17
ATOM     17  S   UNL A   1      32.779  17.451  23.863  1.00  0.00    -0.096 SA
BRANCH  17  18
ATOM     18  C   UNL A   1      32.926  16.651  25.487  1.00  0.00     0.074 C 
ATOM     19  C   UNL A   1      32.559  15.179  25.439  1.00  0.00     0.016 C 
ENDBRANCH  17  18
ENDBRANCH  13  17
ENDBRANCH  11  12
ENDBRANCH   8  11
ENDBRANCH   6   7
BRANCH   6  20
ATOM     20  C   UNL A   1      30.738  26.254  23.521  1.00  0.00     0.011 C 
ATOM     21  C   UNL A   1      29.531  26.837  23.442  1.00  0.00     0.064 C 
ATOM     22  C   UNL A   1      31.595  27.068  22.592  1.00  0.00     0.156 C 
ATOM     23  C   UNL A   1      28.261  26.526  24.150  1.00  0.00     0.069 C 
ATOM     24  N   UNL A   1      29.503  27.898  22.571  1.00  0.00    -0.160 NA
ATOM     25  N   UNL A   1      30.638  28.084  22.067  1.00  0.00    -0.181 NA
ATOM     26  C   UNL A   1      32.162  26.313  21.398  1.00  0.00     0.040 C 
ENDBRANCH   6  20
ENDBRANCH   3   6
ENDBRANCH   1   2
BRANCH   1  27
ATOM     27  C   UNL A   1      32.101  28.794  27.244  1.00  0.00     0.023 C 
BRANCH  27  28
ATOM     28  C   UNL A   1      31.480  30.142  26.882  1.00  0.00     0.023 C 
BRANCH  28  29
ATOM     29  C   UNL A   1      32.440  31.202  26.341  1.00  0.00     0.116 C 
BRANCH  29  30
ATOM     30  N   UNL A   1      32.308  32.506  26.979  1.00  0.00    -0.352 N 
ATOM     31  C   UNL A   1      33.202  33.158  27.802  1.00  0.00     0.251 C 
ATOM     32  H   UNL A   1      31.468  32.986  26.798  1.00  0.00     0.163 HD
ATOM     33  O   UNL A   1      32.907  34.235  28.307  1.00  0.00    -0.269 OA
BRANCH  31  34
ATOM     34  C   UNL A   1      34.495  32.510  28.107  1.00  0.00     0.039 A 
ATOM     35  C   UNL A   1      35.669  33.261  27.995  1.00  0.00     0.014 A 
ATOM     36  C   UNL A   1      34.531  31.204  28.602  1.00  0.00     0.014 A 
ATOM     37  C   UNL A   1      36.865  32.743  28.497  1.00  0.00     0.010 A 
ATOM     38  C   UNL A   1      35.711  30.717  29.157  1.00  0.00     0.010 A 
ATOM     39  C   UNL A   1      36.879  31.496  29.142  1.00  0.00    -0.014 A 
BRANCH  39  40
ATOM     40  C   UNL A   1      38.078  31.016  29.879  1.00  0.00     0.031 A 
ATOM     41  C   UNL A   1      39.002  30.012  29.253  1.00  0.00     0.074 A 
ATOM     42  C   UNL A   1      38.265  31.405  31.157  1.00  0.00     0.049 A 
ATOM     43  N   UNL A   1      40.011  29.374  29.784  1.00  0.00    -0.248 NA
ATOM     44  C   UNL A   1      38.734  29.661  27.851  1.00  0.00     0.031 C 
ATOM     45  C   UNL A   1      37.411  32.343  31.890  1.00  0.00     0.029 A 
ATOM     46  N   UNL A   1      39.220  31.042  32.075  1.00  0.00    -0.354 N 
ATOM     47  C   UNL A   1      40.495  28.534  28.788  1.00  0.00     0.074 A 
ATOM     48  C   UNL A   1      39.631  28.711  27.637  1.00  0.00     0.031 C 
ATOM     49  C   UNL A   1      37.884  32.488  33.138  1.00  0.00     0.029 A 
ATOM     50  C   UNL A   1      39.042  31.618  33.313  1.00  0.00     0.049 A 
ATOM     51  H   UNL A   1      39.961  30.429  31.868  1.00  0.00     0.167 HD
ATOM     52  C   UNL A   1      41.569  27.707  28.824  1.00  0.00     0.034 A 
ATOM     53  C   UNL A   1      39.717  31.445  34.467  1.00  0.00     0.034 A 
ATOM     54  C   UNL A   1      42.425  27.549  29.975  1.00  0.00     0.049 A 
ATOM     55  C   UNL A   1      40.873  30.480  34.499  1.00  0.00     0.074 A 
ATOM     56  C   UNL A   1      43.589  26.809  30.090  1.00  0.00     0.029 A 
ATOM     57  N   UNL A   1      42.200  28.130  31.217  1.00  0.00    -0.354 N 
ATOM     58  N   UNL A   1      41.352  29.736  33.529  1.00  0.00    -0.248 NA
ATOM     59  C   UNL A   1      41.574  30.328  35.781  1.00  0.00     0.031 C 
ATOM     60  C   UNL A   1      44.031  26.889  31.416  1.00  0.00     0.029 A 
ATOM     61  C   UNL A   1      43.178  27.728  32.115  1.00  0.00     0.049 A 
ATOM     62  H   UNL A   1      41.455  28.738  31.429  1.00  0.00     0.167 HD
ATOM     63  C   UNL A   1      42.420  29.037  34.083  1.00  0.00     0.074 A 
ATOM     64  C   UNL A   1      42.524  29.459  35.465  1.00  0.00     0.031 C 
ATOM     65  C   UNL A   1      43.246  28.133  33.499  1.00  0.00     0.034 A 
BRANCH  52  66
ATOM     66  C   UNL A   1      41.856  26.894  27.587  1.00  0.00     0.023 A 
ATOM     67  C   UNL A   1      41.561  25.521  27.523  1.00  0.00     0.031 A 
ATOM     68  C   UNL A   1      42.461  27.490  26.467  1.00  0.00     0.131 A 
ATOM     69  C   UNL A   1      41.943  24.774  26.399  1.00  0.00     0.055 A 
ATOM     70  C   UNL A   1      42.768  26.757  25.319  1.00  0.00     0.041 A 
ATOM     71  F   UNL A   1      42.781  28.795  26.476  1.00  0.00    -0.206 F 
ATOM     72  C   UNL A   1      42.524  25.387  25.287  1.00  0.00     0.022 A 
BRANCH  69  73
ATOM     73  S   UNL A   1      41.797  22.967  26.472  1.00  0.00     0.124 S 
ATOM     74  O   UNL A   1      40.354  22.794  26.626  1.00  0.00    -0.237 OA
ATOM     75  O   UNL A   1      42.358  22.555  25.191  1.00  0.00    -0.237 OA
ATOM     76  O   UNL A   1      42.589  22.607  27.646  1.00  0.00    -0.744 OA
ENDBRANCH  69  73
ENDBRANCH  52  66
BRANCH  53  77
ATOM     77  C   UNL A   1      39.298  32.168  35.699  1.00  0.00     0.023 A 
ATOM     78  C   UNL A   1      38.518  31.533  36.677  1.00  0.00     0.031 A 
ATOM     79  C   UNL A   1      39.647  33.515  35.900  1.00  0.00     0.131 A 
ATOM     80  C   UNL A   1      38.081  32.257  37.798  1.00  0.00     0.055 A 
ATOM     81  C   UNL A   1      39.246  34.218  37.037  1.00  0.00     0.041 A 
ATOM     82  F   UNL A   1      40.398  34.165  34.997  1.00  0.00    -0.206 F 
ATOM     83  C   UNL A   1      38.449  33.590  37.990  1.00  0.00     0.022 A 
BRANCH  80  84
ATOM     84  S   UNL A   1      36.970  31.441  38.978  1.00  0.00     0.124 S 
ATOM     85  O   UNL A   1      37.739  31.522  40.215  1.00  0.00    -0.237 OA
ATOM     86  O   UNL A   1      35.781  32.283  38.905  1.00  0.00    -0.237 OA
ATOM     87  O   UNL A   1      36.814  30.098  38.425  1.00  0.00    -0.744 OA
ENDBRANCH  80  84
ENDBRANCH  53  77
BRANCH  65  88
ATOM     88  C   UNL A   1      44.338  27.555  34.361  1.00  0.00     0.023 A 
ATOM     89  C   UNL A   1      44.220  26.278  34.935  1.00  0.00     0.031 A 
ATOM     90  C   UNL A   1      45.505  28.295  34.619  1.00  0.00     0.131 A 
ATOM     91  C   UNL A   1      45.235  25.795  35.774  1.00  0.00     0.055 A 
ATOM     92  C   UNL A   1      46.534  27.789  35.414  1.00  0.00     0.041 A 
ATOM     93  F   UNL A   1      45.664  29.521  34.096  1.00  0.00    -0.206 F 
ATOM     94  C   UNL A   1      46.398  26.536  36.005  1.00  0.00     0.022 A 
BRANCH  91  95
ATOM     95  S   UNL A   1      44.993  24.203  36.610  1.00  0.00     0.124 S 
ATOM     96  O   UNL A   1      44.623  24.623  37.959  1.00  0.00    -0.237 OA
ATOM     97  O   UNL A   1      43.930  23.590  35.820  1.00  0.00    -0.237 OA
ATOM     98  O   UNL A   1      46.298  23.554  36.499  1.00  0.00    -0.744 OA
ENDBRANCH  91  95
ENDBRANCH  65  88
ENDBRANCH  39  40
ENDBRANCH  31  34
ENDBRANCH  29  30
ENDBRANCH  28  29
ENDBRANCH  27  28
ENDBRANCH   1  27
TORSDOF 20
ENDMDL
