MODEL 1
REMARK VINA RESULT:     -13.9      0.000      0.000
REMARK SMILES Cc1ccccc1C(=O)Nc1ccc(N2CCC(n3c(C)nc4cccnc43)CC2)c(C(=O)NCCCCNC(=O)c2ccc(-c3c4nc(c(-c5cc(S(=O)(=O)[O-])ccc5F)c5ccc([nH]5)c(-c5cc(S(=O)(=O)[O-])ccc5F)c5nc(c(-c6cc(S(=O)(=O)[O-])ccc6F)c6ccc3[nH]6)C=C5)C=C4)cc2)c1
REMARK SMILES IDX 37 1 36 2 35 3 34 4 32 5 33 6 31 8 11 9 12 10 105 11 13 12
REMARK SMILES IDX 14 13 10 14 8 15 9 16 7 18 1 19 2 20 3 21 4 22 6 23 5 24
REMARK SMILES IDX 15 25 16 26 30 27 17 28 29 29 18 30 19 31 20 32 28 33 21 34
REMARK SMILES IDX 22 35 23 36 27 37 24 38 26 39 25 40 38 41 39 42 40 43 41 45
REMARK SMILES IDX 42 46 43 47 104 48 44 49 103 50 45 51 46 52 47 53 97 54
REMARK SMILES IDX 48 55 102 56 96 57 98 58 49 59 101 60 95 61 94 62 50 64
REMARK SMILES IDX 82 65 62 66 81 67 63 68 66 69 80 70 99 71 64 72 65 73 79 75
REMARK SMILES IDX 100 76 67 77 51 78 52 79 60 80 53 81 59 82 61 83 58 84 54 85
REMARK SMILES IDX 55 86 56 87 57 88 83 89 84 90 92 91 85 92 91 93 93 94 90 95
REMARK SMILES IDX 86 96 87 97 88 98 89 99 68 100 69 101 77 102 70 103 76 104
REMARK SMILES IDX 78 105 75 106 71 107 72 108 73 109 74 110
REMARK H PARENT 34 7 10 17 39 44 98 63 66 74
REMARK Flexibility Score: inf
ROOT
ATOM      1  C   UNL A   1      37.542  23.353  26.458  1.00  0.00     0.023 C 
ENDROOT
BRANCH   1   2
ATOM      2  C   UNL A   1      36.628  23.824  25.354  1.00  0.00     0.023 C 
BRANCH   2   3
ATOM      3  C   UNL A   1      35.258  24.357  25.731  1.00  0.00     0.116 C 
BRANCH   3   4
ATOM      4  N   UNL A   1      34.455  23.934  26.840  1.00  0.00    -0.352 N 
ATOM      5  C   UNL A   1      33.074  23.707  26.793  1.00  0.00     0.253 C 
ATOM      6  O   UNL A   1      32.581  23.156  27.784  1.00  0.00    -0.269 OA
ATOM      7  H   UNL A   1      34.910  23.793  27.702  1.00  0.00     0.163 HD
BRANCH   5   8
ATOM      8  C   UNL A   1      32.134  24.149  25.668  1.00  0.00     0.065 A 
ATOM      9  C   UNL A   1      31.003  23.358  23.623  1.00  0.00     0.042 A 
ATOM     10  C   UNL A   1      30.319  24.547  23.504  1.00  0.00     0.028 A 
ATOM     11  C   UNL A   1      31.763  23.100  24.778  1.00  0.00     0.042 A 
ATOM     12  C   UNL A   1      30.635  25.578  24.382  1.00  0.00     0.029 A 
ATOM     13  C   UNL A   1      31.658  25.455  25.365  1.00  0.00     0.050 A 
BRANCH   9  14
ATOM     14  N   UNL A   1      31.071  22.458  22.555  1.00  0.00    -0.322 N 
ATOM     15  C   UNL A   1      31.926  21.389  22.318  1.00  0.00     0.255 C 
ATOM     16  O   UNL A   1      31.913  20.945  21.161  1.00  0.00    -0.269 OA
ATOM     17  H   UNL A   1      30.399  22.607  21.852  1.00  0.00     0.170 HD
BRANCH  15  18
ATOM     18  C   UNL A   1      32.807  20.676  23.337  1.00  0.00     0.043 A 
ATOM     19  C   UNL A   1      31.995  18.218  23.163  1.00  0.00     0.045 C 
ATOM     20  C   UNL A   1      32.780  19.335  23.766  1.00  0.00    -0.038 A 
ATOM     21  C   UNL A   1      33.634  18.899  24.810  1.00  0.00     0.004 A 
ATOM     22  C   UNL A   1      34.663  19.697  25.282  1.00  0.00     0.000 A 
ATOM     23  C   UNL A   1      33.895  21.448  23.811  1.00  0.00     0.014 A 
ATOM     24  C   UNL A   1      34.828  20.957  24.737  1.00  0.00     0.001 A 
ENDBRANCH  15  18
ENDBRANCH   9  14
BRANCH  13  25
ATOM     25  N   UNL A   1      32.215  26.666  25.823  1.00  0.00    -0.371 N 
ATOM     26  C   UNL A   1      31.595  27.283  26.994  1.00  0.00     0.118 C 
ATOM     27  C   UNL A   1      33.279  27.292  25.046  1.00  0.00     0.118 C 
ATOM     28  C   UNL A   1      32.088  28.647  27.412  1.00  0.00     0.047 C 
ATOM     29  C   UNL A   1      33.481  28.769  25.344  1.00  0.00     0.047 C 
ATOM     30  C   UNL A   1      33.318  29.294  26.776  1.00  0.00     0.094 C 
BRANCH  30  31
ATOM     31  N   UNL A   1      33.261  30.818  26.837  1.00  0.00    -0.310 N 
ATOM     32  C   UNL A   1      31.750  31.753  26.439  1.00  0.00     0.108 A 
ATOM     33  C   UNL A   1      34.435  31.826  27.788  1.00  0.00     0.160 A 
ATOM     34  C   UNL A   1      30.622  31.299  25.575  1.00  0.00     0.088 C 
ATOM     35  N   UNL A   1      31.929  33.273  27.251  1.00  0.00    -0.232 NA
ATOM     36  C   UNL A   1      33.695  33.412  28.045  1.00  0.00     0.108 A 
ATOM     37  N   UNL A   1      35.712  31.547  28.151  1.00  0.00    -0.237 NA
ATOM     38  C   UNL A   1      34.495  34.428  28.539  1.00  0.00     0.034 A 
ATOM     39  C   UNL A   1      36.308  32.689  28.650  1.00  0.00     0.113 A 
ATOM     40  C   UNL A   1      35.812  34.025  28.822  1.00  0.00     0.022 A 
ENDBRANCH  30  31
ENDBRANCH  13  25
ENDBRANCH   5   8
ENDBRANCH   3   4
ENDBRANCH   2   3
ENDBRANCH   1   2
BRANCH   1  41
ATOM     41  C   UNL A   1      39.016  23.375  26.121  1.00  0.00     0.116 C 
BRANCH  41  42
ATOM     42  N   UNL A   1      39.765  22.137  26.126  1.00  0.00    -0.352 N 
ATOM     43  C   UNL A   1      41.151  22.015  26.162  1.00  0.00     0.251 C 
ATOM     44  H   UNL A   1      39.245  21.301  26.103  1.00  0.00     0.163 HD
ATOM     45  O   UNL A   1      41.690  20.979  25.777  1.00  0.00    -0.269 OA
BRANCH  43  46
ATOM     46  C   UNL A   1      41.985  23.069  26.820  1.00  0.00     0.039 A 
ATOM     47  C   UNL A   1      42.004  23.159  28.222  1.00  0.00     0.014 A 
ATOM     48  C   UNL A   1      42.503  24.127  26.089  1.00  0.00     0.014 A 
ATOM     49  C   UNL A   1      42.302  24.379  28.827  1.00  0.00     0.010 A 
ATOM     50  C   UNL A   1      42.579  25.357  26.638  1.00  0.00     0.010 A 
ATOM     51  C   UNL A   1      42.406  25.489  28.003  1.00  0.00    -0.014 A 
BRANCH  51  52
ATOM     52  C   UNL A   1      42.681  26.853  28.380  1.00  0.00     0.031 A 
ATOM     53  C   UNL A   1      41.446  27.664  28.362  1.00  0.00     0.074 A 
ATOM     54  C   UNL A   1      43.846  26.960  29.073  1.00  0.00     0.049 A 
ATOM     55  N   UNL A   1      41.379  28.938  28.357  1.00  0.00    -0.248 NA
ATOM     56  C   UNL A   1      40.093  27.065  28.253  1.00  0.00     0.031 C 
ATOM     57  C   UNL A   1      44.353  27.849  30.108  1.00  0.00     0.029 A 
ATOM     58  N   UNL A   1      44.990  26.230  28.752  1.00  0.00    -0.354 N 
ATOM     59  C   UNL A   1      40.120  29.224  28.853  1.00  0.00     0.074 A 
ATOM     60  C   UNL A   1      39.298  28.111  28.492  1.00  0.00     0.031 C 
ATOM     61  C   UNL A   1      45.699  27.921  30.007  1.00  0.00     0.029 A 
ATOM     62  C   UNL A   1      46.082  27.099  28.874  1.00  0.00     0.049 A 
ATOM     63  H   UNL A   1      45.023  25.281  28.490  1.00  0.00     0.167 HD
ATOM     64  C   UNL A   1      40.019  30.198  29.799  1.00  0.00     0.034 A 
ATOM     65  C   UNL A   1      46.709  27.513  27.733  1.00  0.00     0.034 A 
ATOM     66  C   UNL A   1      41.367  30.690  30.097  1.00  0.00     0.049 A 
ATOM     67  C   UNL A   1      46.363  28.944  27.503  1.00  0.00     0.074 A 
ATOM     68  C   UNL A   1      42.252  30.452  31.132  1.00  0.00     0.029 A 
ATOM     69  N   UNL A   1      42.108  31.223  29.059  1.00  0.00    -0.354 N 
ATOM     70  N   UNL A   1      45.205  29.460  27.828  1.00  0.00    -0.248 NA
ATOM     71  C   UNL A   1      47.379  29.922  27.156  1.00  0.00     0.031 C 
ATOM     72  C   UNL A   1      43.554  30.808  30.662  1.00  0.00     0.029 A 
ATOM     73  C   UNL A   1      43.452  31.207  29.338  1.00  0.00     0.049 A 
ATOM     74  H   UNL A   1      41.720  31.571  28.223  1.00  0.00     0.167 HD
ATOM     75  C   UNL A   1      45.353  30.816  27.893  1.00  0.00     0.074 A 
ATOM     76  C   UNL A   1      46.730  31.050  27.474  1.00  0.00     0.031 C 
ATOM     77  C   UNL A   1      44.384  31.677  28.329  1.00  0.00     0.034 A 
BRANCH  64  78
ATOM     78  C   UNL A   1      38.841  30.567  30.662  1.00  0.00     0.023 A 
ATOM     79  C   UNL A   1      38.759  31.916  31.061  1.00  0.00     0.031 A 
ATOM     80  C   UNL A   1      37.785  29.747  31.099  1.00  0.00     0.131 A 
ATOM     81  C   UNL A   1      37.708  32.402  31.850  1.00  0.00     0.055 A 
ATOM     82  C   UNL A   1      36.727  30.231  31.888  1.00  0.00     0.041 A 
ATOM     83  F   UNL A   1      37.700  28.451  30.777  1.00  0.00    -0.206 F 
ATOM     84  C   UNL A   1      36.681  31.567  32.266  1.00  0.00     0.022 A 
BRANCH  81  85
ATOM     85  S   UNL A   1      37.730  34.154  32.300  1.00  0.00     0.124 S 
ATOM     86  O   UNL A   1      36.306  34.477  32.318  1.00  0.00    -0.237 OA
ATOM     87  O   UNL A   1      38.404  34.133  33.592  1.00  0.00    -0.237 OA
ATOM     88  O   UNL A   1      38.490  34.770  31.215  1.00  0.00    -0.744 OA
ENDBRANCH  81  85
ENDBRANCH  64  78
BRANCH  65  89
ATOM     89  C   UNL A   1      46.855  26.399  26.736  1.00  0.00     0.023 A 
ATOM     90  C   UNL A   1      46.948  26.919  25.417  1.00  0.00     0.031 A 
ATOM     91  C   UNL A   1      47.669  25.325  27.030  1.00  0.00     0.131 A 
ATOM     92  C   UNL A   1      48.240  26.908  24.478  1.00  0.00     0.055 A 
ATOM     93  C   UNL A   1      48.786  25.089  26.237  1.00  0.00     0.041 A 
ATOM     94  F   UNL A   1      47.555  24.658  28.188  1.00  0.00    -0.206 F 
ATOM     95  C   UNL A   1      49.181  25.964  25.180  1.00  0.00     0.022 A 
BRANCH  92  96
ATOM     96  S   UNL A   1      48.230  27.967  22.052  1.00  0.00     0.124 S 
ATOM     97  O   UNL A   1      49.476  28.778  21.827  1.00  0.00    -0.237 OA
ATOM     98  O   UNL A   1      48.113  26.937  20.967  1.00  0.00    -0.237 OA
ATOM     99  O   UNL A   1      47.110  28.922  21.809  1.00  0.00    -0.744 OA
ENDBRANCH  92  96
ENDBRANCH  65  89
BRANCH  77 100
ATOM    100  C   UNL A   1      44.276  33.083  27.802  1.00  0.00     0.023 A 
ATOM    101  C   UNL A   1      44.410  34.178  28.652  1.00  0.00     0.031 A 
ATOM    102  C   UNL A   1      44.149  33.402  26.431  1.00  0.00     0.131 A 
ATOM    103  C   UNL A   1      44.225  35.485  28.210  1.00  0.00     0.055 A 
ATOM    104  C   UNL A   1      44.104  34.718  25.964  1.00  0.00     0.041 A 
ATOM    105  F   UNL A   1      44.107  32.471  25.470  1.00  0.00    -0.206 F 
ATOM    106  C   UNL A   1      44.096  35.774  26.861  1.00  0.00     0.022 A 
BRANCH 103 107
ATOM    107  S   UNL A   1      44.072  36.736  29.497  1.00  0.00     0.124 S 
ATOM    108  O   UNL A   1      43.132  37.674  28.888  1.00  0.00    -0.237 OA
ATOM    109  O   UNL A   1      43.548  35.966  30.622  1.00  0.00    -0.237 OA
ATOM    110  O   UNL A   1      45.436  37.230  29.655  1.00  0.00    -0.744 OA
ENDBRANCH 103 107
ENDBRANCH  77 100
ENDBRANCH  51  52
ENDBRANCH  43  46
ENDBRANCH  41  42
ENDBRANCH   1  41
TORSDOF 18
ENDMDL
MODEL 2
REMARK VINA RESULT:     -13.8      1.719      3.080
REMARK SMILES Cc1ccccc1C(=O)Nc1ccc(N2CCC(n3c(C)nc4cccnc43)CC2)c(C(=O)NCCCCNC(=O)c2ccc(-c3c4nc(c(-c5cc(S(=O)(=O)[O-])ccc5F)c5ccc([nH]5)c(-c5cc(S(=O)(=O)[O-])ccc5F)c5nc(c(-c6cc(S(=O)(=O)[O-])ccc6F)c6ccc3[nH]6)C=C5)C=C4)cc2)c1
REMARK SMILES IDX 37 1 36 2 35 3 34 4 32 5 33 6 31 8 11 9 12 10 105 11 13 12
REMARK SMILES IDX 14 13 10 14 8 15 9 16 7 18 1 19 2 20 3 21 4 22 6 23 5 24
REMARK SMILES IDX 15 25 16 26 30 27 17 28 29 29 18 30 19 31 20 32 28 33 21 34
REMARK SMILES IDX 22 35 23 36 27 37 24 38 26 39 25 40 38 41 39 42 40 43 41 45
REMARK SMILES IDX 42 46 43 47 104 48 44 49 103 50 45 51 46 52 47 53 97 54
REMARK SMILES IDX 48 55 102 56 96 57 98 58 49 59 101 60 95 61 94 62 50 64
REMARK SMILES IDX 82 65 62 66 81 67 63 68 66 69 80 70 99 71 64 72 65 73 79 75
REMARK SMILES IDX 100 76 67 77 51 78 52 79 60 80 53 81 59 82 61 83 58 84 54 85
REMARK SMILES IDX 55 86 56 87 57 88 83 89 84 90 92 91 85 92 91 93 93 94 90 95
REMARK SMILES IDX 86 96 87 97 88 98 89 99 68 100 69 101 77 102 70 103 76 104
REMARK SMILES IDX 78 105 75 106 71 107 72 108 73 109 74 110
REMARK H PARENT 34 7 10 17 39 44 98 63 66 74
REMARK Flexibility Score: inf
ROOT
ATOM      1  C   UNL A   1      38.718  23.560  26.542  1.00  0.00     0.023 C 
ENDROOT
BRANCH   1   2
ATOM      2  C   UNL A   1      37.457  23.672  25.720  1.00  0.00     0.023 C 
BRANCH   2   3
ATOM      3  C   UNL A   1      37.384  22.914  24.408  1.00  0.00     0.116 C 
BRANCH   3   4
ATOM      4  N   UNL A   1      36.419  23.104  23.366  1.00  0.00    -0.352 N 
ATOM      5  C   UNL A   1      35.046  23.292  23.565  1.00  0.00     0.253 C 
ATOM      6  O   UNL A   1      34.395  23.639  22.573  1.00  0.00    -0.269 OA
ATOM      7  H   UNL A   1      36.747  23.102  22.438  1.00  0.00     0.163 HD
BRANCH   5   8
ATOM      8  C   UNL A   1      34.289  23.030  24.871  1.00  0.00     0.065 A 
ATOM      9  C   UNL A   1      33.661  21.249  26.459  1.00  0.00     0.042 A 
ATOM     10  C   UNL A   1      33.103  22.170  27.318  1.00  0.00     0.028 A 
ATOM     11  C   UNL A   1      34.393  21.689  25.341  1.00  0.00     0.042 A 
ATOM     12  C   UNL A   1      33.020  23.493  26.901  1.00  0.00     0.029 A 
ATOM     13  C   UNL A   1      33.456  23.914  25.612  1.00  0.00     0.050 A 
BRANCH   9  14
ATOM     14  N   UNL A   1      33.397  19.883  26.598  1.00  0.00    -0.322 N 
ATOM     15  C   UNL A   1      32.820  18.973  25.721  1.00  0.00     0.255 C 
ATOM     16  O   UNL A   1      32.475  17.895  26.225  1.00  0.00    -0.269 OA
ATOM     17  H   UNL A   1      33.665  19.502  27.465  1.00  0.00     0.170 HD
BRANCH  15  18
ATOM     18  C   UNL A   1      32.639  19.138  24.217  1.00  0.00     0.043 A 
ATOM     19  C   UNL A   1      33.094  16.743  23.328  1.00  0.00     0.045 C 
ATOM     20  C   UNL A   1      32.842  18.207  23.180  1.00  0.00    -0.038 A 
ATOM     21  C   UNL A   1      32.711  18.603  21.825  1.00  0.00     0.004 A 
ATOM     22  C   UNL A   1      32.170  19.830  21.480  1.00  0.00     0.000 A 
ATOM     23  C   UNL A   1      32.049  20.365  23.830  1.00  0.00     0.014 A 
ATOM     24  C   UNL A   1      31.783  20.691  22.490  1.00  0.00     0.001 A 
ENDBRANCH  15  18
ENDBRANCH   9  14
BRANCH  13  25
ATOM     25  N   UNL A   1      32.877  25.105  25.129  1.00  0.00    -0.371 N 
ATOM     26  C   UNL A   1      33.629  26.342  25.337  1.00  0.00     0.118 C 
ATOM     27  C   UNL A   1      31.530  25.061  24.572  1.00  0.00     0.118 C 
ATOM     28  C   UNL A   1      32.961  27.641  24.954  1.00  0.00     0.047 C 
ATOM     29  C   UNL A   1      30.834  26.412  24.518  1.00  0.00     0.047 C 
ATOM     30  C   UNL A   1      31.635  27.678  24.194  1.00  0.00     0.094 C 
BRANCH  30  31
ATOM     31  N   UNL A   1      30.850  28.956  24.475  1.00  0.00    -0.310 N 
ATOM     32  C   UNL A   1      31.299  30.100  25.818  1.00  0.00     0.108 A 
ATOM     33  C   UNL A   1      29.770  29.755  23.253  1.00  0.00     0.160 A 
ATOM     34  C   UNL A   1      32.067  29.770  27.052  1.00  0.00     0.088 C 
ATOM     35  N   UNL A   1      30.619  31.627  25.360  1.00  0.00    -0.232 NA
ATOM     36  C   UNL A   1      29.528  31.431  23.766  1.00  0.00     0.108 A 
ATOM     37  N   UNL A   1      29.114  29.212  22.197  1.00  0.00    -0.237 NA
ATOM     38  C   UNL A   1      28.551  32.171  23.122  1.00  0.00     0.034 A 
ATOM     39  C   UNL A   1      28.220  30.133  21.687  1.00  0.00     0.113 A 
ATOM     40  C   UNL A   1      27.905  31.475  22.085  1.00  0.00     0.022 A 
ENDBRANCH  30  31
ENDBRANCH  13  25
ENDBRANCH   5   8
ENDBRANCH   3   4
ENDBRANCH   2   3
ENDBRANCH   1   2
BRANCH   1  41
ATOM     41  C   UNL A   1      39.898  22.949  25.822  1.00  0.00     0.116 C 
BRANCH  41  42
ATOM     42  N   UNL A   1      40.463  21.709  26.310  1.00  0.00    -0.352 N 
ATOM     43  C   UNL A   1      41.766  21.522  26.763  1.00  0.00     0.251 C 
ATOM     44  H   UNL A   1      39.870  20.923  26.323  1.00  0.00     0.163 HD
ATOM     45  O   UNL A   1      42.257  20.396  26.783  1.00  0.00    -0.269 OA
BRANCH  43  46
ATOM     46  C   UNL A   1      42.519  22.656  27.385  1.00  0.00     0.039 A 
ATOM     47  C   UNL A   1      42.498  22.817  28.780  1.00  0.00     0.014 A 
ATOM     48  C   UNL A   1      42.992  23.707  26.613  1.00  0.00     0.014 A 
ATOM     49  C   UNL A   1      42.708  24.081  29.329  1.00  0.00     0.010 A 
ATOM     50  C   UNL A   1      42.981  24.965  27.099  1.00  0.00     0.010 A 
ATOM     51  C   UNL A   1      42.766  25.153  28.452  1.00  0.00    -0.014 A 
BRANCH  51  52
ATOM     52  C   UNL A   1      42.950  26.548  28.764  1.00  0.00     0.031 A 
ATOM     53  C   UNL A   1      41.669  27.279  28.684  1.00  0.00     0.074 A 
ATOM     54  C   UNL A   1      44.092  26.761  29.471  1.00  0.00     0.049 A 
ATOM     55  N   UNL A   1      41.524  28.546  28.614  1.00  0.00    -0.248 NA
ATOM     56  C   UNL A   1      40.357  26.594  28.582  1.00  0.00     0.031 C 
ATOM     57  C   UNL A   1      44.523  27.729  30.469  1.00  0.00     0.029 A 
ATOM     58  N   UNL A   1      45.284  26.088  29.207  1.00  0.00    -0.354 N 
ATOM     59  C   UNL A   1      40.240  28.777  29.074  1.00  0.00     0.074 A 
ATOM     60  C   UNL A   1      39.495  27.599  28.754  1.00  0.00     0.031 C 
ATOM     61  C   UNL A   1      45.864  27.879  30.387  1.00  0.00     0.029 A 
ATOM     62  C   UNL A   1      46.319  27.028  29.304  1.00  0.00     0.049 A 
ATOM     63  H   UNL A   1      45.381  25.131  28.994  1.00  0.00     0.167 HD
ATOM     64  C   UNL A   1      40.061  29.788  29.968  1.00  0.00     0.034 A 
ATOM     65  C   UNL A   1      46.943  27.423  28.154  1.00  0.00     0.034 A 
ATOM     66  C   UNL A   1      41.370  30.376  30.264  1.00  0.00     0.049 A 
ATOM     67  C   UNL A   1      46.515  28.817  27.848  1.00  0.00     0.074 A 
ATOM     68  C   UNL A   1      42.247  30.244  31.325  1.00  0.00     0.029 A 
ATOM     69  N   UNL A   1      42.099  30.902  29.213  1.00  0.00    -0.354 N 
ATOM     70  N   UNL A   1      45.322  29.276  28.126  1.00  0.00    -0.248 NA
ATOM     71  C   UNL A   1      47.477  29.838  27.469  1.00  0.00     0.031 C 
ATOM     72  C   UNL A   1      43.535  30.656  30.860  1.00  0.00     0.029 A 
ATOM     73  C   UNL A   1      43.436  30.984  29.516  1.00  0.00     0.049 A 
ATOM     74  H   UNL A   1      41.707  31.185  28.355  1.00  0.00     0.167 HD
ATOM     75  C   UNL A   1      45.385  30.640  28.126  1.00  0.00     0.074 A 
ATOM     76  C   UNL A   1      46.754  30.938  27.719  1.00  0.00     0.031 C 
ATOM     77  C   UNL A   1      44.357  31.460  28.501  1.00  0.00     0.034 A 
BRANCH  64  78
ATOM     78  C   UNL A   1      38.846  30.125  30.791  1.00  0.00     0.023 A 
ATOM     79  C   UNL A   1      37.980  31.101  30.255  1.00  0.00     0.031 A 
ATOM     80  C   UNL A   1      38.437  29.569  32.016  1.00  0.00     0.131 A 
ATOM     81  C   UNL A   1      36.805  31.498  30.906  1.00  0.00     0.055 A 
ATOM     82  C   UNL A   1      37.256  29.963  32.671  1.00  0.00     0.041 A 
ATOM     83  F   UNL A   1      39.132  28.609  32.638  1.00  0.00    -0.206 F 
ATOM     84  C   UNL A   1      36.430  30.930  32.115  1.00  0.00     0.022 A 
BRANCH  81  85
ATOM     85  S   UNL A   1      35.790  32.768  30.113  1.00  0.00     0.124 S 
ATOM     86  O   UNL A   1      36.403  33.996  30.609  1.00  0.00    -0.237 OA
ATOM     87  O   UNL A   1      35.981  32.477  28.697  1.00  0.00    -0.237 OA
ATOM     88  O   UNL A   1      34.449  32.494  30.625  1.00  0.00    -0.744 OA
ENDBRANCH  81  85
ENDBRANCH  64  78
BRANCH  65  89
ATOM     89  C   UNL A   1      47.176  26.273  27.217  1.00  0.00     0.023 A 
ATOM     90  C   UNL A   1      47.222  26.727  25.872  1.00  0.00     0.031 A 
ATOM     91  C   UNL A   1      48.077  25.286  27.562  1.00  0.00     0.131 A 
ATOM     92  C   UNL A   1      48.507  26.771  24.924  1.00  0.00     0.055 A 
ATOM     93  C   UNL A   1      49.206  25.100  26.774  1.00  0.00     0.041 A 
ATOM     94  F   UNL A   1      48.021  24.676  28.755  1.00  0.00    -0.206 F 
ATOM     95  C   UNL A   1      49.525  25.946  25.669  1.00  0.00     0.022 A 
BRANCH  92  96
ATOM     96  S   UNL A   1      48.403  27.693  22.446  1.00  0.00     0.124 S 
ATOM     97  O   UNL A   1      47.121  28.446  22.217  1.00  0.00    -0.237 OA
ATOM     98  O   UNL A   1      49.562  28.584  22.106  1.00  0.00    -0.237 OA
ATOM     99  O   UNL A   1      48.406  26.629  21.399  1.00  0.00    -0.744 OA
ENDBRANCH  92  96
ENDBRANCH  65  89
BRANCH  77 100
ATOM    100  C   UNL A   1      44.174  32.829  27.902  1.00  0.00     0.023 A 
ATOM    101  C   UNL A   1      44.238  33.972  28.696  1.00  0.00     0.031 A 
ATOM    102  C   UNL A   1      44.043  33.071  26.516  1.00  0.00     0.131 A 
ATOM    103  C   UNL A   1      43.984  35.242  28.187  1.00  0.00     0.055 A 
ATOM    104  C   UNL A   1      43.928  34.357  25.982  1.00  0.00     0.041 A 
ATOM    105  F   UNL A   1      44.063  32.092  25.603  1.00  0.00    -0.206 F 
ATOM    106  C   UNL A   1      43.851  35.454  26.825  1.00  0.00     0.022 A 
BRANCH 103 107
ATOM    107  S   UNL A   1      43.749  36.546  29.408  1.00  0.00     0.124 S 
ATOM    108  O   UNL A   1      45.125  36.817  29.821  1.00  0.00    -0.237 OA
ATOM    109  O   UNL A   1      43.112  37.599  28.622  1.00  0.00    -0.237 OA
ATOM    110  O   UNL A   1      42.904  35.917  30.418  1.00  0.00    -0.744 OA
ENDBRANCH 103 107
ENDBRANCH  77 100
ENDBRANCH  51  52
ENDBRANCH  43  46
ENDBRANCH  41  42
ENDBRANCH   1  41
TORSDOF 18
ENDMDL
MODEL 3
REMARK VINA RESULT:     -13.4      5.133     10.217
REMARK SMILES Cc1ccccc1C(=O)Nc1ccc(N2CCC(n3c(C)nc4cccnc43)CC2)c(C(=O)NCCCCNC(=O)c2ccc(-c3c4nc(c(-c5cc(S(=O)(=O)[O-])ccc5F)c5ccc([nH]5)c(-c5cc(S(=O)(=O)[O-])ccc5F)c5nc(c(-c6cc(S(=O)(=O)[O-])ccc6F)c6ccc3[nH]6)C=C5)C=C4)cc2)c1
REMARK SMILES IDX 37 1 36 2 35 3 34 4 32 5 33 6 31 8 11 9 12 10 105 11 13 12
REMARK SMILES IDX 14 13 10 14 8 15 9 16 7 18 1 19 2 20 3 21 4 22 6 23 5 24
REMARK SMILES IDX 15 25 16 26 30 27 17 28 29 29 18 30 19 31 20 32 28 33 21 34
REMARK SMILES IDX 22 35 23 36 27 37 24 38 26 39 25 40 38 41 39 42 40 43 41 45
REMARK SMILES IDX 42 46 43 47 104 48 44 49 103 50 45 51 46 52 47 53 97 54
REMARK SMILES IDX 48 55 102 56 96 57 98 58 49 59 101 60 95 61 94 62 50 64
REMARK SMILES IDX 82 65 62 66 81 67 63 68 66 69 80 70 99 71 64 72 65 73 79 75
REMARK SMILES IDX 100 76 67 77 51 78 52 79 60 80 53 81 59 82 61 83 58 84 54 85
REMARK SMILES IDX 55 86 56 87 57 88 83 89 84 90 92 91 85 92 91 93 93 94 90 95
REMARK SMILES IDX 86 96 87 97 88 98 89 99 68 100 69 101 77 102 70 103 76 104
REMARK SMILES IDX 78 105 75 106 71 107 72 108 73 109 74 110
REMARK H PARENT 34 7 10 17 39 44 98 63 66 74
REMARK Flexibility Score: inf
ROOT
ATOM      1  C   UNL A   1      42.530  31.409  33.595  1.00  0.00     0.023 C 
ENDROOT
BRANCH   1   2
ATOM      2  C   UNL A   1      41.224  30.850  33.083  1.00  0.00     0.023 C 
BRANCH   2   3
ATOM      3  C   UNL A   1      41.009  29.349  33.146  1.00  0.00     0.116 C 
BRANCH   3   4
ATOM      4  N   UNL A   1      39.770  28.675  33.396  1.00  0.00    -0.352 N 
ATOM      5  C   UNL A   1      39.035  27.961  32.443  1.00  0.00     0.253 C 
ATOM      6  O   UNL A   1      38.099  27.280  32.876  1.00  0.00    -0.269 OA
ATOM      7  H   UNL A   1      39.406  28.719  34.310  1.00  0.00     0.163 HD
BRANCH   5   8
ATOM      8  C   UNL A   1      39.246  28.018  30.927  1.00  0.00     0.065 A 
ATOM      9  C   UNL A   1      40.757  27.283  29.120  1.00  0.00     0.042 A 
ATOM     10  C   UNL A   1      39.906  27.788  28.161  1.00  0.00     0.028 A 
ATOM     11  C   UNL A   1      40.351  27.245  30.466  1.00  0.00     0.042 A 
ATOM     12  C   UNL A   1      38.799  28.516  28.582  1.00  0.00     0.029 A 
ATOM     13  C   UNL A   1      38.542  28.786  29.957  1.00  0.00     0.050 A 
BRANCH   9  14
ATOM     14  N   UNL A   1      42.074  26.936  28.802  1.00  0.00    -0.322 N 
ATOM     15  C   UNL A   1      42.644  25.705  28.503  1.00  0.00     0.255 C 
ATOM     16  O   UNL A   1      43.882  25.674  28.526  1.00  0.00    -0.269 OA
ATOM     17  H   UNL A   1      42.703  27.692  28.788  1.00  0.00     0.170 HD
BRANCH  15  18
ATOM     18  C   UNL A   1      41.914  24.434  28.086  1.00  0.00     0.043 A 
ATOM     19  C   UNL A   1      40.459  25.244  26.096  1.00  0.00     0.045 C 
ATOM     20  C   UNL A   1      40.912  24.250  27.113  1.00  0.00    -0.038 A 
ATOM     21  C   UNL A   1      40.290  22.986  26.954  1.00  0.00     0.004 A 
ATOM     22  C   UNL A   1      40.788  21.853  27.575  1.00  0.00     0.000 A 
ATOM     23  C   UNL A   1      42.424  23.249  28.669  1.00  0.00     0.014 A 
ATOM     24  C   UNL A   1      41.897  21.978  28.391  1.00  0.00     0.001 A 
ENDBRANCH  15  18
ENDBRANCH   9  14
BRANCH  13  25
ATOM     25  N   UNL A   1      37.731  29.908  30.218  1.00  0.00    -0.371 N 
ATOM     26  C   UNL A   1      38.397  31.208  30.292  1.00  0.00     0.118 C 
ATOM     27  C   UNL A   1      36.319  29.704  30.520  1.00  0.00     0.118 C 
ATOM     28  C   UNL A   1      37.567  32.398  30.710  1.00  0.00     0.047 C 
ATOM     29  C   UNL A   1      35.657  30.877  31.227  1.00  0.00     0.047 C 
ATOM     30  C   UNL A   1      36.049  32.314  30.863  1.00  0.00     0.094 C 
BRANCH  30  31
ATOM     31  N   UNL A   1      35.516  33.336  31.863  1.00  0.00    -0.310 N 
ATOM     32  C   UNL A   1      36.244  33.550  33.518  1.00  0.00     0.108 A 
ATOM     33  C   UNL A   1      34.513  34.773  31.386  1.00  0.00     0.160 A 
ATOM     34  C   UNL A   1      37.022  32.538  34.288  1.00  0.00     0.088 C 
ATOM     35  N   UNL A   1      35.810  35.157  34.001  1.00  0.00    -0.232 NA
ATOM     36  C   UNL A   1      34.599  35.948  32.707  1.00  0.00     0.108 A 
ATOM     37  N   UNL A   1      33.705  34.940  30.310  1.00  0.00    -0.237 NA
ATOM     38  C   UNL A   1      33.724  37.022  32.676  1.00  0.00     0.034 A 
ATOM     39  C   UNL A   1      32.952  36.087  30.473  1.00  0.00     0.113 A 
ATOM     40  C   UNL A   1      32.901  37.049  31.536  1.00  0.00     0.022 A 
ENDBRANCH  30  31
ENDBRANCH  13  25
ENDBRANCH   5   8
ENDBRANCH   3   4
ENDBRANCH   2   3
ENDBRANCH   1   2
BRANCH   1  41
ATOM     41  C   UNL A   1      42.394  32.522  34.609  1.00  0.00     0.116 C 
BRANCH  41  42
ATOM     42  N   UNL A   1      41.079  33.037  34.927  1.00  0.00    -0.352 N 
ATOM     43  C   UNL A   1      40.509  34.202  34.423  1.00  0.00     0.251 C 
ATOM     44  H   UNL A   1      40.537  32.513  35.559  1.00  0.00     0.163 HD
ATOM     45  O   UNL A   1      39.588  34.750  35.026  1.00  0.00    -0.269 OA
BRANCH  43  46
ATOM     46  C   UNL A   1      40.893  34.706  33.067  1.00  0.00     0.039 A 
ATOM     47  C   UNL A   1      40.139  34.315  31.947  1.00  0.00     0.014 A 
ATOM     48  C   UNL A   1      42.125  35.303  32.850  1.00  0.00     0.014 A 
ATOM     49  C   UNL A   1      40.736  34.306  30.688  1.00  0.00     0.010 A 
ATOM     50  C   UNL A   1      42.784  35.097  31.691  1.00  0.00     0.010 A 
ATOM     51  C   UNL A   1      42.103  34.530  30.630  1.00  0.00    -0.014 A 
BRANCH  51  52
ATOM     52  C   UNL A   1      42.953  34.549  29.466  1.00  0.00     0.031 A 
ATOM     53  C   UNL A   1      43.663  33.263  29.310  1.00  0.00     0.074 A 
ATOM     54  C   UNL A   1      42.572  35.507  28.579  1.00  0.00     0.049 A 
ATOM     55  N   UNL A   1      44.686  33.048  28.577  1.00  0.00    -0.248 NA
ATOM     56  C   UNL A   1      43.309  32.050  30.087  1.00  0.00     0.031 C 
ATOM     57  C   UNL A   1      42.637  35.659  27.133  1.00  0.00     0.029 A 
ATOM     58  N   UNL A   1      42.134  36.772  28.969  1.00  0.00    -0.354 N 
ATOM     59  C   UNL A   1      44.669  31.685  28.344  1.00  0.00     0.074 A 
ATOM     60  C   UNL A   1      44.033  31.104  29.486  1.00  0.00     0.031 C 
ATOM     61  C   UNL A   1      42.698  36.975  26.830  1.00  0.00     0.029 A 
ATOM     62  C   UNL A   1      42.708  37.697  28.087  1.00  0.00     0.049 A 
ATOM     63  H   UNL A   1      41.533  36.976  29.723  1.00  0.00     0.167 HD
ATOM     64  C   UNL A   1      44.880  31.259  27.068  1.00  0.00     0.034 A 
ATOM     65  C   UNL A   1      43.698  38.513  28.560  1.00  0.00     0.034 A 
ATOM     66  C   UNL A   1      45.036  32.437  26.211  1.00  0.00     0.049 A 
ATOM     67  C   UNL A   1      44.992  38.060  27.976  1.00  0.00     0.074 A 
ATOM     68  C   UNL A   1      44.186  33.088  25.336  1.00  0.00     0.029 A 
ATOM     69  N   UNL A   1      46.054  33.325  26.505  1.00  0.00    -0.354 N 
ATOM     70  N   UNL A   1      45.257  36.806  27.713  1.00  0.00    -0.248 NA
ATOM     71  C   UNL A   1      45.938  39.005  27.409  1.00  0.00     0.031 C 
ATOM     72  C   UNL A   1      44.697  34.411  25.159  1.00  0.00     0.029 A 
ATOM     73  C   UNL A   1      45.817  34.563  25.962  1.00  0.00     0.049 A 
ATOM     74  H   UNL A   1      46.852  33.096  27.037  1.00  0.00     0.167 HD
ATOM     75  C   UNL A   1      46.294  36.773  26.824  1.00  0.00     0.074 A 
ATOM     76  C   UNL A   1      46.674  38.172  26.661  1.00  0.00     0.031 C 
ATOM     77  C   UNL A   1      46.759  35.636  26.225  1.00  0.00     0.034 A 
BRANCH  64  78
ATOM     78  C   UNL A   1      44.705  29.882  26.484  1.00  0.00     0.023 A 
ATOM     79  C   UNL A   1      45.882  29.227  26.067  1.00  0.00     0.031 A 
ATOM     80  C   UNL A   1      43.520  29.141  26.329  1.00  0.00     0.131 A 
ATOM     81  C   UNL A   1      45.868  27.936  25.523  1.00  0.00     0.055 A 
ATOM     82  C   UNL A   1      43.502  27.844  25.786  1.00  0.00     0.041 A 
ATOM     83  F   UNL A   1      42.325  29.609  26.707  1.00  0.00    -0.206 F 
ATOM     84  C   UNL A   1      44.682  27.232  25.382  1.00  0.00     0.022 A 
BRANCH  81  85
ATOM     85  S   UNL A   1      47.450  27.216  25.018  1.00  0.00     0.124 S 
ATOM     86  O   UNL A   1      48.388  28.279  25.367  1.00  0.00    -0.237 OA
ATOM     87  O   UNL A   1      47.512  26.007  25.831  1.00  0.00    -0.237 OA
ATOM     88  O   UNL A   1      47.274  26.990  23.585  1.00  0.00    -0.744 OA
ENDBRANCH  81  85
ENDBRANCH  64  78
BRANCH  65  89
ATOM     89  C   UNL A   1      43.403  39.010  29.946  1.00  0.00     0.023 A 
ATOM     90  C   UNL A   1      44.344  38.489  30.874  1.00  0.00     0.031 A 
ATOM     91  C   UNL A   1      43.022  40.323  30.132  1.00  0.00     0.131 A 
ATOM     92  C   UNL A   1      45.480  39.309  31.641  1.00  0.00     0.055 A 
ATOM     93  C   UNL A   1      43.838  41.162  30.881  1.00  0.00     0.041 A 
ATOM     94  F   UNL A   1      42.030  40.870  29.414  1.00  0.00    -0.206 F 
ATOM     95  C   UNL A   1      45.104  40.748  31.397  1.00  0.00     0.022 A 
BRANCH  92  96
ATOM     96  S   UNL A   1      47.176  38.150  33.310  1.00  0.00     0.124 S 
ATOM     97  O   UNL A   1      46.599  38.101  34.697  1.00  0.00    -0.237 OA
ATOM     98  O   UNL A   1      47.554  36.761  32.886  1.00  0.00    -0.237 OA
ATOM     99  O   UNL A   1      48.470  38.878  33.466  1.00  0.00    -0.744 OA
ENDBRANCH  92  96
ENDBRANCH  65  89
BRANCH  77 100
ATOM    100  C   UNL A   1      48.202  35.484  25.824  1.00  0.00     0.023 A 
ATOM    101  C   UNL A   1      48.907  34.318  26.116  1.00  0.00     0.031 A 
ATOM    102  C   UNL A   1      48.907  36.428  25.044  1.00  0.00     0.131 A 
ATOM    103  C   UNL A   1      50.264  34.185  25.839  1.00  0.00     0.055 A 
ATOM    104  C   UNL A   1      50.230  36.237  24.641  1.00  0.00     0.041 A 
ATOM    105  F   UNL A   1      48.348  37.558  24.593  1.00  0.00    -0.206 F 
ATOM    106  C   UNL A   1      50.936  35.127  25.078  1.00  0.00     0.022 A 
BRANCH 103 107
ATOM    107  S   UNL A   1      51.089  32.778  26.605  1.00  0.00     0.124 S 
ATOM    108  O   UNL A   1      52.494  33.067  26.320  1.00  0.00    -0.237 OA
ATOM    109  O   UNL A   1      50.696  32.910  28.006  1.00  0.00    -0.237 OA
ATOM    110  O   UNL A   1      50.530  31.630  25.900  1.00  0.00    -0.744 OA
ENDBRANCH 103 107
ENDBRANCH  77 100
ENDBRANCH  51  52
ENDBRANCH  43  46
ENDBRANCH  41  42
ENDBRANCH   1  41
TORSDOF 18
ENDMDL
