MODEL 1
REMARK VINA RESULT:     -12.7      0.000      0.000
REMARK SMILES Cc1cccc(NS(=O)(=O)c2ccc(Br)c(C(=O)NCCCCNC(=O)c3ccc(-c4c5nc(c(-c6cc(S(=O)(=O)[O-])ccc6F)c6ccc([nH]6)c(-c6cc(S(=O)(=O)[O-])ccc6F)c6nc(c(-c7cc(S(=O)(=O)[O-])ccc7F)c7ccc4[nH]7)C=C6)C=C5)cc3)c2)c1
REMARK SMILES IDX 21 1 20 2 19 3 17 4 18 5 16 7 11 8 12 9 90 10 13 11 14 12
REMARK SMILES IDX 15 13 8 14 9 15 10 16 7 17 6 19 1 20 2 21 3 22 91 23 4 24
REMARK SMILES IDX 5 25 22 26 23 27 24 28 25 29 26 31 27 32 28 33 89 34 29 35
REMARK SMILES IDX 88 36 30 37 31 38 32 39 82 40 33 41 87 42 81 43 83 44 34 45
REMARK SMILES IDX 86 46 80 47 79 48 35 50 67 51 47 52 66 53 48 54 51 55 65 56
REMARK SMILES IDX 84 57 49 58 50 59 64 61 85 62 52 63 36 64 37 65 45 66 38 67
REMARK SMILES IDX 44 68 46 69 43 70 39 71 40 72 41 73 42 74 68 75 69 76 77 77
REMARK SMILES IDX 70 78 76 79 78 80 75 81 71 82 72 83 73 84 74 85 53 86 54 87
REMARK SMILES IDX 62 88 55 89 61 90 63 91 60 92 56 93 57 94 58 95 59 96
REMARK H PARENT 19 6 7 18 24 30 83 49 51 60
REMARK Flexibility Score: inf
ROOT
ATOM      1  C   UNL A   1      32.459  30.742  27.024  1.00  0.00     0.023 C 
ENDROOT
BRANCH   1   2
ATOM      2  C   UNL A   1      32.897  29.345  26.584  1.00  0.00     0.116 C 
BRANCH   2   3
ATOM      3  N   UNL A   1      33.552  29.263  25.269  1.00  0.00    -0.352 N 
ATOM      4  C   UNL A   1      33.310  28.428  24.189  1.00  0.00     0.252 C 
ATOM      5  O   UNL A   1      33.963  28.566  23.155  1.00  0.00    -0.269 OA
ATOM      6  H   UNL A   1      34.285  29.908  25.135  1.00  0.00     0.163 HD
BRANCH   4   7
ATOM      7  C   UNL A   1      32.380  27.274  24.305  1.00  0.00     0.055 A 
ATOM      8  C   UNL A   1      31.975  25.073  25.206  1.00  0.00     0.088 A 
ATOM      9  C   UNL A   1      30.660  25.452  25.474  1.00  0.00     0.023 A 
ATOM     10  C   UNL A   1      32.877  26.030  24.725  1.00  0.00     0.037 A 
ATOM     11  C   UNL A   1      30.149  26.578  24.834  1.00  0.00     0.018 A 
ATOM     12  C   UNL A   1      31.010  27.400  24.114  1.00  0.00     0.030 A 
ATOM     13  Br  UNL A   1      30.302  28.471  22.714  1.00  0.00    -0.050 Br
BRANCH   8  14
ATOM     14  S   UNL A   1      32.451  23.383  25.460  1.00  0.00     0.261 S 
ATOM     15  O   UNL A   1      31.282  22.553  25.258  1.00  0.00    -0.201 OA
ATOM     16  O   UNL A   1      33.182  23.307  26.711  1.00  0.00    -0.201 OA
BRANCH  14  17
ATOM     17  N   UNL A   1      33.599  22.940  24.259  1.00  0.00    -0.280 N 
ATOM     18  H   UNL A   1      33.305  22.844  23.324  1.00  0.00     0.180 HD
BRANCH  17  19
ATOM     19  C   UNL A   1      34.980  22.706  24.589  1.00  0.00     0.049 A 
ATOM     20  C   UNL A   1      37.502  19.853  24.913  1.00  0.00     0.044 C 
ATOM     21  C   UNL A   1      36.894  21.225  24.864  1.00  0.00    -0.049 A 
ATOM     22  C   UNL A   1      37.700  22.334  25.150  1.00  0.00     0.003 A 
ATOM     23  C   UNL A   1      35.541  21.424  24.530  1.00  0.00     0.030 A 
ATOM     24  C   UNL A   1      37.136  23.604  25.234  1.00  0.00     0.002 A 
ATOM     25  C   UNL A   1      35.769  23.775  25.013  1.00  0.00     0.027 A 
ENDBRANCH  17  19
ENDBRANCH  14  17
ENDBRANCH   8  14
ENDBRANCH   4   7
ENDBRANCH   2   3
ENDBRANCH   1   2
BRANCH   1  26
ATOM     26  C   UNL A   1      33.549  31.651  27.573  1.00  0.00     0.023 C 
BRANCH  26  27
ATOM     27  C   UNL A   1      34.941  31.033  27.671  1.00  0.00     0.116 C 
BRANCH  27  28
ATOM     28  N   UNL A   1      35.883  31.739  28.534  1.00  0.00    -0.352 N 
ATOM     29  C   UNL A   1      37.019  31.239  29.161  1.00  0.00     0.251 C 
ATOM     30  H   UNL A   1      35.689  32.691  28.691  1.00  0.00     0.163 HD
ATOM     31  O   UNL A   1      37.704  31.925  29.902  1.00  0.00    -0.269 OA
BRANCH  29  32
ATOM     32  C   UNL A   1      37.478  29.871  28.802  1.00  0.00     0.039 A 
ATOM     33  C   UNL A   1      37.697  28.977  29.855  1.00  0.00     0.014 A 
ATOM     34  C   UNL A   1      37.943  29.580  27.523  1.00  0.00     0.014 A 
ATOM     35  C   UNL A   1      38.611  27.941  29.685  1.00  0.00     0.010 A 
ATOM     36  C   UNL A   1      38.929  28.620  27.381  1.00  0.00     0.010 A 
ATOM     37  C   UNL A   1      39.319  27.853  28.483  1.00  0.00    -0.014 A 
BRANCH  37  38
ATOM     38  C   UNL A   1      40.601  27.157  28.395  1.00  0.00     0.031 A 
ATOM     39  C   UNL A   1      40.685  25.698  28.207  1.00  0.00     0.074 A 
ATOM     40  C   UNL A   1      41.752  27.855  28.524  1.00  0.00     0.049 A 
ATOM     41  N   UNL A   1      41.575  24.958  28.781  1.00  0.00    -0.248 NA
ATOM     42  C   UNL A   1      39.759  24.950  27.364  1.00  0.00     0.031 C 
ATOM     43  C   UNL A   1      43.115  27.368  28.329  1.00  0.00     0.029 A 
ATOM     44  N   UNL A   1      41.915  29.115  29.092  1.00  0.00    -0.354 N 
ATOM     45  C   UNL A   1      41.530  23.727  28.173  1.00  0.00     0.074 A 
ATOM     46  C   UNL A   1      40.331  23.742  27.362  1.00  0.00     0.031 C 
ATOM     47  C   UNL A   1      43.960  28.176  28.987  1.00  0.00     0.029 A 
ATOM     48  C   UNL A   1      43.167  29.146  29.720  1.00  0.00     0.049 A 
ATOM     49  H   UNL A   1      41.265  29.854  29.059  1.00  0.00     0.167 HD
ATOM     50  C   UNL A   1      42.581  22.867  28.269  1.00  0.00     0.034 A 
ATOM     51  C   UNL A   1      43.277  29.420  31.052  1.00  0.00     0.034 A 
ATOM     52  C   UNL A   1      43.702  23.437  29.009  1.00  0.00     0.049 A 
ATOM     53  C   UNL A   1      43.874  28.276  31.853  1.00  0.00     0.074 A 
ATOM     54  C   UNL A   1      44.896  24.009  28.600  1.00  0.00     0.029 A 
ATOM     55  N   UNL A   1      43.570  23.731  30.361  1.00  0.00    -0.354 N 
ATOM     56  N   UNL A   1      44.033  27.061  31.401  1.00  0.00    -0.248 NA
ATOM     57  C   UNL A   1      44.310  28.407  33.239  1.00  0.00     0.031 C 
ATOM     58  C   UNL A   1      45.469  24.677  29.711  1.00  0.00     0.029 A 
ATOM     59  C   UNL A   1      44.637  24.494  30.800  1.00  0.00     0.049 A 
ATOM     60  H   UNL A   1      42.822  23.435  30.927  1.00  0.00     0.167 HD
ATOM     61  C   UNL A   1      44.534  26.252  32.394  1.00  0.00     0.074 A 
ATOM     62  C   UNL A   1      44.718  27.155  33.517  1.00  0.00     0.031 C 
ATOM     63  C   UNL A   1      44.736  24.910  32.194  1.00  0.00     0.034 A 
BRANCH  50  64
ATOM     64  C   UNL A   1      42.685  21.644  27.396  1.00  0.00     0.023 A 
ATOM     65  C   UNL A   1      43.773  21.494  26.515  1.00  0.00     0.031 A 
ATOM     66  C   UNL A   1      41.725  20.615  27.374  1.00  0.00     0.131 A 
ATOM     67  C   UNL A   1      43.828  20.431  25.598  1.00  0.00     0.055 A 
ATOM     68  C   UNL A   1      41.753  19.581  26.430  1.00  0.00     0.041 A 
ATOM     69  F   UNL A   1      40.728  20.578  28.273  1.00  0.00    -0.206 F 
ATOM     70  C   UNL A   1      42.802  19.492  25.524  1.00  0.00     0.022 A 
BRANCH  67  71
ATOM     71  S   UNL A   1      45.265  20.296  24.499  1.00  0.00     0.124 S 
ATOM     72  O   UNL A   1      46.242  21.155  25.159  1.00  0.00    -0.237 OA
ATOM     73  O   UNL A   1      45.542  18.864  24.528  1.00  0.00    -0.237 OA
ATOM     74  O   UNL A   1      44.763  20.800  23.221  1.00  0.00    -0.744 OA
ENDBRANCH  67  71
ENDBRANCH  50  64
BRANCH  51  75
ATOM     75  C   UNL A   1      42.251  30.388  31.544  1.00  0.00     0.023 A 
ATOM     76  C   UNL A   1      40.993  29.875  31.949  1.00  0.00     0.031 A 
ATOM     77  C   UNL A   1      42.586  31.687  31.946  1.00  0.00     0.131 A 
ATOM     78  C   UNL A   1      40.180  30.599  32.835  1.00  0.00     0.055 A 
ATOM     79  C   UNL A   1      41.748  32.427  32.790  1.00  0.00     0.041 A 
ATOM     80  F   UNL A   1      43.775  32.217  31.625  1.00  0.00    -0.206 F 
ATOM     81  C   UNL A   1      40.560  31.870  33.269  1.00  0.00     0.022 A 
BRANCH  78  82
ATOM     82  S   UNL A   1      38.721  29.819  33.594  1.00  0.00     0.124 S 
ATOM     83  O   UNL A   1      38.892  28.419  33.226  1.00  0.00    -0.237 OA
ATOM     84  O   UNL A   1      38.868  30.112  35.016  1.00  0.00    -0.237 OA
ATOM     85  O   UNL A   1      37.602  30.515  32.962  1.00  0.00    -0.744 OA
ENDBRANCH  78  82
ENDBRANCH  51  75
BRANCH  63  86
ATOM     86  C   UNL A   1      45.129  23.867  33.234  1.00  0.00     0.023 A 
ATOM     87  C   UNL A   1      46.414  23.740  33.778  1.00  0.00     0.031 A 
ATOM     88  C   UNL A   1      44.164  22.965  33.762  1.00  0.00     0.131 A 
ATOM     89  C   UNL A   1      46.720  22.740  34.723  1.00  0.00     0.055 A 
ATOM     90  C   UNL A   1      44.452  22.017  34.751  1.00  0.00     0.041 A 
ATOM     91  F   UNL A   1      42.889  22.964  33.349  1.00  0.00    -0.206 F 
ATOM     92  C   UNL A   1      45.743  21.889  35.230  1.00  0.00     0.022 A 
BRANCH  89  93
ATOM     93  S   UNL A   1      48.447  22.538  35.235  1.00  0.00     0.124 S 
ATOM     94  O   UNL A   1      48.478  23.285  36.490  1.00  0.00    -0.237 OA
ATOM     95  O   UNL A   1      48.569  21.090  35.359  1.00  0.00    -0.237 OA
ATOM     96  O   UNL A   1      49.206  23.135  34.139  1.00  0.00    -0.744 OA
ENDBRANCH  89  93
ENDBRANCH  63  86
ENDBRANCH  37  38
ENDBRANCH  29  32
ENDBRANCH  27  28
ENDBRANCH  26  27
ENDBRANCH   1  26
TORSDOF 17
ENDMDL
MODEL 2
REMARK VINA RESULT:     -12.6      1.693      2.150
REMARK SMILES Cc1cccc(NS(=O)(=O)c2ccc(Br)c(C(=O)NCCCCNC(=O)c3ccc(-c4c5nc(c(-c6cc(S(=O)(=O)[O-])ccc6F)c6ccc([nH]6)c(-c6cc(S(=O)(=O)[O-])ccc6F)c6nc(c(-c7cc(S(=O)(=O)[O-])ccc7F)c7ccc4[nH]7)C=C6)C=C5)cc3)c2)c1
REMARK SMILES IDX 21 1 20 2 19 3 17 4 18 5 16 7 11 8 12 9 90 10 13 11 14 12
REMARK SMILES IDX 15 13 8 14 9 15 10 16 7 17 6 19 1 20 2 21 3 22 91 23 4 24
REMARK SMILES IDX 5 25 22 26 23 27 24 28 25 29 26 31 27 32 28 33 89 34 29 35
REMARK SMILES IDX 88 36 30 37 31 38 32 39 82 40 33 41 87 42 81 43 83 44 34 45
REMARK SMILES IDX 86 46 80 47 79 48 35 50 67 51 47 52 66 53 48 54 51 55 65 56
REMARK SMILES IDX 84 57 49 58 50 59 64 61 85 62 52 63 36 64 37 65 45 66 38 67
REMARK SMILES IDX 44 68 46 69 43 70 39 71 40 72 41 73 42 74 68 75 69 76 77 77
REMARK SMILES IDX 70 78 76 79 78 80 75 81 71 82 72 83 73 84 74 85 53 86 54 87
REMARK SMILES IDX 62 88 55 89 61 90 63 91 60 92 56 93 57 94 58 95 59 96
REMARK H PARENT 19 6 7 18 24 30 83 49 51 60
REMARK Flexibility Score: inf
ROOT
ATOM      1  C   UNL A   1      32.389  30.704  26.878  1.00  0.00     0.023 C 
ENDROOT
BRANCH   1   2
ATOM      2  C   UNL A   1      32.884  29.300  26.529  1.00  0.00     0.116 C 
BRANCH   2   3
ATOM      3  N   UNL A   1      33.535  29.157  25.217  1.00  0.00    -0.352 N 
ATOM      4  C   UNL A   1      33.225  28.342  24.138  1.00  0.00     0.252 C 
ATOM      5  O   UNL A   1      33.892  28.419  23.107  1.00  0.00    -0.269 OA
ATOM      6  H   UNL A   1      34.320  29.736  25.084  1.00  0.00     0.163 HD
BRANCH   4   7
ATOM      7  C   UNL A   1      32.198  27.273  24.255  1.00  0.00     0.055 A 
ATOM      8  C   UNL A   1      31.550  25.179  25.261  1.00  0.00     0.088 A 
ATOM      9  C   UNL A   1      30.254  25.674  25.399  1.00  0.00     0.023 A 
ATOM     10  C   UNL A   1      32.560  26.028  24.792  1.00  0.00     0.037 A 
ATOM     11  C   UNL A   1      29.885  26.788  24.649  1.00  0.00     0.018 A 
ATOM     12  C   UNL A   1      30.861  27.489  23.948  1.00  0.00     0.030 A 
ATOM     13  Br  UNL A   1      30.348  28.510  22.430  1.00  0.00    -0.050 Br
BRANCH   8  14
ATOM     14  S   UNL A   1      31.867  23.479  25.660  1.00  0.00     0.261 S 
ATOM     15  O   UNL A   1      30.607  22.767  25.621  1.00  0.00    -0.201 OA
ATOM     16  O   UNL A   1      32.678  23.446  26.863  1.00  0.00    -0.201 OA
BRANCH  14  17
ATOM     17  N   UNL A   1      32.871  22.798  24.441  1.00  0.00    -0.280 N 
ATOM     18  H   UNL A   1      32.526  22.720  23.522  1.00  0.00     0.180 HD
BRANCH  17  19
ATOM     19  C   UNL A   1      34.202  22.338  24.735  1.00  0.00     0.049 A 
ATOM     20  C   UNL A   1      37.681  23.685  25.571  1.00  0.00     0.044 C 
ATOM     21  C   UNL A   1      36.528  22.753  25.331  1.00  0.00    -0.049 A 
ATOM     22  C   UNL A   1      36.748  21.371  25.393  1.00  0.00     0.003 A 
ATOM     23  C   UNL A   1      35.233  23.232  25.053  1.00  0.00     0.030 A 
ATOM     24  C   UNL A   1      35.731  20.485  25.052  1.00  0.00     0.002 A 
ATOM     25  C   UNL A   1      34.482  20.973  24.667  1.00  0.00     0.027 A 
ENDBRANCH  17  19
ENDBRANCH  14  17
ENDBRANCH   8  14
ENDBRANCH   4   7
ENDBRANCH   2   3
ENDBRANCH   1   2
BRANCH   1  26
ATOM     26  C   UNL A   1      33.377  31.611  27.596  1.00  0.00     0.023 C 
BRANCH  26  27
ATOM     27  C   UNL A   1      34.697  30.961  28.006  1.00  0.00     0.116 C 
BRANCH  27  28
ATOM     28  N   UNL A   1      35.430  31.642  29.067  1.00  0.00    -0.352 N 
ATOM     29  C   UNL A   1      36.515  31.176  29.802  1.00  0.00     0.251 C 
ATOM     30  H   UNL A   1      35.116  32.548  29.292  1.00  0.00     0.163 HD
ATOM     31  O   UNL A   1      37.015  31.828  30.704  1.00  0.00    -0.269 OA
BRANCH  29  32
ATOM     32  C   UNL A   1      37.163  29.908  29.375  1.00  0.00     0.039 A 
ATOM     33  C   UNL A   1      37.469  28.982  30.377  1.00  0.00     0.014 A 
ATOM     34  C   UNL A   1      37.698  29.766  28.098  1.00  0.00     0.014 A 
ATOM     35  C   UNL A   1      38.518  28.088  30.176  1.00  0.00     0.010 A 
ATOM     36  C   UNL A   1      38.807  28.956  27.933  1.00  0.00     0.010 A 
ATOM     37  C   UNL A   1      39.264  28.175  28.998  1.00  0.00    -0.014 A 
BRANCH  37  38
ATOM     38  C   UNL A   1      40.629  27.661  28.914  1.00  0.00     0.031 A 
ATOM     39  C   UNL A   1      40.921  26.295  28.441  1.00  0.00     0.074 A 
ATOM     40  C   UNL A   1      41.663  28.437  29.311  1.00  0.00     0.049 A 
ATOM     41  N   UNL A   1      41.848  25.551  28.947  1.00  0.00    -0.248 NA
ATOM     42  C   UNL A   1      40.178  25.651  27.364  1.00  0.00     0.031 C 
ATOM     43  C   UNL A   1      43.090  28.156  29.175  1.00  0.00     0.029 A 
ATOM     44  N   UNL A   1      41.609  29.553  30.141  1.00  0.00    -0.354 N 
ATOM     45  C   UNL A   1      42.018  24.485  28.099  1.00  0.00     0.074 A 
ATOM     46  C   UNL A   1      40.902  24.542  27.179  1.00  0.00     0.031 C 
ATOM     47  C   UNL A   1      43.761  28.891  30.075  1.00  0.00     0.029 A 
ATOM     48  C   UNL A   1      42.787  29.585  30.898  1.00  0.00     0.049 A 
ATOM     49  H   UNL A   1      40.873  30.204  30.187  1.00  0.00     0.167 HD
ATOM     50  C   UNL A   1      43.161  23.746  28.135  1.00  0.00     0.034 A 
ATOM     51  C   UNL A   1      42.745  29.573  32.261  1.00  0.00     0.034 A 
ATOM     52  C   UNL A   1      44.129  24.261  29.097  1.00  0.00     0.049 A 
ATOM     53  C   UNL A   1      43.416  28.356  32.872  1.00  0.00     0.074 A 
ATOM     54  C   UNL A   1      45.268  25.037  28.950  1.00  0.00     0.029 A 
ATOM     55  N   UNL A   1      43.844  24.238  30.456  1.00  0.00    -0.354 N 
ATOM     56  N   UNL A   1      43.772  27.294  32.202  1.00  0.00    -0.248 NA
ATOM     57  C   UNL A   1      43.710  28.230  34.296  1.00  0.00     0.031 C 
ATOM     58  C   UNL A   1      45.650  25.507  30.232  1.00  0.00     0.029 A 
ATOM     59  C   UNL A   1      44.758  25.000  31.160  1.00  0.00     0.049 A 
ATOM     60  H   UNL A   1      43.095  23.746  30.863  1.00  0.00     0.167 HD
ATOM     61  C   UNL A   1      44.288  26.348  33.058  1.00  0.00     0.074 A 
ATOM     62  C   UNL A   1      44.253  27.000  34.356  1.00  0.00     0.031 C 
ATOM     63  C   UNL A   1      44.681  25.113  32.612  1.00  0.00     0.034 A 
BRANCH  50  64
ATOM     64  C   UNL A   1      43.501  22.760  27.047  1.00  0.00     0.023 A 
ATOM     65  C   UNL A   1      42.923  21.477  27.051  1.00  0.00     0.031 A 
ATOM     66  C   UNL A   1      44.408  23.027  26.005  1.00  0.00     0.131 A 
ATOM     67  C   UNL A   1      43.320  20.495  26.127  1.00  0.00     0.055 A 
ATOM     68  C   UNL A   1      44.840  22.038  25.112  1.00  0.00     0.041 A 
ATOM     69  F   UNL A   1      44.903  24.261  25.815  1.00  0.00    -0.206 F 
ATOM     70  C   UNL A   1      44.306  20.757  25.179  1.00  0.00     0.022 A 
BRANCH  67  71
ATOM     71  S   UNL A   1      42.526  18.865  26.185  1.00  0.00     0.124 S 
ATOM     72  O   UNL A   1      42.628  18.521  27.598  1.00  0.00    -0.237 OA
ATOM     73  O   UNL A   1      41.186  19.156  25.688  1.00  0.00    -0.237 OA
ATOM     74  O   UNL A   1      43.352  18.053  25.291  1.00  0.00    -0.744 OA
ENDBRANCH  67  71
ENDBRANCH  50  64
BRANCH  51  75
ATOM     75  C   UNL A   1      41.561  30.292  32.823  1.00  0.00     0.023 A 
ATOM     76  C   UNL A   1      41.564  31.708  32.786  1.00  0.00     0.031 A 
ATOM     77  C   UNL A   1      40.339  29.647  33.053  1.00  0.00     0.131 A 
ATOM     78  C   UNL A   1      40.359  32.425  32.839  1.00  0.00     0.055 A 
ATOM     79  C   UNL A   1      39.144  30.370  33.157  1.00  0.00     0.041 A 
ATOM     80  F   UNL A   1      40.264  28.308  33.066  1.00  0.00    -0.206 F 
ATOM     81  C   UNL A   1      39.144  31.758  33.011  1.00  0.00     0.022 A 
BRANCH  78  82
ATOM     82  S   UNL A   1      40.330  34.210  32.484  1.00  0.00     0.124 S 
ATOM     83  O   UNL A   1      40.017  34.780  33.789  1.00  0.00    -0.237 OA
ATOM     84  O   UNL A   1      41.673  34.489  31.987  1.00  0.00    -0.237 OA
ATOM     85  O   UNL A   1      39.288  34.332  31.466  1.00  0.00    -0.744 OA
ENDBRANCH  78  82
ENDBRANCH  51  75
BRANCH  63  86
ATOM     86  C   UNL A   1      45.117  23.918  33.453  1.00  0.00     0.023 A 
ATOM     87  C   UNL A   1      46.432  23.694  33.884  1.00  0.00     0.031 A 
ATOM     88  C   UNL A   1      44.168  22.958  33.902  1.00  0.00     0.131 A 
ATOM     89  C   UNL A   1      46.775  22.558  34.644  1.00  0.00     0.055 A 
ATOM     90  C   UNL A   1      44.499  21.867  34.714  1.00  0.00     0.041 A 
ATOM     91  F   UNL A   1      42.870  23.036  33.580  1.00  0.00    -0.206 F 
ATOM     92  C   UNL A   1      45.814  21.651  35.080  1.00  0.00     0.022 A 
BRANCH  89  93
ATOM     93  S   UNL A   1      48.527  22.259  35.002  1.00  0.00     0.124 S 
ATOM     94  O   UNL A   1      49.137  23.522  34.594  1.00  0.00    -0.237 OA
ATOM     95  O   UNL A   1      48.513  21.999  36.438  1.00  0.00    -0.237 OA
ATOM     96  O   UNL A   1      48.862  21.110  34.165  1.00  0.00    -0.744 OA
ENDBRANCH  89  93
ENDBRANCH  63  86
ENDBRANCH  37  38
ENDBRANCH  29  32
ENDBRANCH  27  28
ENDBRANCH  26  27
ENDBRANCH   1  26
TORSDOF 17
ENDMDL
MODEL 3
REMARK VINA RESULT:     -12.5      2.589      3.895
REMARK SMILES Cc1cccc(NS(=O)(=O)c2ccc(Br)c(C(=O)NCCCCNC(=O)c3ccc(-c4c5nc(c(-c6cc(S(=O)(=O)[O-])ccc6F)c6ccc([nH]6)c(-c6cc(S(=O)(=O)[O-])ccc6F)c6nc(c(-c7cc(S(=O)(=O)[O-])ccc7F)c7ccc4[nH]7)C=C6)C=C5)cc3)c2)c1
REMARK SMILES IDX 21 1 20 2 19 3 17 4 18 5 16 7 11 8 12 9 90 10 13 11 14 12
REMARK SMILES IDX 15 13 8 14 9 15 10 16 7 17 6 19 1 20 2 21 3 22 91 23 4 24
REMARK SMILES IDX 5 25 22 26 23 27 24 28 25 29 26 31 27 32 28 33 89 34 29 35
REMARK SMILES IDX 88 36 30 37 31 38 32 39 82 40 33 41 87 42 81 43 83 44 34 45
REMARK SMILES IDX 86 46 80 47 79 48 35 50 67 51 47 52 66 53 48 54 51 55 65 56
REMARK SMILES IDX 84 57 49 58 50 59 64 61 85 62 52 63 36 64 37 65 45 66 38 67
REMARK SMILES IDX 44 68 46 69 43 70 39 71 40 72 41 73 42 74 68 75 69 76 77 77
REMARK SMILES IDX 70 78 76 79 78 80 75 81 71 82 72 83 73 84 74 85 53 86 54 87
REMARK SMILES IDX 62 88 55 89 61 90 63 91 60 92 56 93 57 94 58 95 59 96
REMARK H PARENT 19 6 7 18 24 30 83 49 51 60
REMARK Flexibility Score: inf
ROOT
ATOM      1  C   UNL A   1      32.857  29.403  27.124  1.00  0.00     0.023 C 
ENDROOT
BRANCH   1   2
ATOM      2  C   UNL A   1      32.314  29.799  25.751  1.00  0.00     0.116 C 
BRANCH   2   3
ATOM      3  N   UNL A   1      33.279  29.751  24.641  1.00  0.00    -0.352 N 
ATOM      4  C   UNL A   1      33.375  28.884  23.564  1.00  0.00     0.252 C 
ATOM      5  O   UNL A   1      34.253  29.058  22.718  1.00  0.00    -0.269 OA
ATOM      6  H   UNL A   1      33.971  30.451  24.670  1.00  0.00     0.163 HD
BRANCH   4   7
ATOM      7  C   UNL A   1      32.535  27.659  23.486  1.00  0.00     0.055 A 
ATOM      8  C   UNL A   1      32.400  25.266  23.761  1.00  0.00     0.088 A 
ATOM      9  C   UNL A   1      31.140  25.428  24.336  1.00  0.00     0.023 A 
ATOM     10  C   UNL A   1      33.155  26.401  23.440  1.00  0.00     0.037 A 
ATOM     11  C   UNL A   1      30.471  26.634  24.142  1.00  0.00     0.018 A 
ATOM     12  C   UNL A   1      31.149  27.702  23.564  1.00  0.00     0.030 A 
ATOM     13  Br  UNL A   1      30.151  29.049  22.670  1.00  0.00    -0.050 Br
BRANCH   8  14
ATOM     14  S   UNL A   1      32.990  23.626  23.431  1.00  0.00     0.261 S 
ATOM     15  O   UNL A   1      34.133  23.730  22.549  1.00  0.00    -0.201 OA
ATOM     16  O   UNL A   1      31.853  22.810  23.047  1.00  0.00    -0.201 OA
BRANCH  14  17
ATOM     17  N   UNL A   1      33.548  22.928  24.901  1.00  0.00    -0.280 N 
ATOM     18  H   UNL A   1      32.900  22.728  25.615  1.00  0.00     0.180 HD
BRANCH  17  19
ATOM     19  C   UNL A   1      34.940  22.633  25.111  1.00  0.00     0.049 A 
ATOM     20  C   UNL A   1      38.180  24.306  26.256  1.00  0.00     0.044 C 
ATOM     21  C   UNL A   1      37.183  23.275  25.812  1.00  0.00    -0.049 A 
ATOM     22  C   UNL A   1      37.618  21.962  25.589  1.00  0.00     0.003 A 
ATOM     23  C   UNL A   1      35.824  23.592  25.621  1.00  0.00     0.030 A 
ATOM     24  C   UNL A   1      36.746  21.018  25.058  1.00  0.00     0.002 A 
ATOM     25  C   UNL A   1      35.428  21.373  24.765  1.00  0.00     0.027 A 
ENDBRANCH  17  19
ENDBRANCH  14  17
ENDBRANCH   8  14
ENDBRANCH   4   7
ENDBRANCH   2   3
ENDBRANCH   1   2
BRANCH   1  26
ATOM     26  C   UNL A   1      34.370  29.305  27.251  1.00  0.00     0.023 C 
BRANCH  26  27
ATOM     27  C   UNL A   1      35.064  30.516  27.868  1.00  0.00     0.116 C 
BRANCH  27  28
ATOM     28  N   UNL A   1      34.190  31.634  28.210  1.00  0.00    -0.352 N 
ATOM     29  C   UNL A   1      34.403  32.638  29.148  1.00  0.00     0.251 C 
ATOM     30  H   UNL A   1      33.341  31.682  27.713  1.00  0.00     0.163 HD
ATOM     31  O   UNL A   1      33.567  33.498  29.378  1.00  0.00    -0.269 OA
BRANCH  29  32
ATOM     32  C   UNL A   1      35.744  32.739  29.781  1.00  0.00     0.039 A 
ATOM     33  C   UNL A   1      36.720  33.464  29.090  1.00  0.00     0.014 A 
ATOM     34  C   UNL A   1      36.099  31.924  30.851  1.00  0.00     0.014 A 
ATOM     35  C   UNL A   1      38.063  33.156  29.292  1.00  0.00     0.010 A 
ATOM     36  C   UNL A   1      37.422  31.540  30.979  1.00  0.00     0.010 A 
ATOM     37  C   UNL A   1      38.394  32.099  30.145  1.00  0.00    -0.014 A 
BRANCH  37  38
ATOM     38  C   UNL A   1      39.670  31.395  30.037  1.00  0.00     0.031 A 
ATOM     39  C   UNL A   1      39.778  30.072  29.398  1.00  0.00     0.074 A 
ATOM     40  C   UNL A   1      40.786  31.947  30.565  1.00  0.00     0.049 A 
ATOM     41  N   UNL A   1      40.557  29.136  29.831  1.00  0.00    -0.248 NA
ATOM     42  C   UNL A   1      39.004  29.689  28.223  1.00  0.00     0.031 C 
ATOM     43  C   UNL A   1      42.160  31.469  30.439  1.00  0.00     0.029 A 
ATOM     44  N   UNL A   1      40.856  32.946  31.532  1.00  0.00    -0.354 N 
ATOM     45  C   UNL A   1      40.610  28.170  28.857  1.00  0.00     0.074 A 
ATOM     46  C   UNL A   1      39.564  28.514  27.917  1.00  0.00     0.031 C 
ATOM     47  C   UNL A   1      42.886  31.973  31.448  1.00  0.00     0.029 A 
ATOM     48  C   UNL A   1      41.986  32.701  32.324  1.00  0.00     0.049 A 
ATOM     49  H   UNL A   1      40.224  33.692  31.640  1.00  0.00     0.167 HD
ATOM     50  C   UNL A   1      41.627  27.265  28.830  1.00  0.00     0.034 A 
ATOM     51  C   UNL A   1      41.872  32.526  33.671  1.00  0.00     0.034 A 
ATOM     52  C   UNL A   1      42.610  27.501  29.882  1.00  0.00     0.049 A 
ATOM     53  C   UNL A   1      42.323  31.152  34.138  1.00  0.00     0.074 A 
ATOM     54  C   UNL A   1      43.858  28.104  29.874  1.00  0.00     0.029 A 
ATOM     55  N   UNL A   1      42.256  27.353  31.217  1.00  0.00    -0.354 N 
ATOM     56  N   UNL A   1      42.551  30.140  33.346  1.00  0.00    -0.248 NA
ATOM     57  C   UNL A   1      42.522  30.806  35.542  1.00  0.00     0.031 C 
ATOM     58  C   UNL A   1      44.239  28.346  31.218  1.00  0.00     0.029 A 
ATOM     59  C   UNL A   1      43.236  27.871  32.043  1.00  0.00     0.049 A 
ATOM     60  H   UNL A   1      41.422  26.935  31.531  1.00  0.00     0.167 HD
ATOM     61  C   UNL A   1      42.876  29.027  34.086  1.00  0.00     0.074 A 
ATOM     62  C   UNL A   1      42.872  29.510  35.456  1.00  0.00     0.031 C 
ATOM     63  C   UNL A   1      43.103  27.811  33.494  1.00  0.00     0.034 A 
BRANCH  50  64
ATOM     64  C   UNL A   1      41.871  26.383  27.634  1.00  0.00     0.023 A 
ATOM     65  C   UNL A   1      41.717  24.988  27.742  1.00  0.00     0.031 A 
ATOM     66  C   UNL A   1      42.285  26.865  26.378  1.00  0.00     0.131 A 
ATOM     67  C   UNL A   1      42.064  24.132  26.682  1.00  0.00     0.055 A 
ATOM     68  C   UNL A   1      42.675  26.013  25.337  1.00  0.00     0.041 A 
ATOM     69  F   UNL A   1      42.320  28.182  26.118  1.00  0.00    -0.206 F 
ATOM     70  C   UNL A   1      42.580  24.636  25.491  1.00  0.00     0.022 A 
BRANCH  67  71
ATOM     71  S   UNL A   1      41.830  22.345  26.888  1.00  0.00     0.124 S 
ATOM     72  O   UNL A   1      41.922  21.860  25.516  1.00  0.00    -0.237 OA
ATOM     73  O   UNL A   1      42.934  21.989  27.773  1.00  0.00    -0.237 OA
ATOM     74  O   UNL A   1      40.501  22.244  27.491  1.00  0.00    -0.744 OA
ENDBRANCH  67  71
ENDBRANCH  50  64
BRANCH  51  75
ATOM     75  C   UNL A   1      40.782  33.342  34.285  1.00  0.00     0.023 A 
ATOM     76  C   UNL A   1      39.776  32.664  35.017  1.00  0.00     0.031 A 
ATOM     77  C   UNL A   1      40.900  34.726  34.465  1.00  0.00     0.131 A 
ATOM     78  C   UNL A   1      39.022  33.342  35.988  1.00  0.00     0.055 A 
ATOM     79  C   UNL A   1      40.110  35.408  35.400  1.00  0.00     0.041 A 
ATOM     80  F   UNL A   1      41.854  35.420  33.828  1.00  0.00    -0.206 F 
ATOM     81  C   UNL A   1      39.195  34.712  36.192  1.00  0.00     0.022 A 
BRANCH  78  82
ATOM     82  S   UNL A   1      37.953  32.418  37.137  1.00  0.00     0.124 S 
ATOM     83  O   UNL A   1      38.734  32.437  38.368  1.00  0.00    -0.237 OA
ATOM     84  O   UNL A   1      36.720  33.197  37.169  1.00  0.00    -0.237 OA
ATOM     85  O   UNL A   1      37.812  31.116  36.490  1.00  0.00    -0.744 OA
ENDBRANCH  78  82
ENDBRANCH  51  75
BRANCH  63  86
ATOM     86  C   UNL A   1      43.312  26.468  34.184  1.00  0.00     0.023 A 
ATOM     87  C   UNL A   1      44.532  25.779  34.216  1.00  0.00     0.031 A 
ATOM     88  C   UNL A   1      42.253  25.844  34.900  1.00  0.00     0.131 A 
ATOM     89  C   UNL A   1      44.657  24.529  34.855  1.00  0.00     0.055 A 
ATOM     90  C   UNL A   1      42.396  24.635  35.592  1.00  0.00     0.041 A 
ATOM     91  F   UNL A   1      41.027  26.380  34.969  1.00  0.00    -0.206 F 
ATOM     92  C   UNL A   1      43.602  23.960  35.561  1.00  0.00     0.022 A 
BRANCH  89  93
ATOM     93  S   UNL A   1      46.222  23.630  34.690  1.00  0.00     0.124 S 
ATOM     94  O   UNL A   1      46.707  23.614  36.068  1.00  0.00    -0.237 OA
ATOM     95  O   UNL A   1      45.789  22.342  34.158  1.00  0.00    -0.237 OA
ATOM     96  O   UNL A   1      47.001  24.454  33.769  1.00  0.00    -0.744 OA
ENDBRANCH  89  93
ENDBRANCH  63  86
ENDBRANCH  37  38
ENDBRANCH  29  32
ENDBRANCH  27  28
ENDBRANCH  26  27
ENDBRANCH   1  26
TORSDOF 17
ENDMDL
