MODEL 1
REMARK VINA RESULT:     -12.3      0.000      0.000
REMARK SMILES Cc1ccc(N)cc1S(=O)(=O)Nc1cccc(C(=O)NCCCCNC(=O)c2ccc(-c3c4nc(c(-c5cc(S(=O)(=O)[O-])ccc5F)c5ccc([nH]5)c(-c5cc(S(=O)(=O)[O-])ccc5F)c5nc(c(-c6cc(S(=O)(=O)[O-])ccc6F)c6ccc3[nH]6)C=C5)C=C4)cc2)c1
REMARK SMILES IDX 22 1 21 2 20 3 18 4 19 5 17 7 13 8 14 9 91 10 15 11 16 12
REMARK SMILES IDX 12 13 9 15 10 16 11 17 8 18 1 19 2 20 3 21 4 22 7 23 5 24
REMARK SMILES IDX 6 25 23 28 24 29 25 30 26 31 27 33 28 34 29 35 90 36 30 37
REMARK SMILES IDX 89 38 31 39 32 40 33 41 83 42 34 43 88 44 82 45 84 46 35 47
REMARK SMILES IDX 87 48 81 49 80 50 36 52 68 53 48 54 67 55 49 56 52 57 66 58
REMARK SMILES IDX 85 59 50 60 51 61 65 63 86 64 53 65 37 66 38 67 46 68 39 69
REMARK SMILES IDX 45 70 47 71 44 72 40 73 41 74 42 75 43 76 69 77 70 78 78 79
REMARK SMILES IDX 71 80 77 81 79 82 76 83 72 84 73 85 74 86 75 87 54 88 55 89
REMARK SMILES IDX 63 90 56 91 62 92 64 93 61 94 57 95 58 96 59 97 60 98
REMARK H PARENT 20 6 12 14 6 26 6 27 25 32 84 51 52 62
REMARK Flexibility Score: inf
ROOT
ATOM      1  C   UNL A   1      31.756  30.394  26.515  1.00  0.00     0.023 C 
ENDROOT
BRANCH   1   2
ATOM      2  C   UNL A   1      33.134  29.831  26.164  1.00  0.00     0.116 C 
BRANCH   2   3
ATOM      3  N   UNL A   1      33.279  29.709  24.725  1.00  0.00    -0.352 N 
ATOM      4  C   UNL A   1      32.780  28.818  23.810  1.00  0.00     0.251 C 
ATOM      5  O   UNL A   1      33.123  28.964  22.635  1.00  0.00    -0.269 OA
ATOM      6  H   UNL A   1      33.851  30.404  24.325  1.00  0.00     0.163 HD
BRANCH   4   7
ATOM      7  C   UNL A   1      31.790  27.747  24.135  1.00  0.00     0.041 A 
ATOM      8  C   UNL A   1      30.991  25.852  25.413  1.00  0.00     0.050 A 
ATOM      9  C   UNL A   1      29.716  26.006  24.861  1.00  0.00     0.027 A 
ATOM     10  C   UNL A   1      32.042  26.644  24.955  1.00  0.00     0.040 A 
ATOM     11  C   UNL A   1      29.467  27.030  23.954  1.00  0.00     0.003 A 
ATOM     12  C   UNL A   1      30.491  27.917  23.624  1.00  0.00     0.014 A 
BRANCH   8  13
ATOM     13  N   UNL A   1      31.096  24.982  26.529  1.00  0.00    -0.280 N 
ATOM     14  H   UNL A   1      30.854  25.360  27.406  1.00  0.00     0.180 HD
BRANCH  13  15
ATOM     15  S   UNL A   1      31.585  23.387  26.518  1.00  0.00     0.262 S 
ATOM     16  O   UNL A   1      30.520  22.610  25.916  1.00  0.00    -0.201 OA
ATOM     17  O   UNL A   1      32.012  23.127  27.879  1.00  0.00    -0.201 OA
BRANCH  15  18
ATOM     18  C   UNL A   1      33.036  23.142  25.495  1.00  0.00     0.092 A 
ATOM     19  C   UNL A   1      31.986  23.243  23.124  1.00  0.00     0.046 C 
ATOM     20  C   UNL A   1      33.098  23.018  24.099  1.00  0.00    -0.030 A 
ATOM     21  C   UNL A   1      34.328  22.627  23.528  1.00  0.00     0.007 A 
ATOM     22  C   UNL A   1      35.486  22.493  24.295  1.00  0.00     0.026 A 
ATOM     23  C   UNL A   1      34.228  23.030  26.252  1.00  0.00     0.048 A 
ATOM     24  C   UNL A   1      35.461  22.764  25.656  1.00  0.00     0.033 A 
BRANCH  24  25
ATOM     25  N   UNL A   1      36.605  22.634  26.420  1.00  0.00    -0.399 N 
ATOM     26  H   UNL A   1      37.391  22.167  26.054  1.00  0.00     0.156 HD
ATOM     27  H   UNL A   1      36.634  23.007  27.331  1.00  0.00     0.156 HD
ENDBRANCH  24  25
ENDBRANCH  15  18
ENDBRANCH  13  15
ENDBRANCH   8  13
ENDBRANCH   4   7
ENDBRANCH   2   3
ENDBRANCH   1   2
BRANCH   1  28
ATOM     28  C   UNL A   1      31.718  31.923  26.564  1.00  0.00     0.023 C 
BRANCH  28  29
ATOM     29  C   UNL A   1      32.874  32.559  27.332  1.00  0.00     0.116 C 
BRANCH  29  30
ATOM     30  N   UNL A   1      32.625  33.944  27.693  1.00  0.00    -0.352 N 
ATOM     31  C   UNL A   1      33.239  34.709  28.655  1.00  0.00     0.251 C 
ATOM     32  H   UNL A   1      31.919  34.397  27.178  1.00  0.00     0.163 HD
ATOM     33  O   UNL A   1      32.828  35.841  28.890  1.00  0.00    -0.269 OA
BRANCH  31  34
ATOM     34  C   UNL A   1      34.367  34.148  29.430  1.00  0.00     0.039 A 
ATOM     35  C   UNL A   1      34.084  33.335  30.530  1.00  0.00     0.014 A 
ATOM     36  C   UNL A   1      35.693  34.411  29.073  1.00  0.00     0.014 A 
ATOM     37  C   UNL A   1      35.130  32.740  31.237  1.00  0.00     0.010 A 
ATOM     38  C   UNL A   1      36.733  33.764  29.738  1.00  0.00     0.010 A 
ATOM     39  C   UNL A   1      36.461  32.923  30.828  1.00  0.00    -0.014 A 
BRANCH  39  40
ATOM     40  C   UNL A   1      37.570  32.232  31.535  1.00  0.00     0.031 A 
ATOM     41  C   UNL A   1      38.316  31.110  30.869  1.00  0.00     0.074 A 
ATOM     42  C   UNL A   1      37.878  32.601  32.795  1.00  0.00     0.049 A 
ATOM     43  N   UNL A   1      39.318  30.400  31.322  1.00  0.00    -0.248 NA
ATOM     44  C   UNL A   1      37.857  30.714  29.530  1.00  0.00     0.031 C 
ATOM     45  C   UNL A   1      37.182  33.634  33.567  1.00  0.00     0.029 A 
ATOM     46  N   UNL A   1      38.856  32.156  33.646  1.00  0.00    -0.354 N 
ATOM     47  C   UNL A   1      39.608  29.474  30.327  1.00  0.00     0.074 A 
ATOM     48  C   UNL A   1      38.632  29.670  29.276  1.00  0.00     0.031 C 
ATOM     49  C   UNL A   1      37.778  33.766  34.763  1.00  0.00     0.029 A 
ATOM     50  C   UNL A   1      38.876  32.811  34.855  1.00  0.00     0.049 A 
ATOM     51  H   UNL A   1      39.484  31.434  33.414  1.00  0.00     0.167 HD
ATOM     52  C   UNL A   1      40.612  28.561  30.281  1.00  0.00     0.034 A 
ATOM     53  C   UNL A   1      39.695  32.663  35.915  1.00  0.00     0.034 A 
ATOM     54  C   UNL A   1      41.582  28.383  31.335  1.00  0.00     0.049 A 
ATOM     55  C   UNL A   1      40.812  31.656  35.835  1.00  0.00     0.074 A 
ATOM     56  C   UNL A   1      42.668  27.523  31.374  1.00  0.00     0.029 A 
ATOM     57  N   UNL A   1      41.583  29.075  32.541  1.00  0.00    -0.354 N 
ATOM     58  N   UNL A   1      41.112  30.830  34.858  1.00  0.00    -0.248 NA
ATOM     59  C   UNL A   1      41.712  31.576  36.991  1.00  0.00     0.031 C 
ATOM     60  C   UNL A   1      43.289  27.656  32.622  1.00  0.00     0.029 A 
ATOM     61  C   UNL A   1      42.634  28.646  33.338  1.00  0.00     0.049 A 
ATOM     62  H   UNL A   1      40.931  29.768  32.792  1.00  0.00     0.167 HD
ATOM     63  C   UNL A   1      42.253  30.150  35.276  1.00  0.00     0.074 A 
ATOM     64  C   UNL A   1      42.598  30.683  36.579  1.00  0.00     0.031 C 
ATOM     65  C   UNL A   1      42.952  29.172  34.643  1.00  0.00     0.034 A 
BRANCH  52  66
ATOM     66  C   UNL A   1      40.689  27.679  29.058  1.00  0.00     0.023 A 
ATOM     67  C   UNL A   1      41.629  27.914  28.039  1.00  0.00     0.031 A 
ATOM     68  C   UNL A   1      39.795  26.607  28.891  1.00  0.00     0.131 A 
ATOM     69  C   UNL A   1      41.605  27.140  26.869  1.00  0.00     0.055 A 
ATOM     70  C   UNL A   1      39.828  25.789  27.759  1.00  0.00     0.041 A 
ATOM     71  F   UNL A   1      38.861  26.345  29.820  1.00  0.00    -0.206 F 
ATOM     72  C   UNL A   1      40.727  26.063  26.733  1.00  0.00     0.022 A 
BRANCH  69  73
ATOM     73  S   UNL A   1      42.644  27.647  25.471  1.00  0.00     0.124 S 
ATOM     74  O   UNL A   1      42.594  26.460  24.622  1.00  0.00    -0.237 OA
ATOM     75  O   UNL A   1      41.944  28.824  24.968  1.00  0.00    -0.237 OA
ATOM     76  O   UNL A   1      43.943  27.909  26.086  1.00  0.00    -0.744 OA
ENDBRANCH  69  73
ENDBRANCH  52  66
BRANCH  53  77
ATOM     77  C   UNL A   1      39.507  33.493  37.139  1.00  0.00     0.023 A 
ATOM     78  C   UNL A   1      38.995  32.933  38.319  1.00  0.00     0.031 A 
ATOM     79  C   UNL A   1      39.794  34.870  37.130  1.00  0.00     0.131 A 
ATOM     80  C   UNL A   1      38.735  33.754  39.428  1.00  0.00     0.055 A 
ATOM     81  C   UNL A   1      39.580  35.673  38.251  1.00  0.00     0.041 A 
ATOM     82  F   UNL A   1      40.294  35.452  36.028  1.00  0.00    -0.206 F 
ATOM     83  C   UNL A   1      39.034  35.119  39.405  1.00  0.00     0.022 A 
BRANCH  80  84
ATOM     84  S   UNL A   1      37.917  33.027  40.874  1.00  0.00     0.124 S 
ATOM     85  O   UNL A   1      37.983  31.602  40.569  1.00  0.00    -0.237 OA
ATOM     86  O   UNL A   1      38.768  33.490  41.965  1.00  0.00    -0.237 OA
ATOM     87  O   UNL A   1      36.579  33.612  40.838  1.00  0.00    -0.744 OA
ENDBRANCH  80  84
ENDBRANCH  53  77
BRANCH  65  88
ATOM     88  C   UNL A   1      44.175  28.649  35.357  1.00  0.00     0.023 A 
ATOM     89  C   UNL A   1      44.087  27.611  36.300  1.00  0.00     0.031 A 
ATOM     90  C   UNL A   1      45.434  29.229  35.124  1.00  0.00     0.131 A 
ATOM     91  C   UNL A   1      45.223  27.234  37.032  1.00  0.00     0.055 A 
ATOM     92  C   UNL A   1      46.574  28.806  35.811  1.00  0.00     0.041 A 
ATOM     93  F   UNL A   1      45.575  30.224  34.235  1.00  0.00    -0.206 F 
ATOM     94  C   UNL A   1      46.469  27.816  36.783  1.00  0.00     0.022 A 
BRANCH  91  95
ATOM     95  S   UNL A   1      45.026  26.054  38.396  1.00  0.00     0.124 S 
ATOM     96  O   UNL A   1      44.594  24.849  37.696  1.00  0.00    -0.237 OA
ATOM     97  O   UNL A   1      46.369  26.013  38.967  1.00  0.00    -0.237 OA
ATOM     98  O   UNL A   1      44.011  26.677  39.243  1.00  0.00    -0.744 OA
ENDBRANCH  91  95
ENDBRANCH  65  88
ENDBRANCH  39  40
ENDBRANCH  31  34
ENDBRANCH  29  30
ENDBRANCH  28  29
ENDBRANCH   1  28
TORSDOF 18
ENDMDL
MODEL 2
REMARK VINA RESULT:     -12.1      5.640     11.689
REMARK SMILES Cc1ccc(N)cc1S(=O)(=O)Nc1cccc(C(=O)NCCCCNC(=O)c2ccc(-c3c4nc(c(-c5cc(S(=O)(=O)[O-])ccc5F)c5ccc([nH]5)c(-c5cc(S(=O)(=O)[O-])ccc5F)c5nc(c(-c6cc(S(=O)(=O)[O-])ccc6F)c6ccc3[nH]6)C=C5)C=C4)cc2)c1
REMARK SMILES IDX 22 1 21 2 20 3 18 4 19 5 17 7 13 8 14 9 91 10 15 11 16 12
REMARK SMILES IDX 12 13 9 15 10 16 11 17 8 18 1 19 2 20 3 21 4 22 7 23 5 24
REMARK SMILES IDX 6 25 23 28 24 29 25 30 26 31 27 33 28 34 29 35 90 36 30 37
REMARK SMILES IDX 89 38 31 39 32 40 33 41 83 42 34 43 88 44 82 45 84 46 35 47
REMARK SMILES IDX 87 48 81 49 80 50 36 52 68 53 48 54 67 55 49 56 52 57 66 58
REMARK SMILES IDX 85 59 50 60 51 61 65 63 86 64 53 65 37 66 38 67 46 68 39 69
REMARK SMILES IDX 45 70 47 71 44 72 40 73 41 74 42 75 43 76 69 77 70 78 78 79
REMARK SMILES IDX 71 80 77 81 79 82 76 83 72 84 73 85 74 86 75 87 54 88 55 89
REMARK SMILES IDX 63 90 56 91 62 92 64 93 61 94 57 95 58 96 59 97 60 98
REMARK H PARENT 20 6 12 14 6 26 6 27 25 32 84 51 52 62
REMARK Flexibility Score: inf
ROOT
ATOM      1  C   UNL A   1      36.982  21.158  24.743  1.00  0.00     0.023 C 
ENDROOT
BRANCH   1   2
ATOM      2  C   UNL A   1      35.747  21.009  25.633  1.00  0.00     0.116 C 
BRANCH   2   3
ATOM      3  N   UNL A   1      34.821  20.051  25.056  1.00  0.00    -0.352 N 
ATOM      4  C   UNL A   1      33.520  20.148  24.636  1.00  0.00     0.251 C 
ATOM      5  O   UNL A   1      32.985  19.121  24.215  1.00  0.00    -0.269 OA
ATOM      6  H   UNL A   1      35.204  19.150  24.944  1.00  0.00     0.163 HD
BRANCH   4   7
ATOM      7  C   UNL A   1      32.749  21.427  24.581  1.00  0.00     0.041 A 
ATOM      8  C   UNL A   1      31.912  23.404  23.461  1.00  0.00     0.050 A 
ATOM      9  C   UNL A   1      31.005  23.620  24.503  1.00  0.00     0.027 A 
ATOM     10  C   UNL A   1      32.855  22.383  23.568  1.00  0.00     0.040 A 
ATOM     11  C   UNL A   1      30.957  22.743  25.581  1.00  0.00     0.003 A 
ATOM     12  C   UNL A   1      31.799  21.632  25.598  1.00  0.00     0.014 A 
BRANCH   8  13
ATOM     13  N   UNL A   1      31.710  24.161  22.279  1.00  0.00    -0.280 N 
ATOM     14  H   UNL A   1      31.064  23.799  21.630  1.00  0.00     0.180 HD
BRANCH  13  15
ATOM     15  S   UNL A   1      32.446  25.601  21.868  1.00  0.00     0.262 S 
ATOM     16  O   UNL A   1      31.741  26.139  20.723  1.00  0.00    -0.201 OA
ATOM     17  O   UNL A   1      33.857  25.278  21.783  1.00  0.00    -0.201 OA
BRANCH  15  18
ATOM     18  C   UNL A   1      32.301  26.819  23.175  1.00  0.00     0.092 A 
ATOM     19  C   UNL A   1      34.002  25.890  24.901  1.00  0.00     0.046 C 
ATOM     20  C   UNL A   1      32.926  26.818  24.431  1.00  0.00    -0.030 A 
ATOM     21  C   UNL A   1      32.504  27.776  25.377  1.00  0.00     0.007 A 
ATOM     22  C   UNL A   1      31.593  28.782  25.048  1.00  0.00     0.026 A 
ATOM     23  C   UNL A   1      31.401  27.864  22.853  1.00  0.00     0.048 A 
ATOM     24  C   UNL A   1      31.087  28.877  23.760  1.00  0.00     0.033 A 
BRANCH  24  25
ATOM     25  N   UNL A   1      30.186  29.871  23.429  1.00  0.00    -0.399 N 
ATOM     26  H   UNL A   1      30.077  30.651  24.019  1.00  0.00     0.156 HD
ATOM     27  H   UNL A   1      29.652  29.798  22.605  1.00  0.00     0.156 HD
ENDBRANCH  24  25
ENDBRANCH  15  18
ENDBRANCH  13  15
ENDBRANCH   8  13
ENDBRANCH   4   7
ENDBRANCH   2   3
ENDBRANCH   1   2
BRANCH   1  28
ATOM     28  C   UNL A   1      38.032  20.068  24.972  1.00  0.00     0.023 C 
BRANCH  28  29
ATOM     29  C   UNL A   1      39.233  20.512  25.802  1.00  0.00     0.116 C 
BRANCH  29  30
ATOM     30  N   UNL A   1      40.207  19.454  26.006  1.00  0.00    -0.352 N 
ATOM     31  C   UNL A   1      41.545  19.557  26.302  1.00  0.00     0.251 C 
ATOM     32  H   UNL A   1      39.862  18.536  25.920  1.00  0.00     0.163 HD
ATOM     33  O   UNL A   1      42.242  18.548  26.342  1.00  0.00    -0.269 OA
BRANCH  31  34
ATOM     34  C   UNL A   1      42.145  20.890  26.531  1.00  0.00     0.039 A 
ATOM     35  C   UNL A   1      42.420  21.698  25.426  1.00  0.00     0.014 A 
ATOM     36  C   UNL A   1      42.428  21.344  27.823  1.00  0.00     0.014 A 
ATOM     37  C   UNL A   1      42.925  22.984  25.619  1.00  0.00     0.010 A 
ATOM     38  C   UNL A   1      42.868  22.652  28.018  1.00  0.00     0.010 A 
ATOM     39  C   UNL A   1      43.123  23.484  26.917  1.00  0.00    -0.014 A 
BRANCH  39  40
ATOM     40  C   UNL A   1      43.592  24.879  27.126  1.00  0.00     0.031 A 
ATOM     41  C   UNL A   1      42.661  25.920  27.683  1.00  0.00     0.074 A 
ATOM     42  C   UNL A   1      44.852  25.208  26.779  1.00  0.00     0.049 A 
ATOM     43  N   UNL A   1      42.894  27.180  27.946  1.00  0.00    -0.248 NA
ATOM     44  C   UNL A   1      41.279  25.496  27.951  1.00  0.00     0.031 C 
ATOM     45  C   UNL A   1      45.826  24.299  26.171  1.00  0.00     0.029 A 
ATOM     46  N   UNL A   1      45.532  26.393  26.891  1.00  0.00    -0.354 N 
ATOM     47  C   UNL A   1      41.690  27.700  28.409  1.00  0.00     0.074 A 
ATOM     48  C   UNL A   1      40.714  26.633  28.325  1.00  0.00     0.031 C 
ATOM     49  C   UNL A   1      46.988  24.949  25.997  1.00  0.00     0.029 A 
ATOM     50  C   UNL A   1      46.834  26.327  26.452  1.00  0.00     0.049 A 
ATOM     51  H   UNL A   1      45.127  27.215  27.252  1.00  0.00     0.167 HD
ATOM     52  C   UNL A   1      41.428  28.944  28.884  1.00  0.00     0.034 A 
ATOM     53  C   UNL A   1      47.797  27.269  26.428  1.00  0.00     0.034 A 
ATOM     54  C   UNL A   1      42.414  29.995  28.967  1.00  0.00     0.049 A 
ATOM     55  C   UNL A   1      47.488  28.637  26.977  1.00  0.00     0.074 A 
ATOM     56  C   UNL A   1      42.272  31.276  29.475  1.00  0.00     0.029 A 
ATOM     57  N   UNL A   1      43.728  29.889  28.528  1.00  0.00    -0.354 N 
ATOM     58  N   UNL A   1      46.360  29.095  27.471  1.00  0.00    -0.248 NA
ATOM     59  C   UNL A   1      48.588  29.608  26.983  1.00  0.00     0.031 C 
ATOM     60  C   UNL A   1      43.480  31.959  29.292  1.00  0.00     0.029 A 
ATOM     61  C   UNL A   1      44.399  31.086  28.732  1.00  0.00     0.049 A 
ATOM     62  H   UNL A   1      44.125  29.081  28.130  1.00  0.00     0.167 HD
ATOM     63  C   UNL A   1      46.625  30.402  27.868  1.00  0.00     0.074 A 
ATOM     64  C   UNL A   1      48.024  30.646  27.581  1.00  0.00     0.031 C 
ATOM     65  C   UNL A   1      45.789  31.320  28.420  1.00  0.00     0.034 A 
BRANCH  52  66
ATOM     66  C   UNL A   1      40.013  29.232  29.328  1.00  0.00     0.023 A 
ATOM     67  C   UNL A   1      39.654  29.234  30.687  1.00  0.00     0.031 A 
ATOM     68  C   UNL A   1      39.002  29.476  28.382  1.00  0.00     0.131 A 
ATOM     69  C   UNL A   1      38.312  29.401  31.060  1.00  0.00     0.055 A 
ATOM     70  C   UNL A   1      37.680  29.721  28.762  1.00  0.00     0.041 A 
ATOM     71  F   UNL A   1      39.278  29.467  27.068  1.00  0.00    -0.206 F 
ATOM     72  C   UNL A   1      37.326  29.670  30.108  1.00  0.00     0.022 A 
BRANCH  69  73
ATOM     73  S   UNL A   1      37.850  29.124  32.792  1.00  0.00     0.124 S 
ATOM     74  O   UNL A   1      38.997  29.692  33.496  1.00  0.00    -0.237 OA
ATOM     75  O   UNL A   1      36.598  29.864  32.907  1.00  0.00    -0.237 OA
ATOM     76  O   UNL A   1      37.728  27.671  32.887  1.00  0.00    -0.744 OA
ENDBRANCH  69  73
ENDBRANCH  52  66
BRANCH  53  77
ATOM     77  C   UNL A   1      49.148  26.956  25.883  1.00  0.00     0.023 A 
ATOM     78  C   UNL A   1      49.534  27.402  24.609  1.00  0.00     0.031 A 
ATOM     79  C   UNL A   1      50.057  26.167  26.610  1.00  0.00     0.131 A 
ATOM     80  C   UNL A   1      50.773  27.013  24.077  1.00  0.00     0.055 A 
ATOM     81  C   UNL A   1      51.309  25.825  26.096  1.00  0.00     0.041 A 
ATOM     82  F   UNL A   1      49.741  25.724  27.837  1.00  0.00    -0.206 F 
ATOM     83  C   UNL A   1      51.668  26.236  24.817  1.00  0.00     0.022 A 
BRANCH  80  84
ATOM     84  S   UNL A   1      51.163  27.468  22.365  1.00  0.00     0.124 S 
ATOM     85  O   UNL A   1      52.578  27.125  22.280  1.00  0.00    -0.237 OA
ATOM     86  O   UNL A   1      50.250  26.615  21.612  1.00  0.00    -0.237 OA
ATOM     87  O   UNL A   1      50.862  28.897  22.315  1.00  0.00    -0.744 OA
ENDBRANCH  80  84
ENDBRANCH  53  77
BRANCH  65  88
ATOM     88  C   UNL A   1      46.393  32.659  28.769  1.00  0.00     0.023 A 
ATOM     89  C   UNL A   1      46.372  33.732  27.862  1.00  0.00     0.031 A 
ATOM     90  C   UNL A   1      47.039  32.845  30.003  1.00  0.00     0.131 A 
ATOM     91  C   UNL A   1      47.049  34.921  28.171  1.00  0.00     0.055 A 
ATOM     92  C   UNL A   1      47.658  34.053  30.331  1.00  0.00     0.041 A 
ATOM     93  F   UNL A   1      47.090  31.853  30.905  1.00  0.00    -0.206 F 
ATOM     94  C   UNL A   1      47.681  35.093  29.406  1.00  0.00     0.022 A 
BRANCH  91  95
ATOM     95  S   UNL A   1      47.195  36.197  26.890  1.00  0.00     0.124 S 
ATOM     96  O   UNL A   1      46.389  37.280  27.446  1.00  0.00    -0.237 OA
ATOM     97  O   UNL A   1      48.634  36.432  26.847  1.00  0.00    -0.237 OA
ATOM     98  O   UNL A   1      46.636  35.556  25.702  1.00  0.00    -0.744 OA
ENDBRANCH  91  95
ENDBRANCH  65  88
ENDBRANCH  39  40
ENDBRANCH  31  34
ENDBRANCH  29  30
ENDBRANCH  28  29
ENDBRANCH   1  28
TORSDOF 18
ENDMDL
MODEL 3
REMARK VINA RESULT:     -12.1      2.515      8.049
REMARK SMILES Cc1ccc(N)cc1S(=O)(=O)Nc1cccc(C(=O)NCCCCNC(=O)c2ccc(-c3c4nc(c(-c5cc(S(=O)(=O)[O-])ccc5F)c5ccc([nH]5)c(-c5cc(S(=O)(=O)[O-])ccc5F)c5nc(c(-c6cc(S(=O)(=O)[O-])ccc6F)c6ccc3[nH]6)C=C5)C=C4)cc2)c1
REMARK SMILES IDX 22 1 21 2 20 3 18 4 19 5 17 7 13 8 14 9 91 10 15 11 16 12
REMARK SMILES IDX 12 13 9 15 10 16 11 17 8 18 1 19 2 20 3 21 4 22 7 23 5 24
REMARK SMILES IDX 6 25 23 28 24 29 25 30 26 31 27 33 28 34 29 35 90 36 30 37
REMARK SMILES IDX 89 38 31 39 32 40 33 41 83 42 34 43 88 44 82 45 84 46 35 47
REMARK SMILES IDX 87 48 81 49 80 50 36 52 68 53 48 54 67 55 49 56 52 57 66 58
REMARK SMILES IDX 85 59 50 60 51 61 65 63 86 64 53 65 37 66 38 67 46 68 39 69
REMARK SMILES IDX 45 70 47 71 44 72 40 73 41 74 42 75 43 76 69 77 70 78 78 79
REMARK SMILES IDX 71 80 77 81 79 82 76 83 72 84 73 85 74 86 75 87 54 88 55 89
REMARK SMILES IDX 63 90 56 91 62 92 64 93 61 94 57 95 58 96 59 97 60 98
REMARK H PARENT 20 6 12 14 6 26 6 27 25 32 84 51 52 62
REMARK Flexibility Score: inf
ROOT
ATOM      1  C   UNL A   1      33.369  29.442  24.429  1.00  0.00     0.023 C 
ENDROOT
BRANCH   1   2
ATOM      2  C   UNL A   1      33.277  28.963  22.979  1.00  0.00     0.116 C 
BRANCH   2   3
ATOM      3  N   UNL A   1      31.994  29.328  22.407  1.00  0.00    -0.352 N 
ATOM      4  C   UNL A   1      30.815  28.646  22.250  1.00  0.00     0.251 C 
ATOM      5  O   UNL A   1      29.894  29.235  21.680  1.00  0.00    -0.269 OA
ATOM      6  H   UNL A   1      31.965  30.249  22.061  1.00  0.00     0.163 HD
BRANCH   4   7
ATOM      7  C   UNL A   1      30.556  27.281  22.799  1.00  0.00     0.041 A 
ATOM      8  C   UNL A   1      30.999  24.910  23.006  1.00  0.00     0.050 A 
ATOM      9  C   UNL A   1      30.192  24.849  24.146  1.00  0.00     0.027 A 
ATOM     10  C   UNL A   1      31.074  26.094  22.276  1.00  0.00     0.040 A 
ATOM     11  C   UNL A   1      29.572  25.998  24.625  1.00  0.00     0.003 A 
ATOM     12  C   UNL A   1      29.785  27.213  23.975  1.00  0.00     0.014 A 
BRANCH   8  13
ATOM     13  N   UNL A   1      31.816  23.779  22.748  1.00  0.00    -0.280 N 
ATOM     14  H   UNL A   1      31.357  22.910  22.688  1.00  0.00     0.180 HD
BRANCH  13  15
ATOM     15  S   UNL A   1      33.470  23.760  22.534  1.00  0.00     0.262 S 
ATOM     16  O   UNL A   1      33.976  25.054  22.946  1.00  0.00    -0.201 OA
ATOM     17  O   UNL A   1      33.657  23.292  21.175  1.00  0.00    -0.201 OA
BRANCH  15  18
ATOM     18  C   UNL A   1      34.264  22.544  23.584  1.00  0.00     0.092 A 
ATOM     19  C   UNL A   1      32.286  20.927  24.041  1.00  0.00     0.046 C 
ATOM     20  C   UNL A   1      33.678  21.444  24.229  1.00  0.00    -0.030 A 
ATOM     21  C   UNL A   1      34.459  20.739  25.169  1.00  0.00     0.007 A 
ATOM     22  C   UNL A   1      35.810  21.030  25.368  1.00  0.00     0.026 A 
ATOM     23  C   UNL A   1      35.643  22.803  23.779  1.00  0.00     0.048 A 
ATOM     24  C   UNL A   1      36.432  22.019  24.621  1.00  0.00     0.033 A 
BRANCH  24  25
ATOM     25  N   UNL A   1      37.770  22.309  24.813  1.00  0.00    -0.399 N 
ATOM     26  H   UNL A   1      38.456  21.650  24.564  1.00  0.00     0.156 HD
ATOM     27  H   UNL A   1      38.035  23.175  25.200  1.00  0.00     0.156 HD
ENDBRANCH  24  25
ENDBRANCH  15  18
ENDBRANCH  13  15
ENDBRANCH   8  13
ENDBRANCH   4   7
ENDBRANCH   2   3
ENDBRANCH   1   2
BRANCH   1  28
ATOM     28  C   UNL A   1      32.683  28.503  25.424  1.00  0.00     0.023 C 
BRANCH  28  29
ATOM     29  C   UNL A   1      32.458  29.105  26.809  1.00  0.00     0.116 C 
BRANCH  29  30
ATOM     30  N   UNL A   1      32.365  30.555  26.792  1.00  0.00    -0.352 N 
ATOM     31  C   UNL A   1      33.259  31.482  27.268  1.00  0.00     0.251 C 
ATOM     32  H   UNL A   1      31.549  30.924  26.383  1.00  0.00     0.163 HD
ATOM     33  O   UNL A   1      32.968  32.675  27.257  1.00  0.00    -0.269 OA
BRANCH  31  34
ATOM     34  C   UNL A   1      34.553  31.035  27.829  1.00  0.00     0.039 A 
ATOM     35  C   UNL A   1      35.569  31.977  28.000  1.00  0.00     0.014 A 
ATOM     36  C   UNL A   1      34.762  29.701  28.193  1.00  0.00     0.014 A 
ATOM     37  C   UNL A   1      36.775  31.593  28.589  1.00  0.00     0.010 A 
ATOM     38  C   UNL A   1      35.940  29.334  28.841  1.00  0.00     0.010 A 
ATOM     39  C   UNL A   1      36.959  30.277  29.043  1.00  0.00    -0.014 A 
BRANCH  39  40
ATOM     40  C   UNL A   1      38.214  29.886  29.735  1.00  0.00     0.031 A 
ATOM     41  C   UNL A   1      38.529  30.422  31.104  1.00  0.00     0.074 A 
ATOM     42  C   UNL A   1      39.084  29.069  29.109  1.00  0.00     0.049 A 
ATOM     43  N   UNL A   1      39.564  30.184  31.867  1.00  0.00    -0.248 NA
ATOM     44  C   UNL A   1      37.567  31.375  31.677  1.00  0.00     0.031 C 
ATOM     45  C   UNL A   1      38.917  28.536  27.754  1.00  0.00     0.029 A 
ATOM     46  N   UNL A   1      40.279  28.540  29.525  1.00  0.00    -0.354 N 
ATOM     47  C   UNL A   1      39.381  30.957  33.009  1.00  0.00     0.074 A 
ATOM     48  C   UNL A   1      38.168  31.721  32.805  1.00  0.00     0.031 C 
ATOM     49  C   UNL A   1      39.951  27.729  27.467  1.00  0.00     0.029 A 
ATOM     50  C   UNL A   1      40.868  27.710  28.601  1.00  0.00     0.049 A 
ATOM     51  H   UNL A   1      40.677  28.738  30.404  1.00  0.00     0.167 HD
ATOM     52  C   UNL A   1      40.139  31.005  34.133  1.00  0.00     0.034 A 
ATOM     53  C   UNL A   1      42.015  27.006  28.666  1.00  0.00     0.034 A 
ATOM     54  C   UNL A   1      41.343  30.230  34.323  1.00  0.00     0.049 A 
ATOM     55  C   UNL A   1      42.831  27.062  29.931  1.00  0.00     0.074 A 
ATOM     56  C   UNL A   1      42.161  30.164  35.439  1.00  0.00     0.029 A 
ATOM     57  N   UNL A   1      41.903  29.386  33.372  1.00  0.00    -0.354 N 
ATOM     58  N   UNL A   1      42.610  27.750  31.028  1.00  0.00    -0.248 NA
ATOM     59  C   UNL A   1      44.039  26.230  29.973  1.00  0.00     0.031 C 
ATOM     60  C   UNL A   1      43.243  29.326  35.142  1.00  0.00     0.029 A 
ATOM     61  C   UNL A   1      43.067  28.815  33.866  1.00  0.00     0.049 A 
ATOM     62  H   UNL A   1      41.528  29.219  32.478  1.00  0.00     0.167 HD
ATOM     63  C   UNL A   1      43.642  27.412  31.899  1.00  0.00     0.074 A 
ATOM     64  C   UNL A   1      44.466  26.441  31.208  1.00  0.00     0.031 C 
ATOM     65  C   UNL A   1      43.889  27.864  33.156  1.00  0.00     0.034 A 
BRANCH  52  66
ATOM     66  C   UNL A   1      39.693  31.943  35.229  1.00  0.00     0.023 A 
ATOM     67  C   UNL A   1      38.975  31.482  36.347  1.00  0.00     0.031 A 
ATOM     68  C   UNL A   1      39.959  33.321  35.143  1.00  0.00     0.131 A 
ATOM     69  C   UNL A   1      38.485  32.394  37.293  1.00  0.00     0.055 A 
ATOM     70  C   UNL A   1      39.538  34.216  36.130  1.00  0.00     0.041 A 
ATOM     71  F   UNL A   1      40.622  33.826  34.091  1.00  0.00    -0.206 F 
ATOM     72  C   UNL A   1      38.783  33.756  37.206  1.00  0.00     0.022 A 
BRANCH  69  73
ATOM     73  S   UNL A   1      37.337  31.795  38.564  1.00  0.00     0.124 S 
ATOM     74  O   UNL A   1      37.095  30.425  38.119  1.00  0.00    -0.237 OA
ATOM     75  O   UNL A   1      38.115  31.943  39.788  1.00  0.00    -0.237 OA
ATOM     76  O   UNL A   1      36.190  32.693  38.441  1.00  0.00    -0.744 OA
ENDBRANCH  69  73
ENDBRANCH  52  66
BRANCH  53  77
ATOM     77  C   UNL A   1      42.459  26.174  27.511  1.00  0.00     0.023 A 
ATOM     78  C   UNL A   1      42.044  24.840  27.380  1.00  0.00     0.031 A 
ATOM     79  C   UNL A   1      43.344  26.690  26.547  1.00  0.00     0.131 A 
ATOM     80  C   UNL A   1      42.553  24.049  26.339  1.00  0.00     0.055 A 
ATOM     81  C   UNL A   1      43.808  25.913  25.485  1.00  0.00     0.041 A 
ATOM     82  F   UNL A   1      43.763  27.963  26.623  1.00  0.00    -0.206 F 
ATOM     83  C   UNL A   1      43.425  24.579  25.384  1.00  0.00     0.022 A 
BRANCH  80  84
ATOM     84  S   UNL A   1      42.127  22.286  26.300  1.00  0.00     0.124 S 
ATOM     85  O   UNL A   1      42.624  21.829  27.592  1.00  0.00    -0.237 OA
ATOM     86  O   UNL A   1      40.676  22.331  26.150  1.00  0.00    -0.237 OA
ATOM     87  O   UNL A   1      42.855  21.785  25.137  1.00  0.00    -0.744 OA
ENDBRANCH  80  84
ENDBRANCH  53  77
BRANCH  65  88
ATOM     88  C   UNL A   1      45.089  27.278  33.859  1.00  0.00     0.023 A 
ATOM     89  C   UNL A   1      44.985  26.121  34.650  1.00  0.00     0.031 A 
ATOM     90  C   UNL A   1      46.340  27.914  33.776  1.00  0.00     0.131 A 
ATOM     91  C   UNL A   1      46.092  25.675  35.386  1.00  0.00     0.055 A 
ATOM     92  C   UNL A   1      47.455  27.429  34.462  1.00  0.00     0.041 A 
ATOM     93  F   UNL A   1      46.496  29.023  33.036  1.00  0.00    -0.206 F 
ATOM     94  C   UNL A   1      47.331  26.314  35.286  1.00  0.00     0.022 A 
BRANCH  91  95
ATOM     95  S   UNL A   1      45.862  24.318  36.567  1.00  0.00     0.124 S 
ATOM     96  O   UNL A   1      46.064  24.991  37.847  1.00  0.00    -0.237 OA
ATOM     97  O   UNL A   1      44.497  23.887  36.284  1.00  0.00    -0.237 OA
ATOM     98  O   UNL A   1      46.903  23.361  36.199  1.00  0.00    -0.744 OA
ENDBRANCH  91  95
ENDBRANCH  65  88
ENDBRANCH  39  40
ENDBRANCH  31  34
ENDBRANCH  29  30
ENDBRANCH  28  29
ENDBRANCH   1  28
TORSDOF 18
ENDMDL
