MODEL 1
REMARK VINA RESULT:     -11.3      0.000      0.000
REMARK SMILES NC(=[NH2+])N1CCC[C@H]1C(=O)NCCCCNC(=O)c1ccc(-c2c3nc(c(-c4cc(S(=O)(=O)[O-])ccc4F)c4ccc([nH]4)c(-c4cc(S(=O)(=O)[O-])ccc4F)c4nc(c(-c5cc(S(=O)(=O)[O-])ccc5F)c5ccc2[nH]5)C=C4)C=C3)cc1
REMARK SMILES IDX 14 1 13 2 12 3 11 4 9 5 10 6 8 8 4 9 5 10 6 11 7 12 2 13
REMARK SMILES IDX 3 14 1 17 15 20 16 21 17 22 18 24 19 25 20 26 81 27 21 28
REMARK SMILES IDX 80 29 22 30 23 31 24 32 74 33 25 34 79 35 73 36 75 37 26 38
REMARK SMILES IDX 78 39 72 40 71 41 27 43 59 44 39 45 58 46 40 47 43 48 57 49
REMARK SMILES IDX 76 50 41 51 42 52 56 54 77 55 44 56 28 57 29 58 37 59 30 60
REMARK SMILES IDX 36 61 38 62 35 63 31 64 32 65 33 66 34 67 60 68 61 69 69 70
REMARK SMILES IDX 62 71 68 72 70 73 67 74 63 75 64 76 65 77 66 78 45 79 46 80
REMARK SMILES IDX 54 81 47 82 53 83 55 84 52 85 48 86 49 87 50 88 51 89
REMARK H PARENT 11 7 3 15 3 16 1 18 1 19 16 23 75 42 43 53
REMARK Flexibility Score: inf
ROOT
ATOM      1  C   UNL A   1      31.820  28.689  26.702  1.00  0.00     0.023 C 
ENDROOT
BRANCH   1   2
ATOM      2  C   UNL A   1      32.291  27.248  26.495  1.00  0.00     0.023 C 
BRANCH   2   3
ATOM      3  C   UNL A   1      31.184  26.275  26.088  1.00  0.00     0.116 C 
BRANCH   3   4
ATOM      4  N   UNL A   1      31.238  25.060  26.878  1.00  0.00    -0.353 N 
ATOM      5  C   UNL A   1      31.788  23.843  26.617  1.00  0.00     0.257 C 
ATOM      6  O   UNL A   1      31.539  22.944  27.433  1.00  0.00    -0.271 OA
ATOM      7  H   UNL A   1      30.801  25.127  27.758  1.00  0.00     0.163 HD
BRANCH   5   8
ATOM      8  C   UNL A   1      32.761  23.548  25.465  1.00  0.00     0.237 C 
ATOM      9  N   UNL A   1      33.698  22.432  25.639  1.00  0.00    -0.253 N 
ATOM     10  C   UNL A   1      33.587  21.495  24.518  1.00  0.00     0.201 C 
ATOM     11  C   UNL A   1      32.912  22.304  23.422  1.00  0.00     0.042 C 
ATOM     12  C   UNL A   1      31.971  23.204  24.197  1.00  0.00     0.055 C 
BRANCH   9  13
ATOM     13  C   UNL A   1      34.666  22.294  26.580  1.00  0.00     0.341 C 
ATOM     14  N   UNL A   1      35.799  22.905  26.490  1.00  0.00    -0.291 N 
ATOM     15  H   UNL A   1      36.480  22.784  27.190  1.00  0.00     0.256 HD
ATOM     16  H   UNL A   1      35.982  23.492  25.721  1.00  0.00     0.256 HD
ATOM     17  N   UNL A   1      34.409  21.494  27.626  1.00  0.00    -0.291 N 
ATOM     18  H   UNL A   1      35.086  21.369  28.329  1.00  0.00     0.256 HD
ATOM     19  H   UNL A   1      33.542  21.032  27.691  1.00  0.00     0.256 HD
ENDBRANCH   9  13
ENDBRANCH   5   8
ENDBRANCH   3   4
ENDBRANCH   2   3
ENDBRANCH   1   2
BRANCH   1  20
ATOM     20  C   UNL A   1      32.707  29.758  26.071  1.00  0.00     0.116 C 
BRANCH  20  21
ATOM     21  N   UNL A   1      32.372  31.111  26.498  1.00  0.00    -0.352 N 
ATOM     22  C   UNL A   1      33.118  31.975  27.265  1.00  0.00     0.251 C 
ATOM     23  H   UNL A   1      31.498  31.451  26.197  1.00  0.00     0.163 HD
ATOM     24  O   UNL A   1      32.654  33.052  27.625  1.00  0.00    -0.269 OA
BRANCH  22  25
ATOM     25  C   UNL A   1      34.470  31.560  27.684  1.00  0.00     0.039 A 
ATOM     26  C   UNL A   1      35.462  32.531  27.832  1.00  0.00     0.014 A 
ATOM     27  C   UNL A   1      34.715  30.228  28.028  1.00  0.00     0.014 A 
ATOM     28  C   UNL A   1      36.677  32.183  28.425  1.00  0.00     0.010 A 
ATOM     29  C   UNL A   1      35.899  29.900  28.678  1.00  0.00     0.010 A 
ATOM     30  C   UNL A   1      36.881  30.879  28.903  1.00  0.00    -0.014 A 
BRANCH  30  31
ATOM     31  C   UNL A   1      38.094  30.513  29.679  1.00  0.00     0.031 A 
ATOM     32  C   UNL A   1      39.066  29.517  29.115  1.00  0.00     0.074 A 
ATOM     33  C   UNL A   1      38.255  30.992  30.928  1.00  0.00     0.049 A 
ATOM     34  N   UNL A   1      40.088  28.941  29.691  1.00  0.00    -0.248 NA
ATOM     35  C   UNL A   1      38.830  29.087  27.729  1.00  0.00     0.031 C 
ATOM     36  C   UNL A   1      37.355  31.935  31.597  1.00  0.00     0.029 A 
ATOM     37  N   UNL A   1      39.220  30.733  31.870  1.00  0.00    -0.354 N 
ATOM     38  C   UNL A   1      40.607  28.062  28.745  1.00  0.00     0.074 A 
ATOM     39  C   UNL A   1      39.751  28.147  27.581  1.00  0.00     0.031 C 
ATOM     40  C   UNL A   1      37.815  32.181  32.834  1.00  0.00     0.029 A 
ATOM     41  C   UNL A   1      39.012  31.379  33.067  1.00  0.00     0.049 A 
ATOM     42  H   UNL A   1      39.988  30.141  31.703  1.00  0.00     0.167 HD
ATOM     43  C   UNL A   1      41.706  27.274  28.837  1.00  0.00     0.034 A 
ATOM     44  C   UNL A   1      39.691  31.311  34.229  1.00  0.00     0.034 A 
ATOM     45  C   UNL A   1      42.558  27.221  29.998  1.00  0.00     0.049 A 
ATOM     46  C   UNL A   1      40.889  30.403  34.318  1.00  0.00     0.074 A 
ATOM     47  C   UNL A   1      43.739  26.520  30.171  1.00  0.00     0.029 A 
ATOM     48  N   UNL A   1      42.315  27.887  31.193  1.00  0.00    -0.354 N 
ATOM     49  N   UNL A   1      41.395  29.612  33.400  1.00  0.00    -0.248 NA
ATOM     50  C   UNL A   1      41.605  30.374  35.600  1.00  0.00     0.031 C 
ATOM     51  C   UNL A   1      44.178  26.716  31.486  1.00  0.00     0.029 A 
ATOM     52  C   UNL A   1      43.303  27.586  32.117  1.00  0.00     0.049 A 
ATOM     53  H   UNL A   1      41.551  28.485  31.358  1.00  0.00     0.167 HD
ATOM     54  C   UNL A   1      42.502  29.007  33.988  1.00  0.00     0.074 A 
ATOM     55  C   UNL A   1      42.595  29.532  35.336  1.00  0.00     0.031 C 
ATOM     56  C   UNL A   1      43.366  28.105  33.462  1.00  0.00     0.034 A 
BRANCH  43  57
ATOM     57  C   UNL A   1      42.024  26.395  27.653  1.00  0.00     0.023 A 
ATOM     58  C   UNL A   1      41.581  25.063  27.585  1.00  0.00     0.031 A 
ATOM     59  C   UNL A   1      42.815  26.881  26.596  1.00  0.00     0.131 A 
ATOM     60  C   UNL A   1      41.999  24.238  26.530  1.00  0.00     0.055 A 
ATOM     61  C   UNL A   1      43.161  26.078  25.508  1.00  0.00     0.041 A 
ATOM     62  F   UNL A   1      43.283  28.139  26.616  1.00  0.00    -0.206 F 
ATOM     63  C   UNL A   1      42.767  24.743  25.478  1.00  0.00     0.022 A 
BRANCH  60  64
ATOM     64  S   UNL A   1      41.648  22.463  26.630  1.00  0.00     0.124 S 
ATOM     65  O   UNL A   1      40.191  22.457  26.733  1.00  0.00    -0.237 OA
ATOM     66  O   UNL A   1      42.203  21.960  25.378  1.00  0.00    -0.237 OA
ATOM     67  O   UNL A   1      42.353  22.041  27.839  1.00  0.00    -0.744 OA
ENDBRANCH  60  64
ENDBRANCH  43  57
BRANCH  44  68
ATOM     68  C   UNL A   1      39.242  32.096  35.412  1.00  0.00     0.023 A 
ATOM     69  C   UNL A   1      39.681  33.414  35.610  1.00  0.00     0.031 A 
ATOM     70  C   UNL A   1      38.396  31.527  36.380  1.00  0.00     0.131 A 
ATOM     71  C   UNL A   1      39.300  34.111  36.768  1.00  0.00     0.055 A 
ATOM     72  C   UNL A   1      37.986  32.239  37.510  1.00  0.00     0.041 A 
ATOM     73  F   UNL A   1      37.944  30.272  36.235  1.00  0.00    -0.206 F 
ATOM     74  C   UNL A   1      38.448  33.536  37.714  1.00  0.00     0.022 A 
BRANCH  71  75
ATOM     75  S   UNL A   1      39.994  35.762  37.054  1.00  0.00     0.124 S 
ATOM     76  O   UNL A   1      41.407  35.461  37.257  1.00  0.00    -0.237 OA
ATOM     77  O   UNL A   1      39.655  36.452  35.814  1.00  0.00    -0.237 OA
ATOM     78  O   UNL A   1      39.278  36.230  38.240  1.00  0.00    -0.744 OA
ENDBRANCH  71  75
ENDBRANCH  44  68
BRANCH  56  79
ATOM     79  C   UNL A   1      44.500  27.654  34.345  1.00  0.00     0.023 A 
ATOM     80  C   UNL A   1      44.400  26.498  35.137  1.00  0.00     0.031 A 
ATOM     81  C   UNL A   1      45.695  28.393  34.390  1.00  0.00     0.131 A 
ATOM     82  C   UNL A   1      45.465  26.134  35.974  1.00  0.00     0.055 A 
ATOM     83  C   UNL A   1      46.770  27.998  35.189  1.00  0.00     0.041 A 
ATOM     84  F   UNL A   1      45.840  29.505  33.653  1.00  0.00    -0.206 F 
ATOM     85  C   UNL A   1      46.655  26.868  35.993  1.00  0.00     0.022 A 
BRANCH  82  86
ATOM     86  S   UNL A   1      45.256  24.714  37.083  1.00  0.00     0.124 S 
ATOM     87  O   UNL A   1      45.440  23.589  36.174  1.00  0.00    -0.237 OA
ATOM     88  O   UNL A   1      46.317  24.921  38.063  1.00  0.00    -0.237 OA
ATOM     89  O   UNL A   1      43.898  24.879  37.600  1.00  0.00    -0.744 OA
ENDBRANCH  82  86
ENDBRANCH  56  79
ENDBRANCH  30  31
ENDBRANCH  22  25
ENDBRANCH  20  21
ENDBRANCH   1  20
TORSDOF 15
ENDMDL
MODEL 2
REMARK VINA RESULT:     -11.2      5.033     10.279
REMARK SMILES NC(=[NH2+])N1CCC[C@H]1C(=O)NCCCCNC(=O)c1ccc(-c2c3nc(c(-c4cc(S(=O)(=O)[O-])ccc4F)c4ccc([nH]4)c(-c4cc(S(=O)(=O)[O-])ccc4F)c4nc(c(-c5cc(S(=O)(=O)[O-])ccc5F)c5ccc2[nH]5)C=C4)C=C3)cc1
REMARK SMILES IDX 14 1 13 2 12 3 11 4 9 5 10 6 8 8 4 9 5 10 6 11 7 12 2 13
REMARK SMILES IDX 3 14 1 17 15 20 16 21 17 22 18 24 19 25 20 26 81 27 21 28
REMARK SMILES IDX 80 29 22 30 23 31 24 32 74 33 25 34 79 35 73 36 75 37 26 38
REMARK SMILES IDX 78 39 72 40 71 41 27 43 59 44 39 45 58 46 40 47 43 48 57 49
REMARK SMILES IDX 76 50 41 51 42 52 56 54 77 55 44 56 28 57 29 58 37 59 30 60
REMARK SMILES IDX 36 61 38 62 35 63 31 64 32 65 33 66 34 67 60 68 61 69 69 70
REMARK SMILES IDX 62 71 68 72 70 73 67 74 63 75 64 76 65 77 66 78 45 79 46 80
REMARK SMILES IDX 54 81 47 82 53 83 55 84 52 85 48 86 49 87 50 88 51 89
REMARK H PARENT 11 7 3 15 3 16 1 18 1 19 16 23 75 42 43 53
REMARK Flexibility Score: inf
ROOT
ATOM      1  C   UNL A   1      36.187  20.952  25.269  1.00  0.00     0.023 C 
ENDROOT
BRANCH   1   2
ATOM      2  C   UNL A   1      35.319  22.085  25.819  1.00  0.00     0.023 C 
BRANCH   2   3
ATOM      3  C   UNL A   1      34.214  21.629  26.773  1.00  0.00     0.116 C 
BRANCH   3   4
ATOM      4  N   UNL A   1      33.557  20.434  26.280  1.00  0.00    -0.353 N 
ATOM      5  C   UNL A   1      32.496  20.273  25.443  1.00  0.00     0.257 C 
ATOM      6  O   UNL A   1      32.063  19.118  25.325  1.00  0.00    -0.271 OA
ATOM      7  H   UNL A   1      33.947  19.591  26.607  1.00  0.00     0.163 HD
BRANCH   5   8
ATOM      8  C   UNL A   1      31.886  21.385  24.575  1.00  0.00     0.237 C 
ATOM      9  N   UNL A   1      31.689  22.699  25.197  1.00  0.00    -0.253 N 
ATOM     10  C   UNL A   1      32.334  23.742  24.396  1.00  0.00     0.201 C 
ATOM     11  C   UNL A   1      32.515  23.103  23.028  1.00  0.00     0.042 C 
ATOM     12  C   UNL A   1      32.790  21.651  23.367  1.00  0.00     0.055 C 
BRANCH   9  13
ATOM     13  C   UNL A   1      30.908  23.010  26.263  1.00  0.00     0.341 C 
ATOM     14  N   UNL A   1      29.841  22.342  26.546  1.00  0.00    -0.291 N 
ATOM     15  H   UNL A   1      29.296  22.593  27.325  1.00  0.00     0.256 HD
ATOM     16  H   UNL A   1      29.572  21.582  25.981  1.00  0.00     0.256 HD
ATOM     17  N   UNL A   1      31.282  24.046  27.028  1.00  0.00    -0.291 N 
ATOM     18  H   UNL A   1      30.741  24.303  27.810  1.00  0.00     0.256 HD
ATOM     19  H   UNL A   1      32.098  24.550  26.809  1.00  0.00     0.256 HD
ENDBRANCH   9  13
ENDBRANCH   5   8
ENDBRANCH   3   4
ENDBRANCH   2   3
ENDBRANCH   1   2
BRANCH   1  20
ATOM     20  C   UNL A   1      37.650  21.311  25.032  1.00  0.00     0.116 C 
BRANCH  20  21
ATOM     21  N   UNL A   1      38.573  20.243  25.393  1.00  0.00    -0.352 N 
ATOM     22  C   UNL A   1      39.726  20.324  26.138  1.00  0.00     0.251 C 
ATOM     23  H   UNL A   1      38.340  19.345  25.061  1.00  0.00     0.163 HD
ATOM     24  O   UNL A   1      40.454  19.347  26.273  1.00  0.00    -0.269 OA
BRANCH  22  25
ATOM     25  C   UNL A   1      40.093  21.624  26.731  1.00  0.00     0.039 A 
ATOM     26  C   UNL A   1      40.961  21.649  27.824  1.00  0.00     0.014 A 
ATOM     27  C   UNL A   1      39.658  22.811  26.134  1.00  0.00     0.014 A 
ATOM     28  C   UNL A   1      41.478  22.871  28.260  1.00  0.00     0.010 A 
ATOM     29  C   UNL A   1      40.226  24.017  26.526  1.00  0.00     0.010 A 
ATOM     30  C   UNL A   1      41.158  24.056  27.577  1.00  0.00    -0.014 A 
BRANCH  30  31
ATOM     31  C   UNL A   1      41.809  25.349  27.910  1.00  0.00     0.031 A 
ATOM     32  C   UNL A   1      41.013  26.434  28.575  1.00  0.00     0.074 A 
ATOM     33  C   UNL A   1      43.077  25.578  27.513  1.00  0.00     0.049 A 
ATOM     34  N   UNL A   1      41.339  27.680  28.800  1.00  0.00    -0.248 NA
ATOM     35  C   UNL A   1      39.655  26.076  29.010  1.00  0.00     0.031 C 
ATOM     36  C   UNL A   1      43.936  24.611  26.824  1.00  0.00     0.029 A 
ATOM     37  N   UNL A   1      43.857  26.703  27.609  1.00  0.00    -0.354 N 
ATOM     38  C   UNL A   1      40.219  28.263  29.383  1.00  0.00     0.074 A 
ATOM     39  C   UNL A   1      39.191  27.244  29.426  1.00  0.00     0.031 C 
ATOM     40  C   UNL A   1      45.125  25.182  26.569  1.00  0.00     0.029 A 
ATOM     41  C   UNL A   1      45.097  26.567  27.030  1.00  0.00     0.049 A 
ATOM     42  H   UNL A   1      43.557  27.528  28.053  1.00  0.00     0.167 HD
ATOM     43  C   UNL A   1      40.071  29.525  29.856  1.00  0.00     0.034 A 
ATOM     44  C   UNL A   1      46.090  27.464  26.862  1.00  0.00     0.034 A 
ATOM     45  C   UNL A   1      41.114  30.519  29.822  1.00  0.00     0.049 A 
ATOM     46  C   UNL A   1      45.890  28.870  27.365  1.00  0.00     0.074 A 
ATOM     47  C   UNL A   1      41.101  31.802  30.343  1.00  0.00     0.029 A 
ATOM     48  N   UNL A   1      42.357  30.347  29.225  1.00  0.00    -0.354 N 
ATOM     49  N   UNL A   1      44.842  29.393  27.956  1.00  0.00    -0.248 NA
ATOM     50  C   UNL A   1      47.006  29.806  27.173  1.00  0.00     0.031 C 
ATOM     51  C   UNL A   1      42.311  32.423  30.010  1.00  0.00     0.029 A 
ATOM     52  C   UNL A   1      43.104  31.509  29.333  1.00  0.00     0.049 A 
ATOM     53  H   UNL A   1      42.661  29.519  28.788  1.00  0.00     0.167 HD
ATOM     54  C   UNL A   1      45.180  30.716  28.226  1.00  0.00     0.074 A 
ATOM     55  C   UNL A   1      46.532  30.907  27.741  1.00  0.00     0.031 C 
ATOM     56  C   UNL A   1      44.443  31.684  28.824  1.00  0.00     0.034 A 
BRANCH  43  57
ATOM     57  C   UNL A   1      38.723  29.896  30.423  1.00  0.00     0.023 A 
ATOM     58  C   UNL A   1      37.780  30.617  29.670  1.00  0.00     0.031 A 
ATOM     59  C   UNL A   1      38.390  29.559  31.747  1.00  0.00     0.131 A 
ATOM     60  C   UNL A   1      36.589  31.051  30.270  1.00  0.00     0.055 A 
ATOM     61  C   UNL A   1      37.168  29.925  32.314  1.00  0.00     0.041 A 
ATOM     62  F   UNL A   1      39.259  28.888  32.521  1.00  0.00    -0.206 F 
ATOM     63  C   UNL A   1      36.265  30.690  31.580  1.00  0.00     0.022 A 
BRANCH  60  64
ATOM     64  S   UNL A   1      35.539  32.217  29.361  1.00  0.00     0.124 S 
ATOM     65  O   UNL A   1      35.328  31.503  28.105  1.00  0.00    -0.237 OA
ATOM     66  O   UNL A   1      34.375  32.338  30.232  1.00  0.00    -0.237 OA
ATOM     67  O   UNL A   1      36.369  33.416  29.257  1.00  0.00    -0.744 OA
ENDBRANCH  60  64
ENDBRANCH  43  57
BRANCH  44  68
ATOM     68  C   UNL A   1      47.347  27.077  26.163  1.00  0.00     0.023 A 
ATOM     69  C   UNL A   1      48.369  26.399  26.844  1.00  0.00     0.031 A 
ATOM     70  C   UNL A   1      47.557  27.410  24.814  1.00  0.00     0.131 A 
ATOM     71  C   UNL A   1      49.574  26.107  26.183  1.00  0.00     0.055 A 
ATOM     72  C   UNL A   1      48.740  27.079  24.149  1.00  0.00     0.041 A 
ATOM     73  F   UNL A   1      46.606  28.053  24.116  1.00  0.00    -0.206 F 
ATOM     74  C   UNL A   1      49.761  26.433  24.838  1.00  0.00     0.022 A 
BRANCH  71  75
ATOM     75  S   UNL A   1      50.922  25.351  27.131  1.00  0.00     0.124 S 
ATOM     76  O   UNL A   1      51.781  24.837  26.071  1.00  0.00    -0.237 OA
ATOM     77  O   UNL A   1      51.440  26.490  27.882  1.00  0.00    -0.237 OA
ATOM     78  O   UNL A   1      50.244  24.335  27.934  1.00  0.00    -0.744 OA
ENDBRANCH  71  75
ENDBRANCH  44  68
BRANCH  56  79
ATOM     79  C   UNL A   1      45.102  33.026  29.008  1.00  0.00     0.023 A 
ATOM     80  C   UNL A   1      45.127  33.980  27.977  1.00  0.00     0.031 A 
ATOM     81  C   UNL A   1      45.712  33.351  30.232  1.00  0.00     0.131 A 
ATOM     82  C   UNL A   1      45.785  35.203  28.175  1.00  0.00     0.055 A 
ATOM     83  C   UNL A   1      46.323  34.588  30.440  1.00  0.00     0.041 A 
ATOM     84  F   UNL A   1      45.716  32.473  31.248  1.00  0.00    -0.206 F 
ATOM     85  C   UNL A   1      46.369  35.519  29.405  1.00  0.00     0.022 A 
BRANCH  82  86
ATOM     86  S   UNL A   1      45.915  36.359  26.784  1.00  0.00     0.124 S 
ATOM     87  O   UNL A   1      47.189  37.015  27.054  1.00  0.00    -0.237 OA
ATOM     88  O   UNL A   1      45.890  35.466  25.630  1.00  0.00    -0.237 OA
ATOM     89  O   UNL A   1      44.734  37.209  26.932  1.00  0.00    -0.744 OA
ENDBRANCH  82  86
ENDBRANCH  56  79
ENDBRANCH  30  31
ENDBRANCH  22  25
ENDBRANCH  20  21
ENDBRANCH   1  20
TORSDOF 15
ENDMDL
MODEL 3
REMARK VINA RESULT:     -11.1      2.831      3.751
REMARK SMILES NC(=[NH2+])N1CCC[C@H]1C(=O)NCCCCNC(=O)c1ccc(-c2c3nc(c(-c4cc(S(=O)(=O)[O-])ccc4F)c4ccc([nH]4)c(-c4cc(S(=O)(=O)[O-])ccc4F)c4nc(c(-c5cc(S(=O)(=O)[O-])ccc5F)c5ccc2[nH]5)C=C4)C=C3)cc1
REMARK SMILES IDX 14 1 13 2 12 3 11 4 9 5 10 6 8 8 4 9 5 10 6 11 7 12 2 13
REMARK SMILES IDX 3 14 1 17 15 20 16 21 17 22 18 24 19 25 20 26 81 27 21 28
REMARK SMILES IDX 80 29 22 30 23 31 24 32 74 33 25 34 79 35 73 36 75 37 26 38
REMARK SMILES IDX 78 39 72 40 71 41 27 43 59 44 39 45 58 46 40 47 43 48 57 49
REMARK SMILES IDX 76 50 41 51 42 52 56 54 77 55 44 56 28 57 29 58 37 59 30 60
REMARK SMILES IDX 36 61 38 62 35 63 31 64 32 65 33 66 34 67 60 68 61 69 69 70
REMARK SMILES IDX 62 71 68 72 70 73 67 74 63 75 64 76 65 77 66 78 45 79 46 80
REMARK SMILES IDX 54 81 47 82 53 83 55 84 52 85 48 86 49 87 50 88 51 89
REMARK H PARENT 11 7 3 15 3 16 1 18 1 19 16 23 75 42 43 53
REMARK Flexibility Score: inf
ROOT
ATOM      1  C   UNL A   1      32.671  30.851  26.745  1.00  0.00     0.023 C 
ENDROOT
BRANCH   1   2
ATOM      2  C   UNL A   1      32.625  29.395  27.212  1.00  0.00     0.023 C 
BRANCH   2   3
ATOM      3  C   UNL A   1      33.817  28.549  26.761  1.00  0.00     0.116 C 
BRANCH   3   4
ATOM      4  N   UNL A   1      34.190  28.856  25.393  1.00  0.00    -0.353 N 
ATOM      5  C   UNL A   1      33.685  28.423  24.207  1.00  0.00     0.257 C 
ATOM      6  O   UNL A   1      34.318  28.747  23.192  1.00  0.00    -0.271 OA
ATOM      7  H   UNL A   1      34.939  29.490  25.308  1.00  0.00     0.163 HD
BRANCH   5   8
ATOM      8  C   UNL A   1      32.357  27.667  24.040  1.00  0.00     0.237 C 
ATOM      9  N   UNL A   1      31.450  28.119  22.979  1.00  0.00    -0.253 N 
ATOM     10  C   UNL A   1      31.097  26.999  22.102  1.00  0.00     0.201 C 
ATOM     11  C   UNL A   1      31.419  25.763  22.927  1.00  0.00     0.042 C 
ATOM     12  C   UNL A   1      32.637  26.195  23.720  1.00  0.00     0.055 C 
BRANCH   9  13
ATOM     13  C   UNL A   1      30.854  29.331  22.850  1.00  0.00     0.341 C 
ATOM     14  N   UNL A   1      30.396  29.979  23.867  1.00  0.00    -0.291 N 
ATOM     15  H   UNL A   1      29.968  30.856  23.740  1.00  0.00     0.256 HD
ATOM     16  H   UNL A   1      30.473  29.595  24.770  1.00  0.00     0.256 HD
ATOM     17  N   UNL A   1      30.754  29.848  21.616  1.00  0.00    -0.291 N 
ATOM     18  H   UNL A   1      30.327  30.725  21.482  1.00  0.00     0.256 HD
ATOM     19  H   UNL A   1      31.107  29.350  20.844  1.00  0.00     0.256 HD
ENDBRANCH   9  13
ENDBRANCH   5   8
ENDBRANCH   3   4
ENDBRANCH   2   3
ENDBRANCH   1   2
BRANCH   1  20
ATOM     20  C   UNL A   1      33.560  31.772  27.576  1.00  0.00     0.116 C 
BRANCH  20  21
ATOM     21  N   UNL A   1      33.023  33.119  27.716  1.00  0.00    -0.352 N 
ATOM     22  C   UNL A   1      33.415  34.109  28.588  1.00  0.00     0.251 C 
ATOM     23  H   UNL A   1      32.284  33.352  27.108  1.00  0.00     0.163 HD
ATOM     24  O   UNL A   1      32.795  35.165  28.654  1.00  0.00    -0.269 OA
BRANCH  22  25
ATOM     25  C   UNL A   1      34.567  33.854  29.473  1.00  0.00     0.039 A 
ATOM     26  C   UNL A   1      34.384  33.074  30.616  1.00  0.00     0.014 A 
ATOM     27  C   UNL A   1      35.840  34.302  29.108  1.00  0.00     0.014 A 
ATOM     28  C   UNL A   1      35.499  32.655  31.344  1.00  0.00     0.010 A 
ATOM     29  C   UNL A   1      36.951  33.828  29.795  1.00  0.00     0.010 A 
ATOM     30  C   UNL A   1      36.792  32.981  30.905  1.00  0.00    -0.014 A 
BRANCH  30  31
ATOM     31  C   UNL A   1      38.003  32.424  31.560  1.00  0.00     0.031 A 
ATOM     32  C   UNL A   1      38.768  31.318  30.893  1.00  0.00     0.074 A 
ATOM     33  C   UNL A   1      38.341  32.838  32.798  1.00  0.00     0.049 A 
ATOM     34  N   UNL A   1      39.744  30.586  31.364  1.00  0.00    -0.248 NA
ATOM     35  C   UNL A   1      38.352  30.967  29.528  1.00  0.00     0.031 C 
ATOM     36  C   UNL A   1      37.647  33.879  33.562  1.00  0.00     0.029 A 
ATOM     37  N   UNL A   1      39.337  32.417  33.643  1.00  0.00    -0.354 N 
ATOM     38  C   UNL A   1      40.046  29.672  30.360  1.00  0.00     0.074 A 
ATOM     39  C   UNL A   1      39.112  29.911  29.281  1.00  0.00     0.031 C 
ATOM     40  C   UNL A   1      38.245  34.021  34.756  1.00  0.00     0.029 A 
ATOM     41  C   UNL A   1      39.330  33.050  34.864  1.00  0.00     0.049 A 
ATOM     42  H   UNL A   1      39.995  31.728  33.397  1.00  0.00     0.167 HD
ATOM     43  C   UNL A   1      41.025  28.734  30.338  1.00  0.00     0.034 A 
ATOM     44  C   UNL A   1      40.092  32.852  35.959  1.00  0.00     0.034 A 
ATOM     45  C   UNL A   1      41.959  28.525  31.415  1.00  0.00     0.049 A 
ATOM     46  C   UNL A   1      41.150  31.781  35.923  1.00  0.00     0.074 A 
ATOM     47  C   UNL A   1      43.038  27.659  31.467  1.00  0.00     0.029 A 
ATOM     48  N   UNL A   1      41.920  29.183  32.638  1.00  0.00    -0.354 N 
ATOM     49  N   UNL A   1      41.454  30.955  34.949  1.00  0.00    -0.248 NA
ATOM     50  C   UNL A   1      41.965  31.614  37.134  1.00  0.00     0.031 C 
ATOM     51  C   UNL A   1      43.614  27.752  32.740  1.00  0.00     0.029 A 
ATOM     52  C   UNL A   1      42.931  28.718  33.463  1.00  0.00     0.049 A 
ATOM     53  H   UNL A   1      41.267  29.878  32.883  1.00  0.00     0.167 HD
ATOM     54  C   UNL A   1      42.510  30.182  35.423  1.00  0.00     0.074 A 
ATOM     55  C   UNL A   1      42.796  30.648  36.766  1.00  0.00     0.031 C 
ATOM     56  C   UNL A   1      43.186  29.182  34.805  1.00  0.00     0.034 A 
BRANCH  43  57
ATOM     57  C   UNL A   1      41.108  27.853  29.115  1.00  0.00     0.023 A 
ATOM     58  C   UNL A   1      42.113  28.028  28.149  1.00  0.00     0.031 A 
ATOM     59  C   UNL A   1      40.146  26.853  28.891  1.00  0.00     0.131 A 
ATOM     60  C   UNL A   1      42.087  27.275  26.966  1.00  0.00     0.055 A 
ATOM     61  C   UNL A   1      40.171  26.051  27.749  1.00  0.00     0.041 A 
ATOM     62  F   UNL A   1      39.150  26.653  29.769  1.00  0.00    -0.206 F 
ATOM     63  C   UNL A   1      41.137  26.270  26.769  1.00  0.00     0.022 A 
BRANCH  60  64
ATOM     64  S   UNL A   1      43.222  27.728  25.627  1.00  0.00     0.124 S 
ATOM     65  O   UNL A   1      44.006  28.789  26.254  1.00  0.00    -0.237 OA
ATOM     66  O   UNL A   1      43.927  26.477  25.374  1.00  0.00    -0.237 OA
ATOM     67  O   UNL A   1      42.331  28.170  24.557  1.00  0.00    -0.744 OA
ENDBRANCH  60  64
ENDBRANCH  43  57
BRANCH  44  68
ATOM     68  C   UNL A   1      39.866  33.658  37.191  1.00  0.00     0.023 A 
ATOM     69  C   UNL A   1      40.656  34.784  37.469  1.00  0.00     0.031 A 
ATOM     70  C   UNL A   1      38.881  33.292  38.125  1.00  0.00     0.131 A 
ATOM     71  C   UNL A   1      40.471  35.487  38.671  1.00  0.00     0.055 A 
ATOM     72  C   UNL A   1      38.672  34.019  39.299  1.00  0.00     0.041 A 
ATOM     73  F   UNL A   1      38.095  32.226  37.902  1.00  0.00    -0.206 F 
ATOM     74  C   UNL A   1      39.478  35.118  39.582  1.00  0.00     0.022 A 
BRANCH  71  75
ATOM     75  S   UNL A   1      41.597  36.854  39.058  1.00  0.00     0.124 S 
ATOM     76  O   UNL A   1      42.430  36.902  37.862  1.00  0.00    -0.237 OA
ATOM     77  O   UNL A   1      40.671  37.967  39.242  1.00  0.00    -0.237 OA
ATOM     78  O   UNL A   1      42.274  36.403  40.273  1.00  0.00    -0.744 OA
ENDBRANCH  71  75
ENDBRANCH  44  68
BRANCH  56  79
ATOM     79  C   UNL A   1      44.317  28.549  35.573  1.00  0.00     0.023 A 
ATOM     80  C   UNL A   1      44.089  27.528  36.510  1.00  0.00     0.031 A 
ATOM     81  C   UNL A   1      45.640  28.977  35.362  1.00  0.00     0.131 A 
ATOM     82  C   UNL A   1      45.165  26.991  37.231  1.00  0.00     0.055 A 
ATOM     83  C   UNL A   1      46.712  28.405  36.048  1.00  0.00     0.041 A 
ATOM     84  F   UNL A   1      45.910  29.950  34.479  1.00  0.00    -0.206 F 
ATOM     85  C   UNL A   1      46.477  27.413  36.995  1.00  0.00     0.022 A 
BRANCH  82  86
ATOM     86  S   UNL A   1      44.823  25.769  38.527  1.00  0.00     0.124 S 
ATOM     87  O   UNL A   1      46.165  25.427  38.983  1.00  0.00    -0.237 OA
ATOM     88  O   UNL A   1      44.004  26.527  39.467  1.00  0.00    -0.237 OA
ATOM     89  O   UNL A   1      44.118  24.703  37.816  1.00  0.00    -0.744 OA
ENDBRANCH  82  86
ENDBRANCH  56  79
ENDBRANCH  30  31
ENDBRANCH  22  25
ENDBRANCH  20  21
ENDBRANCH   1  20
TORSDOF 15
ENDMDL
