MODEL 1
REMARK VINA RESULT:     -10.3      0.000      0.000
REMARK SMILES COc1ccc(Br)c([C@H]2[NH2+][C@H](C(=O)NCCCCNC(=O)c3ccc(-c4c5nc(c(-c6cc(S(=O)(=O)[O-])ccc6F)c6ccc([nH]6)c(-c6cc(S(=O)(=O)[O-])ccc6F)c6nc(c(-c7cc(S(=O)(=O)[O-])ccc7F)c7ccc4[nH]7)C=C6)C=C5)cc3)CS2)c1O
REMARK SMILES IDX 17 1 16 2 15 3 14 4 12 5 13 6 11 8 9 9 10 10 86 11 85 14
REMARK SMILES IDX 8 15 3 16 4 17 87 18 5 19 6 20 7 21 2 22 1 23 88 24 18 26
REMARK SMILES IDX 19 27 20 28 21 30 22 31 23 32 84 33 24 34 83 35 25 36 26 37
REMARK SMILES IDX 27 38 77 39 28 40 82 41 76 42 78 43 29 44 81 45 75 46 74 47
REMARK SMILES IDX 30 49 62 50 42 51 61 52 43 53 46 54 60 55 79 56 44 57 45 58
REMARK SMILES IDX 59 60 80 61 47 62 31 63 32 64 40 65 33 66 39 67 41 68 38 69
REMARK SMILES IDX 34 70 35 71 36 72 37 73 63 74 64 75 72 76 65 77 71 78 73 79
REMARK SMILES IDX 70 80 66 81 67 82 68 83 69 84 48 85 49 86 57 87 50 88 56 89
REMARK SMILES IDX 58 90 55 91 51 92 52 93 53 94 54 95
REMARK H PARENT 14 7 10 12 10 13 88 25 19 29 78 48 46 59
REMARK Flexibility Score: inf
ROOT
ATOM      1  C   UNL A   1      34.714  34.574  27.874  1.00  0.00     0.023 C 
ENDROOT
BRANCH   1   2
ATOM      2  C   UNL A   1      34.133  35.752  28.655  1.00  0.00     0.023 C 
BRANCH   2   3
ATOM      3  C   UNL A   1      32.858  35.442  29.434  1.00  0.00     0.116 C 
BRANCH   3   4
ATOM      4  N   UNL A   1      32.848  36.057  30.745  1.00  0.00    -0.351 N 
ATOM      5  C   UNL A   1      33.490  35.712  31.896  1.00  0.00     0.279 C 
ATOM      6  O   UNL A   1      33.290  36.428  32.886  1.00  0.00    -0.268 OA
ATOM      7  H   UNL A   1      32.284  36.861  30.816  1.00  0.00     0.163 HD
BRANCH   5   8
ATOM      8  C   UNL A   1      34.447  34.513  32.004  1.00  0.00     0.283 C 
ATOM      9  C   UNL A   1      36.694  34.552  32.956  1.00  0.00     0.279 C 
ATOM     10  N   UNL A   1      35.860  34.926  31.809  1.00  0.00    -0.320 N 
ATOM     11  S   UNL A   1      35.901  33.016  33.542  1.00  0.00    -0.087 SA
ATOM     12  H   UNL A   1      36.226  34.470  30.973  1.00  0.00     0.348 HD
ATOM     13  H   UNL A   1      35.886  35.941  31.712  1.00  0.00     0.348 HD
ATOM     14  C   UNL A   1      34.243  33.646  33.234  1.00  0.00     0.151 C 
BRANCH   9  15
ATOM     15  C   UNL A   1      38.202  34.519  32.674  1.00  0.00     0.080 A 
ATOM     16  C   UNL A   1      40.051  34.299  31.051  1.00  0.00     0.161 A 
ATOM     17  C   UNL A   1      41.007  34.368  32.044  1.00  0.00     0.051 A 
ATOM     18  C   UNL A   1      38.684  34.291  31.367  1.00  0.00     0.169 A 
ATOM     19  C   UNL A   1      40.582  34.469  33.360  1.00  0.00     0.020 A 
ATOM     20  C   UNL A   1      39.208  34.544  33.678  1.00  0.00     0.032 A 
ATOM     21  Br  UNL A   1      38.898  34.582  35.563  1.00  0.00    -0.050 Br
BRANCH  16  22
ATOM     22  O   UNL A   1      40.462  34.175  29.748  1.00  0.00    -0.493 OA
ATOM     23  C   UNL A   1      41.858  34.486  29.657  1.00  0.00     0.278 C 
ENDBRANCH  16  22
BRANCH  18  24
ATOM     24  O   UNL A   1      37.823  33.961  30.350  1.00  0.00    -0.504 OA
ATOM     25  H   UNL A   1      37.269  33.209  30.430  1.00  0.00     0.293 HD
ENDBRANCH  18  24
ENDBRANCH   9  15
ENDBRANCH   5   8
ENDBRANCH   3   4
ENDBRANCH   2   3
ENDBRANCH   1   2
BRANCH   1  26
ATOM     26  C   UNL A   1      34.691  33.237  28.606  1.00  0.00     0.116 C 
BRANCH  26  27
ATOM     27  N   UNL A   1      34.078  32.161  27.840  1.00  0.00    -0.352 N 
ATOM     28  C   UNL A   1      34.561  30.893  27.622  1.00  0.00     0.251 C 
ATOM     29  H   UNL A   1      33.209  32.369  27.427  1.00  0.00     0.163 HD
ATOM     30  O   UNL A   1      33.969  30.126  26.867  1.00  0.00    -0.269 OA
BRANCH  28  31
ATOM     31  C   UNL A   1      35.828  30.486  28.267  1.00  0.00     0.039 A 
ATOM     32  C   UNL A   1      35.779  29.845  29.506  1.00  0.00     0.014 A 
ATOM     33  C   UNL A   1      37.051  30.686  27.621  1.00  0.00     0.014 A 
ATOM     34  C   UNL A   1      36.952  29.331  30.062  1.00  0.00     0.010 A 
ATOM     35  C   UNL A   1      38.206  30.113  28.143  1.00  0.00     0.010 A 
ATOM     36  C   UNL A   1      38.168  29.425  29.365  1.00  0.00    -0.014 A 
BRANCH  36  37
ATOM     37  C   UNL A   1      39.411  28.808  29.894  1.00  0.00     0.031 A 
ATOM     38  C   UNL A   1      40.082  29.396  31.105  1.00  0.00     0.074 A 
ATOM     39  C   UNL A   1      39.974  27.773  29.240  1.00  0.00     0.049 A 
ATOM     40  N   UNL A   1      41.216  29.066  31.666  1.00  0.00    -0.248 NA
ATOM     41  C   UNL A   1      39.400  30.530  31.747  1.00  0.00     0.031 C 
ATOM     42  C   UNL A   1      39.442  27.150  28.026  1.00  0.00     0.029 A 
ATOM     43  N   UNL A   1      41.124  27.069  29.495  1.00  0.00    -0.354 N 
ATOM     44  C   UNL A   1      41.393  29.960  32.716  1.00  0.00     0.074 A 
ATOM     45  C   UNL A   1      40.279  30.883  32.671  1.00  0.00     0.031 C 
ATOM     46  C   UNL A   1      40.253  26.147  27.655  1.00  0.00     0.029 A 
ATOM     47  C   UNL A   1      41.381  26.077  28.578  1.00  0.00     0.049 A 
ATOM     48  H   UNL A   1      41.710  27.256  30.265  1.00  0.00     0.167 HD
ATOM     49  C   UNL A   1      42.381  29.994  33.645  1.00  0.00     0.034 A 
ATOM     50  C   UNL A   1      42.415  25.219  28.485  1.00  0.00     0.034 A 
ATOM     51  C   UNL A   1      43.475  29.054  33.685  1.00  0.00     0.049 A 
ATOM     52  C   UNL A   1      43.504  25.275  29.526  1.00  0.00     0.074 A 
ATOM     53  C   UNL A   1      44.495  28.955  34.615  1.00  0.00     0.029 A 
ATOM     54  N   UNL A   1      43.694  28.051  32.748  1.00  0.00    -0.354 N 
ATOM     55  N   UNL A   1      43.630  26.094  30.545  1.00  0.00    -0.248 NA
ATOM     56  C   UNL A   1      44.583  24.287  29.410  1.00  0.00     0.031 C 
ATOM     57  C   UNL A   1      45.362  27.932  34.209  1.00  0.00     0.029 A 
ATOM     58  C   UNL A   1      44.847  27.348  33.063  1.00  0.00     0.049 A 
ATOM     59  H   UNL A   1      43.116  27.868  31.973  1.00  0.00     0.167 HD
ATOM     60  C   UNL A   1      44.789  25.699  31.207  1.00  0.00     0.074 A 
ATOM     61  C   UNL A   1      45.315  24.563  30.478  1.00  0.00     0.031 C 
ATOM     62  C   UNL A   1      45.364  26.225  32.317  1.00  0.00     0.034 A 
BRANCH  49  63
ATOM     63  C   UNL A   1      42.324  31.098  34.674  1.00  0.00     0.023 A 
ATOM     64  C   UNL A   1      43.103  32.263  34.548  1.00  0.00     0.031 A 
ATOM     65  C   UNL A   1      41.514  30.970  35.815  1.00  0.00     0.131 A 
ATOM     66  C   UNL A   1      43.123  33.208  35.584  1.00  0.00     0.055 A 
ATOM     67  C   UNL A   1      41.474  31.955  36.804  1.00  0.00     0.041 A 
ATOM     68  F   UNL A   1      40.763  29.873  36.001  1.00  0.00    -0.206 F 
ATOM     69  C   UNL A   1      42.295  33.075  36.700  1.00  0.00     0.022 A 
BRANCH  66  70
ATOM     70  S   UNL A   1      44.360  34.533  35.520  1.00  0.00     0.124 S 
ATOM     71  O   UNL A   1      43.531  35.695  35.207  1.00  0.00    -0.237 OA
ATOM     72  O   UNL A   1      44.929  34.498  36.863  1.00  0.00    -0.237 OA
ATOM     73  O   UNL A   1      45.260  34.111  34.449  1.00  0.00    -0.744 OA
ENDBRANCH  66  70
ENDBRANCH  49  63
BRANCH  50  74
ATOM     74  C   UNL A   1      42.482  24.234  27.369  1.00  0.00     0.023 A 
ATOM     75  C   UNL A   1      41.683  23.079  27.376  1.00  0.00     0.031 A 
ATOM     76  C   UNL A   1      43.373  24.414  26.295  1.00  0.00     0.131 A 
ATOM     77  C   UNL A   1      41.821  22.127  26.355  1.00  0.00     0.055 A 
ATOM     78  C   UNL A   1      43.472  23.486  25.257  1.00  0.00     0.041 A 
ATOM     79  F   UNL A   1      44.152  25.505  26.237  1.00  0.00    -0.206 F 
ATOM     80  C   UNL A   1      42.702  22.327  25.289  1.00  0.00     0.022 A 
BRANCH  77  81
ATOM     81  S   UNL A   1      40.882  20.580  26.477  1.00  0.00     0.124 S 
ATOM     82  O   UNL A   1      40.955  20.299  27.907  1.00  0.00    -0.237 OA
ATOM     83  O   UNL A   1      39.574  20.979  25.969  1.00  0.00    -0.237 OA
ATOM     84  O   UNL A   1      41.627  19.660  25.621  1.00  0.00    -0.744 OA
ENDBRANCH  77  81
ENDBRANCH  50  74
BRANCH  62  85
ATOM     85  C   UNL A   1      46.608  25.541  32.829  1.00  0.00     0.023 A 
ATOM     86  C   UNL A   1      46.547  24.527  33.800  1.00  0.00     0.031 A 
ATOM     87  C   UNL A   1      47.872  25.923  32.346  1.00  0.00     0.131 A 
ATOM     88  C   UNL A   1      47.732  23.965  34.297  1.00  0.00     0.055 A 
ATOM     89  C   UNL A   1      49.044  25.321  32.803  1.00  0.00     0.041 A 
ATOM     90  F   UNL A   1      47.986  26.887  31.419  1.00  0.00    -0.206 F 
ATOM     91  C   UNL A   1      48.980  24.344  33.794  1.00  0.00     0.022 A 
BRANCH  88  92
ATOM     92  S   UNL A   1      47.629  22.787  35.671  1.00  0.00     0.124 S 
ATOM     93  O   UNL A   1      48.557  21.743  35.246  1.00  0.00    -0.237 OA
ATOM     94  O   UNL A   1      48.057  23.595  36.808  1.00  0.00    -0.237 OA
ATOM     95  O   UNL A   1      46.221  22.397  35.685  1.00  0.00    -0.744 OA
ENDBRANCH  88  92
ENDBRANCH  62  85
ENDBRANCH  36  37
ENDBRANCH  28  31
ENDBRANCH  26  27
ENDBRANCH   1  26
TORSDOF 17
ENDMDL
MODEL 2
REMARK VINA RESULT:     -10.3      4.509      7.615
REMARK SMILES COc1ccc(Br)c([C@H]2[NH2+][C@H](C(=O)NCCCCNC(=O)c3ccc(-c4c5nc(c(-c6cc(S(=O)(=O)[O-])ccc6F)c6ccc([nH]6)c(-c6cc(S(=O)(=O)[O-])ccc6F)c6nc(c(-c7cc(S(=O)(=O)[O-])ccc7F)c7ccc4[nH]7)C=C6)C=C5)cc3)CS2)c1O
REMARK SMILES IDX 17 1 16 2 15 3 14 4 12 5 13 6 11 8 9 9 10 10 86 11 85 14
REMARK SMILES IDX 8 15 3 16 4 17 87 18 5 19 6 20 7 21 2 22 1 23 88 24 18 26
REMARK SMILES IDX 19 27 20 28 21 30 22 31 23 32 84 33 24 34 83 35 25 36 26 37
REMARK SMILES IDX 27 38 77 39 28 40 82 41 76 42 78 43 29 44 81 45 75 46 74 47
REMARK SMILES IDX 30 49 62 50 42 51 61 52 43 53 46 54 60 55 79 56 44 57 45 58
REMARK SMILES IDX 59 60 80 61 47 62 31 63 32 64 40 65 33 66 39 67 41 68 38 69
REMARK SMILES IDX 34 70 35 71 36 72 37 73 63 74 64 75 72 76 65 77 71 78 73 79
REMARK SMILES IDX 70 80 66 81 67 82 68 83 69 84 48 85 49 86 57 87 50 88 56 89
REMARK SMILES IDX 58 90 55 91 51 92 52 93 53 94 54 95
REMARK H PARENT 14 7 10 12 10 13 88 25 19 29 78 48 46 59
REMARK Flexibility Score: inf
ROOT
ATOM      1  C   UNL A   1      31.797  29.315  25.254  1.00  0.00     0.023 C 
ENDROOT
BRANCH   1   2
ATOM      2  C   UNL A   1      32.124  29.318  23.761  1.00  0.00     0.023 C 
BRANCH   2   3
ATOM      3  C   UNL A   1      31.380  28.271  22.937  1.00  0.00     0.116 C 
BRANCH   3   4
ATOM      4  N   UNL A   1      32.266  27.505  22.086  1.00  0.00    -0.351 N 
ATOM      5  C   UNL A   1      32.945  26.347  22.319  1.00  0.00     0.279 C 
ATOM      6  O   UNL A   1      33.646  25.912  21.396  1.00  0.00    -0.268 OA
ATOM      7  H   UNL A   1      32.399  27.884  21.187  1.00  0.00     0.163 HD
BRANCH   5   8
ATOM      8  C   UNL A   1      32.855  25.566  23.641  1.00  0.00     0.283 C 
ATOM      9  C   UNL A   1      34.296  23.714  24.314  1.00  0.00     0.279 C 
ATOM     10  N   UNL A   1      33.187  24.131  23.450  1.00  0.00    -0.320 N 
ATOM     11  S   UNL A   1      34.070  24.768  25.788  1.00  0.00    -0.087 SA
ATOM     12  H   UNL A   1      32.365  23.568  23.672  1.00  0.00     0.348 HD
ATOM     13  H   UNL A   1      33.470  23.995  22.479  1.00  0.00     0.348 HD
ATOM     14  C   UNL A   1      33.598  26.200  24.804  1.00  0.00     0.151 C 
BRANCH   9  15
ATOM     15  C   UNL A   1      34.413  22.199  24.527  1.00  0.00     0.080 A 
ATOM     16  C   UNL A   1      33.312  20.011  24.848  1.00  0.00     0.161 A 
ATOM     17  C   UNL A   1      34.521  19.361  25.001  1.00  0.00     0.051 A 
ATOM     18  C   UNL A   1      33.259  21.406  24.699  1.00  0.00     0.169 A 
ATOM     19  C   UNL A   1      35.683  20.116  24.963  1.00  0.00     0.020 A 
ATOM     20  C   UNL A   1      35.640  21.509  24.731  1.00  0.00     0.032 A 
ATOM     21  Br  UNL A   1      37.369  22.316  24.822  1.00  0.00    -0.050 Br
BRANCH  16  22
ATOM     22  O   UNL A   1      32.156  19.275  24.909  1.00  0.00    -0.493 OA
ATOM     23  C   UNL A   1      32.481  17.883  25.002  1.00  0.00     0.278 C 
ENDBRANCH  16  22
BRANCH  18  24
ATOM     24  O   UNL A   1      32.020  21.985  24.815  1.00  0.00    -0.504 OA
ATOM     25  H   UNL A   1      31.926  22.913  24.716  1.00  0.00     0.293 HD
ENDBRANCH  18  24
ENDBRANCH   9  15
ENDBRANCH   5   8
ENDBRANCH   3   4
ENDBRANCH   2   3
ENDBRANCH   1   2
BRANCH   1  26
ATOM     26  C   UNL A   1      32.911  29.823  26.163  1.00  0.00     0.116 C 
BRANCH  26  27
ATOM     27  N   UNL A   1      32.711  31.189  26.625  1.00  0.00    -0.352 N 
ATOM     28  C   UNL A   1      33.516  31.929  27.459  1.00  0.00     0.251 C 
ATOM     29  H   UNL A   1      31.898  31.639  26.299  1.00  0.00     0.163 HD
ATOM     30  O   UNL A   1      33.159  33.041  27.836  1.00  0.00    -0.269 OA
BRANCH  28  31
ATOM     31  C   UNL A   1      34.788  31.344  27.933  1.00  0.00     0.039 A 
ATOM     32  C   UNL A   1      35.917  32.161  28.017  1.00  0.00     0.014 A 
ATOM     33  C   UNL A   1      34.847  30.011  28.348  1.00  0.00     0.014 A 
ATOM     34  C   UNL A   1      37.087  31.663  28.593  1.00  0.00     0.010 A 
ATOM     35  C   UNL A   1      35.991  29.538  28.984  1.00  0.00     0.010 A 
ATOM     36  C   UNL A   1      37.120  30.361  29.119  1.00  0.00    -0.014 A 
BRANCH  36  37
ATOM     37  C   UNL A   1      38.323  29.839  29.815  1.00  0.00     0.031 A 
ATOM     38  C   UNL A   1      38.668  30.339  31.192  1.00  0.00     0.074 A 
ATOM     39  C   UNL A   1      39.142  28.979  29.180  1.00  0.00     0.049 A 
ATOM     40  N   UNL A   1      39.716  30.080  31.928  1.00  0.00    -0.248 NA
ATOM     41  C   UNL A   1      37.720  31.283  31.802  1.00  0.00     0.031 C 
ATOM     42  C   UNL A   1      38.939  28.462  27.824  1.00  0.00     0.029 A 
ATOM     43  N   UNL A   1      40.317  28.395  29.582  1.00  0.00    -0.354 N 
ATOM     44  C   UNL A   1      39.565  30.842  33.082  1.00  0.00     0.074 A 
ATOM     45  C   UNL A   1      38.353  31.617  32.915  1.00  0.00     0.031 C 
ATOM     46  C   UNL A   1      39.943  27.625  27.517  1.00  0.00     0.029 A 
ATOM     47  C   UNL A   1      40.882  27.575  28.633  1.00  0.00     0.049 A 
ATOM     48  H   UNL A   1      40.719  28.549  30.468  1.00  0.00     0.167 HD
ATOM     49  C   UNL A   1      40.350  30.874  34.187  1.00  0.00     0.034 A 
ATOM     50  C   UNL A   1      42.031  26.872  28.656  1.00  0.00     0.034 A 
ATOM     51  C   UNL A   1      41.546  30.080  34.344  1.00  0.00     0.049 A 
ATOM     52  C   UNL A   1      42.891  26.924  29.893  1.00  0.00     0.074 A 
ATOM     53  C   UNL A   1      42.382  29.986  35.442  1.00  0.00     0.029 A 
ATOM     54  N   UNL A   1      42.078  29.247  33.367  1.00  0.00    -0.354 N 
ATOM     55  N   UNL A   1      42.706  27.608  30.999  1.00  0.00    -0.248 NA
ATOM     56  C   UNL A   1      44.107  26.102  29.889  1.00  0.00     0.031 C 
ATOM     57  C   UNL A   1      43.450  29.143  35.110  1.00  0.00     0.029 A 
ATOM     58  C   UNL A   1      43.245  28.656  33.828  1.00  0.00     0.049 A 
ATOM     59  H   UNL A   1      41.684  29.098  32.478  1.00  0.00     0.167 HD
ATOM     60  C   UNL A   1      43.771  27.277  31.831  1.00  0.00     0.074 A 
ATOM     61  C   UNL A   1      44.583  26.322  31.105  1.00  0.00     0.031 C 
ATOM     62  C   UNL A   1      44.050  27.716  33.084  1.00  0.00     0.034 A 
BRANCH  49  63
ATOM     63  C   UNL A   1      39.945  31.815  35.296  1.00  0.00     0.023 A 
ATOM     64  C   UNL A   1      39.121  31.396  36.356  1.00  0.00     0.031 A 
ATOM     65  C   UNL A   1      40.352  33.161  35.274  1.00  0.00     0.131 A 
ATOM     66  C   UNL A   1      38.660  32.327  37.298  1.00  0.00     0.055 A 
ATOM     67  C   UNL A   1      39.958  34.065  36.263  1.00  0.00     0.041 A 
ATOM     68  F   UNL A   1      41.123  33.626  34.279  1.00  0.00    -0.206 F 
ATOM     69  C   UNL A   1      39.093  33.654  37.273  1.00  0.00     0.022 A 
BRANCH  66  70
ATOM     70  S   UNL A   1      37.368  31.812  38.461  1.00  0.00     0.124 S 
ATOM     71  O   UNL A   1      38.021  32.042  39.748  1.00  0.00    -0.237 OA
ATOM     72  O   UNL A   1      36.270  32.714  38.132  1.00  0.00    -0.237 OA
ATOM     73  O   UNL A   1      37.144  30.407  38.125  1.00  0.00    -0.744 OA
ENDBRANCH  66  70
ENDBRANCH  49  63
BRANCH  50  74
ATOM     74  C   UNL A   1      42.444  26.060  27.477  1.00  0.00     0.023 A 
ATOM     75  C   UNL A   1      42.057  24.716  27.353  1.00  0.00     0.031 A 
ATOM     76  C   UNL A   1      43.265  26.606  26.474  1.00  0.00     0.131 A 
ATOM     77  C   UNL A   1      42.525  23.950  26.275  1.00  0.00     0.055 A 
ATOM     78  C   UNL A   1      43.689  25.853  25.378  1.00  0.00     0.041 A 
ATOM     79  F   UNL A   1      43.656  27.888  26.541  1.00  0.00    -0.206 F 
ATOM     80  C   UNL A   1      43.329  24.512  25.280  1.00  0.00     0.022 A 
BRANCH  77  81
ATOM     81  S   UNL A   1      42.126  22.182  26.228  1.00  0.00     0.124 S 
ATOM     82  O   UNL A   1      42.838  21.747  25.031  1.00  0.00    -0.237 OA
ATOM     83  O   UNL A   1      42.667  21.716  27.501  1.00  0.00    -0.237 OA
ATOM     84  O   UNL A   1      40.668  22.163  26.129  1.00  0.00    -0.744 OA
ENDBRANCH  77  81
ENDBRANCH  50  74
BRANCH  62  85
ATOM     85  C   UNL A   1      45.266  27.131  33.757  1.00  0.00     0.023 A 
ATOM     86  C   UNL A   1      45.200  25.934  34.492  1.00  0.00     0.031 A 
ATOM     87  C   UNL A   1      46.505  27.790  33.672  1.00  0.00     0.131 A 
ATOM     88  C   UNL A   1      46.341  25.460  35.157  1.00  0.00     0.055 A 
ATOM     89  C   UNL A   1      47.650  27.284  34.289  1.00  0.00     0.041 A 
ATOM     90  F   UNL A   1      46.623  28.937  32.983  1.00  0.00    -0.206 F 
ATOM     91  C   UNL A   1      47.569  26.120  35.048  1.00  0.00     0.022 A 
BRANCH  88  92
ATOM     92  S   UNL A   1      46.181  24.013  36.237  1.00  0.00     0.124 S 
ATOM     93  O   UNL A   1      44.888  24.249  36.871  1.00  0.00    -0.237 OA
ATOM     94  O   UNL A   1      46.234  22.907  35.287  1.00  0.00    -0.237 OA
ATOM     95  O   UNL A   1      47.336  24.119  37.127  1.00  0.00    -0.744 OA
ENDBRANCH  88  92
ENDBRANCH  62  85
ENDBRANCH  36  37
ENDBRANCH  28  31
ENDBRANCH  26  27
ENDBRANCH   1  26
TORSDOF 17
ENDMDL
MODEL 3
REMARK VINA RESULT:     -10.1      4.285      7.112
REMARK SMILES COc1ccc(Br)c([C@H]2[NH2+][C@H](C(=O)NCCCCNC(=O)c3ccc(-c4c5nc(c(-c6cc(S(=O)(=O)[O-])ccc6F)c6ccc([nH]6)c(-c6cc(S(=O)(=O)[O-])ccc6F)c6nc(c(-c7cc(S(=O)(=O)[O-])ccc7F)c7ccc4[nH]7)C=C6)C=C5)cc3)CS2)c1O
REMARK SMILES IDX 17 1 16 2 15 3 14 4 12 5 13 6 11 8 9 9 10 10 86 11 85 14
REMARK SMILES IDX 8 15 3 16 4 17 87 18 5 19 6 20 7 21 2 22 1 23 88 24 18 26
REMARK SMILES IDX 19 27 20 28 21 30 22 31 23 32 84 33 24 34 83 35 25 36 26 37
REMARK SMILES IDX 27 38 77 39 28 40 82 41 76 42 78 43 29 44 81 45 75 46 74 47
REMARK SMILES IDX 30 49 62 50 42 51 61 52 43 53 46 54 60 55 79 56 44 57 45 58
REMARK SMILES IDX 59 60 80 61 47 62 31 63 32 64 40 65 33 66 39 67 41 68 38 69
REMARK SMILES IDX 34 70 35 71 36 72 37 73 63 74 64 75 72 76 65 77 71 78 73 79
REMARK SMILES IDX 70 80 66 81 67 82 68 83 69 84 48 85 49 86 57 87 50 88 56 89
REMARK SMILES IDX 58 90 55 91 51 92 52 93 53 94 54 95
REMARK H PARENT 14 7 10 12 10 13 88 25 19 29 78 48 46 59
REMARK Flexibility Score: inf
ROOT
ATOM      1  C   UNL A   1      32.203  28.778  27.125  1.00  0.00     0.023 C 
ENDROOT
BRANCH   1   2
ATOM      2  C   UNL A   1      32.107  27.381  26.512  1.00  0.00     0.023 C 
BRANCH   2   3
ATOM      3  C   UNL A   1      30.725  27.001  25.989  1.00  0.00     0.116 C 
BRANCH   3   4
ATOM      4  N   UNL A   1      30.299  25.696  26.451  1.00  0.00    -0.351 N 
ATOM      5  C   UNL A   1      30.635  24.446  26.025  1.00  0.00     0.279 C 
ATOM      6  O   UNL A   1      30.104  23.493  26.610  1.00  0.00    -0.268 OA
ATOM      7  H   UNL A   1      29.659  25.716  27.199  1.00  0.00     0.163 HD
BRANCH   5   8
ATOM      8  C   UNL A   1      31.641  24.181  24.893  1.00  0.00     0.283 C 
ATOM      9  C   UNL A   1      33.222  22.324  24.784  1.00  0.00     0.279 C 
ATOM     10  N   UNL A   1      32.910  23.611  25.414  1.00  0.00    -0.320 N 
ATOM     11  S   UNL A   1      32.527  22.522  23.108  1.00  0.00    -0.087 SA
ATOM     12  H   UNL A   1      33.669  24.265  25.224  1.00  0.00     0.348 HD
ATOM     13  H   UNL A   1      32.803  23.459  26.417  1.00  0.00     0.348 HD
ATOM     14  C   UNL A   1      31.080  23.406  23.713  1.00  0.00     0.151 C 
BRANCH   9  15
ATOM     15  C   UNL A   1      34.687  21.886  24.905  1.00  0.00     0.080 A 
ATOM     16  C   UNL A   1      37.078  22.493  25.046  1.00  0.00     0.161 A 
ATOM     17  C   UNL A   1      37.472  21.170  25.058  1.00  0.00     0.051 A 
ATOM     18  C   UNL A   1      35.727  22.840  24.890  1.00  0.00     0.169 A 
ATOM     19  C   UNL A   1      36.495  20.192  24.952  1.00  0.00     0.020 A 
ATOM     20  C   UNL A   1      35.127  20.534  24.877  1.00  0.00     0.032 A 
ATOM     21  Br  UNL A   1      34.006  19.005  24.643  1.00  0.00    -0.050 Br
BRANCH  16  22
ATOM     22  O   UNL A   1      38.040  23.468  25.127  1.00  0.00    -0.493 OA
ATOM     23  C   UNL A   1      38.100  23.969  26.468  1.00  0.00     0.278 C 
ENDBRANCH  16  22
BRANCH  18  24
ATOM     24  O   UNL A   1      35.463  24.162  24.631  1.00  0.00    -0.504 OA
ATOM     25  H   UNL A   1      34.599  24.501  24.761  1.00  0.00     0.293 HD
ENDBRANCH  18  24
ENDBRANCH   9  15
ENDBRANCH   5   8
ENDBRANCH   3   4
ENDBRANCH   2   3
ENDBRANCH   1   2
BRANCH   1  26
ATOM     26  C   UNL A   1      33.159  29.732  26.417  1.00  0.00     0.116 C 
BRANCH  26  27
ATOM     27  N   UNL A   1      33.035  31.115  26.855  1.00  0.00    -0.352 N 
ATOM     28  C   UNL A   1      33.904  31.837  27.639  1.00  0.00     0.251 C 
ATOM     29  H   UNL A   1      32.229  31.592  26.553  1.00  0.00     0.163 HD
ATOM     30  O   UNL A   1      33.610  32.971  28.005  1.00  0.00    -0.269 OA
BRANCH  28  31
ATOM     31  C   UNL A   1      35.169  31.209  28.075  1.00  0.00     0.039 A 
ATOM     32  C   UNL A   1      36.350  31.951  28.007  1.00  0.00     0.014 A 
ATOM     33  C   UNL A   1      35.176  29.915  28.602  1.00  0.00     0.014 A 
ATOM     34  C   UNL A   1      37.526  31.424  28.543  1.00  0.00     0.010 A 
ATOM     35  C   UNL A   1      36.333  29.420  29.198  1.00  0.00     0.010 A 
ATOM     36  C   UNL A   1      37.517  30.172  29.179  1.00  0.00    -0.014 A 
BRANCH  36  37
ATOM     37  C   UNL A   1      38.735  29.630  29.835  1.00  0.00     0.031 A 
ATOM     38  C   UNL A   1      39.150  30.144  31.187  1.00  0.00     0.074 A 
ATOM     39  C   UNL A   1      39.504  28.737  29.182  1.00  0.00     0.049 A 
ATOM     40  N   UNL A   1      40.221  29.870  31.884  1.00  0.00    -0.248 NA
ATOM     41  C   UNL A   1      38.253  31.124  31.819  1.00  0.00     0.031 C 
ATOM     42  C   UNL A   1      39.231  28.203  27.846  1.00  0.00     0.029 A 
ATOM     43  N   UNL A   1      40.679  28.130  29.546  1.00  0.00    -0.354 N 
ATOM     44  C   UNL A   1      40.138  30.655  33.029  1.00  0.00     0.074 A 
ATOM     45  C   UNL A   1      38.941  31.460  32.898  1.00  0.00     0.031 C 
ATOM     46  C   UNL A   1      40.199  27.335  27.513  1.00  0.00     0.029 A 
ATOM     47  C   UNL A   1      41.182  27.278  28.590  1.00  0.00     0.049 A 
ATOM     48  H   UNL A   1      41.122  28.288  30.412  1.00  0.00     0.167 HD
ATOM     49  C   UNL A   1      40.970  30.685  34.100  1.00  0.00     0.034 A 
ATOM     50  C   UNL A   1      42.312  26.545  28.579  1.00  0.00     0.034 A 
ATOM     51  C   UNL A   1      42.149  29.863  34.221  1.00  0.00     0.049 A 
ATOM     52  C   UNL A   1      43.224  26.595  29.778  1.00  0.00     0.074 A 
ATOM     53  C   UNL A   1      43.028  29.764  35.286  1.00  0.00     0.029 A 
ATOM     54  N   UNL A   1      42.618  28.998  33.239  1.00  0.00    -0.354 N 
ATOM     55  N   UNL A   1      43.104  27.303  30.877  1.00  0.00    -0.248 NA
ATOM     56  C   UNL A   1      44.417  25.741  29.738  1.00  0.00     0.031 C 
ATOM     57  C   UNL A   1      44.059  28.887  34.925  1.00  0.00     0.029 A 
ATOM     58  C   UNL A   1      43.788  28.385  33.662  1.00  0.00     0.049 A 
ATOM     59  H   UNL A   1      42.184  28.845  32.369  1.00  0.00     0.167 HD
ATOM     60  C   UNL A   1      44.193  26.957  31.671  1.00  0.00     0.074 A 
ATOM     61  C   UNL A   1      44.949  25.968  30.929  1.00  0.00     0.031 C 
ATOM     62  C   UNL A   1      44.536  27.411  32.903  1.00  0.00     0.034 A 
BRANCH  49  63
ATOM     63  C   UNL A   1      40.636  31.656  35.207  1.00  0.00     0.023 A 
ATOM     64  C   UNL A   1      39.627  31.383  36.148  1.00  0.00     0.031 A 
ATOM     65  C   UNL A   1      41.305  32.889  35.301  1.00  0.00     0.131 A 
ATOM     66  C   UNL A   1      39.256  32.361  37.083  1.00  0.00     0.055 A 
ATOM     67  C   UNL A   1      40.989  33.825  36.288  1.00  0.00     0.041 A 
ATOM     68  F   UNL A   1      42.264  33.216  34.420  1.00  0.00    -0.206 F 
ATOM     69  C   UNL A   1      39.947  33.571  37.176  1.00  0.00     0.022 A 
BRANCH  66  70
ATOM     70  S   UNL A   1      37.760  32.089  38.071  1.00  0.00     0.124 S 
ATOM     71  O   UNL A   1      37.430  30.706  37.731  1.00  0.00    -0.237 OA
ATOM     72  O   UNL A   1      38.235  32.315  39.432  1.00  0.00    -0.237 OA
ATOM     73  O   UNL A   1      36.825  33.090  37.561  1.00  0.00    -0.744 OA
ENDBRANCH  66  70
ENDBRANCH  49  63
BRANCH  50  74
ATOM     74  C   UNL A   1      42.654  25.702  27.398  1.00  0.00     0.023 A 
ATOM     75  C   UNL A   1      42.256  24.357  27.330  1.00  0.00     0.031 A 
ATOM     76  C   UNL A   1      43.418  26.219  26.336  1.00  0.00     0.131 A 
ATOM     77  C   UNL A   1      42.659  23.563  26.247  1.00  0.00     0.055 A 
ATOM     78  C   UNL A   1      43.775  25.437  25.237  1.00  0.00     0.041 A 
ATOM     79  F   UNL A   1      43.816  27.501  26.349  1.00  0.00    -0.206 F 
ATOM     80  C   UNL A   1      43.406  24.096  25.194  1.00  0.00     0.022 A 
BRANCH  77  81
ATOM     81  S   UNL A   1      42.252  21.796  26.268  1.00  0.00     0.124 S 
ATOM     82  O   UNL A   1      42.550  21.438  27.650  1.00  0.00    -0.237 OA
ATOM     83  O   UNL A   1      40.841  21.805  25.898  1.00  0.00    -0.237 OA
ATOM     84  O   UNL A   1      43.152  21.226  25.267  1.00  0.00    -0.744 OA
ENDBRANCH  77  81
ENDBRANCH  50  74
BRANCH  62  85
ATOM     85  C   UNL A   1      45.763  26.804  33.535  1.00  0.00     0.023 A 
ATOM     86  C   UNL A   1      45.701  25.610  34.274  1.00  0.00     0.031 A 
ATOM     87  C   UNL A   1      47.010  27.441  33.407  1.00  0.00     0.131 A 
ATOM     88  C   UNL A   1      46.854  25.116  34.901  1.00  0.00     0.055 A 
ATOM     89  C   UNL A   1      48.166  26.916  33.987  1.00  0.00     0.041 A 
ATOM     90  F   UNL A   1      47.125  28.585  32.713  1.00  0.00    -0.206 F 
ATOM     91  C   UNL A   1      48.090  25.753  34.750  1.00  0.00     0.022 A 
BRANCH  88  92
ATOM     92  S   UNL A   1      46.705  23.674  35.989  1.00  0.00     0.124 S 
ATOM     93  O   UNL A   1      47.308  22.620  35.179  1.00  0.00    -0.237 OA
ATOM     94  O   UNL A   1      47.466  24.088  37.164  1.00  0.00    -0.237 OA
ATOM     95  O   UNL A   1      45.264  23.548  36.199  1.00  0.00    -0.744 OA
ENDBRANCH  88  92
ENDBRANCH  62  85
ENDBRANCH  36  37
ENDBRANCH  28  31
ENDBRANCH  26  27
ENDBRANCH   1  26
TORSDOF 17
ENDMDL
