MODEL 1
REMARK VINA RESULT:     -11.0      0.000      0.000
REMARK SMILES C[C@H](C(=O)NCCCCNC(=O)c1ccc(-c2c3nc(c(-c4cc(S(=O)(=O)[O-])ccc4F)c4ccc([nH]4)c(-c4cc(S(=O)(=O)[O-])ccc4F)c4nc(c(-c5cc(S(=O)(=O)[O-])ccc5F)c5ccc2[nH]5)C=C4)C=C3)cc1)[C@@H](C)[N@@H+](C)C[C@H]1C[C@H](O)C1
REMARK SMILES IDX 6 1 5 2 3 3 4 4 2 6 1 7 76 8 77 9 78 10 79 11 80 13 81 14
REMARK SMILES IDX 85 15 82 16 83 17 84 18 7 20 8 21 9 22 10 23 11 24 12 26
REMARK SMILES IDX 13 27 14 28 75 29 15 30 74 31 16 32 17 33 18 34 68 35 19 36
REMARK SMILES IDX 73 37 67 38 69 39 20 40 72 41 66 42 65 43 21 45 53 46 33 47
REMARK SMILES IDX 52 48 34 49 37 50 51 51 70 52 35 53 36 54 50 56 71 57 38 58
REMARK SMILES IDX 22 59 23 60 31 61 24 62 30 63 32 64 29 65 25 66 26 67 27 68
REMARK SMILES IDX 28 69 54 70 55 71 63 72 56 73 62 74 64 75 61 76 57 77 58 78
REMARK SMILES IDX 59 79 60 80 39 81 40 82 48 83 41 84 47 85 49 86 46 87 42 88
REMARK SMILES IDX 43 89 44 90 45 91
REMARK H PARENT 5 5 78 12 84 19 10 25 69 44 37 55
REMARK Flexibility Score: inf
ROOT
ATOM      1  C   UNL A   1      32.211  26.529  26.360  1.00  0.00     0.116 C 
ENDROOT
BRANCH   1   2
ATOM      2  N   UNL A   1      31.440  25.400  26.838  1.00  0.00    -0.356 N 
ATOM      3  C   UNL A   1      31.780  24.076  26.891  1.00  0.00     0.228 C 
ATOM      4  O   UNL A   1      30.908  23.278  27.241  1.00  0.00    -0.275 OA
ATOM      5  H   UNL A   1      30.541  25.618  27.174  1.00  0.00     0.163 HD
BRANCH   3   6
ATOM      6  C   UNL A   1      33.212  23.624  26.553  1.00  0.00     0.133 C 
ATOM      7  C   UNL A   1      33.462  22.291  27.285  1.00  0.00     0.024 C 
BRANCH   6   8
ATOM      8  C   UNL A   1      33.498  23.451  25.025  1.00  0.00     0.192 C 
ATOM      9  C   UNL A   1      34.954  23.135  24.669  1.00  0.00     0.076 C 
BRANCH   8  10
ATOM     10  N   UNL A   1      32.545  22.588  24.282  1.00  0.00    -0.334 N 
ATOM     11  C   UNL A   1      31.489  23.300  23.570  1.00  0.00     0.332 C 
ATOM     12  H   UNL A   1      32.150  22.159  25.119  1.00  0.00     0.348 HD
BRANCH  10  13
ATOM     13  C   UNL A   1      32.970  21.352  23.620  1.00  0.00     0.265 C 
BRANCH  13  14
ATOM     14  C   UNL A   1      32.322  20.045  24.081  1.00  0.00     0.049 C 
ATOM     15  C   UNL A   1      33.223  19.265  25.082  1.00  0.00     0.041 C 
ATOM     16  C   UNL A   1      32.394  18.790  23.175  1.00  0.00     0.041 C 
ATOM     17  C   UNL A   1      32.805  17.953  24.398  1.00  0.00     0.115 C 
BRANCH  17  18
ATOM     18  O   UNL A   1      31.770  17.189  25.040  1.00  0.00    -0.393 OA
ATOM     19  H   UNL A   1      31.651  16.347  24.571  1.00  0.00     0.210 HD
ENDBRANCH  17  18
ENDBRANCH  13  14
ENDBRANCH  10  13
ENDBRANCH   8  10
ENDBRANCH   6   8
ENDBRANCH   3   6
ENDBRANCH   1   2
BRANCH   1  20
ATOM     20  C   UNL A   1      31.764  27.841  27.007  1.00  0.00     0.023 C 
BRANCH  20  21
ATOM     21  C   UNL A   1      31.520  28.973  26.026  1.00  0.00     0.023 C 
BRANCH  21  22
ATOM     22  C   UNL A   1      32.684  29.938  25.895  1.00  0.00     0.116 C 
BRANCH  22  23
ATOM     23  N   UNL A   1      32.364  31.296  26.317  1.00  0.00    -0.352 N 
ATOM     24  C   UNL A   1      33.052  32.106  27.192  1.00  0.00     0.251 C 
ATOM     25  H   UNL A   1      31.549  31.686  25.925  1.00  0.00     0.163 HD
ATOM     26  O   UNL A   1      32.573  33.179  27.543  1.00  0.00    -0.269 OA
BRANCH  24  27
ATOM     27  C   UNL A   1      34.347  31.639  27.730  1.00  0.00     0.039 A 
ATOM     28  C   UNL A   1      35.382  32.558  27.920  1.00  0.00     0.014 A 
ATOM     29  C   UNL A   1      34.506  30.307  28.115  1.00  0.00     0.014 A 
ATOM     30  C   UNL A   1      36.552  32.146  28.561  1.00  0.00     0.010 A 
ATOM     31  C   UNL A   1      35.613  29.935  28.863  1.00  0.00     0.010 A 
ATOM     32  C   UNL A   1      36.663  30.841  29.068  1.00  0.00    -0.014 A 
BRANCH  32  33
ATOM     33  C   UNL A   1      37.896  30.376  29.753  1.00  0.00     0.031 A 
ATOM     34  C   UNL A   1      38.161  30.815  31.171  1.00  0.00     0.074 A 
ATOM     35  C   UNL A   1      38.794  29.618  29.093  1.00  0.00     0.049 A 
ATOM     36  N   UNL A   1      39.195  30.579  31.935  1.00  0.00    -0.248 NA
ATOM     37  C   UNL A   1      37.146  31.681  31.795  1.00  0.00     0.031 C 
ATOM     38  C   UNL A   1      38.679  29.189  27.698  1.00  0.00     0.029 A 
ATOM     39  N   UNL A   1      39.981  29.070  29.509  1.00  0.00    -0.354 N 
ATOM     40  C   UNL A   1      38.968  31.291  33.109  1.00  0.00     0.074 A 
ATOM     41  C   UNL A   1      37.745  32.036  32.919  1.00  0.00     0.031 C 
ATOM     42  C   UNL A   1      39.728  28.406  27.390  1.00  0.00     0.029 A 
ATOM     43  C   UNL A   1      40.606  28.307  28.550  1.00  0.00     0.049 A 
ATOM     44  H   UNL A   1      40.351  29.212  30.411  1.00  0.00     0.167 HD
ATOM     45  C   UNL A   1      39.690  31.292  34.257  1.00  0.00     0.034 A 
ATOM     46  C   UNL A   1      41.752  27.601  28.610  1.00  0.00     0.034 A 
ATOM     47  C   UNL A   1      40.883  30.504  34.440  1.00  0.00     0.049 A 
ATOM     48  C   UNL A   1      42.520  27.583  29.908  1.00  0.00     0.074 A 
ATOM     49  C   UNL A   1      41.663  30.368  35.573  1.00  0.00     0.029 A 
ATOM     50  N   UNL A   1      41.464  29.710  33.458  1.00  0.00    -0.354 N 
ATOM     51  N   UNL A   1      42.259  28.210  31.034  1.00  0.00    -0.248 NA
ATOM     52  C   UNL A   1      43.723  26.744  29.951  1.00  0.00     0.031 C 
ATOM     53  C   UNL A   1      42.747  29.538  35.262  1.00  0.00     0.029 A 
ATOM     54  C   UNL A   1      42.603  29.096  33.956  1.00  0.00     0.049 A 
ATOM     55  H   UNL A   1      41.118  29.600  32.543  1.00  0.00     0.167 HD
ATOM     56  C   UNL A   1      43.245  27.806  31.930  1.00  0.00     0.074 A 
ATOM     57  C   UNL A   1      44.094  26.873  31.216  1.00  0.00     0.031 C 
ATOM     58  C   UNL A   1      43.433  28.167  33.225  1.00  0.00     0.034 A 
BRANCH  45  59
ATOM     59  C   UNL A   1      39.209  32.183  35.379  1.00  0.00     0.023 A 
ATOM     60  C   UNL A   1      39.648  33.514  35.509  1.00  0.00     0.031 A 
ATOM     61  C   UNL A   1      38.343  31.681  36.366  1.00  0.00     0.131 A 
ATOM     62  C   UNL A   1      39.303  34.260  36.646  1.00  0.00     0.055 A 
ATOM     63  C   UNL A   1      37.926  32.462  37.446  1.00  0.00     0.041 A 
ATOM     64  F   UNL A   1      37.905  30.414  36.311  1.00  0.00    -0.206 F 
ATOM     65  C   UNL A   1      38.422  33.753  37.602  1.00  0.00     0.022 A 
BRANCH  62  66
ATOM     66  S   UNL A   1      40.157  35.833  36.939  1.00  0.00     0.124 S 
ATOM     67  O   UNL A   1      41.557  35.412  36.936  1.00  0.00    -0.237 OA
ATOM     68  O   UNL A   1      39.732  36.641  35.803  1.00  0.00    -0.237 OA
ATOM     69  O   UNL A   1      39.646  36.264  38.239  1.00  0.00    -0.744 OA
ENDBRANCH  62  66
ENDBRANCH  45  59
BRANCH  46  70
ATOM     70  C   UNL A   1      42.231  26.826  27.429  1.00  0.00     0.023 A 
ATOM     71  C   UNL A   1      41.933  25.460  27.296  1.00  0.00     0.031 A 
ATOM     72  C   UNL A   1      43.030  27.425  26.440  1.00  0.00     0.131 A 
ATOM     73  C   UNL A   1      42.474  24.725  26.229  1.00  0.00     0.055 A 
ATOM     74  C   UNL A   1      43.523  26.701  25.352  1.00  0.00     0.041 A 
ATOM     75  F   UNL A   1      43.337  28.730  26.513  1.00  0.00    -0.206 F 
ATOM     76  C   UNL A   1      43.258  25.338  25.250  1.00  0.00     0.022 A 
BRANCH  73  77
ATOM     77  S   UNL A   1      42.207  22.931  26.186  1.00  0.00     0.124 S 
ATOM     78  O   UNL A   1      42.833  22.567  24.920  1.00  0.00    -0.237 OA
ATOM     79  O   UNL A   1      42.902  22.494  27.394  1.00  0.00    -0.237 OA
ATOM     80  O   UNL A   1      40.753  22.801  26.225  1.00  0.00    -0.744 OA
ENDBRANCH  73  77
ENDBRANCH  46  70
BRANCH  58  81
ATOM     81  C   UNL A   1      44.566  27.497  33.964  1.00  0.00     0.023 A 
ATOM     82  C   UNL A   1      44.461  26.181  34.446  1.00  0.00     0.031 A 
ATOM     83  C   UNL A   1      45.760  28.201  34.207  1.00  0.00     0.131 A 
ATOM     84  C   UNL A   1      45.504  25.634  35.209  1.00  0.00     0.055 A 
ATOM     85  C   UNL A   1      46.820  27.626  34.908  1.00  0.00     0.041 A 
ATOM     86  F   UNL A   1      45.912  29.460  33.769  1.00  0.00    -0.206 F 
ATOM     87  C   UNL A   1      46.689  26.342  35.428  1.00  0.00     0.022 A 
BRANCH  84  88
ATOM     88  S   UNL A   1      45.244  24.028  36.007  1.00  0.00     0.124 S 
ATOM     89  O   UNL A   1      43.799  24.023  36.217  1.00  0.00    -0.237 OA
ATOM     90  O   UNL A   1      45.745  23.095  35.002  1.00  0.00    -0.237 OA
ATOM     91  O   UNL A   1      46.047  24.116  37.225  1.00  0.00    -0.744 OA
ENDBRANCH  84  88
ENDBRANCH  58  81
ENDBRANCH  32  33
ENDBRANCH  24  27
ENDBRANCH  22  23
ENDBRANCH  21  22
ENDBRANCH  20  21
ENDBRANCH   1  20
TORSDOF 19
ENDMDL
MODEL 2
REMARK VINA RESULT:     -10.6      1.974      3.219
REMARK SMILES C[C@H](C(=O)NCCCCNC(=O)c1ccc(-c2c3nc(c(-c4cc(S(=O)(=O)[O-])ccc4F)c4ccc([nH]4)c(-c4cc(S(=O)(=O)[O-])ccc4F)c4nc(c(-c5cc(S(=O)(=O)[O-])ccc5F)c5ccc2[nH]5)C=C4)C=C3)cc1)[C@@H](C)[N@@H+](C)C[C@H]1C[C@H](O)C1
REMARK SMILES IDX 6 1 5 2 3 3 4 4 2 6 1 7 76 8 77 9 78 10 79 11 80 13 81 14
REMARK SMILES IDX 85 15 82 16 83 17 84 18 7 20 8 21 9 22 10 23 11 24 12 26
REMARK SMILES IDX 13 27 14 28 75 29 15 30 74 31 16 32 17 33 18 34 68 35 19 36
REMARK SMILES IDX 73 37 67 38 69 39 20 40 72 41 66 42 65 43 21 45 53 46 33 47
REMARK SMILES IDX 52 48 34 49 37 50 51 51 70 52 35 53 36 54 50 56 71 57 38 58
REMARK SMILES IDX 22 59 23 60 31 61 24 62 30 63 32 64 29 65 25 66 26 67 27 68
REMARK SMILES IDX 28 69 54 70 55 71 63 72 56 73 62 74 64 75 61 76 57 77 58 78
REMARK SMILES IDX 59 79 60 80 39 81 40 82 48 83 41 84 47 85 49 86 46 87 42 88
REMARK SMILES IDX 43 89 44 90 45 91
REMARK H PARENT 5 5 78 12 84 19 10 25 69 44 37 55
REMARK Flexibility Score: inf
ROOT
ATOM      1  C   UNL A   1      32.020  26.973  26.547  1.00  0.00     0.116 C 
ENDROOT
BRANCH   1   2
ATOM      2  N   UNL A   1      31.072  25.929  26.877  1.00  0.00    -0.356 N 
ATOM      3  C   UNL A   1      31.013  24.637  26.431  1.00  0.00     0.228 C 
ATOM      4  O   UNL A   1      30.041  23.960  26.774  1.00  0.00    -0.275 OA
ATOM      5  H   UNL A   1      30.368  26.187  27.515  1.00  0.00     0.163 HD
BRANCH   3   6
ATOM      6  C   UNL A   1      32.145  24.059  25.562  1.00  0.00     0.133 C 
ATOM      7  C   UNL A   1      32.262  22.558  25.893  1.00  0.00     0.024 C 
BRANCH   6   8
ATOM      8  C   UNL A   1      31.947  24.248  24.022  1.00  0.00     0.192 C 
ATOM      9  C   UNL A   1      30.580  23.816  23.485  1.00  0.00     0.076 C 
BRANCH   8  10
ATOM     10  N   UNL A   1      32.372  25.560  23.471  1.00  0.00    -0.334 N 
ATOM     11  C   UNL A   1      33.773  25.901  23.691  1.00  0.00     0.332 C 
ATOM     12  H   UNL A   1      31.793  26.109  24.107  1.00  0.00     0.348 HD
BRANCH  10  13
ATOM     13  C   UNL A   1      31.828  26.088  22.218  1.00  0.00     0.265 C 
BRANCH  13  14
ATOM     14  C   UNL A   1      30.833  27.247  22.313  1.00  0.00     0.049 C 
ATOM     15  C   UNL A   1      31.528  28.587  22.692  1.00  0.00     0.041 C 
ATOM     16  C   UNL A   1      29.984  27.427  23.596  1.00  0.00     0.041 C 
ATOM     17  C   UNL A   1      30.329  28.925  23.593  1.00  0.00     0.115 C 
BRANCH  17  18
ATOM     18  O   UNL A   1      29.342  29.819  23.051  1.00  0.00    -0.393 OA
ATOM     19  H   UNL A   1      28.455  29.479  23.249  1.00  0.00     0.210 HD
ENDBRANCH  17  18
ENDBRANCH  13  14
ENDBRANCH  10  13
ENDBRANCH   8  10
ENDBRANCH   6   8
ENDBRANCH   3   6
ENDBRANCH   1   2
BRANCH   1  20
ATOM     20  C   UNL A   1      31.961  28.134  27.541  1.00  0.00     0.023 C 
BRANCH  20  21
ATOM     21  C   UNL A   1      31.763  29.496  26.904  1.00  0.00     0.023 C 
BRANCH  21  22
ATOM     22  C   UNL A   1      33.053  30.262  26.672  1.00  0.00     0.116 C 
BRANCH  22  23
ATOM     23  N   UNL A   1      32.968  31.670  27.039  1.00  0.00    -0.352 N 
ATOM     24  C   UNL A   1      33.847  32.414  27.794  1.00  0.00     0.251 C 
ATOM     25  H   UNL A   1      32.178  32.153  26.703  1.00  0.00     0.163 HD
ATOM     26  O   UNL A   1      33.559  33.559  28.123  1.00  0.00    -0.269 OA
BRANCH  24  27
ATOM     27  C   UNL A   1      35.114  31.792  28.233  1.00  0.00     0.039 A 
ATOM     28  C   UNL A   1      36.282  32.557  28.252  1.00  0.00     0.014 A 
ATOM     29  C   UNL A   1      35.124  30.476  28.698  1.00  0.00     0.014 A 
ATOM     30  C   UNL A   1      37.446  32.014  28.802  1.00  0.00     0.010 A 
ATOM     31  C   UNL A   1      36.242  29.988  29.358  1.00  0.00     0.010 A 
ATOM     32  C   UNL A   1      37.426  30.739  29.390  1.00  0.00    -0.014 A 
BRANCH  32  33
ATOM     33  C   UNL A   1      38.648  30.137  29.982  1.00  0.00     0.031 A 
ATOM     34  C   UNL A   1      39.076  30.551  31.367  1.00  0.00     0.074 A 
ATOM     35  C   UNL A   1      39.395  29.275  29.265  1.00  0.00     0.049 A 
ATOM     36  N   UNL A   1      40.134  30.200  32.050  1.00  0.00    -0.248 NA
ATOM     37  C   UNL A   1      38.223  31.534  32.056  1.00  0.00     0.031 C 
ATOM     38  C   UNL A   1      39.118  28.853  27.890  1.00  0.00     0.029 A 
ATOM     39  N   UNL A   1      40.540  28.595  29.594  1.00  0.00    -0.354 N 
ATOM     40  C   UNL A   1      40.088  30.942  33.227  1.00  0.00     0.074 A 
ATOM     41  C   UNL A   1      38.948  31.824  33.123  1.00  0.00     0.031 C 
ATOM     42  C   UNL A   1      40.040  27.951  27.512  1.00  0.00     0.029 A 
ATOM     43  C   UNL A   1      40.992  27.757  28.600  1.00  0.00     0.049 A 
ATOM     44  H   UNL A   1      40.996  28.698  30.460  1.00  0.00     0.167 HD
ATOM     45  C   UNL A   1      40.896  30.866  34.313  1.00  0.00     0.034 A 
ATOM     46  C   UNL A   1      42.049  26.922  28.579  1.00  0.00     0.034 A 
ATOM     47  C   UNL A   1      42.000  29.945  34.413  1.00  0.00     0.049 A 
ATOM     48  C   UNL A   1      42.913  26.823  29.812  1.00  0.00     0.074 A 
ATOM     49  C   UNL A   1      42.848  29.726  35.482  1.00  0.00     0.029 A 
ATOM     50  N   UNL A   1      42.403  29.082  33.401  1.00  0.00    -0.354 N 
ATOM     51  N   UNL A   1      42.818  27.483  30.945  1.00  0.00    -0.248 NA
ATOM     52  C   UNL A   1      44.010  25.849  29.772  1.00  0.00     0.031 C 
ATOM     53  C   UNL A   1      43.799  28.772  35.099  1.00  0.00     0.029 A 
ATOM     54  C   UNL A   1      43.499  28.342  33.816  1.00  0.00     0.049 A 
ATOM     55  H   UNL A   1      41.973  29.007  32.518  1.00  0.00     0.167 HD
ATOM     56  C   UNL A   1      43.821  26.972  31.765  1.00  0.00     0.074 A 
ATOM     57  C   UNL A   1      44.494  25.941  31.001  1.00  0.00     0.031 C 
ATOM     58  C   UNL A   1      44.154  27.317  33.036  1.00  0.00     0.034 A 
BRANCH  45  59
ATOM     59  C   UNL A   1      40.614  31.814  35.456  1.00  0.00     0.023 A 
ATOM     60  C   UNL A   1      39.516  31.630  36.317  1.00  0.00     0.031 A 
ATOM     61  C   UNL A   1      41.417  32.950  35.655  1.00  0.00     0.131 A 
ATOM     62  C   UNL A   1      39.195  32.612  37.267  1.00  0.00     0.055 A 
ATOM     63  C   UNL A   1      41.148  33.875  36.666  1.00  0.00     0.041 A 
ATOM     64  F   UNL A   1      42.466  33.195  34.854  1.00  0.00    -0.206 F 
ATOM     65  C   UNL A   1      40.019  33.720  37.466  1.00  0.00     0.022 A 
BRANCH  62  66
ATOM     66  S   UNL A   1      37.596  32.503  38.116  1.00  0.00     0.124 S 
ATOM     67  O   UNL A   1      36.707  33.147  37.151  1.00  0.00    -0.237 OA
ATOM     68  O   UNL A   1      37.423  31.065  38.282  1.00  0.00    -0.237 OA
ATOM     69  O   UNL A   1      37.812  33.252  39.352  1.00  0.00    -0.744 OA
ENDBRANCH  62  66
ENDBRANCH  45  59
BRANCH  46  70
ATOM     70  C   UNL A   1      42.338  26.088  27.377  1.00  0.00     0.023 A 
ATOM     71  C   UNL A   1      41.964  24.735  27.332  1.00  0.00     0.031 A 
ATOM     72  C   UNL A   1      43.029  26.616  26.273  1.00  0.00     0.131 A 
ATOM     73  C   UNL A   1      42.329  23.942  26.233  1.00  0.00     0.055 A 
ATOM     74  C   UNL A   1      43.346  25.836  25.158  1.00  0.00     0.041 A 
ATOM     75  F   UNL A   1      43.401  27.907  26.259  1.00  0.00    -0.206 F 
ATOM     76  C   UNL A   1      43.008  24.486  25.141  1.00  0.00     0.022 A 
BRANCH  73  77
ATOM     77  S   UNL A   1      41.980  22.163  26.290  1.00  0.00     0.124 S 
ATOM     78  O   UNL A   1      42.333  21.835  27.666  1.00  0.00    -0.237 OA
ATOM     79  O   UNL A   1      40.557  22.125  25.966  1.00  0.00    -0.237 OA
ATOM     80  O   UNL A   1      42.864  21.609  25.268  1.00  0.00    -0.744 OA
ENDBRANCH  73  77
ENDBRANCH  46  70
BRANCH  58  81
ATOM     81  C   UNL A   1      45.258  26.524  33.692  1.00  0.00     0.023 A 
ATOM     82  C   UNL A   1      45.029  25.252  34.243  1.00  0.00     0.031 A 
ATOM     83  C   UNL A   1      46.552  27.066  33.785  1.00  0.00     0.131 A 
ATOM     84  C   UNL A   1      46.063  24.593  34.926  1.00  0.00     0.055 A 
ATOM     85  C   UNL A   1      47.593  26.376  34.407  1.00  0.00     0.041 A 
ATOM     86  F   UNL A   1      46.825  28.277  33.276  1.00  0.00    -0.206 F 
ATOM     87  C   UNL A   1      47.347  25.140  34.997  1.00  0.00     0.022 A 
BRANCH  84  88
ATOM     88  S   UNL A   1      45.674  23.065  35.821  1.00  0.00     0.124 S 
ATOM     89  O   UNL A   1      46.337  23.286  37.103  1.00  0.00    -0.237 OA
ATOM     90  O   UNL A   1      44.215  23.082  35.847  1.00  0.00    -0.237 OA
ATOM     91  O   UNL A   1      46.267  22.020  34.989  1.00  0.00    -0.744 OA
ENDBRANCH  84  88
ENDBRANCH  58  81
ENDBRANCH  32  33
ENDBRANCH  24  27
ENDBRANCH  22  23
ENDBRANCH  21  22
ENDBRANCH  20  21
ENDBRANCH   1  20
TORSDOF 19
ENDMDL
MODEL 3
REMARK VINA RESULT:     -10.6      4.780     10.219
REMARK SMILES C[C@H](C(=O)NCCCCNC(=O)c1ccc(-c2c3nc(c(-c4cc(S(=O)(=O)[O-])ccc4F)c4ccc([nH]4)c(-c4cc(S(=O)(=O)[O-])ccc4F)c4nc(c(-c5cc(S(=O)(=O)[O-])ccc5F)c5ccc2[nH]5)C=C4)C=C3)cc1)[C@@H](C)[N@@H+](C)C[C@H]1C[C@H](O)C1
REMARK SMILES IDX 6 1 5 2 3 3 4 4 2 6 1 7 76 8 77 9 78 10 79 11 80 13 81 14
REMARK SMILES IDX 85 15 82 16 83 17 84 18 7 20 8 21 9 22 10 23 11 24 12 26
REMARK SMILES IDX 13 27 14 28 75 29 15 30 74 31 16 32 17 33 18 34 68 35 19 36
REMARK SMILES IDX 73 37 67 38 69 39 20 40 72 41 66 42 65 43 21 45 53 46 33 47
REMARK SMILES IDX 52 48 34 49 37 50 51 51 70 52 35 53 36 54 50 56 71 57 38 58
REMARK SMILES IDX 22 59 23 60 31 61 24 62 30 63 32 64 29 65 25 66 26 67 27 68
REMARK SMILES IDX 28 69 54 70 55 71 63 72 56 73 62 74 64 75 61 76 57 77 58 78
REMARK SMILES IDX 59 79 60 80 39 81 40 82 48 83 41 84 47 85 49 86 46 87 42 88
REMARK SMILES IDX 43 89 44 90 45 91
REMARK H PARENT 5 5 78 12 84 19 10 25 69 44 37 55
REMARK Flexibility Score: inf
ROOT
ATOM      1  C   UNL A   1      34.898  24.080  25.048  1.00  0.00     0.116 C 
ENDROOT
BRANCH   1   2
ATOM      2  N   UNL A   1      33.466  24.101  24.834  1.00  0.00    -0.356 N 
ATOM      3  C   UNL A   1      32.722  24.910  24.020  1.00  0.00     0.228 C 
ATOM      4  O   UNL A   1      31.495  24.812  24.086  1.00  0.00    -0.275 OA
ATOM      5  H   UNL A   1      32.954  23.436  25.348  1.00  0.00     0.163 HD
BRANCH   3   6
ATOM      6  C   UNL A   1      33.411  25.879  23.042  1.00  0.00     0.133 C 
ATOM      7  C   UNL A   1      32.857  25.587  21.633  1.00  0.00     0.024 C 
BRANCH   6   8
ATOM      8  C   UNL A   1      33.223  27.394  23.381  1.00  0.00     0.192 C 
ATOM      9  C   UNL A   1      33.817  28.367  22.359  1.00  0.00     0.076 C 
BRANCH   8  10
ATOM     10  N   UNL A   1      31.858  27.798  23.803  1.00  0.00    -0.334 N 
ATOM     11  C   UNL A   1      31.803  28.674  24.969  1.00  0.00     0.332 C 
ATOM     12  H   UNL A   1      31.575  26.858  24.082  1.00  0.00     0.348 HD
BRANCH  10  13
ATOM     13  C   UNL A   1      30.785  28.039  22.836  1.00  0.00     0.265 C 
BRANCH  13  14
ATOM     14  C   UNL A   1      29.711  29.061  23.212  1.00  0.00     0.049 C 
ATOM     15  C   UNL A   1      28.273  28.494  23.031  1.00  0.00     0.041 C 
ATOM     16  C   UNL A   1      29.310  30.162  22.198  1.00  0.00     0.041 C 
ATOM     17  C   UNL A   1      27.829  29.862  22.486  1.00  0.00     0.115 C 
BRANCH  17  18
ATOM     18  O   UNL A   1      27.155  30.738  23.406  1.00  0.00    -0.393 OA
ATOM     19  H   UNL A   1      27.808  31.290  23.865  1.00  0.00     0.210 HD
ENDBRANCH  17  18
ENDBRANCH  13  14
ENDBRANCH  10  13
ENDBRANCH   8  10
ENDBRANCH   6   8
ENDBRANCH   3   6
ENDBRANCH   1   2
BRANCH   1  20
ATOM     20  C   UNL A   1      35.656  23.622  23.801  1.00  0.00     0.023 C 
BRANCH  20  21
ATOM     21  C   UNL A   1      36.589  22.447  24.030  1.00  0.00     0.023 C 
BRANCH  21  22
ATOM     22  C   UNL A   1      36.998  22.257  25.479  1.00  0.00     0.116 C 
BRANCH  22  23
ATOM     23  N   UNL A   1      38.004  21.219  25.669  1.00  0.00    -0.352 N 
ATOM     24  C   UNL A   1      39.280  21.344  26.171  1.00  0.00     0.251 C 
ATOM     25  H   UNL A   1      37.736  20.310  25.404  1.00  0.00     0.163 HD
ATOM     26  O   UNL A   1      40.050  20.390  26.140  1.00  0.00    -0.269 OA
BRANCH  24  27
ATOM     27  C   UNL A   1      39.714  22.654  26.701  1.00  0.00     0.039 A 
ATOM     28  C   UNL A   1      40.676  22.700  27.711  1.00  0.00     0.014 A 
ATOM     29  C   UNL A   1      39.221  23.834  26.141  1.00  0.00     0.014 A 
ATOM     30  C   UNL A   1      41.190  23.935  28.110  1.00  0.00     0.010 A 
ATOM     31  C   UNL A   1      39.825  25.045  26.447  1.00  0.00     0.010 A 
ATOM     32  C   UNL A   1      40.794  25.114  27.458  1.00  0.00    -0.014 A 
BRANCH  32  33
ATOM     33  C   UNL A   1      41.325  26.441  27.862  1.00  0.00     0.031 A 
ATOM     34  C   UNL A   1      42.734  26.818  27.482  1.00  0.00     0.074 A 
ATOM     35  C   UNL A   1      40.572  27.274  28.608  1.00  0.00     0.049 A 
ATOM     36  N   UNL A   1      43.416  27.893  27.778  1.00  0.00    -0.248 NA
ATOM     37  C   UNL A   1      43.497  25.825  26.706  1.00  0.00     0.031 C 
ATOM     38  C   UNL A   1      39.220  26.990  29.093  1.00  0.00     0.029 A 
ATOM     39  N   UNL A   1      40.836  28.532  29.087  1.00  0.00    -0.354 N 
ATOM     40  C   UNL A   1      44.690  27.689  27.255  1.00  0.00     0.074 A 
ATOM     41  C   UNL A   1      44.709  26.354  26.704  1.00  0.00     0.031 C 
ATOM     42  C   UNL A   1      38.757  28.061  29.760  1.00  0.00     0.029 A 
ATOM     43  C   UNL A   1      39.789  29.093  29.781  1.00  0.00     0.049 A 
ATOM     44  H   UNL A   1      41.697  28.990  28.948  1.00  0.00     0.167 HD
ATOM     45  C   UNL A   1      45.736  28.550  27.202  1.00  0.00     0.034 A 
ATOM     46  C   UNL A   1      39.675  30.305  30.356  1.00  0.00     0.034 A 
ATOM     47  C   UNL A   1      45.679  29.895  27.717  1.00  0.00     0.049 A 
ATOM     48  C   UNL A   1      40.836  31.264  30.251  1.00  0.00     0.074 A 
ATOM     49  C   UNL A   1      46.645  30.883  27.664  1.00  0.00     0.029 A 
ATOM     50  N   UNL A   1      44.585  30.442  28.378  1.00  0.00    -0.354 N 
ATOM     51  N   UNL A   1      42.013  31.081  29.695  1.00  0.00    -0.248 NA
ATOM     52  C   UNL A   1      40.643  32.599  30.829  1.00  0.00     0.031 C 
ATOM     53  C   UNL A   1      46.159  32.007  28.341  1.00  0.00     0.029 A 
ATOM     54  C   UNL A   1      44.860  31.748  28.752  1.00  0.00     0.049 A 
ATOM     55  H   UNL A   1      43.739  29.971  28.555  1.00  0.00     0.167 HD
ATOM     56  C   UNL A   1      42.684  32.295  29.823  1.00  0.00     0.074 A 
ATOM     57  C   UNL A   1      41.773  33.201  30.494  1.00  0.00     0.031 C 
ATOM     58  C   UNL A   1      43.935  32.634  29.420  1.00  0.00     0.034 A 
BRANCH  45  59
ATOM     59  C   UNL A   1      47.018  28.047  26.580  1.00  0.00     0.023 A 
ATOM     60  C   UNL A   1      47.273  28.178  25.201  1.00  0.00     0.031 A 
ATOM     61  C   UNL A   1      47.975  27.377  27.361  1.00  0.00     0.131 A 
ATOM     62  C   UNL A   1      48.399  27.563  24.633  1.00  0.00     0.055 A 
ATOM     63  C   UNL A   1      49.142  26.849  26.804  1.00  0.00     0.041 A 
ATOM     64  F   UNL A   1      47.781  27.200  28.677  1.00  0.00    -0.206 F 
ATOM     65  C   UNL A   1      49.351  26.923  25.429  1.00  0.00     0.022 A 
BRANCH  62  66
ATOM     66  S   UNL A   1      48.512  27.466  22.826  1.00  0.00     0.124 S 
ATOM     67  O   UNL A   1      48.463  26.021  22.607  1.00  0.00    -0.237 OA
ATOM     68  O   UNL A   1      47.339  28.216  22.395  1.00  0.00    -0.237 OA
ATOM     69  O   UNL A   1      49.798  28.092  22.528  1.00  0.00    -0.744 OA
ENDBRANCH  62  66
ENDBRANCH  45  59
BRANCH  46  70
ATOM     70  C   UNL A   1      38.417  30.704  31.051  1.00  0.00     0.023 A 
ATOM     71  C   UNL A   1      37.400  31.387  30.364  1.00  0.00     0.031 A 
ATOM     72  C   UNL A   1      38.229  30.449  32.420  1.00  0.00     0.131 A 
ATOM     73  C   UNL A   1      36.267  31.839  31.057  1.00  0.00     0.055 A 
ATOM     74  C   UNL A   1      37.075  30.855  33.095  1.00  0.00     0.041 A 
ATOM     75  F   UNL A   1      39.165  29.790  33.123  1.00  0.00    -0.206 F 
ATOM     76  C   UNL A   1      36.092  31.569  32.416  1.00  0.00     0.022 A 
BRANCH  73  77
ATOM     77  S   UNL A   1      35.060  32.865  30.174  1.00  0.00     0.124 S 
ATOM     78  O   UNL A   1      35.894  33.962  29.697  1.00  0.00    -0.237 OA
ATOM     79  O   UNL A   1      34.568  31.943  29.155  1.00  0.00    -0.237 OA
ATOM     80  O   UNL A   1      34.091  33.220  31.209  1.00  0.00    -0.744 OA
ENDBRANCH  73  77
ENDBRANCH  46  70
BRANCH  58  81
ATOM     81  C   UNL A   1      44.360  34.065  29.643  1.00  0.00     0.023 A 
ATOM     82  C   UNL A   1      45.008  34.471  30.822  1.00  0.00     0.031 A 
ATOM     83  C   UNL A   1      44.088  35.039  28.665  1.00  0.00     0.131 A 
ATOM     84  C   UNL A   1      45.299  35.828  31.025  1.00  0.00     0.055 A 
ATOM     85  C   UNL A   1      44.441  36.377  28.845  1.00  0.00     0.041 A 
ATOM     86  F   UNL A   1      43.471  34.706  27.521  1.00  0.00    -0.206 F 
ATOM     87  C   UNL A   1      45.035  36.780  30.037  1.00  0.00     0.022 A 
BRANCH  84  88
ATOM     88  S   UNL A   1      45.921  36.348  32.646  1.00  0.00     0.124 S 
ATOM     89  O   UNL A   1      46.090  37.786  32.460  1.00  0.00    -0.237 OA
ATOM     90  O   UNL A   1      44.840  35.944  33.540  1.00  0.00    -0.237 OA
ATOM     91  O   UNL A   1      47.163  35.592  32.796  1.00  0.00    -0.744 OA
ENDBRANCH  84  88
ENDBRANCH  58  81
ENDBRANCH  32  33
ENDBRANCH  24  27
ENDBRANCH  22  23
ENDBRANCH  21  22
ENDBRANCH  20  21
ENDBRANCH   1  20
TORSDOF 19
ENDMDL
