MODEL 1
REMARK VINA RESULT:     -12.3      0.000      0.000
REMARK SMILES Cc1ccc2occ(/C=N/NC(=O)CCC(=O)Nc3ccc(C(=O)NCCCCNC(=O)c4ccc(-c5c6nc(c(-c7cc(S(=O)(=O)[O-])ccc7F)c7ccc([nH]7)c(-c7cc(S(=O)(=O)[O-])ccc7F)c7nc(c(-c8cc(S(=O)(=O)[O-])ccc8F)c8ccc5[nH]8)C=C7)C=C6)cc4)cc3)c(=O)c2c1
REMARK SMILES IDX 26 1 25 2 23 3 24 4 22 6 19 7 20 8 97 9 21 10 96 11 18 12
REMARK SMILES IDX 16 13 17 14 15 16 14 17 12 18 11 19 13 21 10 22 9 23 8 24
REMARK SMILES IDX 1 25 2 26 3 27 101 28 4 29 100 30 5 31 98 32 6 33 99 34 7 35
REMARK SMILES IDX 27 36 28 37 29 38 30 39 31 40 32 42 33 43 34 44 95 45 35 46
REMARK SMILES IDX 94 47 36 48 37 49 38 50 88 51 39 52 93 53 87 54 89 55 40 56
REMARK SMILES IDX 92 57 86 58 85 59 41 61 73 62 53 63 72 64 54 65 57 66 71 67
REMARK SMILES IDX 90 68 55 69 56 70 70 72 91 73 58 74 42 75 43 76 51 77 44 78
REMARK SMILES IDX 50 79 52 80 49 81 45 82 46 83 47 84 48 85 74 86 75 87 83 88
REMARK SMILES IDX 76 89 82 90 84 91 81 92 77 93 78 94 79 95 80 96 59 97 60 98
REMARK SMILES IDX 68 99 61 100 67 101 69 102 66 103 62 104 63 105 64 106
REMARK SMILES IDX 65 107
REMARK H PARENT 25 5 18 15 11 20 30 41 89 60 57 71
REMARK Flexibility Score: inf
ROOT
ATOM      1  C   UNL A   1      34.473  34.807  27.858  1.00  0.00     0.116 C 
ENDROOT
BRANCH   1   2
ATOM      2  N   UNL A   1      35.769  34.256  28.256  1.00  0.00    -0.352 N 
ATOM      3  C   UNL A   1      36.270  32.971  28.324  1.00  0.00     0.251 C 
ATOM      4  O   UNL A   1      37.450  32.813  28.633  1.00  0.00    -0.269 OA
ATOM      5  H   UNL A   1      36.418  34.942  28.533  1.00  0.00     0.163 HD
BRANCH   3   6
ATOM      6  C   UNL A   1      35.455  31.767  28.003  1.00  0.00     0.039 A 
ATOM      7  C   UNL A   1      33.878  29.536  27.220  1.00  0.00     0.041 A 
ATOM      8  C   UNL A   1      35.263  29.409  27.354  1.00  0.00     0.027 A 
ATOM      9  C   UNL A   1      33.341  30.774  27.479  1.00  0.00     0.027 A 
ATOM     10  C   UNL A   1      36.051  30.531  27.703  1.00  0.00     0.016 A 
ATOM     11  C   UNL A   1      34.082  31.821  27.983  1.00  0.00     0.016 A 
BRANCH   7  12
ATOM     12  N   UNL A   1      33.064  28.419  26.955  1.00  0.00    -0.326 N 
ATOM     13  C   UNL A   1      32.105  28.189  25.998  1.00  0.00     0.224 C 
ATOM     14  O   UNL A   1      31.335  27.236  26.174  1.00  0.00    -0.275 OA
ATOM     15  H   UNL A   1      33.210  27.663  27.570  1.00  0.00     0.169 HD
BRANCH  13  16
ATOM     16  C   UNL A   1      32.050  28.963  24.683  1.00  0.00     0.110 C 
BRANCH  16  17
ATOM     17  C   UNL A   1      30.706  29.116  23.955  1.00  0.00     0.112 C 
BRANCH  17  18
ATOM     18  C   UNL A   1      30.614  28.776  22.462  1.00  0.00     0.240 C 
ATOM     19  N   UNL A   1      30.783  27.476  22.033  1.00  0.00    -0.247 N 
ATOM     20  H   UNL A   1      30.672  27.300  21.071  1.00  0.00     0.193 HD
ATOM     21  O   UNL A   1      30.311  29.642  21.636  1.00  0.00    -0.273 OA
BRANCH  19  22
ATOM     22  N   UNL A   1      31.090  26.417  22.829  1.00  0.00    -0.180 NA
ATOM     23  C   UNL A   1      31.959  25.627  22.290  1.00  0.00     0.148 C 
BRANCH  23  24
ATOM     24  C   UNL A   1      32.718  24.596  22.996  1.00  0.00     0.078 A 
ATOM     25  C   UNL A   1      37.952  23.653  26.236  1.00  0.00     0.044 C 
ATOM     26  C   UNL A   1      36.687  23.279  25.525  1.00  0.00    -0.050 A 
ATOM     27  C   UNL A   1      36.348  21.943  25.265  1.00  0.00     0.007 A 
ATOM     28  C   UNL A   1      35.819  24.290  25.113  1.00  0.00     0.019 A 
ATOM     29  C   UNL A   1      35.163  21.621  24.590  1.00  0.00     0.048 A 
ATOM     30  C   UNL A   1      34.660  23.960  24.410  1.00  0.00     0.066 A 
ATOM     31  C   UNL A   1      34.318  22.636  24.154  1.00  0.00     0.137 A 
ATOM     32  C   UNL A   1      33.832  25.027  23.855  1.00  0.00     0.201 A 
ATOM     33  O   UNL A   1      33.185  22.278  23.460  1.00  0.00    -0.463 OA
ATOM     34  O   UNL A   1      34.085  26.209  24.052  1.00  0.00    -0.288 OA
ATOM     35  C   UNL A   1      32.455  23.291  22.875  1.00  0.00     0.209 A 
ENDBRANCH  23  24
ENDBRANCH  19  22
ENDBRANCH  17  18
ENDBRANCH  16  17
ENDBRANCH  13  16
ENDBRANCH   7  12
ENDBRANCH   3   6
ENDBRANCH   1   2
BRANCH   1  36
ATOM     36  C   UNL A   1      34.421  36.335  28.051  1.00  0.00     0.023 C 
BRANCH  36  37
ATOM     37  C   UNL A   1      33.247  36.796  28.913  1.00  0.00     0.023 C 
BRANCH  37  38
ATOM     38  C   UNL A   1      32.822  35.775  29.961  1.00  0.00     0.116 C 
BRANCH  38  39
ATOM     39  N   UNL A   1      32.345  36.374  31.197  1.00  0.00    -0.352 N 
ATOM     40  C   UNL A   1      32.806  36.136  32.477  1.00  0.00     0.251 C 
ATOM     41  H   UNL A   1      31.609  37.023  31.112  1.00  0.00     0.163 HD
ATOM     42  O   UNL A   1      32.246  36.623  33.444  1.00  0.00    -0.269 OA
BRANCH  40  43
ATOM     43  C   UNL A   1      33.964  35.226  32.649  1.00  0.00     0.039 A 
ATOM     44  C   UNL A   1      35.236  35.674  32.286  1.00  0.00     0.014 A 
ATOM     45  C   UNL A   1      33.801  33.971  33.241  1.00  0.00     0.014 A 
ATOM     46  C   UNL A   1      36.355  34.896  32.594  1.00  0.00     0.010 A 
ATOM     47  C   UNL A   1      34.921  33.232  33.613  1.00  0.00     0.010 A 
ATOM     48  C   UNL A   1      36.211  33.691  33.303  1.00  0.00    -0.014 A 
BRANCH  48  49
ATOM     49  C   UNL A   1      37.393  32.903  33.741  1.00  0.00     0.031 A 
ATOM     50  C   UNL A   1      38.144  33.298  34.982  1.00  0.00     0.074 A 
ATOM     51  C   UNL A   1      37.835  31.880  32.981  1.00  0.00     0.049 A 
ATOM     52  N   UNL A   1      39.247  32.798  35.479  1.00  0.00    -0.248 NA
ATOM     53  C   UNL A   1      37.598  34.429  35.749  1.00  0.00     0.031 C 
ATOM     54  C   UNL A   1      37.219  31.428  31.731  1.00  0.00     0.029 A 
ATOM     55  N   UNL A   1      38.910  31.042  33.140  1.00  0.00    -0.354 N 
ATOM     56  C   UNL A   1      39.536  33.561  36.606  1.00  0.00     0.074 A 
ATOM     57  C   UNL A   1      38.525  34.595  36.680  1.00  0.00     0.031 C 
ATOM     58  C   UNL A   1      37.913  30.384  31.249  1.00  0.00     0.029 A 
ATOM     59  C   UNL A   1      39.048  30.118  32.127  1.00  0.00     0.049 A 
ATOM     60  H   UNL A   1      39.527  31.096  33.906  1.00  0.00     0.167 HD
ATOM     61  C   UNL A   1      40.537  33.399  37.507  1.00  0.00     0.034 A 
ATOM     62  C   UNL A   1      39.989  29.175  31.922  1.00  0.00     0.034 A 
ATOM     63  C   UNL A   1      41.528  32.354  37.426  1.00  0.00     0.049 A 
ATOM     64  C   UNL A   1      41.103  29.024  32.928  1.00  0.00     0.074 A 
ATOM     65  C   UNL A   1      42.548  32.062  38.315  1.00  0.00     0.029 A 
ATOM     66  N   UNL A   1      41.629  31.431  36.392  1.00  0.00    -0.354 N 
ATOM     67  N   UNL A   1      41.333  29.721  34.017  1.00  0.00    -0.248 NA
ATOM     68  C   UNL A   1      42.080  27.955  32.681  1.00  0.00     0.031 C 
ATOM     69  C   UNL A   1      43.304  31.009  37.788  1.00  0.00     0.029 A 
ATOM     70  C   UNL A   1      42.712  30.591  36.607  1.00  0.00     0.049 A 
ATOM     71  H   UNL A   1      41.021  31.381  35.619  1.00  0.00     0.167 HD
ATOM     72  C   UNL A   1      42.458  29.149  34.603  1.00  0.00     0.074 A 
ATOM     73  C   UNL A   1      42.856  28.047  33.751  1.00  0.00     0.031 C 
ATOM     74  C   UNL A   1      43.100  29.498  35.747  1.00  0.00     0.034 A 
BRANCH  61  75
ATOM     75  C   UNL A   1      40.615  34.392  38.641  1.00  0.00     0.023 A 
ATOM     76  C   UNL A   1      39.891  34.211  39.833  1.00  0.00     0.031 A 
ATOM     77  C   UNL A   1      41.400  35.553  38.521  1.00  0.00     0.131 A 
ATOM     78  C   UNL A   1      39.901  35.208  40.819  1.00  0.00     0.055 A 
ATOM     79  C   UNL A   1      41.473  36.502  39.543  1.00  0.00     0.041 A 
ATOM     80  F   UNL A   1      42.098  35.793  37.400  1.00  0.00    -0.206 F 
ATOM     81  C   UNL A   1      40.707  36.341  40.694  1.00  0.00     0.022 A 
BRANCH  78  82
ATOM     82  S   UNL A   1      38.729  35.074  42.196  1.00  0.00     0.124 S 
ATOM     83  O   UNL A   1      37.447  35.069  41.494  1.00  0.00    -0.237 OA
ATOM     84  O   UNL A   1      39.119  33.817  42.822  1.00  0.00    -0.237 OA
ATOM     85  O   UNL A   1      38.991  36.274  42.988  1.00  0.00    -0.744 OA
ENDBRANCH  78  82
ENDBRANCH  61  75
BRANCH  62  86
ATOM     86  C   UNL A   1      39.931  28.300  30.716  1.00  0.00     0.023 A 
ATOM     87  C   UNL A   1      40.700  28.586  29.577  1.00  0.00     0.031 A 
ATOM     88  C   UNL A   1      39.074  27.185  30.670  1.00  0.00     0.131 A 
ATOM     89  C   UNL A   1      40.565  27.797  28.424  1.00  0.00     0.055 A 
ATOM     90  C   UNL A   1      38.982  26.372  29.540  1.00  0.00     0.041 A 
ATOM     91  F   UNL A   1      38.322  26.863  31.735  1.00  0.00    -0.206 F 
ATOM     92  C   UNL A   1      39.720  26.684  28.402  1.00  0.00     0.022 A 
BRANCH  89  93
ATOM     93  S   UNL A   1      41.448  28.296  26.922  1.00  0.00     0.124 S 
ATOM     94  O   UNL A   1      41.799  27.005  26.340  1.00  0.00    -0.237 OA
ATOM     95  O   UNL A   1      40.429  29.065  26.214  1.00  0.00    -0.237 OA
ATOM     96  O   UNL A   1      42.573  29.078  27.432  1.00  0.00    -0.744 OA
ENDBRANCH  89  93
ENDBRANCH  62  86
BRANCH  74  97
ATOM     97  C   UNL A   1      44.268  28.642  36.170  1.00  0.00     0.023 A 
ATOM     98  C   UNL A   1      44.140  27.641  37.150  1.00  0.00     0.031 A 
ATOM     99  C   UNL A   1      45.529  28.832  35.577  1.00  0.00     0.131 A 
ATOM    100  C   UNL A   1      45.265  26.901  37.542  1.00  0.00     0.055 A 
ATOM    101  C   UNL A   1      46.632  28.054  35.930  1.00  0.00     0.041 A 
ATOM    102  F   UNL A   1      45.707  29.773  34.638  1.00  0.00    -0.206 F 
ATOM    103  C   UNL A   1      46.507  27.088  36.926  1.00  0.00     0.022 A 
BRANCH 100 104
ATOM    104  S   UNL A   1      45.107  25.735  38.922  1.00  0.00     0.124 S 
ATOM    105  O   UNL A   1      44.076  26.368  39.737  1.00  0.00    -0.237 OA
ATOM    106  O   UNL A   1      44.716  24.501  38.246  1.00  0.00    -0.237 OA
ATOM    107  O   UNL A   1      46.444  25.718  39.514  1.00  0.00    -0.744 OA
ENDBRANCH 100 104
ENDBRANCH  74  97
ENDBRANCH  48  49
ENDBRANCH  40  43
ENDBRANCH  38  39
ENDBRANCH  37  38
ENDBRANCH  36  37
ENDBRANCH   1  36
TORSDOF 20
ENDMDL
MODEL 2
REMARK VINA RESULT:     -12.3      6.333     10.020
REMARK SMILES Cc1ccc2occ(/C=N/NC(=O)CCC(=O)Nc3ccc(C(=O)NCCCCNC(=O)c4ccc(-c5c6nc(c(-c7cc(S(=O)(=O)[O-])ccc7F)c7ccc([nH]7)c(-c7cc(S(=O)(=O)[O-])ccc7F)c7nc(c(-c8cc(S(=O)(=O)[O-])ccc8F)c8ccc5[nH]8)C=C7)C=C6)cc4)cc3)c(=O)c2c1
REMARK SMILES IDX 26 1 25 2 23 3 24 4 22 6 19 7 20 8 97 9 21 10 96 11 18 12
REMARK SMILES IDX 16 13 17 14 15 16 14 17 12 18 11 19 13 21 10 22 9 23 8 24
REMARK SMILES IDX 1 25 2 26 3 27 101 28 4 29 100 30 5 31 98 32 6 33 99 34 7 35
REMARK SMILES IDX 27 36 28 37 29 38 30 39 31 40 32 42 33 43 34 44 95 45 35 46
REMARK SMILES IDX 94 47 36 48 37 49 38 50 88 51 39 52 93 53 87 54 89 55 40 56
REMARK SMILES IDX 92 57 86 58 85 59 41 61 73 62 53 63 72 64 54 65 57 66 71 67
REMARK SMILES IDX 90 68 55 69 56 70 70 72 91 73 58 74 42 75 43 76 51 77 44 78
REMARK SMILES IDX 50 79 52 80 49 81 45 82 46 83 47 84 48 85 74 86 75 87 83 88
REMARK SMILES IDX 76 89 82 90 84 91 81 92 77 93 78 94 79 95 80 96 59 97 60 98
REMARK SMILES IDX 68 99 61 100 67 101 69 102 66 103 62 104 63 105 64 106
REMARK SMILES IDX 65 107
REMARK H PARENT 25 5 18 15 11 20 30 41 89 60 57 71
REMARK Flexibility Score: inf
ROOT
ATOM      1  C   UNL A   1      36.579  23.669  24.831  1.00  0.00     0.116 C 
ENDROOT
BRANCH   1   2
ATOM      2  N   UNL A   1      35.731  23.429  23.662  1.00  0.00    -0.352 N 
ATOM      3  C   UNL A   1      34.635  24.085  23.138  1.00  0.00     0.251 C 
ATOM      4  O   UNL A   1      34.162  23.685  22.075  1.00  0.00    -0.269 OA
ATOM      5  H   UNL A   1      35.998  22.637  23.143  1.00  0.00     0.163 HD
BRANCH   3   6
ATOM      6  C   UNL A   1      34.022  25.278  23.782  1.00  0.00     0.039 A 
ATOM      7  C   UNL A   1      33.018  27.634  25.015  1.00  0.00     0.041 A 
ATOM      8  C   UNL A   1      32.791  27.397  23.657  1.00  0.00     0.027 A 
ATOM      9  C   UNL A   1      33.741  26.686  25.698  1.00  0.00     0.027 A 
ATOM     10  C   UNL A   1      33.328  26.244  23.036  1.00  0.00     0.016 A 
ATOM     11  C   UNL A   1      34.116  25.484  25.138  1.00  0.00     0.016 A 
BRANCH   7  12
ATOM     12  N   UNL A   1      32.427  28.728  25.674  1.00  0.00    -0.326 N 
ATOM     13  C   UNL A   1      31.629  29.751  25.220  1.00  0.00     0.224 C 
ATOM     14  O   UNL A   1      31.493  30.741  25.949  1.00  0.00    -0.275 OA
ATOM     15  H   UNL A   1      32.621  28.767  26.639  1.00  0.00     0.169 HD
BRANCH  13  16
ATOM     16  C   UNL A   1      30.807  29.647  23.937  1.00  0.00     0.110 C 
BRANCH  16  17
ATOM     17  C   UNL A   1      29.587  30.563  23.748  1.00  0.00     0.112 C 
BRANCH  17  18
ATOM     18  C   UNL A   1      28.273  29.969  23.227  1.00  0.00     0.240 C 
ATOM     19  N   UNL A   1      28.169  28.616  22.980  1.00  0.00    -0.247 N 
ATOM     20  H   UNL A   1      27.292  28.277  22.689  1.00  0.00     0.193 HD
ATOM     21  O   UNL A   1      27.269  30.678  23.099  1.00  0.00    -0.273 OA
BRANCH  19  22
ATOM     22  N   UNL A   1      29.178  27.714  23.105  1.00  0.00    -0.180 NA
ATOM     23  C   UNL A   1      28.932  26.818  24.003  1.00  0.00     0.148 C 
BRANCH  23  24
ATOM     24  C   UNL A   1      29.653  25.554  24.158  1.00  0.00     0.078 A 
ATOM     25  C   UNL A   1      33.164  22.320  28.157  1.00  0.00     0.044 C 
ATOM     26  C   UNL A   1      32.491  22.630  26.854  1.00  0.00    -0.050 A 
ATOM     27  C   UNL A   1      32.760  21.898  25.687  1.00  0.00     0.007 A 
ATOM     28  C   UNL A   1      31.569  23.674  26.801  1.00  0.00     0.019 A 
ATOM     29  C   UNL A   1      32.124  22.214  24.480  1.00  0.00     0.048 A 
ATOM     30  C   UNL A   1      30.970  24.003  25.585  1.00  0.00     0.066 A 
ATOM     31  C   UNL A   1      31.229  23.277  24.426  1.00  0.00     0.137 A 
ATOM     32  C   UNL A   1      30.119  25.187  25.505  1.00  0.00     0.201 A 
ATOM     33  O   UNL A   1      30.657  23.579  23.212  1.00  0.00    -0.463 OA
ATOM     34  O   UNL A   1      29.854  25.860  26.493  1.00  0.00    -0.288 OA
ATOM     35  C   UNL A   1      29.920  24.742  23.132  1.00  0.00     0.209 A 
ENDBRANCH  23  24
ENDBRANCH  19  22
ENDBRANCH  17  18
ENDBRANCH  16  17
ENDBRANCH  13  16
ENDBRANCH   7  12
ENDBRANCH   3   6
ENDBRANCH   1   2
BRANCH   1  36
ATOM     36  C   UNL A   1      36.265  22.686  25.975  1.00  0.00     0.023 C 
BRANCH  36  37
ATOM     37  C   UNL A   1      36.691  21.250  25.672  1.00  0.00     0.023 C 
BRANCH  37  38
ATOM     38  C   UNL A   1      38.051  21.149  24.994  1.00  0.00     0.116 C 
BRANCH  38  39
ATOM     39  N   UNL A   1      38.901  20.106  25.547  1.00  0.00    -0.352 N 
ATOM     40  C   UNL A   1      40.005  20.270  26.360  1.00  0.00     0.251 C 
ATOM     41  H   UNL A   1      38.662  19.179  25.315  1.00  0.00     0.163 HD
ATOM     42  O   UNL A   1      40.700  19.316  26.670  1.00  0.00    -0.269 OA
BRANCH  40  43
ATOM     43  C   UNL A   1      40.358  21.641  26.801  1.00  0.00     0.039 A 
ATOM     44  C   UNL A   1      41.182  21.802  27.917  1.00  0.00     0.014 A 
ATOM     45  C   UNL A   1      39.943  22.754  26.064  1.00  0.00     0.014 A 
ATOM     46  C   UNL A   1      41.657  23.074  28.245  1.00  0.00     0.010 A 
ATOM     47  C   UNL A   1      40.477  24.007  26.348  1.00  0.00     0.010 A 
ATOM     48  C   UNL A   1      41.348  24.180  27.436  1.00  0.00    -0.014 A 
BRANCH  48  49
ATOM     49  C   UNL A   1      41.933  25.522  27.698  1.00  0.00     0.031 A 
ATOM     50  C   UNL A   1      41.128  26.567  28.421  1.00  0.00     0.074 A 
ATOM     51  C   UNL A   1      43.157  25.824  27.218  1.00  0.00     0.049 A 
ATOM     52  N   UNL A   1      41.422  27.818  28.665  1.00  0.00    -0.248 NA
ATOM     53  C   UNL A   1      39.801  26.155  28.905  1.00  0.00     0.031 C 
ATOM     54  C   UNL A   1      44.017  24.911  26.461  1.00  0.00     0.029 A 
ATOM     55  N   UNL A   1      43.886  26.985  27.284  1.00  0.00    -0.354 N 
ATOM     56  C   UNL A   1      40.314  28.348  29.316  1.00  0.00     0.074 A 
ATOM     57  C   UNL A   1      39.320  27.297  29.371  1.00  0.00     0.031 C 
ATOM     58  C   UNL A   1      45.163  25.540  26.153  1.00  0.00     0.029 A 
ATOM     59  C   UNL A   1      45.105  26.912  26.647  1.00  0.00     0.049 A 
ATOM     60  H   UNL A   1      43.567  27.796  27.742  1.00  0.00     0.167 HD
ATOM     61  C   UNL A   1      40.150  29.589  29.841  1.00  0.00     0.034 A 
ATOM     62  C   UNL A   1      46.060  27.846  26.469  1.00  0.00     0.034 A 
ATOM     63  C   UNL A   1      41.156  30.620  29.790  1.00  0.00     0.049 A 
ATOM     64  C   UNL A   1      45.848  29.225  27.045  1.00  0.00     0.074 A 
ATOM     65  C   UNL A   1      41.118  31.891  30.339  1.00  0.00     0.029 A 
ATOM     66  N   UNL A   1      42.382  30.506  29.146  1.00  0.00    -0.354 N 
ATOM     67  N   UNL A   1      44.814  29.695  27.704  1.00  0.00    -0.248 NA
ATOM     68  C   UNL A   1      46.936  30.195  26.860  1.00  0.00     0.031 C 
ATOM     69  C   UNL A   1      42.288  32.564  29.973  1.00  0.00     0.029 A 
ATOM     70  C   UNL A   1      43.093  31.691  29.259  1.00  0.00     0.049 A 
ATOM     71  H   UNL A   1      42.700  29.700  28.677  1.00  0.00     0.167 HD
ATOM     72  C   UNL A   1      45.145  31.004  28.044  1.00  0.00     0.074 A 
ATOM     73  C   UNL A   1      46.475  31.246  27.523  1.00  0.00     0.031 C 
ATOM     74  C   UNL A   1      44.418  31.921  28.731  1.00  0.00     0.034 A 
BRANCH  61  75
ATOM     75  C   UNL A   1      38.822  29.895  30.491  1.00  0.00     0.023 A 
ATOM     76  C   UNL A   1      37.861  30.706  29.862  1.00  0.00     0.031 A 
ATOM     77  C   UNL A   1      38.522  29.396  31.771  1.00  0.00     0.131 A 
ATOM     78  C   UNL A   1      36.687  31.060  30.543  1.00  0.00     0.055 A 
ATOM     79  C   UNL A   1      37.312  29.682  32.409  1.00  0.00     0.041 A 
ATOM     80  F   UNL A   1      39.406  28.632  32.432  1.00  0.00    -0.206 F 
ATOM     81  C   UNL A   1      36.394  30.533  31.802  1.00  0.00     0.022 A 
BRANCH  78  82
ATOM     82  S   UNL A   1      35.622  32.339  29.822  1.00  0.00     0.124 S 
ATOM     83  O   UNL A   1      34.655  31.533  29.080  1.00  0.00    -0.237 OA
ATOM     84  O   UNL A   1      35.110  33.026  31.001  1.00  0.00    -0.237 OA
ATOM     85  O   UNL A   1      36.537  33.119  28.991  1.00  0.00    -0.744 OA
ENDBRANCH  78  82
ENDBRANCH  61  75
BRANCH  62  86
ATOM     86  C   UNL A   1      47.301  27.523  25.709  1.00  0.00     0.023 A 
ATOM     87  C   UNL A   1      47.401  27.796  24.336  1.00  0.00     0.031 A 
ATOM     88  C   UNL A   1      48.393  26.898  26.338  1.00  0.00     0.131 A 
ATOM     89  C   UNL A   1      48.546  27.405  23.625  1.00  0.00     0.055 A 
ATOM     90  C   UNL A   1      49.552  26.559  25.637  1.00  0.00     0.041 A 
ATOM     91  F   UNL A   1      48.353  26.620  27.651  1.00  0.00    -0.206 F 
ATOM     92  C   UNL A   1      49.627  26.799  24.269  1.00  0.00     0.022 A 
BRANCH  89  93
ATOM     93  S   UNL A   1      48.568  27.626  21.825  1.00  0.00     0.124 S 
ATOM     94  O   UNL A   1      47.215  28.103  21.567  1.00  0.00    -0.237 OA
ATOM     95  O   UNL A   1      49.639  28.603  21.654  1.00  0.00    -0.237 OA
ATOM     96  O   UNL A   1      48.866  26.285  21.322  1.00  0.00    -0.744 OA
ENDBRANCH  89  93
ENDBRANCH  62  86
BRANCH  74  97
ATOM     97  C   UNL A   1      45.072  33.252  29.007  1.00  0.00     0.023 A 
ATOM     98  C   UNL A   1      44.888  34.360  28.162  1.00  0.00     0.031 A 
ATOM     99  C   UNL A   1      45.891  33.410  30.139  1.00  0.00     0.131 A 
ATOM    100  C   UNL A   1      45.553  35.565  28.436  1.00  0.00     0.055 A 
ATOM    101  C   UNL A   1      46.505  34.627  30.438  1.00  0.00     0.041 A 
ATOM    102  F   UNL A   1      46.101  32.384  30.979  1.00  0.00    -0.206 F 
ATOM    103  C   UNL A   1      46.346  35.711  29.578  1.00  0.00     0.022 A 
BRANCH 100 104
ATOM    104  S   UNL A   1      45.430  36.923  27.241  1.00  0.00     0.124 S 
ATOM    105  O   UNL A   1      46.375  36.506  26.210  1.00  0.00    -0.237 OA
ATOM    106  O   UNL A   1      44.019  36.883  26.866  1.00  0.00    -0.237 OA
ATOM    107  O   UNL A   1      45.832  38.098  28.012  1.00  0.00    -0.744 OA
ENDBRANCH 100 104
ENDBRANCH  74  97
ENDBRANCH  48  49
ENDBRANCH  40  43
ENDBRANCH  38  39
ENDBRANCH  37  38
ENDBRANCH  36  37
ENDBRANCH   1  36
TORSDOF 20
ENDMDL
MODEL 3
REMARK VINA RESULT:     -12.1      6.207     11.252
REMARK SMILES Cc1ccc2occ(/C=N/NC(=O)CCC(=O)Nc3ccc(C(=O)NCCCCNC(=O)c4ccc(-c5c6nc(c(-c7cc(S(=O)(=O)[O-])ccc7F)c7ccc([nH]7)c(-c7cc(S(=O)(=O)[O-])ccc7F)c7nc(c(-c8cc(S(=O)(=O)[O-])ccc8F)c8ccc5[nH]8)C=C7)C=C6)cc4)cc3)c(=O)c2c1
REMARK SMILES IDX 26 1 25 2 23 3 24 4 22 6 19 7 20 8 97 9 21 10 96 11 18 12
REMARK SMILES IDX 16 13 17 14 15 16 14 17 12 18 11 19 13 21 10 22 9 23 8 24
REMARK SMILES IDX 1 25 2 26 3 27 101 28 4 29 100 30 5 31 98 32 6 33 99 34 7 35
REMARK SMILES IDX 27 36 28 37 29 38 30 39 31 40 32 42 33 43 34 44 95 45 35 46
REMARK SMILES IDX 94 47 36 48 37 49 38 50 88 51 39 52 93 53 87 54 89 55 40 56
REMARK SMILES IDX 92 57 86 58 85 59 41 61 73 62 53 63 72 64 54 65 57 66 71 67
REMARK SMILES IDX 90 68 55 69 56 70 70 72 91 73 58 74 42 75 43 76 51 77 44 78
REMARK SMILES IDX 50 79 52 80 49 81 45 82 46 83 47 84 48 85 74 86 75 87 83 88
REMARK SMILES IDX 76 89 82 90 84 91 81 92 77 93 78 94 79 95 80 96 59 97 60 98
REMARK SMILES IDX 68 99 61 100 67 101 69 102 66 103 62 104 63 105 64 106
REMARK SMILES IDX 65 107
REMARK H PARENT 25 5 18 15 11 20 30 41 89 60 57 71
REMARK Flexibility Score: inf
ROOT
ATOM      1  C   UNL A   1      36.410  23.607  25.011  1.00  0.00     0.116 C 
ENDROOT
BRANCH   1   2
ATOM      2  N   UNL A   1      35.665  23.357  23.776  1.00  0.00    -0.352 N 
ATOM      3  C   UNL A   1      34.632  24.020  23.144  1.00  0.00     0.251 C 
ATOM      4  O   UNL A   1      34.248  23.606  22.052  1.00  0.00    -0.269 OA
ATOM      5  H   UNL A   1      35.963  22.550  23.298  1.00  0.00     0.163 HD
BRANCH   3   6
ATOM      6  C   UNL A   1      33.986  25.236  23.708  1.00  0.00     0.039 A 
ATOM      7  C   UNL A   1      32.919  27.638  24.789  1.00  0.00     0.041 A 
ATOM      8  C   UNL A   1      32.733  27.328  23.439  1.00  0.00     0.027 A 
ATOM      9  C   UNL A   1      33.633  26.736  25.540  1.00  0.00     0.027 A 
ATOM     10  C   UNL A   1      33.301  26.152  22.893  1.00  0.00     0.016 A 
ATOM     11  C   UNL A   1      34.040  25.513  25.053  1.00  0.00     0.016 A 
BRANCH   7  12
ATOM     12  N   UNL A   1      32.295  28.756  25.373  1.00  0.00    -0.326 N 
ATOM     13  C   UNL A   1      31.489  29.737  24.847  1.00  0.00     0.224 C 
ATOM     14  O   UNL A   1      31.321  30.764  25.516  1.00  0.00    -0.275 OA
ATOM     15  H   UNL A   1      32.469  28.853  26.338  1.00  0.00     0.169 HD
BRANCH  13  16
ATOM     16  C   UNL A   1      30.695  29.546  23.556  1.00  0.00     0.110 C 
BRANCH  16  17
ATOM     17  C   UNL A   1      29.211  29.943  23.519  1.00  0.00     0.112 C 
BRANCH  17  18
ATOM     18  C   UNL A   1      28.160  28.895  23.132  1.00  0.00     0.240 C 
ATOM     19  N   UNL A   1      28.357  27.565  23.438  1.00  0.00    -0.247 N 
ATOM     20  H   UNL A   1      27.635  26.937  23.208  1.00  0.00     0.193 HD
ATOM     21  O   UNL A   1      27.092  29.236  22.615  1.00  0.00    -0.273 OA
BRANCH  19  22
ATOM     22  N   UNL A   1      29.467  27.049  24.031  1.00  0.00    -0.180 NA
ATOM     23  C   UNL A   1      29.199  26.037  24.788  1.00  0.00     0.148 C 
BRANCH  23  24
ATOM     24  C   UNL A   1      30.180  25.084  25.306  1.00  0.00     0.078 A 
ATOM     25  C   UNL A   1      32.967  19.665  24.024  1.00  0.00     0.044 C 
ATOM     26  C   UNL A   1      32.603  20.866  24.843  1.00  0.00    -0.050 A 
ATOM     27  C   UNL A   1      32.943  20.970  26.201  1.00  0.00     0.007 A 
ATOM     28  C   UNL A   1      31.908  21.912  24.237  1.00  0.00     0.019 A 
ATOM     29  C   UNL A   1      32.583  22.100  26.946  1.00  0.00     0.048 A 
ATOM     30  C   UNL A   1      31.523  23.016  24.998  1.00  0.00     0.066 A 
ATOM     31  C   UNL A   1      31.862  23.126  26.343  1.00  0.00     0.137 A 
ATOM     32  C   UNL A   1      30.672  24.037  24.396  1.00  0.00     0.201 A 
ATOM     33  O   UNL A   1      31.494  24.199  27.122  1.00  0.00    -0.463 OA
ATOM     34  O   UNL A   1      30.345  23.992  23.216  1.00  0.00    -0.288 OA
ATOM     35  C   UNL A   1      30.627  25.115  26.565  1.00  0.00     0.209 A 
ENDBRANCH  23  24
ENDBRANCH  19  22
ENDBRANCH  17  18
ENDBRANCH  16  17
ENDBRANCH  13  16
ENDBRANCH   7  12
ENDBRANCH   3   6
ENDBRANCH   1   2
BRANCH   1  36
ATOM     36  C   UNL A   1      36.158  22.510  26.062  1.00  0.00     0.023 C 
BRANCH  36  37
ATOM     37  C   UNL A   1      36.639  21.128  25.621  1.00  0.00     0.023 C 
BRANCH  37  38
ATOM     38  C   UNL A   1      38.035  21.134  25.012  1.00  0.00     0.116 C 
BRANCH  38  39
ATOM     39  N   UNL A   1      38.930  20.149  25.598  1.00  0.00    -0.352 N 
ATOM     40  C   UNL A   1      40.003  20.385  26.435  1.00  0.00     0.251 C 
ATOM     41  H   UNL A   1      38.751  19.207  25.371  1.00  0.00     0.163 HD
ATOM     42  O   UNL A   1      40.744  19.477  26.772  1.00  0.00    -0.269 OA
BRANCH  40  43
ATOM     43  C   UNL A   1      40.265  21.780  26.867  1.00  0.00     0.039 A 
ATOM     44  C   UNL A   1      41.150  22.005  27.923  1.00  0.00     0.014 A 
ATOM     45  C   UNL A   1      39.701  22.856  26.177  1.00  0.00     0.014 A 
ATOM     46  C   UNL A   1      41.535  23.311  28.233  1.00  0.00     0.010 A 
ATOM     47  C   UNL A   1      40.142  24.150  26.438  1.00  0.00     0.010 A 
ATOM     48  C   UNL A   1      41.072  24.392  27.463  1.00  0.00    -0.014 A 
BRANCH  48  49
ATOM     49  C   UNL A   1      41.554  25.779  27.700  1.00  0.00     0.031 A 
ATOM     50  C   UNL A   1      42.924  26.189  27.238  1.00  0.00     0.074 A 
ATOM     51  C   UNL A   1      40.789  26.642  28.400  1.00  0.00     0.049 A 
ATOM     52  N   UNL A   1      43.560  27.316  27.428  1.00  0.00    -0.248 NA
ATOM     53  C   UNL A   1      43.693  25.184  26.488  1.00  0.00     0.031 C 
ATOM     54  C   UNL A   1      39.460  26.348  28.942  1.00  0.00     0.029 A 
ATOM     55  N   UNL A   1      41.022  27.939  28.786  1.00  0.00    -0.354 N 
ATOM     56  C   UNL A   1      44.809  27.153  26.837  1.00  0.00     0.074 A 
ATOM     57  C   UNL A   1      44.858  25.794  26.338  1.00  0.00     0.031 C 
ATOM     58  C   UNL A   1      38.990  27.438  29.570  1.00  0.00     0.029 A 
ATOM     59  C   UNL A   1      39.996  28.493  29.517  1.00  0.00     0.049 A 
ATOM     60  H   UNL A   1      41.848  28.427  28.561  1.00  0.00     0.167 HD
ATOM     61  C   UNL A   1      45.810  28.058  26.702  1.00  0.00     0.034 A 
ATOM     62  C   UNL A   1      39.883  29.707  30.091  1.00  0.00     0.034 A 
ATOM     63  C   UNL A   1      45.738  29.412  27.193  1.00  0.00     0.049 A 
ATOM     64  C   UNL A   1      41.017  30.692  29.944  1.00  0.00     0.074 A 
ATOM     65  C   UNL A   1      46.669  30.428  27.059  1.00  0.00     0.029 A 
ATOM     66  N   UNL A   1      44.678  29.941  27.919  1.00  0.00    -0.354 N 
ATOM     67  N   UNL A   1      42.171  30.539  29.336  1.00  0.00    -0.248 NA
ATOM     68  C   UNL A   1      40.829  32.016  30.553  1.00  0.00     0.031 C 
ATOM     69  C   UNL A   1      46.203  31.547  27.758  1.00  0.00     0.029 A 
ATOM     70  C   UNL A   1      44.946  31.257  28.265  1.00  0.00     0.049 A 
ATOM     71  H   UNL A   1      43.856  29.452  28.155  1.00  0.00     0.167 HD
ATOM     72  C   UNL A   1      42.829  31.759  29.459  1.00  0.00     0.074 A 
ATOM     73  C   UNL A   1      41.942  32.639  30.192  1.00  0.00     0.031 C 
ATOM     74  C   UNL A   1      44.054  32.122  29.000  1.00  0.00     0.034 A 
BRANCH  61  75
ATOM     75  C   UNL A   1      47.073  27.596  26.015  1.00  0.00     0.023 A 
ATOM     76  C   UNL A   1      47.346  27.923  24.675  1.00  0.00     0.031 A 
ATOM     77  C   UNL A   1      48.004  26.795  26.698  1.00  0.00     0.131 A 
ATOM     78  C   UNL A   1      48.474  27.385  24.038  1.00  0.00     0.055 A 
ATOM     79  C   UNL A   1      49.170  26.332  26.083  1.00  0.00     0.041 A 
ATOM     80  F   UNL A   1      47.790  26.432  27.973  1.00  0.00    -0.206 F 
ATOM     81  C   UNL A   1      49.402  26.612  24.739  1.00  0.00     0.022 A 
BRANCH  78  82
ATOM     82  S   UNL A   1      48.629  27.584  22.242  1.00  0.00     0.124 S 
ATOM     83  O   UNL A   1      47.415  28.330  21.922  1.00  0.00    -0.237 OA
ATOM     84  O   UNL A   1      49.882  28.317  22.113  1.00  0.00    -0.237 OA
ATOM     85  O   UNL A   1      48.655  26.210  21.746  1.00  0.00    -0.744 OA
ENDBRANCH  78  82
ENDBRANCH  61  75
BRANCH  62  86
ATOM     86  C   UNL A   1      38.661  30.067  30.865  1.00  0.00     0.023 A 
ATOM     87  C   UNL A   1      37.635  30.830  30.284  1.00  0.00     0.031 A 
ATOM     88  C   UNL A   1      38.517  29.686  32.211  1.00  0.00     0.131 A 
ATOM     89  C   UNL A   1      36.533  31.227  31.058  1.00  0.00     0.055 A 
ATOM     90  C   UNL A   1      37.395  30.039  32.962  1.00  0.00     0.041 A 
ATOM     91  F   UNL A   1      39.465  28.951  32.813  1.00  0.00    -0.206 F 
ATOM     92  C   UNL A   1      36.401  30.827  32.389  1.00  0.00     0.022 A 
BRANCH  89  93
ATOM     93  S   UNL A   1      35.314  32.349  30.320  1.00  0.00     0.124 S 
ATOM     94  O   UNL A   1      34.380  32.540  31.424  1.00  0.00    -0.237 OA
ATOM     95  O   UNL A   1      36.138  33.501  29.968  1.00  0.00    -0.237 OA
ATOM     96  O   UNL A   1      34.794  31.587  29.186  1.00  0.00    -0.744 OA
ENDBRANCH  89  93
ENDBRANCH  62  86
BRANCH  74  97
ATOM     97  C   UNL A   1      44.479  33.551  29.231  1.00  0.00     0.023 A 
ATOM     98  C   UNL A   1      43.987  34.610  28.446  1.00  0.00     0.031 A 
ATOM     99  C   UNL A   1      45.393  33.855  30.256  1.00  0.00     0.131 A 
ATOM    100  C   UNL A   1      44.447  35.916  28.670  1.00  0.00     0.055 A 
ATOM    101  C   UNL A   1      45.804  35.164  30.511  1.00  0.00     0.041 A 
ATOM    102  F   UNL A   1      45.895  32.883  31.033  1.00  0.00    -0.206 F 
ATOM    103  C   UNL A   1      45.339  36.203  29.709  1.00  0.00     0.022 A 
BRANCH 100 104
ATOM    104  S   UNL A   1      43.923  37.233  27.539  1.00  0.00     0.124 S 
ATOM    105  O   UNL A   1      42.986  36.530  26.668  1.00  0.00    -0.237 OA
ATOM    106  O   UNL A   1      43.335  38.211  28.449  1.00  0.00    -0.237 OA
ATOM    107  O   UNL A   1      45.168  37.654  26.900  1.00  0.00    -0.744 OA
ENDBRANCH 100 104
ENDBRANCH  74  97
ENDBRANCH  48  49
ENDBRANCH  40  43
ENDBRANCH  38  39
ENDBRANCH  37  38
ENDBRANCH  36  37
ENDBRANCH   1  36
TORSDOF 20
ENDMDL
