MODEL 1
REMARK VINA RESULT:     -11.1      0.000      0.000
REMARK SMILES COc1cc(NS(=O)(=O)c2cc(C)c(C(=O)NCCCCNC(=O)c3ccc(-c4c5nc(c(-c6cc(S(=O)(=O)[O-])ccc6F)c6ccc([nH]6)c(-c6cc(S(=O)(=O)[O-])ccc6F)c6nc(c(-c7cc(S(=O)(=O)[O-])ccc7F)c7ccc4[nH]7)C=C6)C=C5)cc3)s2)cc(OC)c1
REMARK SMILES IDX 19 1 18 2 17 3 15 4 16 5 14 7 10 8 11 9 88 10 12 11 13 12
REMARK SMILES IDX 7 13 8 14 9 15 6 16 5 18 3 19 4 20 93 21 90 22 89 23 2 24
REMARK SMILES IDX 1 25 91 26 92 27 20 28 21 29 22 30 23 31 24 33 25 34 26 35
REMARK SMILES IDX 87 36 27 37 86 38 28 39 29 40 30 41 80 42 31 43 85 44 79 45
REMARK SMILES IDX 81 46 32 47 84 48 78 49 77 50 33 52 65 53 45 54 64 55 46 56
REMARK SMILES IDX 49 57 63 58 82 59 47 60 48 61 62 63 83 64 50 65 34 66 35 67
REMARK SMILES IDX 43 68 36 69 42 70 44 71 41 72 37 73 38 74 39 75 40 76 66 77
REMARK SMILES IDX 67 78 75 79 68 80 74 81 76 82 73 83 69 84 70 85 71 86 72 87
REMARK SMILES IDX 51 88 52 89 60 90 53 91 59 92 61 93 58 94 54 95 55 96 56 97
REMARK SMILES IDX 57 98
REMARK H PARENT 17 6 6 17 22 32 81 51 49 62
REMARK Flexibility Score: inf
ROOT
ATOM      1  C   UNL A   1      31.989  28.142  27.222  1.00  0.00     0.023 C 
ENDROOT
BRANCH   1   2
ATOM      2  C   UNL A   1      31.284  27.279  26.170  1.00  0.00     0.116 C 
BRANCH   2   3
ATOM      3  N   UNL A   1      31.171  25.917  26.623  1.00  0.00    -0.351 N 
ATOM      4  C   UNL A   1      31.994  24.827  26.610  1.00  0.00     0.261 C 
ATOM      5  O   UNL A   1      31.473  23.855  27.176  1.00  0.00    -0.268 OA
ATOM      6  H   UNL A   1      30.300  25.729  27.038  1.00  0.00     0.163 HD
BRANCH   4   7
ATOM      7  C   UNL A   1      33.326  24.732  25.990  1.00  0.00     0.096 A 
ATOM      8  C   UNL A   1      35.317  23.348  25.431  1.00  0.00     0.141 A 
ATOM      9  C   UNL A   1      35.216  24.451  24.621  1.00  0.00     0.038 A 
ATOM     10  S   UNL A   1      34.370  23.566  26.819  1.00  0.00    -0.116 S 
ATOM     11  C   UNL A   1      34.011  25.217  24.866  1.00  0.00    -0.026 A 
ATOM     12  C   UNL A   1      33.636  26.200  23.809  1.00  0.00     0.046 C 
BRANCH   8  13
ATOM     13  S   UNL A   1      36.143  21.801  25.211  1.00  0.00     0.271 S 
ATOM     14  O   UNL A   1      37.275  21.822  26.105  1.00  0.00    -0.200 OA
ATOM     15  O   UNL A   1      36.342  21.693  23.775  1.00  0.00    -0.200 OA
BRANCH  13  16
ATOM     16  N   UNL A   1      35.160  20.508  25.682  1.00  0.00    -0.279 N 
ATOM     17  H   UNL A   1      35.342  20.071  26.546  1.00  0.00     0.180 HD
BRANCH  16  18
ATOM     18  C   UNL A   1      34.070  20.012  24.880  1.00  0.00     0.056 A 
ATOM     19  C   UNL A   1      33.100  18.296  23.468  1.00  0.00     0.124 A 
ATOM     20  C   UNL A   1      33.954  18.679  24.499  1.00  0.00     0.073 A 
ATOM     21  C   UNL A   1      32.269  19.217  22.850  1.00  0.00     0.093 A 
ATOM     22  C   UNL A   1      32.336  20.553  23.239  1.00  0.00     0.124 A 
ATOM     23  C   UNL A   1      33.254  20.946  24.227  1.00  0.00     0.073 A 
BRANCH  19  24
ATOM     24  O   UNL A   1      33.108  16.981  23.085  1.00  0.00    -0.497 OA
ATOM     25  C   UNL A   1      33.704  16.173  24.106  1.00  0.00     0.278 C 
ENDBRANCH  19  24
BRANCH  22  26
ATOM     26  O   UNL A   1      31.585  21.569  22.709  1.00  0.00    -0.497 OA
ATOM     27  C   UNL A   1      32.207  22.848  22.646  1.00  0.00     0.278 C 
ENDBRANCH  22  26
ENDBRANCH  16  18
ENDBRANCH  13  16
ENDBRANCH   8  13
ENDBRANCH   4   7
ENDBRANCH   2   3
ENDBRANCH   1   2
BRANCH   1  28
ATOM     28  C   UNL A   1      33.517  28.021  27.220  1.00  0.00     0.023 C 
BRANCH  28  29
ATOM     29  C   UNL A   1      34.240  29.111  26.431  1.00  0.00     0.116 C 
BRANCH  29  30
ATOM     30  N   UNL A   1      33.836  30.461  26.796  1.00  0.00    -0.352 N 
ATOM     31  C   UNL A   1      34.443  31.326  27.676  1.00  0.00     0.251 C 
ATOM     32  H   UNL A   1      33.021  30.797  26.357  1.00  0.00     0.163 HD
ATOM     33  O   UNL A   1      33.918  32.405  27.931  1.00  0.00    -0.269 OA
BRANCH  31  34
ATOM     34  C   UNL A   1      35.691  30.913  28.352  1.00  0.00     0.039 A 
ATOM     35  C   UNL A   1      35.625  29.910  29.321  1.00  0.00     0.014 A 
ATOM     36  C   UNL A   1      36.919  31.472  27.996  1.00  0.00     0.014 A 
ATOM     37  C   UNL A   1      36.804  29.411  29.877  1.00  0.00     0.010 A 
ATOM     38  C   UNL A   1      38.096  30.928  28.499  1.00  0.00     0.010 A 
ATOM     39  C   UNL A   1      38.050  29.888  29.439  1.00  0.00    -0.014 A 
BRANCH  39  40
ATOM     40  C   UNL A   1      39.316  29.302  29.946  1.00  0.00     0.031 A 
ATOM     41  C   UNL A   1      40.001  29.909  31.138  1.00  0.00     0.074 A 
ATOM     42  C   UNL A   1      39.882  28.273  29.285  1.00  0.00     0.049 A 
ATOM     43  N   UNL A   1      41.144  29.589  31.688  1.00  0.00    -0.248 NA
ATOM     44  C   UNL A   1      39.326  31.050  31.772  1.00  0.00     0.031 C 
ATOM     45  C   UNL A   1      39.340  27.641  28.080  1.00  0.00     0.029 A 
ATOM     46  N   UNL A   1      41.043  27.584  29.527  1.00  0.00    -0.354 N 
ATOM     47  C   UNL A   1      41.334  30.498  32.723  1.00  0.00     0.074 A 
ATOM     48  C   UNL A   1      40.216  31.419  32.680  1.00  0.00     0.031 C 
ATOM     49  C   UNL A   1      40.157  26.644  27.701  1.00  0.00     0.029 A 
ATOM     50  C   UNL A   1      41.295  26.587  28.613  1.00  0.00     0.049 A 
ATOM     51  H   UNL A   1      41.641  27.783  30.283  1.00  0.00     0.167 HD
ATOM     52  C   UNL A   1      42.334  30.546  33.637  1.00  0.00     0.034 A 
ATOM     53  C   UNL A   1      42.328  25.727  28.520  1.00  0.00     0.034 A 
ATOM     54  C   UNL A   1      43.430  29.608  33.677  1.00  0.00     0.049 A 
ATOM     55  C   UNL A   1      43.419  25.789  29.556  1.00  0.00     0.074 A 
ATOM     56  C   UNL A   1      44.461  29.521  34.596  1.00  0.00     0.029 A 
ATOM     57  N   UNL A   1      43.639  28.594  32.751  1.00  0.00    -0.354 N 
ATOM     58  N   UNL A   1      43.554  26.617  30.565  1.00  0.00    -0.248 NA
ATOM     59  C   UNL A   1      44.490  24.790  29.447  1.00  0.00     0.031 C 
ATOM     60  C   UNL A   1      45.319  28.490  34.197  1.00  0.00     0.029 A 
ATOM     61  C   UNL A   1      44.793  27.893  33.062  1.00  0.00     0.049 A 
ATOM     62  H   UNL A   1      43.051  28.401  31.984  1.00  0.00     0.167 HD
ATOM     63  C   UNL A   1      44.714  26.223  31.225  1.00  0.00     0.074 A 
ATOM     64  C   UNL A   1      45.230  25.075  30.508  1.00  0.00     0.031 C 
ATOM     65  C   UNL A   1      45.300  26.760  32.326  1.00  0.00     0.034 A 
BRANCH  52  66
ATOM     66  C   UNL A   1      42.287  31.664  34.651  1.00  0.00     0.023 A 
ATOM     67  C   UNL A   1      41.424  31.615  35.760  1.00  0.00     0.031 A 
ATOM     68  C   UNL A   1      43.078  32.814  34.482  1.00  0.00     0.131 A 
ATOM     69  C   UNL A   1      41.309  32.728  36.607  1.00  0.00     0.055 A 
ATOM     70  C   UNL A   1      43.019  33.884  35.377  1.00  0.00     0.041 A 
ATOM     71  F   UNL A   1      43.907  32.926  33.432  1.00  0.00    -0.206 F 
ATOM     72  C   UNL A   1      42.118  33.853  36.437  1.00  0.00     0.022 A 
BRANCH  69  73
ATOM     73  S   UNL A   1      39.977  32.740  37.838  1.00  0.00     0.124 S 
ATOM     74  O   UNL A   1      39.548  34.136  37.791  1.00  0.00    -0.237 OA
ATOM     75  O   UNL A   1      39.038  31.765  37.297  1.00  0.00    -0.237 OA
ATOM     76  O   UNL A   1      40.648  32.343  39.073  1.00  0.00    -0.744 OA
ENDBRANCH  69  73
ENDBRANCH  52  66
BRANCH  53  77
ATOM     77  C   UNL A   1      42.384  24.735  27.413  1.00  0.00     0.023 A 
ATOM     78  C   UNL A   1      41.894  23.431  27.587  1.00  0.00     0.031 A 
ATOM     79  C   UNL A   1      42.962  25.064  26.174  1.00  0.00     0.131 A 
ATOM     80  C   UNL A   1      42.028  22.490  26.555  1.00  0.00     0.055 A 
ATOM     81  C   UNL A   1      43.056  24.136  25.135  1.00  0.00     0.041 A 
ATOM     82  F   UNL A   1      43.435  26.301  25.954  1.00  0.00    -0.206 F 
ATOM     83  C   UNL A   1      42.598  22.836  25.327  1.00  0.00     0.022 A 
BRANCH  80  84
ATOM     84  S   UNL A   1      41.507  20.781  26.866  1.00  0.00     0.124 S 
ATOM     85  O   UNL A   1      41.764  20.151  25.577  1.00  0.00    -0.237 OA
ATOM     86  O   UNL A   1      42.391  20.391  27.959  1.00  0.00    -0.237 OA
ATOM     87  O   UNL A   1      40.097  20.916  27.227  1.00  0.00    -0.744 OA
ENDBRANCH  80  84
ENDBRANCH  53  77
BRANCH  65  88
ATOM     88  C   UNL A   1      46.546  26.078  32.830  1.00  0.00     0.023 A 
ATOM     89  C   UNL A   1      47.814  26.377  32.301  1.00  0.00     0.031 A 
ATOM     90  C   UNL A   1      46.459  25.100  33.835  1.00  0.00     0.131 A 
ATOM     91  C   UNL A   1      48.939  25.666  32.742  1.00  0.00     0.055 A 
ATOM     92  C   UNL A   1      47.590  24.432  34.308  1.00  0.00     0.041 A 
ATOM     93  F   UNL A   1      45.272  24.775  34.372  1.00  0.00    -0.206 F 
ATOM     94  C   UNL A   1      48.837  24.705  33.752  1.00  0.00     0.022 A 
BRANCH  91  95
ATOM     95  S   UNL A   1      50.528  25.953  31.918  1.00  0.00     0.124 S 
ATOM     96  O   UNL A   1      50.380  25.175  30.692  1.00  0.00    -0.237 OA
ATOM     97  O   UNL A   1      50.539  27.403  31.755  1.00  0.00    -0.237 OA
ATOM     98  O   UNL A   1      51.508  25.430  32.870  1.00  0.00    -0.744 OA
ENDBRANCH  91  95
ENDBRANCH  65  88
ENDBRANCH  39  40
ENDBRANCH  31  34
ENDBRANCH  29  30
ENDBRANCH  28  29
ENDBRANCH   1  28
TORSDOF 19
ENDMDL
MODEL 2
REMARK VINA RESULT:     -11.0      5.001      8.610
REMARK SMILES COc1cc(NS(=O)(=O)c2cc(C)c(C(=O)NCCCCNC(=O)c3ccc(-c4c5nc(c(-c6cc(S(=O)(=O)[O-])ccc6F)c6ccc([nH]6)c(-c6cc(S(=O)(=O)[O-])ccc6F)c6nc(c(-c7cc(S(=O)(=O)[O-])ccc7F)c7ccc4[nH]7)C=C6)C=C5)cc3)s2)cc(OC)c1
REMARK SMILES IDX 19 1 18 2 17 3 15 4 16 5 14 7 10 8 11 9 88 10 12 11 13 12
REMARK SMILES IDX 7 13 8 14 9 15 6 16 5 18 3 19 4 20 93 21 90 22 89 23 2 24
REMARK SMILES IDX 1 25 91 26 92 27 20 28 21 29 22 30 23 31 24 33 25 34 26 35
REMARK SMILES IDX 87 36 27 37 86 38 28 39 29 40 30 41 80 42 31 43 85 44 79 45
REMARK SMILES IDX 81 46 32 47 84 48 78 49 77 50 33 52 65 53 45 54 64 55 46 56
REMARK SMILES IDX 49 57 63 58 82 59 47 60 48 61 62 63 83 64 50 65 34 66 35 67
REMARK SMILES IDX 43 68 36 69 42 70 44 71 41 72 37 73 38 74 39 75 40 76 66 77
REMARK SMILES IDX 67 78 75 79 68 80 74 81 76 82 73 83 69 84 70 85 71 86 72 87
REMARK SMILES IDX 51 88 52 89 60 90 53 91 59 92 61 93 58 94 54 95 55 96 56 97
REMARK SMILES IDX 57 98
REMARK H PARENT 17 6 6 17 22 32 81 51 49 62
REMARK Flexibility Score: inf
ROOT
ATOM      1  C   UNL A   1      36.929  21.426  24.494  1.00  0.00     0.023 C 
ENDROOT
BRANCH   1   2
ATOM      2  C   UNL A   1      36.727  22.509  25.559  1.00  0.00     0.116 C 
BRANCH   2   3
ATOM      3  N   UNL A   1      35.746  22.093  26.526  1.00  0.00    -0.351 N 
ATOM      4  C   UNL A   1      34.402  21.848  26.491  1.00  0.00     0.261 C 
ATOM      5  O   UNL A   1      33.981  21.450  27.587  1.00  0.00    -0.268 OA
ATOM      6  H   UNL A   1      36.132  21.952  27.420  1.00  0.00     0.163 HD
BRANCH   4   7
ATOM      7  C   UNL A   1      33.498  22.044  25.346  1.00  0.00     0.096 A 
ATOM      8  C   UNL A   1      32.770  23.452  23.427  1.00  0.00     0.141 A 
ATOM      9  C   UNL A   1      32.388  22.143  23.276  1.00  0.00     0.038 A 
ATOM     10  S   UNL A   1      33.151  23.755  25.050  1.00  0.00    -0.116 S 
ATOM     11  C   UNL A   1      32.886  21.288  24.334  1.00  0.00    -0.026 A 
ATOM     12  C   UNL A   1      32.840  19.822  24.065  1.00  0.00     0.046 C 
BRANCH   8  13
ATOM     13  S   UNL A   1      33.011  24.750  22.251  1.00  0.00     0.271 S 
ATOM     14  O   UNL A   1      33.220  24.102  20.979  1.00  0.00    -0.200 OA
ATOM     15  O   UNL A   1      34.050  25.583  22.833  1.00  0.00    -0.200 OA
BRANCH  13  16
ATOM     16  N   UNL A   1      31.624  25.706  22.100  1.00  0.00    -0.279 N 
ATOM     17  H   UNL A   1      30.870  25.359  21.571  1.00  0.00     0.180 HD
BRANCH  16  18
ATOM     18  C   UNL A   1      31.493  27.007  22.707  1.00  0.00     0.056 A 
ATOM     19  C   UNL A   1      31.854  28.509  24.576  1.00  0.00     0.124 A 
ATOM     20  C   UNL A   1      32.230  27.402  23.820  1.00  0.00     0.073 A 
ATOM     21  C   UNL A   1      30.788  29.308  24.193  1.00  0.00     0.093 A 
ATOM     22  C   UNL A   1      30.057  28.958  23.060  1.00  0.00     0.124 A 
ATOM     23  C   UNL A   1      30.395  27.797  22.344  1.00  0.00     0.073 A 
BRANCH  19  24
ATOM     24  O   UNL A   1      32.570  28.782  25.711  1.00  0.00    -0.497 OA
ATOM     25  C   UNL A   1      31.893  29.771  26.497  1.00  0.00     0.278 C 
ENDBRANCH  19  24
BRANCH  22  26
ATOM     26  O   UNL A   1      28.978  29.646  22.572  1.00  0.00    -0.497 OA
ATOM     27  C   UNL A   1      27.694  29.156  22.946  1.00  0.00     0.278 C 
ENDBRANCH  22  26
ENDBRANCH  16  18
ENDBRANCH  13  16
ENDBRANCH   8  13
ENDBRANCH   4   7
ENDBRANCH   2   3
ENDBRANCH   1   2
BRANCH   1  28
ATOM     28  C   UNL A   1      37.725  20.207  24.975  1.00  0.00     0.023 C 
BRANCH  28  29
ATOM     29  C   UNL A   1      38.991  20.544  25.760  1.00  0.00     0.116 C 
BRANCH  29  30
ATOM     30  N   UNL A   1      39.934  19.439  25.851  1.00  0.00    -0.352 N 
ATOM     31  C   UNL A   1      41.279  19.484  26.132  1.00  0.00     0.251 C 
ATOM     32  H   UNL A   1      39.559  18.543  25.690  1.00  0.00     0.163 HD
ATOM     33  O   UNL A   1      41.947  18.456  26.087  1.00  0.00    -0.269 OA
BRANCH  31  34
ATOM     34  C   UNL A   1      41.915  20.787  26.421  1.00  0.00     0.039 A 
ATOM     35  C   UNL A   1      42.199  21.644  25.356  1.00  0.00     0.014 A 
ATOM     36  C   UNL A   1      42.178  21.181  27.735  1.00  0.00     0.014 A 
ATOM     37  C   UNL A   1      42.675  22.929  25.614  1.00  0.00     0.010 A 
ATOM     38  C   UNL A   1      42.587  22.485  27.994  1.00  0.00     0.010 A 
ATOM     39  C   UNL A   1      42.833  23.374  26.937  1.00  0.00    -0.014 A 
BRANCH  39  40
ATOM     40  C   UNL A   1      43.244  24.769  27.233  1.00  0.00     0.031 A 
ATOM     41  C   UNL A   1      42.281  25.713  27.896  1.00  0.00     0.074 A 
ATOM     42  C   UNL A   1      44.458  25.200  26.837  1.00  0.00     0.049 A 
ATOM     43  N   UNL A   1      42.425  26.983  28.174  1.00  0.00    -0.248 NA
ATOM     44  C   UNL A   1      40.969  25.161  28.262  1.00  0.00     0.031 C 
ATOM     45  C   UNL A   1      45.454  24.392  26.129  1.00  0.00     0.029 A 
ATOM     46  N   UNL A   1      45.056  26.429  26.961  1.00  0.00    -0.354 N 
ATOM     47  C   UNL A   1      41.218  27.387  28.733  1.00  0.00     0.074 A 
ATOM     48  C   UNL A   1      40.334  26.240  28.694  1.00  0.00     0.031 C 
ATOM     49  C   UNL A   1      46.546  25.140  25.903  1.00  0.00     0.029 A 
ATOM     50  C   UNL A   1      46.318  26.486  26.415  1.00  0.00     0.049 A 
ATOM     51  H   UNL A   1      44.624  27.197  27.399  1.00  0.00     0.167 HD
ATOM     52  C   UNL A   1      40.886  28.596  29.251  1.00  0.00     0.034 A 
ATOM     53  C   UNL A   1      47.189  27.511  26.336  1.00  0.00     0.034 A 
ATOM     54  C   UNL A   1      41.785  29.722  29.299  1.00  0.00     0.049 A 
ATOM     55  C   UNL A   1      46.803  28.840  26.931  1.00  0.00     0.074 A 
ATOM     56  C   UNL A   1      41.578  30.971  29.859  1.00  0.00     0.029 A 
ATOM     57  N   UNL A   1      43.066  29.738  28.760  1.00  0.00    -0.354 N 
ATOM     58  N   UNL A   1      45.679  29.190  27.511  1.00  0.00    -0.248 NA
ATOM     59  C   UNL A   1      47.812  29.906  26.875  1.00  0.00     0.031 C 
ATOM     60  C   UNL A   1      42.711  31.756  29.613  1.00  0.00     0.029 A 
ATOM     61  C   UNL A   1      43.650  30.979  28.954  1.00  0.00     0.049 A 
ATOM     62  H   UNL A   1      43.496  28.976  28.308  1.00  0.00     0.167 HD
ATOM     63  C   UNL A   1      45.854  30.512  27.908  1.00  0.00     0.074 A 
ATOM     64  C   UNL A   1      47.197  30.889  27.516  1.00  0.00     0.031 C 
ATOM     65  C   UNL A   1      44.986  31.341  28.541  1.00  0.00     0.034 A 
BRANCH  52  66
ATOM     66  C   UNL A   1      39.482  28.752  29.785  1.00  0.00     0.023 A 
ATOM     67  C   UNL A   1      38.438  29.239  28.978  1.00  0.00     0.031 A 
ATOM     68  C   UNL A   1      39.192  28.457  31.129  1.00  0.00     0.131 A 
ATOM     69  C   UNL A   1      37.180  29.498  29.541  1.00  0.00     0.055 A 
ATOM     70  C   UNL A   1      37.914  28.639  31.662  1.00  0.00     0.041 A 
ATOM     71  F   UNL A   1      40.152  28.008  31.952  1.00  0.00    -0.206 F 
ATOM     72  C   UNL A   1      36.903  29.178  30.872  1.00  0.00     0.022 A 
BRANCH  69  73
ATOM     73  S   UNL A   1      35.959  30.399  28.548  1.00  0.00     0.124 S 
ATOM     74  O   UNL A   1      36.816  31.109  27.602  1.00  0.00    -0.237 OA
ATOM     75  O   UNL A   1      35.148  29.322  27.992  1.00  0.00    -0.237 OA
ATOM     76  O   UNL A   1      35.283  31.249  29.525  1.00  0.00    -0.744 OA
ENDBRANCH  69  73
ENDBRANCH  52  66
BRANCH  53  77
ATOM     77  C   UNL A   1      48.507  27.329  25.671  1.00  0.00     0.023 A 
ATOM     78  C   UNL A   1      48.658  27.554  24.294  1.00  0.00     0.031 A 
ATOM     79  C   UNL A   1      49.630  26.891  26.398  1.00  0.00     0.131 A 
ATOM     80  C   UNL A   1      49.892  27.300  23.675  1.00  0.00     0.055 A 
ATOM     81  C   UNL A   1      50.866  26.681  25.785  1.00  0.00     0.041 A 
ATOM     82  F   UNL A   1      49.539  26.674  27.719  1.00  0.00    -0.206 F 
ATOM     83  C   UNL A   1      51.000  26.874  24.414  1.00  0.00     0.022 A 
BRANCH  80  84
ATOM     84  S   UNL A   1      50.011  27.470  21.874  1.00  0.00     0.124 S 
ATOM     85  O   UNL A   1      51.453  27.414  21.663  1.00  0.00    -0.237 OA
ATOM     86  O   UNL A   1      49.248  26.316  21.411  1.00  0.00    -0.237 OA
ATOM     87  O   UNL A   1      49.391  28.768  21.614  1.00  0.00    -0.744 OA
ENDBRANCH  80  84
ENDBRANCH  53  77
BRANCH  65  88
ATOM     88  C   UNL A   1      45.488  32.722  28.874  1.00  0.00     0.023 A 
ATOM     89  C   UNL A   1      45.254  33.815  28.022  1.00  0.00     0.031 A 
ATOM     90  C   UNL A   1      46.229  32.941  30.048  1.00  0.00     0.131 A 
ATOM     91  C   UNL A   1      45.804  35.069  28.327  1.00  0.00     0.055 A 
ATOM     92  C   UNL A   1      46.730  34.202  30.374  1.00  0.00     0.041 A 
ATOM     93  F   UNL A   1      46.482  31.931  30.895  1.00  0.00    -0.206 F 
ATOM     94  C   UNL A   1      46.529  35.272  29.506  1.00  0.00     0.022 A 
BRANCH  91  95
ATOM     95  S   UNL A   1      45.632  36.412  27.122  1.00  0.00     0.124 S 
ATOM     96  O   UNL A   1      44.215  36.338  26.784  1.00  0.00    -0.237 OA
ATOM     97  O   UNL A   1      46.043  37.579  27.894  1.00  0.00    -0.237 OA
ATOM     98  O   UNL A   1      46.547  36.027  26.047  1.00  0.00    -0.744 OA
ENDBRANCH  91  95
ENDBRANCH  65  88
ENDBRANCH  39  40
ENDBRANCH  31  34
ENDBRANCH  29  30
ENDBRANCH  28  29
ENDBRANCH   1  28
TORSDOF 19
ENDMDL
MODEL 3
REMARK VINA RESULT:     -10.8      2.692      7.947
REMARK SMILES COc1cc(NS(=O)(=O)c2cc(C)c(C(=O)NCCCCNC(=O)c3ccc(-c4c5nc(c(-c6cc(S(=O)(=O)[O-])ccc6F)c6ccc([nH]6)c(-c6cc(S(=O)(=O)[O-])ccc6F)c6nc(c(-c7cc(S(=O)(=O)[O-])ccc7F)c7ccc4[nH]7)C=C6)C=C5)cc3)s2)cc(OC)c1
REMARK SMILES IDX 19 1 18 2 17 3 15 4 16 5 14 7 10 8 11 9 88 10 12 11 13 12
REMARK SMILES IDX 7 13 8 14 9 15 6 16 5 18 3 19 4 20 93 21 90 22 89 23 2 24
REMARK SMILES IDX 1 25 91 26 92 27 20 28 21 29 22 30 23 31 24 33 25 34 26 35
REMARK SMILES IDX 87 36 27 37 86 38 28 39 29 40 30 41 80 42 31 43 85 44 79 45
REMARK SMILES IDX 81 46 32 47 84 48 78 49 77 50 33 52 65 53 45 54 64 55 46 56
REMARK SMILES IDX 49 57 63 58 82 59 47 60 48 61 62 63 83 64 50 65 34 66 35 67
REMARK SMILES IDX 43 68 36 69 42 70 44 71 41 72 37 73 38 74 39 75 40 76 66 77
REMARK SMILES IDX 67 78 75 79 68 80 74 81 76 82 73 83 69 84 70 85 71 86 72 87
REMARK SMILES IDX 51 88 52 89 60 90 53 91 59 92 61 93 58 94 54 95 55 96 56 97
REMARK SMILES IDX 57 98
REMARK H PARENT 17 6 6 17 22 32 81 51 49 62
REMARK Flexibility Score: inf
ROOT
ATOM      1  C   UNL A   1      33.131  28.953  24.834  1.00  0.00     0.023 C 
ENDROOT
BRANCH   1   2
ATOM      2  C   UNL A   1      33.377  28.947  23.322  1.00  0.00     0.116 C 
BRANCH   2   3
ATOM      3  N   UNL A   1      32.185  29.335  22.613  1.00  0.00    -0.351 N 
ATOM      4  C   UNL A   1      31.024  28.705  22.265  1.00  0.00     0.261 C 
ATOM      5  O   UNL A   1      30.242  29.475  21.688  1.00  0.00    -0.268 OA
ATOM      6  H   UNL A   1      32.214  30.271  22.310  1.00  0.00     0.163 HD
BRANCH   4   7
ATOM      7  C   UNL A   1      30.688  27.288  22.479  1.00  0.00     0.096 A 
ATOM      8  C   UNL A   1      31.460  24.940  22.766  1.00  0.00     0.141 A 
ATOM      9  C   UNL A   1      30.199  25.130  23.273  1.00  0.00     0.038 A 
ATOM     10  S   UNL A   1      31.847  26.199  21.701  1.00  0.00    -0.116 S 
ATOM     11  C   UNL A   1      29.771  26.513  23.203  1.00  0.00    -0.026 A 
ATOM     12  C   UNL A   1      28.596  26.875  24.048  1.00  0.00     0.046 C 
BRANCH   8  13
ATOM     13  S   UNL A   1      32.695  23.724  23.115  1.00  0.00     0.271 S 
ATOM     14  O   UNL A   1      33.291  24.108  24.371  1.00  0.00    -0.200 OA
ATOM     15  O   UNL A   1      33.500  23.663  21.906  1.00  0.00    -0.200 OA
BRANCH  13  16
ATOM     16  N   UNL A   1      32.005  22.195  23.338  1.00  0.00    -0.279 N 
ATOM     17  H   UNL A   1      31.044  22.083  23.154  1.00  0.00     0.180 HD
BRANCH  16  18
ATOM     18  C   UNL A   1      32.755  21.049  23.787  1.00  0.00     0.056 A 
ATOM     19  C   UNL A   1      32.838  18.838  24.779  1.00  0.00     0.124 A 
ATOM     20  C   UNL A   1      32.171  19.813  24.041  1.00  0.00     0.073 A 
ATOM     21  C   UNL A   1      34.142  19.034  25.206  1.00  0.00     0.093 A 
ATOM     22  C   UNL A   1      34.766  20.249  24.931  1.00  0.00     0.124 A 
ATOM     23  C   UNL A   1      34.060  21.256  24.251  1.00  0.00     0.073 A 
BRANCH  19  24
ATOM     24  O   UNL A   1      32.164  17.682  25.070  1.00  0.00    -0.497 OA
ATOM     25  C   UNL A   1      33.071  16.698  25.582  1.00  0.00     0.278 C 
ENDBRANCH  19  24
BRANCH  22  26
ATOM     26  O   UNL A   1      36.042  20.583  25.300  1.00  0.00    -0.497 OA
ATOM     27  C   UNL A   1      36.607  21.724  24.662  1.00  0.00     0.278 C 
ENDBRANCH  22  26
ENDBRANCH  16  18
ENDBRANCH  13  16
ENDBRANCH   8  13
ENDBRANCH   4   7
ENDBRANCH   2   3
ENDBRANCH   1   2
BRANCH   1  28
ATOM     28  C   UNL A   1      31.968  29.844  25.284  1.00  0.00     0.023 C 
BRANCH  28  29
ATOM     29  C   UNL A   1      32.054  30.318  26.733  1.00  0.00     0.116 C 
BRANCH  29  30
ATOM     30  N   UNL A   1      31.943  31.762  26.882  1.00  0.00    -0.352 N 
ATOM     31  C   UNL A   1      32.836  32.631  27.463  1.00  0.00     0.251 C 
ATOM     32  H   UNL A   1      31.122  32.168  26.521  1.00  0.00     0.163 HD
ATOM     33  O   UNL A   1      32.545  33.818  27.579  1.00  0.00    -0.269 OA
BRANCH  31  34
ATOM     34  C   UNL A   1      34.111  32.109  27.999  1.00  0.00     0.039 A 
ATOM     35  C   UNL A   1      35.154  33.007  28.237  1.00  0.00     0.014 A 
ATOM     36  C   UNL A   1      34.257  30.756  28.313  1.00  0.00     0.014 A 
ATOM     37  C   UNL A   1      36.317  32.561  28.864  1.00  0.00     0.010 A 
ATOM     38  C   UNL A   1      35.388  30.327  29.000  1.00  0.00     0.010 A 
ATOM     39  C   UNL A   1      36.425  31.226  29.289  1.00  0.00    -0.014 A 
BRANCH  39  40
ATOM     40  C   UNL A   1      37.613  30.756  30.045  1.00  0.00     0.031 A 
ATOM     41  C   UNL A   1      38.586  29.808  29.403  1.00  0.00     0.074 A 
ATOM     42  C   UNL A   1      37.770  31.127  31.331  1.00  0.00     0.049 A 
ATOM     43  N   UNL A   1      39.641  29.230  29.917  1.00  0.00    -0.248 NA
ATOM     44  C   UNL A   1      38.314  29.433  28.008  1.00  0.00     0.031 C 
ATOM     45  C   UNL A   1      36.856  31.994  32.078  1.00  0.00     0.029 A 
ATOM     46  N   UNL A   1      38.747  30.812  32.240  1.00  0.00    -0.354 N 
ATOM     47  C   UNL A   1      40.151  28.411  28.915  1.00  0.00     0.074 A 
ATOM     48  C   UNL A   1      39.250  28.523  27.786  1.00  0.00     0.031 C 
ATOM     49  C   UNL A   1      37.329  32.159  33.325  1.00  0.00     0.029 A 
ATOM     50  C   UNL A   1      38.556  31.385  33.477  1.00  0.00     0.049 A 
ATOM     51  H   UNL A   1      39.513  30.231  32.029  1.00  0.00     0.167 HD
ATOM     52  C   UNL A   1      41.277  27.656  28.928  1.00  0.00     0.034 A 
ATOM     53  C   UNL A   1      39.287  31.292  34.605  1.00  0.00     0.034 A 
ATOM     54  C   UNL A   1      42.173  27.573  30.055  1.00  0.00     0.049 A 
ATOM     55  C   UNL A   1      40.542  30.460  34.590  1.00  0.00     0.074 A 
ATOM     56  C   UNL A   1      43.375  26.893  30.155  1.00  0.00     0.029 A 
ATOM     57  N   UNL A   1      41.963  28.187  31.282  1.00  0.00    -0.354 N 
ATOM     58  N   UNL A   1      41.044  29.739  33.615  1.00  0.00    -0.248 NA
ATOM     59  C   UNL A   1      41.337  30.442  35.825  1.00  0.00     0.031 C 
ATOM     60  C   UNL A   1      43.863  27.054  31.457  1.00  0.00     0.029 A 
ATOM     61  C   UNL A   1      42.998  27.884  32.152  1.00  0.00     0.049 A 
ATOM     62  H   UNL A   1      41.190  28.757  31.503  1.00  0.00     0.167 HD
ATOM     63  C   UNL A   1      42.226  29.198  34.113  1.00  0.00     0.074 A 
ATOM     64  C   UNL A   1      42.368  29.691  35.468  1.00  0.00     0.031 C 
ATOM     65  C   UNL A   1      43.115  28.372  33.506  1.00  0.00     0.034 A 
BRANCH  52  66
ATOM     66  C   UNL A   1      41.579  26.851  27.686  1.00  0.00     0.023 A 
ATOM     67  C   UNL A   1      41.270  25.482  27.605  1.00  0.00     0.031 A 
ATOM     68  C   UNL A   1      42.225  27.447  26.589  1.00  0.00     0.131 A 
ATOM     69  C   UNL A   1      41.684  24.735  26.492  1.00  0.00     0.055 A 
ATOM     70  C   UNL A   1      42.560  26.715  25.448  1.00  0.00     0.041 A 
ATOM     71  F   UNL A   1      42.562  28.746  26.616  1.00  0.00    -0.206 F 
ATOM     72  C   UNL A   1      42.306  25.347  25.401  1.00  0.00     0.022 A 
BRANCH  69  73
ATOM     73  S   UNL A   1      41.535  22.929  26.560  1.00  0.00     0.124 S 
ATOM     74  O   UNL A   1      42.046  22.642  27.897  1.00  0.00    -0.237 OA
ATOM     75  O   UNL A   1      40.104  22.724  26.365  1.00  0.00    -0.237 OA
ATOM     76  O   UNL A   1      42.385  22.473  25.463  1.00  0.00    -0.744 OA
ENDBRANCH  69  73
ENDBRANCH  52  66
BRANCH  53  77
ATOM     77  C   UNL A   1      38.859  32.002  35.840  1.00  0.00     0.023 A 
ATOM     78  C   UNL A   1      38.153  31.331  36.850  1.00  0.00     0.031 A 
ATOM     79  C   UNL A   1      39.119  33.374  36.013  1.00  0.00     0.131 A 
ATOM     80  C   UNL A   1      37.692  32.040  37.970  1.00  0.00     0.055 A 
ATOM     81  C   UNL A   1      38.695  34.065  37.149  1.00  0.00     0.041 A 
ATOM     82  F   UNL A   1      39.801  34.057  35.081  1.00  0.00    -0.206 F 
ATOM     83  C   UNL A   1      37.966  33.400  38.131  1.00  0.00     0.022 A 
BRANCH  80  84
ATOM     84  S   UNL A   1      36.666  31.168  39.186  1.00  0.00     0.124 S 
ATOM     85  O   UNL A   1      36.399  29.908  38.503  1.00  0.00    -0.237 OA
ATOM     86  O   UNL A   1      37.558  31.099  40.338  1.00  0.00    -0.237 OA
ATOM     87  O   UNL A   1      35.511  32.049  39.348  1.00  0.00    -0.744 OA
ENDBRANCH  80  84
ENDBRANCH  53  77
BRANCH  65  88
ATOM     88  C   UNL A   1      44.334  27.986  34.304  1.00  0.00     0.023 A 
ATOM     89  C   UNL A   1      45.507  28.759  34.275  1.00  0.00     0.031 A 
ATOM     90  C   UNL A   1      44.327  26.817  35.083  1.00  0.00     0.131 A 
ATOM     91  C   UNL A   1      46.646  28.325  34.970  1.00  0.00     0.055 A 
ATOM     92  C   UNL A   1      45.446  26.417  35.815  1.00  0.00     0.041 A 
ATOM     93  F   UNL A   1      43.232  26.042  35.143  1.00  0.00    -0.206 F 
ATOM     94  C   UNL A   1      46.618  27.166  35.751  1.00  0.00     0.022 A 
BRANCH  91  95
ATOM     95  S   UNL A   1      48.192  29.252  34.771  1.00  0.00     0.124 S 
ATOM     96  O   UNL A   1      47.979  30.393  35.654  1.00  0.00    -0.237 OA
ATOM     97  O   UNL A   1      49.193  28.285  35.208  1.00  0.00    -0.237 OA
ATOM     98  O   UNL A   1      48.220  29.569  33.343  1.00  0.00    -0.744 OA
ENDBRANCH  91  95
ENDBRANCH  65  88
ENDBRANCH  39  40
ENDBRANCH  31  34
ENDBRANCH  29  30
ENDBRANCH  28  29
ENDBRANCH   1  28
TORSDOF 19
ENDMDL
