MODEL 1
REMARK VINA RESULT:     -11.6      0.000      0.000
REMARK SMILES C[C@@H]1[NH2+]CC[C@H]1C(=O)NCc1cccc(C(=O)NCCCCNC(=O)c2ccc(-c3c4nc(c(-c5cc(S(=O)(=O)[O-])ccc5F)c5ccc([nH]5)c(-c5cc(S(=O)(=O)[O-])ccc5F)c5nc(c(-c6cc(S(=O)(=O)[O-])ccc6F)c6ccc3[nH]6)C=C5)C=C4)cc2)c1
REMARK SMILES IDX 20 1 19 2 18 3 16 4 17 5 15 7 11 8 12 9 89 10 13 11 14 12
REMARK SMILES IDX 10 13 9 14 7 15 8 16 6 18 1 19 2 20 3 21 4 22 5 25 21 26
REMARK SMILES IDX 22 27 23 28 24 29 25 31 26 32 27 33 88 34 28 35 87 36 29 37
REMARK SMILES IDX 30 38 31 39 81 40 32 41 86 42 80 43 82 44 33 45 85 46 79 47
REMARK SMILES IDX 78 48 34 50 66 51 46 52 65 53 47 54 50 55 64 56 83 57 48 58
REMARK SMILES IDX 49 59 63 61 84 62 51 63 35 64 36 65 44 66 37 67 43 68 45 69
REMARK SMILES IDX 42 70 38 71 39 72 40 73 41 74 67 75 68 76 76 77 69 78 75 79
REMARK SMILES IDX 77 80 74 81 70 82 71 83 72 84 73 85 52 86 53 87 61 88 54 89
REMARK SMILES IDX 60 90 62 91 59 92 55 93 56 94 57 95 58 96
REMARK H PARENT 18 6 9 17 3 23 3 24 23 30 82 49 50 60
REMARK Flexibility Score: inf
ROOT
ATOM      1  C   UNL A   1      37.224  21.021  24.374  1.00  0.00     0.023 C 
ENDROOT
BRANCH   1   2
ATOM      2  C   UNL A   1      36.994  22.217  25.285  1.00  0.00     0.116 C 
BRANCH   2   3
ATOM      3  N   UNL A   1      36.061  22.007  26.383  1.00  0.00    -0.352 N 
ATOM      4  C   UNL A   1      34.748  21.573  26.397  1.00  0.00     0.251 C 
ATOM      5  O   UNL A   1      34.172  21.449  27.476  1.00  0.00    -0.269 OA
ATOM      6  H   UNL A   1      36.431  22.210  27.273  1.00  0.00     0.163 HD
BRANCH   4   7
ATOM      7  C   UNL A   1      33.981  21.346  25.140  1.00  0.00     0.040 A 
ATOM      8  C   UNL A   1      32.543  22.235  23.404  1.00  0.00    -0.028 A 
ATOM      9  C   UNL A   1      32.092  20.938  23.126  1.00  0.00     0.005 A 
ATOM     10  C   UNL A   1      33.606  22.391  24.300  1.00  0.00     0.019 A 
ATOM     11  C   UNL A   1      32.628  19.844  23.807  1.00  0.00     0.001 A 
ATOM     12  C   UNL A   1      33.534  20.053  24.849  1.00  0.00     0.014 A 
BRANCH   8  13
ATOM     13  C   UNL A   1      31.764  23.424  22.889  1.00  0.00     0.151 C 
BRANCH  13  14
ATOM     14  N   UNL A   1      32.504  24.246  21.952  1.00  0.00    -0.352 N 
ATOM     15  C   UNL A   1      32.808  25.568  21.959  1.00  0.00     0.229 C 
ATOM     16  O   UNL A   1      33.350  26.025  20.950  1.00  0.00    -0.275 OA
ATOM     17  H   UNL A   1      32.848  23.756  21.170  1.00  0.00     0.163 HD
BRANCH  15  18
ATOM     18  C   UNL A   1      32.533  26.455  23.159  1.00  0.00     0.142 C 
ATOM     19  C   UNL A   1      33.781  26.244  25.355  1.00  0.00     0.076 C 
ATOM     20  C   UNL A   1      33.789  26.832  23.946  1.00  0.00     0.192 C 
ATOM     21  N   UNL A   1      33.824  28.303  24.042  1.00  0.00    -0.343 N 
ATOM     22  C   UNL A   1      32.512  28.812  23.643  1.00  0.00     0.261 C 
ATOM     23  H   UNL A   1      34.542  28.673  23.421  1.00  0.00     0.346 HD
ATOM     24  H   UNL A   1      34.041  28.591  24.996  1.00  0.00     0.346 HD
ATOM     25  C   UNL A   1      31.852  27.759  22.778  1.00  0.00     0.081 C 
ENDBRANCH  15  18
ENDBRANCH  13  14
ENDBRANCH   8  13
ENDBRANCH   4   7
ENDBRANCH   2   3
ENDBRANCH   1   2
BRANCH   1  26
ATOM     26  C   UNL A   1      38.010  19.861  24.962  1.00  0.00     0.023 C 
BRANCH  26  27
ATOM     27  C   UNL A   1      39.134  20.236  25.919  1.00  0.00     0.116 C 
BRANCH  27  28
ATOM     28  N   UNL A   1      40.205  19.254  25.990  1.00  0.00    -0.352 N 
ATOM     29  C   UNL A   1      41.555  19.447  26.193  1.00  0.00     0.251 C 
ATOM     30  H   UNL A   1      39.925  18.317  25.877  1.00  0.00     0.163 HD
ATOM     31  O   UNL A   1      42.320  18.495  26.116  1.00  0.00    -0.269 OA
BRANCH  29  32
ATOM     32  C   UNL A   1      42.078  20.809  26.456  1.00  0.00     0.039 A 
ATOM     33  C   UNL A   1      42.189  21.705  25.390  1.00  0.00     0.014 A 
ATOM     34  C   UNL A   1      42.443  21.207  27.743  1.00  0.00     0.014 A 
ATOM     35  C   UNL A   1      42.598  23.020  25.631  1.00  0.00     0.010 A 
ATOM     36  C   UNL A   1      42.756  22.539  27.996  1.00  0.00     0.010 A 
ATOM     37  C   UNL A   1      42.852  23.459  26.940  1.00  0.00    -0.014 A 
BRANCH  37  38
ATOM     38  C   UNL A   1      43.270  24.857  27.223  1.00  0.00     0.031 A 
ATOM     39  C   UNL A   1      42.310  25.798  27.905  1.00  0.00     0.074 A 
ATOM     40  C   UNL A   1      44.479  25.296  26.820  1.00  0.00     0.049 A 
ATOM     41  N   UNL A   1      42.446  27.071  28.175  1.00  0.00    -0.248 NA
ATOM     42  C   UNL A   1      41.008  25.237  28.299  1.00  0.00     0.031 C 
ATOM     43  C   UNL A   1      45.477  24.496  26.108  1.00  0.00     0.029 A 
ATOM     44  N   UNL A   1      45.075  26.527  26.948  1.00  0.00    -0.354 N 
ATOM     45  C   UNL A   1      41.241  27.465  28.750  1.00  0.00     0.074 A 
ATOM     46  C   UNL A   1      40.366  26.314  28.717  1.00  0.00     0.031 C 
ATOM     47  C   UNL A   1      46.570  25.246  25.889  1.00  0.00     0.029 A 
ATOM     48  C   UNL A   1      46.339  26.590  26.408  1.00  0.00     0.049 A 
ATOM     49  H   UNL A   1      44.637  27.293  27.385  1.00  0.00     0.167 HD
ATOM     50  C   UNL A   1      40.906  28.666  29.284  1.00  0.00     0.034 A 
ATOM     51  C   UNL A   1      47.210  27.617  26.338  1.00  0.00     0.034 A 
ATOM     52  C   UNL A   1      41.801  29.796  29.329  1.00  0.00     0.049 A 
ATOM     53  C   UNL A   1      46.822  28.942  26.948  1.00  0.00     0.074 A 
ATOM     54  C   UNL A   1      41.587  31.046  29.883  1.00  0.00     0.029 A 
ATOM     55  N   UNL A   1      43.087  29.812  28.801  1.00  0.00    -0.354 N 
ATOM     56  N   UNL A   1      45.695  29.286  27.530  1.00  0.00    -0.248 NA
ATOM     57  C   UNL A   1      47.831  30.007  26.911  1.00  0.00     0.031 C 
ATOM     58  C   UNL A   1      42.717  31.835  29.638  1.00  0.00     0.029 A 
ATOM     59  C   UNL A   1      43.669  31.054  29.002  1.00  0.00     0.049 A 
ATOM     60  H   UNL A   1      43.520  29.052  28.350  1.00  0.00     0.167 HD
ATOM     61  C   UNL A   1      45.879  30.596  27.966  1.00  0.00     0.074 A 
ATOM     62  C   UNL A   1      47.226  30.973  27.589  1.00  0.00     0.031 C 
ATOM     63  C   UNL A   1      45.016  31.412  28.623  1.00  0.00     0.034 A 
BRANCH  50  64
ATOM     64  C   UNL A   1      39.507  28.811  29.840  1.00  0.00     0.023 A 
ATOM     65  C   UNL A   1      38.469  29.387  29.086  1.00  0.00     0.031 A 
ATOM     66  C   UNL A   1      39.217  28.410  31.155  1.00  0.00     0.131 A 
ATOM     67  C   UNL A   1      37.220  29.628  29.680  1.00  0.00     0.055 A 
ATOM     68  C   UNL A   1      37.945  28.570  31.711  1.00  0.00     0.041 A 
ATOM     69  F   UNL A   1      40.170  27.873  31.934  1.00  0.00    -0.206 F 
ATOM     70  C   UNL A   1      36.943  29.199  30.979  1.00  0.00     0.022 A 
BRANCH  67  71
ATOM     71  S   UNL A   1      36.021  30.653  28.784  1.00  0.00     0.124 S 
ATOM     72  O   UNL A   1      35.262  31.245  29.883  1.00  0.00    -0.237 OA
ATOM     73  O   UNL A   1      36.879  31.563  28.036  1.00  0.00    -0.237 OA
ATOM     74  O   UNL A   1      35.281  29.686  27.975  1.00  0.00    -0.744 OA
ENDBRANCH  67  71
ENDBRANCH  50  64
BRANCH  51  75
ATOM     75  C   UNL A   1      48.538  27.441  25.683  1.00  0.00     0.023 A 
ATOM     76  C   UNL A   1      48.681  27.570  24.291  1.00  0.00     0.031 A 
ATOM     77  C   UNL A   1      49.677  27.095  26.431  1.00  0.00     0.131 A 
ATOM     78  C   UNL A   1      49.919  27.303  23.685  1.00  0.00     0.055 A 
ATOM     79  C   UNL A   1      50.919  26.883  25.830  1.00  0.00     0.041 A 
ATOM     80  F   UNL A   1      49.599  26.966  27.765  1.00  0.00    -0.206 F 
ATOM     81  C   UNL A   1      51.041  26.972  24.447  1.00  0.00     0.022 A 
BRANCH  78  82
ATOM     82  S   UNL A   1      50.018  27.306  21.874  1.00  0.00     0.124 S 
ATOM     83  O   UNL A   1      49.833  28.720  21.568  1.00  0.00    -0.237 OA
ATOM     84  O   UNL A   1      51.356  26.769  21.644  1.00  0.00    -0.237 OA
ATOM     85  O   UNL A   1      48.919  26.430  21.471  1.00  0.00    -0.744 OA
ENDBRANCH  78  82
ENDBRANCH  51  75
BRANCH  63  86
ATOM     86  C   UNL A   1      45.535  32.769  29.037  1.00  0.00     0.023 A 
ATOM     87  C   UNL A   1      45.424  33.896  28.205  1.00  0.00     0.031 A 
ATOM     88  C   UNL A   1      46.168  32.926  30.283  1.00  0.00     0.131 A 
ATOM     89  C   UNL A   1      45.996  35.115  28.600  1.00  0.00     0.055 A 
ATOM     90  C   UNL A   1      46.678  34.156  30.699  1.00  0.00     0.041 A 
ATOM     91  F   UNL A   1      46.302  31.883  31.119  1.00  0.00    -0.206 F 
ATOM     92  C   UNL A   1      46.607  35.257  29.848  1.00  0.00     0.022 A 
BRANCH  89  93
ATOM     93  S   UNL A   1      46.026  36.487  27.415  1.00  0.00     0.124 S 
ATOM     94  O   UNL A   1      47.204  36.172  26.614  1.00  0.00    -0.237 OA
ATOM     95  O   UNL A   1      44.740  36.344  26.740  1.00  0.00    -0.237 OA
ATOM     96  O   UNL A   1      46.151  37.670  28.264  1.00  0.00    -0.744 OA
ENDBRANCH  89  93
ENDBRANCH  63  86
ENDBRANCH  37  38
ENDBRANCH  29  32
ENDBRANCH  27  28
ENDBRANCH  26  27
ENDBRANCH   1  26
TORSDOF 17
ENDMDL
MODEL 2
REMARK VINA RESULT:     -11.6      5.728      9.769
REMARK SMILES C[C@@H]1[NH2+]CC[C@H]1C(=O)NCc1cccc(C(=O)NCCCCNC(=O)c2ccc(-c3c4nc(c(-c5cc(S(=O)(=O)[O-])ccc5F)c5ccc([nH]5)c(-c5cc(S(=O)(=O)[O-])ccc5F)c5nc(c(-c6cc(S(=O)(=O)[O-])ccc6F)c6ccc3[nH]6)C=C5)C=C4)cc2)c1
REMARK SMILES IDX 20 1 19 2 18 3 16 4 17 5 15 7 11 8 12 9 89 10 13 11 14 12
REMARK SMILES IDX 10 13 9 14 7 15 8 16 6 18 1 19 2 20 3 21 4 22 5 25 21 26
REMARK SMILES IDX 22 27 23 28 24 29 25 31 26 32 27 33 88 34 28 35 87 36 29 37
REMARK SMILES IDX 30 38 31 39 81 40 32 41 86 42 80 43 82 44 33 45 85 46 79 47
REMARK SMILES IDX 78 48 34 50 66 51 46 52 65 53 47 54 50 55 64 56 83 57 48 58
REMARK SMILES IDX 49 59 63 61 84 62 51 63 35 64 36 65 44 66 37 67 43 68 45 69
REMARK SMILES IDX 42 70 38 71 39 72 40 73 41 74 67 75 68 76 76 77 69 78 75 79
REMARK SMILES IDX 77 80 74 81 70 82 71 83 72 84 73 85 52 86 53 87 61 88 54 89
REMARK SMILES IDX 60 90 62 91 59 92 55 93 56 94 57 95 58 96
REMARK H PARENT 18 6 9 17 3 23 3 24 23 30 82 49 50 60
REMARK Flexibility Score: inf
ROOT
ATOM      1  C   UNL A   1      31.729  30.480  26.334  1.00  0.00     0.023 C 
ENDROOT
BRANCH   1   2
ATOM      2  C   UNL A   1      33.132  29.897  26.263  1.00  0.00     0.116 C 
BRANCH   2   3
ATOM      3  N   UNL A   1      33.627  29.599  24.926  1.00  0.00    -0.352 N 
ATOM      4  C   UNL A   1      32.995  29.076  23.812  1.00  0.00     0.251 C 
ATOM      5  O   UNL A   1      33.636  28.942  22.771  1.00  0.00    -0.269 OA
ATOM      6  H   UNL A   1      34.580  29.807  24.791  1.00  0.00     0.163 HD
BRANCH   4   7
ATOM      7  C   UNL A   1      31.592  28.579  23.865  1.00  0.00     0.040 A 
ATOM      8  C   UNL A   1      30.066  26.707  24.067  1.00  0.00    -0.028 A 
ATOM      9  C   UNL A   1      29.069  27.464  23.437  1.00  0.00     0.005 A 
ATOM     10  C   UNL A   1      31.262  27.344  24.416  1.00  0.00     0.019 A 
ATOM     11  C   UNL A   1      29.311  28.791  23.080  1.00  0.00     0.001 A 
ATOM     12  C   UNL A   1      30.588  29.332  23.247  1.00  0.00     0.014 A 
BRANCH   8  13
ATOM     13  C   UNL A   1      29.907  25.208  24.181  1.00  0.00     0.151 C 
BRANCH  13  14
ATOM     14  N   UNL A   1      30.079  24.703  25.529  1.00  0.00    -0.352 N 
ATOM     15  C   UNL A   1      31.082  23.993  26.103  1.00  0.00     0.229 C 
ATOM     16  O   UNL A   1      30.896  23.586  27.252  1.00  0.00    -0.275 OA
ATOM     17  H   UNL A   1      29.333  24.913  26.137  1.00  0.00     0.163 HD
BRANCH  15  18
ATOM     18  C   UNL A   1      32.397  23.731  25.393  1.00  0.00     0.142 C 
ATOM     19  C   UNL A   1      34.303  25.400  25.340  1.00  0.00     0.076 C 
ATOM     20  C   UNL A   1      33.616  24.288  26.128  1.00  0.00     0.192 C 
ATOM     21  N   UNL A   1      34.567  23.176  26.313  1.00  0.00    -0.343 N 
ATOM     22  C   UNL A   1      34.137  22.070  25.458  1.00  0.00     0.261 C 
ATOM     23  H   UNL A   1      34.567  22.879  27.288  1.00  0.00     0.346 HD
ATOM     24  H   UNL A   1      35.511  23.471  26.063  1.00  0.00     0.346 HD
ATOM     25  C   UNL A   1      32.659  22.249  25.178  1.00  0.00     0.081 C 
ENDBRANCH  15  18
ENDBRANCH  13  14
ENDBRANCH   8  13
ENDBRANCH   4   7
ENDBRANCH   2   3
ENDBRANCH   1   2
BRANCH   1  26
ATOM     26  C   UNL A   1      31.610  31.902  26.855  1.00  0.00     0.023 C 
BRANCH  26  27
ATOM     27  C   UNL A   1      32.917  32.578  27.248  1.00  0.00     0.116 C 
BRANCH  27  28
ATOM     28  N   UNL A   1      32.751  33.913  27.803  1.00  0.00    -0.352 N 
ATOM     29  C   UNL A   1      33.463  34.537  28.806  1.00  0.00     0.251 C 
ATOM     30  H   UNL A   1      32.026  34.447  27.405  1.00  0.00     0.163 HD
ATOM     31  O   UNL A   1      33.103  35.635  29.209  1.00  0.00    -0.269 OA
BRANCH  29  32
ATOM     32  C   UNL A   1      34.628  33.858  29.420  1.00  0.00     0.039 A 
ATOM     33  C   UNL A   1      34.402  32.814  30.320  1.00  0.00     0.014 A 
ATOM     34  C   UNL A   1      35.934  34.235  29.104  1.00  0.00     0.014 A 
ATOM     35  C   UNL A   1      35.486  32.105  30.845  1.00  0.00     0.010 A 
ATOM     36  C   UNL A   1      37.006  33.468  29.550  1.00  0.00     0.010 A 
ATOM     37  C   UNL A   1      36.796  32.403  30.439  1.00  0.00    -0.014 A 
BRANCH  37  38
ATOM     38  C   UNL A   1      37.963  31.650  30.969  1.00  0.00     0.031 A 
ATOM     39  C   UNL A   1      38.493  31.968  32.343  1.00  0.00     0.074 A 
ATOM     40  C   UNL A   1      38.579  30.728  30.202  1.00  0.00     0.049 A 
ATOM     41  N   UNL A   1      39.540  31.485  32.962  1.00  0.00    -0.248 NA
ATOM     42  C   UNL A   1      37.767  32.996  33.106  1.00  0.00     0.031 C 
ATOM     43  C   UNL A   1      38.191  30.366  28.837  1.00  0.00     0.029 A 
ATOM     44  N   UNL A   1      39.665  29.928  30.458  1.00  0.00    -0.354 N 
ATOM     45  C   UNL A   1      39.608  32.166  34.174  1.00  0.00     0.074 A 
ATOM     46  C   UNL A   1      38.543  33.144  34.166  1.00  0.00     0.031 C 
ATOM     47  C   UNL A   1      39.006  29.397  28.388  1.00  0.00     0.029 A 
ATOM     48  C   UNL A   1      39.999  29.094  29.415  1.00  0.00     0.049 A 
ATOM     49  H   UNL A   1      40.159  29.949  31.309  1.00  0.00     0.167 HD
ATOM     50  C   UNL A   1      40.461  31.972  35.212  1.00  0.00     0.034 A 
ATOM     51  C   UNL A   1      40.994  28.192  29.300  1.00  0.00     0.034 A 
ATOM     52  C   UNL A   1      41.503  30.975  35.212  1.00  0.00     0.049 A 
ATOM     53  C   UNL A   1      41.925  27.985  30.470  1.00  0.00     0.074 A 
ATOM     54  C   UNL A   1      42.396  30.659  36.221  1.00  0.00     0.029 A 
ATOM     55  N   UNL A   1      41.789  30.126  34.149  1.00  0.00    -0.354 N 
ATOM     56  N   UNL A   1      41.948  28.605  31.628  1.00  0.00    -0.248 NA
ATOM     57  C   UNL A   1      42.947  26.941  30.324  1.00  0.00     0.031 C 
ATOM     58  C   UNL A   1      43.259  29.664  35.748  1.00  0.00     0.029 A 
ATOM     59  C   UNL A   1      42.855  29.301  34.473  1.00  0.00     0.049 A 
ATOM     60  H   UNL A   1      41.307  30.114  33.292  1.00  0.00     0.167 HD
ATOM     61  C   UNL A   1      42.962  27.994  32.364  1.00  0.00     0.074 A 
ATOM     62  C   UNL A   1      43.515  26.953  31.522  1.00  0.00     0.031 C 
ATOM     63  C   UNL A   1      43.393  28.264  33.623  1.00  0.00     0.034 A 
BRANCH  50  64
ATOM     64  C   UNL A   1      40.304  32.874  36.415  1.00  0.00     0.023 A 
ATOM     65  C   UNL A   1      39.547  32.487  37.535  1.00  0.00     0.031 A 
ATOM     66  C   UNL A   1      40.879  34.157  36.426  1.00  0.00     0.131 A 
ATOM     67  C   UNL A   1      39.311  33.400  38.574  1.00  0.00     0.055 A 
ATOM     68  C   UNL A   1      40.716  35.029  37.505  1.00  0.00     0.041 A 
ATOM     69  F   UNL A   1      41.595  34.595  35.378  1.00  0.00    -0.206 F 
ATOM     70  C   UNL A   1      39.912  34.659  38.580  1.00  0.00     0.022 A 
BRANCH  67  71
ATOM     71  S   UNL A   1      38.079  32.974  39.836  1.00  0.00     0.124 S 
ATOM     72  O   UNL A   1      38.787  31.954  40.606  1.00  0.00    -0.237 OA
ATOM     73  O   UNL A   1      37.862  34.249  40.509  1.00  0.00    -0.237 OA
ATOM     74  O   UNL A   1      36.946  32.479  39.055  1.00  0.00    -0.744 OA
ENDBRANCH  67  71
ENDBRANCH  50  64
BRANCH  51  75
ATOM     75  C   UNL A   1      41.163  27.404  28.045  1.00  0.00     0.023 A 
ATOM     76  C   UNL A   1      40.836  26.039  27.998  1.00  0.00     0.031 A 
ATOM     77  C   UNL A   1      41.698  27.992  26.886  1.00  0.00     0.131 A 
ATOM     78  C   UNL A   1      41.096  25.295  26.836  1.00  0.00     0.055 A 
ATOM     79  C   UNL A   1      41.906  27.261  25.715  1.00  0.00     0.041 A 
ATOM     80  F   UNL A   1      42.022  29.295  26.873  1.00  0.00    -0.206 F 
ATOM     81  C   UNL A   1      41.618  25.899  25.691  1.00  0.00     0.022 A 
BRANCH  78  82
ATOM     82  S   UNL A   1      40.826  23.501  26.874  1.00  0.00     0.124 S 
ATOM     83  O   UNL A   1      41.753  23.039  25.847  1.00  0.00    -0.237 OA
ATOM     84  O   UNL A   1      41.178  23.172  28.252  1.00  0.00    -0.237 OA
ATOM     85  O   UNL A   1      39.409  23.363  26.545  1.00  0.00    -0.744 OA
ENDBRANCH  78  82
ENDBRANCH  51  75
BRANCH  63  86
ATOM     86  C   UNL A   1      44.470  27.369  34.186  1.00  0.00     0.023 A 
ATOM     87  C   UNL A   1      44.192  26.080  34.673  1.00  0.00     0.031 A 
ATOM     88  C   UNL A   1      45.799  27.827  34.251  1.00  0.00     0.131 A 
ATOM     89  C   UNL A   1      45.213  25.321  35.263  1.00  0.00     0.055 A 
ATOM     90  C   UNL A   1      46.824  27.042  34.779  1.00  0.00     0.041 A 
ATOM     91  F   UNL A   1      46.123  29.051  33.801  1.00  0.00    -0.206 F 
ATOM     92  C   UNL A   1      46.530  25.786  35.304  1.00  0.00     0.022 A 
BRANCH  89  93
ATOM     93  S   UNL A   1      44.778  23.758  36.074  1.00  0.00     0.124 S 
ATOM     94  O   UNL A   1      44.778  24.136  37.483  1.00  0.00    -0.237 OA
ATOM     95  O   UNL A   1      43.472  23.460  35.495  1.00  0.00    -0.237 OA
ATOM     96  O   UNL A   1      45.854  22.853  35.675  1.00  0.00    -0.744 OA
ENDBRANCH  89  93
ENDBRANCH  63  86
ENDBRANCH  37  38
ENDBRANCH  29  32
ENDBRANCH  27  28
ENDBRANCH  26  27
ENDBRANCH   1  26
TORSDOF 17
ENDMDL
MODEL 3
REMARK VINA RESULT:     -11.5      1.983      2.267
REMARK SMILES C[C@@H]1[NH2+]CC[C@H]1C(=O)NCc1cccc(C(=O)NCCCCNC(=O)c2ccc(-c3c4nc(c(-c5cc(S(=O)(=O)[O-])ccc5F)c5ccc([nH]5)c(-c5cc(S(=O)(=O)[O-])ccc5F)c5nc(c(-c6cc(S(=O)(=O)[O-])ccc6F)c6ccc3[nH]6)C=C5)C=C4)cc2)c1
REMARK SMILES IDX 20 1 19 2 18 3 16 4 17 5 15 7 11 8 12 9 89 10 13 11 14 12
REMARK SMILES IDX 10 13 9 14 7 15 8 16 6 18 1 19 2 20 3 21 4 22 5 25 21 26
REMARK SMILES IDX 22 27 23 28 24 29 25 31 26 32 27 33 88 34 28 35 87 36 29 37
REMARK SMILES IDX 30 38 31 39 81 40 32 41 86 42 80 43 82 44 33 45 85 46 79 47
REMARK SMILES IDX 78 48 34 50 66 51 46 52 65 53 47 54 50 55 64 56 83 57 48 58
REMARK SMILES IDX 49 59 63 61 84 62 51 63 35 64 36 65 44 66 37 67 43 68 45 69
REMARK SMILES IDX 42 70 38 71 39 72 40 73 41 74 67 75 68 76 76 77 69 78 75 79
REMARK SMILES IDX 77 80 74 81 70 82 71 83 72 84 73 85 52 86 53 87 61 88 54 89
REMARK SMILES IDX 60 90 62 91 59 92 55 93 56 94 57 95 58 96
REMARK H PARENT 18 6 9 17 3 23 3 24 23 30 82 49 50 60
REMARK Flexibility Score: inf
ROOT
ATOM      1  C   UNL A   1      37.297  21.213  24.484  1.00  0.00     0.023 C 
ENDROOT
BRANCH   1   2
ATOM      2  C   UNL A   1      37.026  22.414  25.376  1.00  0.00     0.116 C 
BRANCH   2   3
ATOM      3  N   UNL A   1      36.088  22.193  26.469  1.00  0.00    -0.352 N 
ATOM      4  C   UNL A   1      34.776  21.756  26.473  1.00  0.00     0.251 C 
ATOM      5  O   UNL A   1      34.196  21.622  27.548  1.00  0.00    -0.269 OA
ATOM      6  H   UNL A   1      36.453  22.389  27.362  1.00  0.00     0.163 HD
BRANCH   4   7
ATOM      7  C   UNL A   1      34.015  21.539  25.210  1.00  0.00     0.040 A 
ATOM      8  C   UNL A   1      32.605  22.447  23.461  1.00  0.00    -0.028 A 
ATOM      9  C   UNL A   1      32.135  21.157  23.183  1.00  0.00     0.005 A 
ATOM     10  C   UNL A   1      33.665  22.587  24.365  1.00  0.00     0.019 A 
ATOM     11  C   UNL A   1      32.647  20.056  23.872  1.00  0.00     0.001 A 
ATOM     12  C   UNL A   1      33.548  20.252  24.919  1.00  0.00     0.014 A 
BRANCH   8  13
ATOM     13  C   UNL A   1      31.851  23.648  22.937  1.00  0.00     0.151 C 
BRANCH  13  14
ATOM     14  N   UNL A   1      32.542  24.355  21.877  1.00  0.00    -0.352 N 
ATOM     15  C   UNL A   1      32.716  25.681  21.645  1.00  0.00     0.229 C 
ATOM     16  O   UNL A   1      33.249  25.998  20.579  1.00  0.00    -0.275 OA
ATOM     17  H   UNL A   1      32.960  23.769  21.206  1.00  0.00     0.163 HD
BRANCH  15  18
ATOM     18  C   UNL A   1      32.314  26.739  22.655  1.00  0.00     0.142 C 
ATOM     19  C   UNL A   1      33.930  28.457  23.583  1.00  0.00     0.076 C 
ATOM     20  C   UNL A   1      32.993  28.091  22.435  1.00  0.00     0.192 C 
ATOM     21  N   UNL A   1      31.931  29.109  22.340  1.00  0.00    -0.343 N 
ATOM     22  C   UNL A   1      30.685  28.503  22.808  1.00  0.00     0.261 C 
ATOM     23  H   UNL A   1      31.827  29.412  21.373  1.00  0.00     0.346 HD
ATOM     24  H   UNL A   1      32.166  29.921  22.911  1.00  0.00     0.346 HD
ATOM     25  C   UNL A   1      30.817  27.002  22.660  1.00  0.00     0.081 C 
ENDBRANCH  15  18
ENDBRANCH  13  14
ENDBRANCH   8  13
ENDBRANCH   4   7
ENDBRANCH   2   3
ENDBRANCH   1   2
BRANCH   1  26
ATOM     26  C   UNL A   1      38.078  20.068  25.106  1.00  0.00     0.023 C 
BRANCH  26  27
ATOM     27  C   UNL A   1      39.323  20.459  25.891  1.00  0.00     0.116 C 
BRANCH  27  28
ATOM     28  N   UNL A   1      40.350  19.429  25.928  1.00  0.00    -0.352 N 
ATOM     29  C   UNL A   1      41.714  19.561  26.077  1.00  0.00     0.251 C 
ATOM     30  H   UNL A   1      40.022  18.506  25.832  1.00  0.00     0.163 HD
ATOM     31  O   UNL A   1      42.431  18.574  25.978  1.00  0.00    -0.269 OA
BRANCH  29  32
ATOM     32  C   UNL A   1      42.309  20.898  26.310  1.00  0.00     0.039 A 
ATOM     33  C   UNL A   1      42.541  21.733  25.214  1.00  0.00     0.014 A 
ATOM     34  C   UNL A   1      42.622  21.335  27.598  1.00  0.00     0.014 A 
ATOM     35  C   UNL A   1      43.022  23.029  25.420  1.00  0.00     0.010 A 
ATOM     36  C   UNL A   1      43.007  22.656  27.809  1.00  0.00     0.010 A 
ATOM     37  C   UNL A   1      43.226  23.515  26.722  1.00  0.00    -0.014 A 
BRANCH  37  38
ATOM     38  C   UNL A   1      43.717  24.896  26.966  1.00  0.00     0.031 A 
ATOM     39  C   UNL A   1      42.801  25.911  27.600  1.00  0.00     0.074 A 
ATOM     40  C   UNL A   1      44.955  25.254  26.571  1.00  0.00     0.049 A 
ATOM     41  N   UNL A   1      43.004  27.183  27.831  1.00  0.00    -0.248 NA
ATOM     42  C   UNL A   1      41.464  25.438  27.989  1.00  0.00     0.031 C 
ATOM     43  C   UNL A   1      45.918  24.376  25.903  1.00  0.00     0.029 A 
ATOM     44  N   UNL A   1      45.618  26.452  26.669  1.00  0.00    -0.354 N 
ATOM     45  C   UNL A   1      41.815  27.663  28.372  1.00  0.00     0.074 A 
ATOM     46  C   UNL A   1      40.877  26.562  28.361  1.00  0.00     0.031 C 
ATOM     47  C   UNL A   1      47.055  25.056  25.679  1.00  0.00     0.029 A 
ATOM     48  C   UNL A   1      46.892  26.427  26.150  1.00  0.00     0.049 A 
ATOM     49  H   UNL A   1      45.217  27.256  27.074  1.00  0.00     0.167 HD
ATOM     50  C   UNL A   1      41.539  28.898  28.860  1.00  0.00     0.034 A 
ATOM     51  C   UNL A   1      47.821  27.400  26.063  1.00  0.00     0.034 A 
ATOM     52  C   UNL A   1      42.496  29.977  28.885  1.00  0.00     0.049 A 
ATOM     53  C   UNL A   1      47.498  28.765  26.623  1.00  0.00     0.074 A 
ATOM     54  C   UNL A   1      42.344  31.255  29.394  1.00  0.00     0.029 A 
ATOM     55  N   UNL A   1      43.789  29.903  28.380  1.00  0.00    -0.354 N 
ATOM     56  N   UNL A   1      46.383  29.190  27.173  1.00  0.00    -0.248 NA
ATOM     57  C   UNL A   1      48.566  29.770  26.569  1.00  0.00     0.031 C 
ATOM     58  C   UNL A   1      43.521  31.970  29.144  1.00  0.00     0.029 A 
ATOM     59  C   UNL A   1      44.437  31.117  28.551  1.00  0.00     0.049 A 
ATOM     60  H   UNL A   1      44.186  29.106  27.961  1.00  0.00     0.167 HD
ATOM     61  C   UNL A   1      46.634  30.502  27.569  1.00  0.00     0.074 A 
ATOM     62  C   UNL A   1      48.006  30.790  27.204  1.00  0.00     0.031 C 
ATOM     63  C   UNL A   1      45.808  31.387  28.184  1.00  0.00     0.034 A 
BRANCH  50  64
ATOM     64  C   UNL A   1      40.143  29.139  29.386  1.00  0.00     0.023 A 
ATOM     65  C   UNL A   1      39.833  29.000  30.751  1.00  0.00     0.031 A 
ATOM     66  C   UNL A   1      39.096  29.468  28.508  1.00  0.00     0.131 A 
ATOM     67  C   UNL A   1      38.502  29.100  31.184  1.00  0.00     0.055 A 
ATOM     68  C   UNL A   1      37.786  29.655  28.958  1.00  0.00     0.041 A 
ATOM     69  F   UNL A   1      39.322  29.593  27.190  1.00  0.00    -0.206 F 
ATOM     70  C   UNL A   1      37.480  29.452  30.301  1.00  0.00     0.022 A 
BRANCH  67  71
ATOM     71  S   UNL A   1      38.105  28.603  32.883  1.00  0.00     0.124 S 
ATOM     72  O   UNL A   1      36.732  29.084  33.017  1.00  0.00    -0.237 OA
ATOM     73  O   UNL A   1      38.275  27.156  32.837  1.00  0.00    -0.237 OA
ATOM     74  O   UNL A   1      39.091  29.322  33.688  1.00  0.00    -0.744 OA
ENDBRANCH  67  71
ENDBRANCH  50  64
BRANCH  51  75
ATOM     75  C   UNL A   1      49.147  27.130  25.437  1.00  0.00     0.023 A 
ATOM     76  C   UNL A   1      50.254  26.758  26.218  1.00  0.00     0.031 A 
ATOM     77  C   UNL A   1      49.342  27.285  24.053  1.00  0.00     0.131 A 
ATOM     78  C   UNL A   1      51.515  26.605  25.620  1.00  0.00     0.055 A 
ATOM     79  C   UNL A   1      50.586  27.079  23.455  1.00  0.00     0.041 A 
ATOM     80  F   UNL A   1      48.317  27.632  23.259  1.00  0.00    -0.206 F 
ATOM     81  C   UNL A   1      51.685  26.752  24.243  1.00  0.00     0.022 A 
BRANCH  78  82
ATOM     82  S   UNL A   1      52.951  26.300  26.686  1.00  0.00     0.124 S 
ATOM     83  O   UNL A   1      52.890  24.853  26.860  1.00  0.00    -0.237 OA
ATOM     84  O   UNL A   1      54.048  26.804  25.867  1.00  0.00    -0.237 OA
ATOM     85  O   UNL A   1      52.658  27.085  27.884  1.00  0.00    -0.744 OA
ENDBRANCH  78  82
ENDBRANCH  51  75
BRANCH  63  86
ATOM     86  C   UNL A   1      46.395  32.725  28.563  1.00  0.00     0.023 A 
ATOM     87  C   UNL A   1      46.266  33.857  27.740  1.00  0.00     0.031 A 
ATOM     88  C   UNL A   1      47.114  32.860  29.765  1.00  0.00     0.131 A 
ATOM     89  C   UNL A   1      46.902  35.056  28.097  1.00  0.00     0.055 A 
ATOM     90  C   UNL A   1      47.689  34.072  30.147  1.00  0.00     0.041 A 
ATOM     91  F   UNL A   1      47.270  31.811  30.590  1.00  0.00    -0.206 F 
ATOM     92  C   UNL A   1      47.597  35.176  29.303  1.00  0.00     0.022 A 
BRANCH  89  93
ATOM     93  S   UNL A   1      46.898  36.429  26.912  1.00  0.00     0.124 S 
ATOM     94  O   UNL A   1      47.315  35.770  25.680  1.00  0.00    -0.237 OA
ATOM     95  O   UNL A   1      45.509  36.876  26.957  1.00  0.00    -0.237 OA
ATOM     96  O   UNL A   1      47.868  37.368  27.473  1.00  0.00    -0.744 OA
ENDBRANCH  89  93
ENDBRANCH  63  86
ENDBRANCH  37  38
ENDBRANCH  29  32
ENDBRANCH  27  28
ENDBRANCH  26  27
ENDBRANCH   1  26
TORSDOF 17
ENDMDL
