MODEL 1
REMARK VINA RESULT:     -12.3      0.000      0.000
REMARK SMILES O=C(NCCCCNC(=O)[C@@H]1CN(C(=O)CCC(F)(F)F)C[C@H]1c1ccc2c(c1)OCO2)c1ccc(-c2c3nc(c(-c4cc(S(=O)(=O)[O-])ccc4F)c4ccc([nH]4)c(-c4cc(S(=O)(=O)[O-])ccc4F)c4nc(c(-c5cc(S(=O)(=O)[O-])ccc5F)c5ccc2[nH]5)C=C4)C=C3)cc1
REMARK SMILES IDX 6 1 5 2 4 3 3 4 1 5 2 6 33 8 34 9 95 10 35 11 94 12 36 13
REMARK SMILES IDX 37 14 38 15 88 16 39 17 93 18 87 19 89 20 40 21 92 22 86 23
REMARK SMILES IDX 85 24 41 26 73 27 53 28 72 29 54 30 57 31 71 32 90 33 55 34
REMARK SMILES IDX 56 35 70 37 91 38 58 39 42 40 43 41 51 42 44 43 50 44 52 45
REMARK SMILES IDX 49 46 45 47 46 48 47 49 48 50 74 51 75 52 83 53 76 54 82 55
REMARK SMILES IDX 84 56 81 57 77 58 78 59 79 60 80 61 59 62 60 63 68 64 61 65
REMARK SMILES IDX 67 66 69 67 66 68 62 69 63 70 64 71 65 72 7 73 8 74 9 75
REMARK SMILES IDX 10 77 11 78 12 79 23 80 13 81 22 82 24 83 25 84 29 85 26 86
REMARK SMILES IDX 28 87 27 88 30 89 32 90 31 91 14 92 15 93 16 94 17 95 18 96
REMARK SMILES IDX 19 97 20 98 21 99
REMARK H PARENT 3 7 89 25 57 36 8 76
REMARK Flexibility Score: inf
ROOT
ATOM      1  C   UNL A   1      32.074  29.755  26.956  1.00  0.00     0.023 C 
ENDROOT
BRANCH   1   2
ATOM      2  C   UNL A   1      32.332  31.183  26.502  1.00  0.00     0.023 C 
BRANCH   2   3
ATOM      3  C   UNL A   1      33.300  31.966  27.374  1.00  0.00     0.116 C 
BRANCH   3   4
ATOM      4  N   UNL A   1      32.854  33.326  27.660  1.00  0.00    -0.352 N 
ATOM      5  O   UNL A   1      32.752  35.272  28.807  1.00  0.00    -0.269 OA
ATOM      6  C   UNL A   1      33.308  34.202  28.622  1.00  0.00     0.251 C 
ATOM      7  H   UNL A   1      32.129  33.664  27.086  1.00  0.00     0.163 HD
BRANCH   6   8
ATOM      8  C   UNL A   1      34.464  33.793  29.442  1.00  0.00     0.039 A 
ATOM      9  C   UNL A   1      35.742  34.244  29.109  1.00  0.00     0.014 A 
ATOM     10  C   UNL A   1      34.273  32.880  30.480  1.00  0.00     0.014 A 
ATOM     11  C   UNL A   1      36.847  33.641  29.689  1.00  0.00     0.010 A 
ATOM     12  C   UNL A   1      35.387  32.358  31.139  1.00  0.00     0.010 A 
ATOM     13  C   UNL A   1      36.681  32.704  30.721  1.00  0.00    -0.014 A 
BRANCH  13  14
ATOM     14  C   UNL A   1      37.877  32.129  31.382  1.00  0.00     0.031 A 
ATOM     15  C   UNL A   1      38.677  31.044  30.721  1.00  0.00     0.074 A 
ATOM     16  C   UNL A   1      38.228  32.601  32.593  1.00  0.00     0.049 A 
ATOM     17  N   UNL A   1      39.674  30.345  31.199  1.00  0.00    -0.248 NA
ATOM     18  C   UNL A   1      38.295  30.686  29.347  1.00  0.00     0.031 C 
ATOM     19  C   UNL A   1      37.529  33.668  33.316  1.00  0.00     0.029 A 
ATOM     20  N   UNL A   1      39.253  32.250  33.432  1.00  0.00    -0.354 N 
ATOM     21  C   UNL A   1      40.020  29.439  30.201  1.00  0.00     0.074 A 
ATOM     22  C   UNL A   1      39.106  29.667  29.100  1.00  0.00     0.031 C 
ATOM     23  C   UNL A   1      38.159  33.902  34.473  1.00  0.00     0.029 A 
ATOM     24  C   UNL A   1      39.245  32.942  34.618  1.00  0.00     0.049 A 
ATOM     25  H   UNL A   1      39.928  31.570  33.206  1.00  0.00     0.167 HD
ATOM     26  C   UNL A   1      41.007  28.508  30.212  1.00  0.00     0.034 A 
ATOM     27  C   UNL A   1      39.991  32.790  35.727  1.00  0.00     0.034 A 
ATOM     28  C   UNL A   1      41.905  28.313  31.329  1.00  0.00     0.049 A 
ATOM     29  C   UNL A   1      41.046  31.723  35.739  1.00  0.00     0.074 A 
ATOM     30  C   UNL A   1      42.955  27.419  31.450  1.00  0.00     0.029 A 
ATOM     31  N   UNL A   1      41.852  29.021  32.525  1.00  0.00    -0.354 N 
ATOM     32  N   UNL A   1      41.350  30.858  34.799  1.00  0.00    -0.248 NA
ATOM     33  C   UNL A   1      41.855  31.609  36.956  1.00  0.00     0.031 C 
ATOM     34  C   UNL A   1      43.492  27.542  32.738  1.00  0.00     0.029 A 
ATOM     35  C   UNL A   1      42.829  28.564  33.397  1.00  0.00     0.049 A 
ATOM     36  H   UNL A   1      41.212  29.742  32.725  1.00  0.00     0.167 HD
ATOM     37  C   UNL A   1      42.403  30.107  35.304  1.00  0.00     0.074 A 
ATOM     38  C   UNL A   1      42.683  30.626  36.630  1.00  0.00     0.031 C 
ATOM     39  C   UNL A   1      43.082  29.086  34.722  1.00  0.00     0.034 A 
BRANCH  26  40
ATOM     40  C   UNL A   1      41.117  27.595  29.011  1.00  0.00     0.023 A 
ATOM     41  C   UNL A   1      42.110  27.769  28.031  1.00  0.00     0.031 A 
ATOM     42  C   UNL A   1      40.183  26.562  28.818  1.00  0.00     0.131 A 
ATOM     43  C   UNL A   1      42.091  26.986  26.865  1.00  0.00     0.055 A 
ATOM     44  C   UNL A   1      40.221  25.730  27.697  1.00  0.00     0.041 A 
ATOM     45  F   UNL A   1      39.197  26.356  29.707  1.00  0.00    -0.206 F 
ATOM     46  C   UNL A   1      41.167  25.951  26.702  1.00  0.00     0.022 A 
BRANCH  43  47
ATOM     47  S   UNL A   1      43.180  27.453  25.490  1.00  0.00     0.124 S 
ATOM     48  O   UNL A   1      43.616  26.148  24.999  1.00  0.00    -0.237 OA
ATOM     49  O   UNL A   1      42.280  28.196  24.615  1.00  0.00    -0.237 OA
ATOM     50  O   UNL A   1      44.225  28.247  26.133  1.00  0.00    -0.744 OA
ENDBRANCH  43  47
ENDBRANCH  26  40
BRANCH  27  51
ATOM     51  C   UNL A   1      39.710  33.636  36.917  1.00  0.00     0.023 A 
ATOM     52  C   UNL A   1      39.057  33.116  38.042  1.00  0.00     0.031 A 
ATOM     53  C   UNL A   1      40.139  34.976  36.958  1.00  0.00     0.131 A 
ATOM     54  C   UNL A   1      38.841  33.936  39.160  1.00  0.00     0.055 A 
ATOM     55  C   UNL A   1      39.963  35.773  38.087  1.00  0.00     0.041 A 
ATOM     56  F   UNL A   1      40.783  35.515  35.909  1.00  0.00    -0.206 F 
ATOM     57  C   UNL A   1      39.304  35.255  39.196  1.00  0.00     0.022 A 
BRANCH  54  58
ATOM     58  S   UNL A   1      37.916  33.260  40.565  1.00  0.00     0.124 S 
ATOM     59  O   UNL A   1      38.055  34.324  41.553  1.00  0.00    -0.237 OA
ATOM     60  O   UNL A   1      36.584  33.083  39.995  1.00  0.00    -0.237 OA
ATOM     61  O   UNL A   1      38.627  32.021  40.875  1.00  0.00    -0.744 OA
ENDBRANCH  54  58
ENDBRANCH  27  51
BRANCH  39  62
ATOM     62  C   UNL A   1      44.230  28.504  35.504  1.00  0.00     0.023 A 
ATOM     63  C   UNL A   1      44.042  27.469  36.435  1.00  0.00     0.031 A 
ATOM     64  C   UNL A   1      45.530  29.004  35.314  1.00  0.00     0.131 A 
ATOM     65  C   UNL A   1      45.135  26.993  37.174  1.00  0.00     0.055 A 
ATOM     66  C   UNL A   1      46.621  28.491  36.015  1.00  0.00     0.041 A 
ATOM     67  F   UNL A   1      45.760  29.996  34.439  1.00  0.00    -0.206 F 
ATOM     68  C   UNL A   1      46.425  27.486  36.958  1.00  0.00     0.022 A 
BRANCH  65  69
ATOM     69  S   UNL A   1      44.842  25.763  38.474  1.00  0.00     0.124 S 
ATOM     70  O   UNL A   1      43.780  26.393  39.252  1.00  0.00    -0.237 OA
ATOM     71  O   UNL A   1      44.456  24.582  37.708  1.00  0.00    -0.237 OA
ATOM     72  O   UNL A   1      46.132  25.665  39.152  1.00  0.00    -0.744 OA
ENDBRANCH  65  69
ENDBRANCH  39  62
ENDBRANCH  13  14
ENDBRANCH   6   8
ENDBRANCH   3   4
ENDBRANCH   2   3
ENDBRANCH   1   2
BRANCH   1  73
ATOM     73  C   UNL A   1      33.243  28.797  26.754  1.00  0.00     0.116 C 
BRANCH  73  74
ATOM     74  N   UNL A   1      33.867  28.953  25.455  1.00  0.00    -0.356 N 
ATOM     75  C   UNL A   1      33.645  28.454  24.221  1.00  0.00     0.225 C 
ATOM     76  H   UNL A   1      34.634  29.571  25.478  1.00  0.00     0.163 HD
ATOM     77  O   UNL A   1      34.413  28.869  23.340  1.00  0.00    -0.275 OA
BRANCH  75  78
ATOM     78  C   UNL A   1      32.591  27.425  23.819  1.00  0.00     0.107 C 
ATOM     79  C   UNL A   1      31.305  28.214  23.569  1.00  0.00     0.133 C 
ATOM     80  C   UNL A   1      32.153  26.265  24.727  1.00  0.00     0.053 C 
ATOM     81  N   UNL A   1      30.212  27.282  23.751  1.00  0.00    -0.341 N 
ATOM     82  C   UNL A   1      30.667  26.057  24.377  1.00  0.00     0.128 C 
BRANCH  80  83
ATOM     83  C   UNL A   1      32.993  24.994  24.588  1.00  0.00    -0.038 A 
ATOM     84  C   UNL A   1      33.709  24.706  23.397  1.00  0.00     0.008 A 
ATOM     85  C   UNL A   1      33.121  24.094  25.663  1.00  0.00     0.054 A 
ATOM     86  C   UNL A   1      34.533  23.583  23.269  1.00  0.00     0.051 A 
ATOM     87  C   UNL A   1      33.914  22.970  25.499  1.00  0.00     0.166 A 
ATOM     88  C   UNL A   1      34.605  22.728  24.337  1.00  0.00     0.165 A 
ATOM     89  O   UNL A   1      34.112  21.991  26.423  1.00  0.00    -0.454 OA
ATOM     90  O   UNL A   1      35.333  21.583  24.383  1.00  0.00    -0.454 OA
ATOM     91  C   UNL A   1      34.966  21.089  25.685  1.00  0.00     0.468 C 
ENDBRANCH  80  83
BRANCH  81  92
ATOM     92  C   UNL A   1      28.881  27.487  23.482  1.00  0.00     0.222 C 
ATOM     93  O   UNL A   1      28.005  26.720  23.887  1.00  0.00    -0.275 OA
BRANCH  92  94
ATOM     94  C   UNL A   1      28.501  28.656  22.593  1.00  0.00     0.109 C 
BRANCH  94  95
ATOM     95  C   UNL A   1      27.360  29.508  23.130  1.00  0.00     0.125 C 
BRANCH  95  96
ATOM     96  C   UNL A   1      27.760  30.939  23.396  1.00  0.00     0.389 C 
ATOM     97  F   UNL A   1      29.004  31.008  23.913  1.00  0.00    -0.171 F 
ATOM     98  F   UNL A   1      27.757  31.649  22.245  1.00  0.00    -0.171 F 
ATOM     99  F   UNL A   1      26.911  31.543  24.249  1.00  0.00    -0.171 F 
ENDBRANCH  95  96
ENDBRANCH  94  95
ENDBRANCH  92  94
ENDBRANCH  81  92
ENDBRANCH  75  78
ENDBRANCH  73  74
ENDBRANCH   1  73
TORSDOF 19
ENDMDL
MODEL 2
REMARK VINA RESULT:     -12.2      2.623      8.482
REMARK SMILES O=C(NCCCCNC(=O)[C@@H]1CN(C(=O)CCC(F)(F)F)C[C@H]1c1ccc2c(c1)OCO2)c1ccc(-c2c3nc(c(-c4cc(S(=O)(=O)[O-])ccc4F)c4ccc([nH]4)c(-c4cc(S(=O)(=O)[O-])ccc4F)c4nc(c(-c5cc(S(=O)(=O)[O-])ccc5F)c5ccc2[nH]5)C=C4)C=C3)cc1
REMARK SMILES IDX 6 1 5 2 4 3 3 4 1 5 2 6 33 8 34 9 95 10 35 11 94 12 36 13
REMARK SMILES IDX 37 14 38 15 88 16 39 17 93 18 87 19 89 20 40 21 92 22 86 23
REMARK SMILES IDX 85 24 41 26 73 27 53 28 72 29 54 30 57 31 71 32 90 33 55 34
REMARK SMILES IDX 56 35 70 37 91 38 58 39 42 40 43 41 51 42 44 43 50 44 52 45
REMARK SMILES IDX 49 46 45 47 46 48 47 49 48 50 74 51 75 52 83 53 76 54 82 55
REMARK SMILES IDX 84 56 81 57 77 58 78 59 79 60 80 61 59 62 60 63 68 64 61 65
REMARK SMILES IDX 67 66 69 67 66 68 62 69 63 70 64 71 65 72 7 73 8 74 9 75
REMARK SMILES IDX 10 77 11 78 12 79 23 80 13 81 22 82 24 83 25 84 29 85 26 86
REMARK SMILES IDX 28 87 27 88 30 89 32 90 31 91 14 92 15 93 16 94 17 95 18 96
REMARK SMILES IDX 19 97 20 98 21 99
REMARK H PARENT 3 7 89 25 57 36 8 76
REMARK Flexibility Score: inf
ROOT
ATOM      1  C   UNL A   1      32.311  30.422  27.169  1.00  0.00     0.023 C 
ENDROOT
BRANCH   1   2
ATOM      2  C   UNL A   1      32.074  31.921  27.068  1.00  0.00     0.023 C 
BRANCH   2   3
ATOM      3  C   UNL A   1      33.295  32.781  27.349  1.00  0.00     0.116 C 
BRANCH   3   4
ATOM      4  N   UNL A   1      32.966  34.148  27.740  1.00  0.00    -0.352 N 
ATOM      5  O   UNL A   1      32.996  35.987  29.053  1.00  0.00    -0.269 OA
ATOM      6  C   UNL A   1      33.457  34.889  28.792  1.00  0.00     0.251 C 
ATOM      7  H   UNL A   1      32.301  34.602  27.174  1.00  0.00     0.163 HD
BRANCH   6   8
ATOM      8  C   UNL A   1      34.534  34.301  29.612  1.00  0.00     0.039 A 
ATOM      9  C   UNL A   1      35.867  34.533  29.270  1.00  0.00     0.014 A 
ATOM     10  C   UNL A   1      34.199  33.441  30.659  1.00  0.00     0.014 A 
ATOM     11  C   UNL A   1      36.860  33.761  29.852  1.00  0.00     0.010 A 
ATOM     12  C   UNL A   1      35.215  32.748  31.319  1.00  0.00     0.010 A 
ATOM     13  C   UNL A   1      36.547  32.872  30.893  1.00  0.00    -0.014 A 
BRANCH  13  14
ATOM     14  C   UNL A   1      37.634  32.113  31.555  1.00  0.00     0.031 A 
ATOM     15  C   UNL A   1      38.080  32.460  32.947  1.00  0.00     0.074 A 
ATOM     16  C   UNL A   1      38.216  31.104  30.879  1.00  0.00     0.049 A 
ATOM     17  N   UNL A   1      39.086  31.985  33.634  1.00  0.00    -0.248 NA
ATOM     18  C   UNL A   1      37.300  33.487  33.653  1.00  0.00     0.031 C 
ATOM     19  C   UNL A   1      37.845  30.674  29.528  1.00  0.00     0.029 A 
ATOM     20  N   UNL A   1      39.238  30.261  31.227  1.00  0.00    -0.354 N 
ATOM     21  C   UNL A   1      39.087  32.678  34.841  1.00  0.00     0.074 A 
ATOM     22  C   UNL A   1      37.989  33.622  34.777  1.00  0.00     0.031 C 
ATOM     23  C   UNL A   1      38.607  29.632  29.173  1.00  0.00     0.029 A 
ATOM     24  C   UNL A   1      39.580  29.384  30.227  1.00  0.00     0.049 A 
ATOM     25  H   UNL A   1      39.681  30.281  32.105  1.00  0.00     0.167 HD
ATOM     26  C   UNL A   1      39.929  32.534  35.896  1.00  0.00     0.034 A 
ATOM     27  C   UNL A   1      40.600  28.510  30.140  1.00  0.00     0.034 A 
ATOM     28  C   UNL A   1      41.012  31.577  35.925  1.00  0.00     0.049 A 
ATOM     29  C   UNL A   1      41.549  28.399  31.296  1.00  0.00     0.074 A 
ATOM     30  C   UNL A   1      41.916  31.323  36.943  1.00  0.00     0.029 A 
ATOM     31  N   UNL A   1      41.342  30.717  34.882  1.00  0.00    -0.354 N 
ATOM     32  N   UNL A   1      41.553  29.073  32.423  1.00  0.00    -0.248 NA
ATOM     33  C   UNL A   1      42.628  27.415  31.172  1.00  0.00     0.031 C 
ATOM     34  C   UNL A   1      42.829  30.361  36.491  1.00  0.00     0.029 A 
ATOM     35  C   UNL A   1      42.452  29.956  35.221  1.00  0.00     0.049 A 
ATOM     36  H   UNL A   1      40.859  30.658  34.027  1.00  0.00     0.167 HD
ATOM     37  C   UNL A   1      42.626  28.580  33.153  1.00  0.00     0.074 A 
ATOM     38  C   UNL A   1      43.241  27.547  32.340  1.00  0.00     0.031 C 
ATOM     39  C   UNL A   1      43.058  28.942  34.388  1.00  0.00     0.034 A 
BRANCH  26  40
ATOM     40  C   UNL A   1      39.748  33.477  37.064  1.00  0.00     0.023 A 
ATOM     41  C   UNL A   1      40.535  34.632  37.219  1.00  0.00     0.031 A 
ATOM     42  C   UNL A   1      38.806  33.190  38.069  1.00  0.00     0.131 A 
ATOM     43  C   UNL A   1      40.428  35.404  38.388  1.00  0.00     0.055 A 
ATOM     44  C   UNL A   1      38.644  34.009  39.188  1.00  0.00     0.041 A 
ATOM     45  F   UNL A   1      38.038  32.091  37.990  1.00  0.00    -0.206 F 
ATOM     46  C   UNL A   1      39.471  35.114  39.363  1.00  0.00     0.022 A 
BRANCH  43  47
ATOM     47  S   UNL A   1      41.674  36.688  38.695  1.00  0.00     0.124 S 
ATOM     48  O   UNL A   1      40.846  37.806  39.142  1.00  0.00    -0.237 OA
ATOM     49  O   UNL A   1      42.516  36.071  39.714  1.00  0.00    -0.237 OA
ATOM     50  O   UNL A   1      42.305  36.874  37.390  1.00  0.00    -0.744 OA
ENDBRANCH  43  47
ENDBRANCH  26  40
BRANCH  27  51
ATOM     51  C   UNL A   1      40.786  27.730  28.887  1.00  0.00     0.023 A 
ATOM     52  C   UNL A   1      41.805  28.046  27.978  1.00  0.00     0.031 A 
ATOM     53  C   UNL A   1      39.966  26.619  28.608  1.00  0.00     0.131 A 
ATOM     54  C   UNL A   1      41.972  27.265  26.824  1.00  0.00     0.055 A 
ATOM     55  C   UNL A   1      40.166  25.821  27.484  1.00  0.00     0.041 A 
ATOM     56  F   UNL A   1      38.987  26.269  29.458  1.00  0.00    -0.206 F 
ATOM     57  C   UNL A   1      41.170  26.146  26.580  1.00  0.00     0.022 A 
BRANCH  54  58
ATOM     58  S   UNL A   1      43.241  27.753  25.624  1.00  0.00     0.124 S 
ATOM     59  O   UNL A   1      44.035  26.535  25.521  1.00  0.00    -0.237 OA
ATOM     60  O   UNL A   1      42.437  28.096  24.455  1.00  0.00    -0.237 OA
ATOM     61  O   UNL A   1      43.905  28.881  26.273  1.00  0.00    -0.744 OA
ENDBRANCH  54  58
ENDBRANCH  27  51
BRANCH  39  62
ATOM     62  C   UNL A   1      44.225  28.171  34.949  1.00  0.00     0.023 A 
ATOM     63  C   UNL A   1      44.060  26.913  35.552  1.00  0.00     0.031 A 
ATOM     64  C   UNL A   1      45.520  28.713  34.880  1.00  0.00     0.131 A 
ATOM     65  C   UNL A   1      45.170  26.255  36.101  1.00  0.00     0.055 A 
ATOM     66  C   UNL A   1      46.627  28.031  35.382  1.00  0.00     0.041 A 
ATOM     67  F   UNL A   1      45.728  29.914  34.316  1.00  0.00    -0.206 F 
ATOM     68  C   UNL A   1      46.454  26.800  36.006  1.00  0.00     0.022 A 
BRANCH  65  69
ATOM     69  S   UNL A   1      44.908  24.705  37.006  1.00  0.00     0.124 S 
ATOM     70  O   UNL A   1      46.216  24.068  36.900  1.00  0.00    -0.237 OA
ATOM     71  O   UNL A   1      44.534  25.178  38.335  1.00  0.00    -0.237 OA
ATOM     72  O   UNL A   1      43.837  24.049  36.259  1.00  0.00    -0.744 OA
ENDBRANCH  65  69
ENDBRANCH  39  62
ENDBRANCH  13  14
ENDBRANCH   6   8
ENDBRANCH   3   4
ENDBRANCH   2   3
ENDBRANCH   1   2
BRANCH   1  73
ATOM     73  C   UNL A   1      33.735  29.975  26.856  1.00  0.00     0.116 C 
BRANCH  73  74
ATOM     74  N   UNL A   1      33.912  29.638  25.457  1.00  0.00    -0.356 N 
ATOM     75  C   UNL A   1      33.124  29.126  24.489  1.00  0.00     0.225 C 
ATOM     76  H   UNL A   1      34.824  29.830  25.137  1.00  0.00     0.163 HD
ATOM     77  O   UNL A   1      33.663  29.010  23.378  1.00  0.00    -0.275 OA
BRANCH  75  78
ATOM     78  C   UNL A   1      31.680  28.651  24.631  1.00  0.00     0.107 C 
ATOM     79  C   UNL A   1      31.753  27.250  25.235  1.00  0.00     0.133 C 
ATOM     80  C   UNL A   1      30.720  28.499  23.439  1.00  0.00     0.053 C 
ATOM     81  N   UNL A   1      30.527  26.578  24.861  1.00  0.00    -0.341 N 
ATOM     82  C   UNL A   1      29.817  27.315  23.835  1.00  0.00     0.128 C 
BRANCH  80  83
ATOM     83  C   UNL A   1      29.938  29.766  23.084  1.00  0.00    -0.038 A 
ATOM     84  C   UNL A   1      29.717  30.792  24.040  1.00  0.00     0.008 A 
ATOM     85  C   UNL A   1      29.456  29.973  21.778  1.00  0.00     0.054 A 
ATOM     86  C   UNL A   1      29.060  31.985  23.722  1.00  0.00     0.051 A 
ATOM     87  C   UNL A   1      28.777  31.147  21.498  1.00  0.00     0.166 A 
ATOM     88  C   UNL A   1      28.593  32.127  22.443  1.00  0.00     0.165 A 
ATOM     89  O   UNL A   1      28.222  31.482  20.301  1.00  0.00    -0.454 OA
ATOM     90  O   UNL A   1      27.915  33.203  21.964  1.00  0.00    -0.454 OA
ATOM     91  C   UNL A   1      27.629  32.760  20.624  1.00  0.00     0.468 C 
ENDBRANCH  80  83
BRANCH  81  92
ATOM     92  C   UNL A   1      30.070  25.359  25.300  1.00  0.00     0.222 C 
ATOM     93  O   UNL A   1      29.482  25.227  26.375  1.00  0.00    -0.275 OA
BRANCH  92  94
ATOM     94  C   UNL A   1      30.375  24.134  24.458  1.00  0.00     0.109 C 
BRANCH  94  95
ATOM     95  C   UNL A   1      31.646  23.399  24.857  1.00  0.00     0.125 C 
BRANCH  95  96
ATOM     96  C   UNL A   1      31.404  22.283  25.844  1.00  0.00     0.389 C 
ATOM     97  F   UNL A   1      31.890  21.112  25.383  1.00  0.00    -0.171 F 
ATOM     98  F   UNL A   1      32.024  22.548  27.015  1.00  0.00    -0.171 F 
ATOM     99  F   UNL A   1      30.092  22.125  26.104  1.00  0.00    -0.171 F 
ENDBRANCH  95  96
ENDBRANCH  94  95
ENDBRANCH  92  94
ENDBRANCH  81  92
ENDBRANCH  75  78
ENDBRANCH  73  74
ENDBRANCH   1  73
TORSDOF 19
ENDMDL
MODEL 3
REMARK VINA RESULT:     -12.2      6.124     10.802
REMARK SMILES O=C(NCCCCNC(=O)[C@@H]1CN(C(=O)CCC(F)(F)F)C[C@H]1c1ccc2c(c1)OCO2)c1ccc(-c2c3nc(c(-c4cc(S(=O)(=O)[O-])ccc4F)c4ccc([nH]4)c(-c4cc(S(=O)(=O)[O-])ccc4F)c4nc(c(-c5cc(S(=O)(=O)[O-])ccc5F)c5ccc2[nH]5)C=C4)C=C3)cc1
REMARK SMILES IDX 6 1 5 2 4 3 3 4 1 5 2 6 33 8 34 9 95 10 35 11 94 12 36 13
REMARK SMILES IDX 37 14 38 15 88 16 39 17 93 18 87 19 89 20 40 21 92 22 86 23
REMARK SMILES IDX 85 24 41 26 73 27 53 28 72 29 54 30 57 31 71 32 90 33 55 34
REMARK SMILES IDX 56 35 70 37 91 38 58 39 42 40 43 41 51 42 44 43 50 44 52 45
REMARK SMILES IDX 49 46 45 47 46 48 47 49 48 50 74 51 75 52 83 53 76 54 82 55
REMARK SMILES IDX 84 56 81 57 77 58 78 59 79 60 80 61 59 62 60 63 68 64 61 65
REMARK SMILES IDX 67 66 69 67 66 68 62 69 63 70 64 71 65 72 7 73 8 74 9 75
REMARK SMILES IDX 10 77 11 78 12 79 23 80 13 81 22 82 24 83 25 84 29 85 26 86
REMARK SMILES IDX 28 87 27 88 30 89 32 90 31 91 14 92 15 93 16 94 17 95 18 96
REMARK SMILES IDX 19 97 20 98 21 99
REMARK H PARENT 3 7 89 25 57 36 8 76
REMARK Flexibility Score: inf
ROOT
ATOM      1  C   UNL A   1      37.176  21.872  24.459  1.00  0.00     0.023 C 
ENDROOT
BRANCH   1   2
ATOM      2  C   UNL A   1      37.746  20.635  25.137  1.00  0.00     0.023 C 
BRANCH   2   3
ATOM      3  C   UNL A   1      38.996  20.880  25.965  1.00  0.00     0.116 C 
BRANCH   3   4
ATOM      4  N   UNL A   1      39.950  19.776  25.918  1.00  0.00    -0.352 N 
ATOM      5  O   UNL A   1      41.991  18.805  25.895  1.00  0.00    -0.269 OA
ATOM      6  C   UNL A   1      41.318  19.806  26.073  1.00  0.00     0.251 C 
ATOM      7  H   UNL A   1      39.561  18.887  25.752  1.00  0.00     0.163 HD
BRANCH   6   8
ATOM      8  C   UNL A   1      41.947  21.093  26.429  1.00  0.00     0.039 A 
ATOM      9  C   UNL A   1      42.192  21.394  27.770  1.00  0.00     0.014 A 
ATOM     10  C   UNL A   1      42.196  22.030  25.425  1.00  0.00     0.014 A 
ATOM     11  C   UNL A   1      42.509  22.695  28.125  1.00  0.00     0.010 A 
ATOM     12  C   UNL A   1      42.624  23.309  25.782  1.00  0.00     0.010 A 
ATOM     13  C   UNL A   1      42.744  23.662  27.135  1.00  0.00    -0.014 A 
BRANCH  13  14
ATOM     14  C   UNL A   1      43.158  25.029  27.534  1.00  0.00     0.031 A 
ATOM     15  C   UNL A   1      42.176  25.984  28.149  1.00  0.00     0.074 A 
ATOM     16  C   UNL A   1      44.437  25.396  27.328  1.00  0.00     0.049 A 
ATOM     17  N   UNL A   1      42.330  27.248  28.449  1.00  0.00    -0.248 NA
ATOM     18  C   UNL A   1      40.840  25.452  28.454  1.00  0.00     0.031 C 
ATOM     19  C   UNL A   1      45.476  24.537  26.752  1.00  0.00     0.029 A 
ATOM     20  N   UNL A   1      45.083  26.579  27.574  1.00  0.00    -0.354 N 
ATOM     21  C   UNL A   1      41.103  27.676  28.945  1.00  0.00     0.074 A 
ATOM     22  C   UNL A   1      40.210  26.536  28.883  1.00  0.00     0.031 C 
ATOM     23  C   UNL A   1      46.633  25.211  26.715  1.00  0.00     0.029 A 
ATOM     24  C   UNL A   1      46.396  26.573  27.172  1.00  0.00     0.049 A 
ATOM     25  H   UNL A   1      44.649  27.355  27.997  1.00  0.00     0.167 HD
ATOM     26  C   UNL A   1      40.761  28.906  29.405  1.00  0.00     0.034 A 
ATOM     27  C   UNL A   1      47.302  27.567  27.123  1.00  0.00     0.034 A 
ATOM     28  C   UNL A   1      41.682  30.020  29.456  1.00  0.00     0.049 A 
ATOM     29  C   UNL A   1      46.893  28.932  27.590  1.00  0.00     0.074 A 
ATOM     30  C   UNL A   1      41.461  31.306  29.920  1.00  0.00     0.029 A 
ATOM     31  N   UNL A   1      43.002  29.982  29.019  1.00  0.00    -0.354 N 
ATOM     32  N   UNL A   1      45.724  29.331  28.038  1.00  0.00    -0.248 NA
ATOM     33  C   UNL A   1      47.917  29.980  27.547  1.00  0.00     0.031 C 
ATOM     34  C   UNL A   1      42.621  32.059  29.703  1.00  0.00     0.029 A 
ATOM     35  C   UNL A   1      43.595  31.226  29.175  1.00  0.00     0.049 A 
ATOM     36  H   UNL A   1      43.451  29.187  28.652  1.00  0.00     0.167 HD
ATOM     37  C   UNL A   1      45.879  30.676  28.348  1.00  0.00     0.074 A 
ATOM     38  C   UNL A   1      47.255  31.016  28.042  1.00  0.00     0.031 C 
ATOM     39  C   UNL A   1      44.967  31.548  28.849  1.00  0.00     0.034 A 
BRANCH  26  40
ATOM     40  C   UNL A   1      39.323  29.120  29.821  1.00  0.00     0.023 A 
ATOM     41  C   UNL A   1      38.402  29.797  29.000  1.00  0.00     0.031 A 
ATOM     42  C   UNL A   1      38.876  28.684  31.081  1.00  0.00     0.131 A 
ATOM     43  C   UNL A   1      37.117  30.093  29.483  1.00  0.00     0.055 A 
ATOM     44  C   UNL A   1      37.570  28.906  31.521  1.00  0.00     0.041 A 
ATOM     45  F   UNL A   1      39.712  28.049  31.920  1.00  0.00    -0.206 F 
ATOM     46  C   UNL A   1      36.686  29.632  30.729  1.00  0.00     0.022 A 
BRANCH  43  47
ATOM     47  S   UNL A   1      36.078  31.238  28.533  1.00  0.00     0.124 S 
ATOM     48  O   UNL A   1      37.027  32.299  28.204  1.00  0.00    -0.237 OA
ATOM     49  O   UNL A   1      35.634  30.409  27.419  1.00  0.00    -0.237 OA
ATOM     50  O   UNL A   1      35.034  31.622  29.482  1.00  0.00    -0.744 OA
ENDBRANCH  43  47
ENDBRANCH  26  40
BRANCH  27  51
ATOM     51  C   UNL A   1      48.650  27.297  26.557  1.00  0.00     0.023 A 
ATOM     52  C   UNL A   1      48.932  27.533  25.205  1.00  0.00     0.031 A 
ATOM     53  C   UNL A   1      49.694  26.841  27.384  1.00  0.00     0.131 A 
ATOM     54  C   UNL A   1      50.226  27.299  24.715  1.00  0.00     0.055 A 
ATOM     55  C   UNL A   1      50.988  26.655  26.903  1.00  0.00     0.041 A 
ATOM     56  F   UNL A   1      49.476  26.616  28.690  1.00  0.00    -0.206 F 
ATOM     57  C   UNL A   1      51.259  26.878  25.557  1.00  0.00     0.022 A 
BRANCH  54  58
ATOM     58  S   UNL A   1      50.536  27.529  22.943  1.00  0.00     0.124 S 
ATOM     59  O   UNL A   1      51.783  26.795  22.762  1.00  0.00    -0.237 OA
ATOM     60  O   UNL A   1      49.346  26.930  22.346  1.00  0.00    -0.237 OA
ATOM     61  O   UNL A   1      50.637  28.980  22.801  1.00  0.00    -0.744 OA
ENDBRANCH  54  58
ENDBRANCH  27  51
BRANCH  39  62
ATOM     62  C   UNL A   1      45.456  32.942  29.145  1.00  0.00     0.023 A 
ATOM     63  C   UNL A   1      45.427  33.958  28.175  1.00  0.00     0.031 A 
ATOM     64  C   UNL A   1      45.964  33.249  30.419  1.00  0.00     0.131 A 
ATOM     65  C   UNL A   1      45.937  35.227  28.484  1.00  0.00     0.055 A 
ATOM     66  C   UNL A   1      46.423  34.528  30.735  1.00  0.00     0.041 A 
ATOM     67  F   UNL A   1      46.016  32.311  31.378  1.00  0.00    -0.206 F 
ATOM     68  C   UNL A   1      46.420  35.522  29.762  1.00  0.00     0.022 A 
BRANCH  65  69
ATOM     69  S   UNL A   1      46.027  36.476  27.171  1.00  0.00     0.124 S 
ATOM     70  O   UNL A   1      47.190  37.258  27.576  1.00  0.00    -0.237 OA
ATOM     71  O   UNL A   1      46.193  35.659  25.973  1.00  0.00    -0.237 OA
ATOM     72  O   UNL A   1      44.746  37.173  27.272  1.00  0.00    -0.744 OA
ENDBRANCH  65  69
ENDBRANCH  39  62
ENDBRANCH  13  14
ENDBRANCH   6   8
ENDBRANCH   3   4
ENDBRANCH   2   3
ENDBRANCH   1   2
BRANCH   1  73
ATOM     73  C   UNL A   1      37.055  23.097  25.359  1.00  0.00     0.116 C 
BRANCH  73  74
ATOM     74  N   UNL A   1      36.166  22.872  26.481  1.00  0.00    -0.356 N 
ATOM     75  C   UNL A   1      34.829  22.777  26.639  1.00  0.00     0.225 C 
ATOM     76  H   UNL A   1      36.653  22.761  27.330  1.00  0.00     0.163 HD
ATOM     77  O   UNL A   1      34.451  22.546  27.797  1.00  0.00    -0.275 OA
BRANCH  75  78
ATOM     78  C   UNL A   1      33.759  22.959  25.565  1.00  0.00     0.107 C 
ATOM     79  C   UNL A   1      33.295  24.411  25.674  1.00  0.00     0.133 C 
ATOM     80  C   UNL A   1      32.453  22.147  25.527  1.00  0.00     0.053 C 
ATOM     81  N   UNL A   1      31.960  24.458  25.114  1.00  0.00    -0.341 N 
ATOM     82  C   UNL A   1      31.422  23.125  24.931  1.00  0.00     0.128 C 
BRANCH  80  83
ATOM     83  C   UNL A   1      32.548  20.824  24.765  1.00  0.00    -0.038 A 
ATOM     84  C   UNL A   1      32.136  20.719  23.411  1.00  0.00     0.008 A 
ATOM     85  C   UNL A   1      33.094  19.679  25.375  1.00  0.00     0.054 A 
ATOM     86  C   UNL A   1      32.270  19.537  22.675  1.00  0.00     0.051 A 
ATOM     87  C   UNL A   1      33.182  18.511  24.636  1.00  0.00     0.166 A 
ATOM     88  C   UNL A   1      32.788  18.446  23.322  1.00  0.00     0.165 A 
ATOM     89  O   UNL A   1      33.651  17.315  25.086  1.00  0.00    -0.454 OA
ATOM     90  O   UNL A   1      32.969  17.216  22.775  1.00  0.00    -0.454 OA
ATOM     91  C   UNL A   1      33.457  16.489  23.917  1.00  0.00     0.468 C 
ENDBRANCH  80  83
BRANCH  81  92
ATOM     92  C   UNL A   1      31.198  25.570  24.851  1.00  0.00     0.222 C 
ATOM     93  O   UNL A   1      30.774  25.822  23.721  1.00  0.00    -0.275 OA
BRANCH  92  94
ATOM     94  C   UNL A   1      30.946  26.550  25.981  1.00  0.00     0.109 C 
BRANCH  94  95
ATOM     95  C   UNL A   1      31.732  27.848  25.874  1.00  0.00     0.125 C 
BRANCH  95  96
ATOM     96  C   UNL A   1      31.866  28.573  27.191  1.00  0.00     0.389 C 
ATOM     97  F   UNL A   1      33.105  28.423  27.705  1.00  0.00    -0.171 F 
ATOM     98  F   UNL A   1      31.653  29.897  27.022  1.00  0.00    -0.171 F 
ATOM     99  F   UNL A   1      30.974  28.129  28.097  1.00  0.00    -0.171 F 
ENDBRANCH  95  96
ENDBRANCH  94  95
ENDBRANCH  92  94
ENDBRANCH  81  92
ENDBRANCH  75  78
ENDBRANCH  73  74
ENDBRANCH   1  73
TORSDOF 19
ENDMDL
