MODEL 1
REMARK VINA RESULT:     -12.1      0.000      0.000
REMARK SMILES O=C(NCCCCNC(=O)[C@H]1CSCN1C(=O)c1cccc2cccnc12)c1ccc(-c2c3nc(c(-c4cc(S(=O)(=O)[O-])ccc4F)c4ccc([nH]4)c(-c4cc(S(=O)(=O)[O-])ccc4F)c4nc(c(-c5cc(S(=O)(=O)[O-])ccc5F)c5ccc2[nH]5)C=C4)C=C3)cc1
REMARK SMILES IDX 5 1 4 2 3 3 1 4 2 5 28 7 29 8 90 9 30 10 89 11 31 12 32 13
REMARK SMILES IDX 33 14 83 15 34 16 88 17 82 18 84 19 35 20 87 21 81 22 80 23
REMARK SMILES IDX 36 25 68 26 48 27 67 28 49 29 52 30 66 31 85 32 50 33 51 34
REMARK SMILES IDX 65 36 86 37 53 38 37 39 38 40 46 41 39 42 45 43 47 44 44 45
REMARK SMILES IDX 40 46 41 47 42 48 43 49 69 50 70 51 78 52 71 53 77 54 79 55
REMARK SMILES IDX 76 56 72 57 73 58 74 59 75 60 54 61 55 62 63 63 56 64 62 65
REMARK SMILES IDX 64 66 61 67 57 68 58 69 59 70 60 71 6 72 7 73 8 74 9 75
REMARK SMILES IDX 10 77 11 78 12 79 15 80 13 81 14 82 16 83 17 84 18 85 19 86
REMARK SMILES IDX 27 87 20 88 22 89 26 90 21 91 23 92 25 93 24 94
REMARK H PARENT 3 6 84 24 52 35 8 76
REMARK Flexibility Score: inf
ROOT
ATOM      1  C   UNL A   1      31.561  29.012  26.247  1.00  0.00     0.023 C 
ENDROOT
BRANCH   1   2
ATOM      2  C   UNL A   1      32.678  30.001  25.969  1.00  0.00     0.116 C 
BRANCH   2   3
ATOM      3  N   UNL A   1      32.354  31.371  26.375  1.00  0.00    -0.352 N 
ATOM      4  O   UNL A   1      32.494  33.268  27.596  1.00  0.00    -0.269 OA
ATOM      5  C   UNL A   1      33.014  32.214  27.239  1.00  0.00     0.251 C 
ATOM      6  H   UNL A   1      31.541  31.746  25.967  1.00  0.00     0.163 HD
BRANCH   5   7
ATOM      7  C   UNL A   1      34.345  31.819  27.741  1.00  0.00     0.039 A 
ATOM      8  C   UNL A   1      34.566  30.492  28.098  1.00  0.00     0.014 A 
ATOM      9  C   UNL A   1      35.343  32.777  27.931  1.00  0.00     0.014 A 
ATOM     10  C   UNL A   1      35.666  30.172  28.871  1.00  0.00     0.010 A 
ATOM     11  C   UNL A   1      36.531  32.411  28.572  1.00  0.00     0.010 A 
ATOM     12  C   UNL A   1      36.680  31.117  29.094  1.00  0.00    -0.014 A 
BRANCH  12  13
ATOM     13  C   UNL A   1      37.888  30.682  29.841  1.00  0.00     0.031 A 
ATOM     14  C   UNL A   1      38.112  31.084  31.272  1.00  0.00     0.074 A 
ATOM     15  C   UNL A   1      38.744  29.842  29.224  1.00  0.00     0.049 A 
ATOM     16  N   UNL A   1      39.101  30.768  32.070  1.00  0.00    -0.248 NA
ATOM     17  C   UNL A   1      37.111  31.969  31.883  1.00  0.00     0.031 C 
ATOM     18  C   UNL A   1      38.611  29.380  27.838  1.00  0.00     0.029 A 
ATOM     19  N   UNL A   1      39.854  29.184  29.681  1.00  0.00    -0.354 N 
ATOM     20  C   UNL A   1      38.865  31.446  33.262  1.00  0.00     0.074 A 
ATOM     21  C   UNL A   1      37.649  32.209  33.070  1.00  0.00     0.031 C 
ATOM     22  C   UNL A   1      39.533  28.443  27.593  1.00  0.00     0.029 A 
ATOM     23  C   UNL A   1      40.395  28.319  28.759  1.00  0.00     0.049 A 
ATOM     24  H   UNL A   1      40.227  29.317  30.583  1.00  0.00     0.167 HD
ATOM     25  C   UNL A   1      39.599  31.430  34.404  1.00  0.00     0.034 A 
ATOM     26  C   UNL A   1      41.481  27.529  28.830  1.00  0.00     0.034 A 
ATOM     27  C   UNL A   1      40.798  30.638  34.570  1.00  0.00     0.049 A 
ATOM     28  C   UNL A   1      42.286  27.545  30.095  1.00  0.00     0.074 A 
ATOM     29  C   UNL A   1      41.613  30.524  35.684  1.00  0.00     0.029 A 
ATOM     30  N   UNL A   1      41.359  29.825  33.589  1.00  0.00    -0.354 N 
ATOM     31  N   UNL A   1      42.066  28.214  31.204  1.00  0.00    -0.248 NA
ATOM     32  C   UNL A   1      43.492  26.712  30.116  1.00  0.00     0.031 C 
ATOM     33  C   UNL A   1      42.697  29.700  35.356  1.00  0.00     0.029 A 
ATOM     34  C   UNL A   1      42.522  29.234  34.062  1.00  0.00     0.049 A 
ATOM     35  H   UNL A   1      40.984  29.690  32.690  1.00  0.00     0.167 HD
ATOM     36  C   UNL A   1      43.104  27.873  32.061  1.00  0.00     0.074 A 
ATOM     37  C   UNL A   1      43.934  26.920  31.347  1.00  0.00     0.031 C 
ATOM     38  C   UNL A   1      43.351  28.307  33.324  1.00  0.00     0.034 A 
BRANCH  25  39
ATOM     39  C   UNL A   1      39.160  32.344  35.528  1.00  0.00     0.023 A 
ATOM     40  C   UNL A   1      39.585  33.682  35.620  1.00  0.00     0.031 A 
ATOM     41  C   UNL A   1      38.337  31.850  36.557  1.00  0.00     0.131 A 
ATOM     42  C   UNL A   1      39.261  34.447  36.753  1.00  0.00     0.055 A 
ATOM     43  C   UNL A   1      37.945  32.643  37.639  1.00  0.00     0.041 A 
ATOM     44  F   UNL A   1      37.913  30.577  36.542  1.00  0.00    -0.206 F 
ATOM     45  C   UNL A   1      38.424  33.945  37.751  1.00  0.00     0.022 A 
BRANCH  42  46
ATOM     46  S   UNL A   1      40.090  36.043  36.988  1.00  0.00     0.124 S 
ATOM     47  O   UNL A   1      39.784  36.724  35.732  1.00  0.00    -0.237 OA
ATOM     48  O   UNL A   1      39.431  36.568  38.178  1.00  0.00    -0.237 OA
ATOM     49  O   UNL A   1      41.496  35.679  37.161  1.00  0.00    -0.744 OA
ENDBRANCH  42  46
ENDBRANCH  25  39
BRANCH  26  50
ATOM     50  C   UNL A   1      41.876  26.701  27.658  1.00  0.00     0.023 A 
ATOM     51  C   UNL A   1      41.577  25.332  27.601  1.00  0.00     0.031 A 
ATOM     52  C   UNL A   1      42.547  27.277  26.562  1.00  0.00     0.131 A 
ATOM     53  C   UNL A   1      41.965  24.580  26.482  1.00  0.00     0.055 A 
ATOM     54  C   UNL A   1      42.883  26.536  25.430  1.00  0.00     0.041 A 
ATOM     55  F   UNL A   1      42.849  28.585  26.562  1.00  0.00    -0.206 F 
ATOM     56  C   UNL A   1      42.601  25.176  25.389  1.00  0.00     0.022 A 
BRANCH  53  57
ATOM     57  S   UNL A   1      41.673  22.790  26.494  1.00  0.00     0.124 S 
ATOM     58  O   UNL A   1      40.216  22.726  26.489  1.00  0.00    -0.237 OA
ATOM     59  O   UNL A   1      42.340  22.366  25.267  1.00  0.00    -0.237 OA
ATOM     60  O   UNL A   1      42.313  22.349  27.732  1.00  0.00    -0.744 OA
ENDBRANCH  53  57
ENDBRANCH  26  50
BRANCH  38  61
ATOM     61  C   UNL A   1      44.556  27.715  34.011  1.00  0.00     0.023 A 
ATOM     62  C   UNL A   1      44.467  26.531  34.762  1.00  0.00     0.031 A 
ATOM     63  C   UNL A   1      45.797  28.371  33.948  1.00  0.00     0.131 A 
ATOM     64  C   UNL A   1      45.584  26.073  35.475  1.00  0.00     0.055 A 
ATOM     65  C   UNL A   1      46.921  27.876  34.609  1.00  0.00     0.041 A 
ATOM     66  F   UNL A   1      45.935  29.508  33.248  1.00  0.00    -0.206 F 
ATOM     67  C   UNL A   1      46.815  26.729  35.391  1.00  0.00     0.022 A 
BRANCH  64  68
ATOM     68  S   UNL A   1      45.380  24.667  36.603  1.00  0.00     0.124 S 
ATOM     69  O   UNL A   1      44.945  25.325  37.831  1.00  0.00    -0.237 OA
ATOM     70  O   UNL A   1      44.373  23.863  35.920  1.00  0.00    -0.237 OA
ATOM     71  O   UNL A   1      46.715  24.074  36.658  1.00  0.00    -0.744 OA
ENDBRANCH  64  68
ENDBRANCH  38  61
ENDBRANCH  12  13
ENDBRANCH   5   7
ENDBRANCH   2   3
ENDBRANCH   1   2
BRANCH   1  72
ATOM     72  C   UNL A   1      31.889  28.021  27.347  1.00  0.00     0.023 C 
BRANCH  72  73
ATOM     73  C   UNL A   1      32.374  26.654  26.886  1.00  0.00     0.116 C 
BRANCH  73  74
ATOM     74  N   UNL A   1      31.322  25.664  26.920  1.00  0.00    -0.354 N 
ATOM     75  C   UNL A   1      31.369  24.358  26.517  1.00  0.00     0.243 C 
ATOM     76  H   UNL A   1      30.458  25.969  27.281  1.00  0.00     0.163 HD
ATOM     77  O   UNL A   1      30.413  23.634  26.815  1.00  0.00    -0.273 OA
BRANCH  75  78
ATOM     78  C   UNL A   1      32.676  23.770  25.938  1.00  0.00     0.185 C 
ATOM     79  C   UNL A   1      32.604  22.262  25.751  1.00  0.00     0.106 C 
ATOM     80  N   UNL A   1      33.289  24.315  24.717  1.00  0.00    -0.316 N 
ATOM     81  S   UNL A   1      34.180  21.871  24.900  1.00  0.00    -0.138 SA
ATOM     82  C   UNL A   1      34.507  23.607  24.402  1.00  0.00     0.190 C 
BRANCH  80  83
ATOM     83  C   UNL A   1      32.489  24.751  23.671  1.00  0.00     0.257 C 
ATOM     84  O   UNL A   1      31.942  23.963  22.900  1.00  0.00    -0.269 OA
BRANCH  83  85
ATOM     85  C   UNL A   1      32.244  26.209  23.462  1.00  0.00     0.066 A 
ATOM     86  C   UNL A   1      33.355  26.943  23.009  1.00  0.00     0.016 A 
ATOM     87  C   UNL A   1      30.950  26.772  23.498  1.00  0.00     0.083 A 
ATOM     88  C   UNL A   1      33.200  28.248  22.563  1.00  0.00     0.002 A 
ATOM     89  C   UNL A   1      30.811  28.071  22.950  1.00  0.00     0.001 A 
ATOM     90  N   UNL A   1      29.854  26.122  23.976  1.00  0.00    -0.255 NA
ATOM     91  C   UNL A   1      31.927  28.800  22.512  1.00  0.00     0.010 A 
ATOM     92  C   UNL A   1      29.527  28.618  22.803  1.00  0.00     0.012 A 
ATOM     93  C   UNL A   1      28.630  26.685  23.817  1.00  0.00     0.112 A 
ATOM     94  C   UNL A   1      28.414  27.905  23.216  1.00  0.00     0.021 A 
ENDBRANCH  83  85
ENDBRANCH  80  83
ENDBRANCH  75  78
ENDBRANCH  73  74
ENDBRANCH  72  73
ENDBRANCH   1  72
TORSDOF 16
ENDMDL
MODEL 2
REMARK VINA RESULT:     -12.0      1.452      7.598
REMARK SMILES O=C(NCCCCNC(=O)[C@H]1CSCN1C(=O)c1cccc2cccnc12)c1ccc(-c2c3nc(c(-c4cc(S(=O)(=O)[O-])ccc4F)c4ccc([nH]4)c(-c4cc(S(=O)(=O)[O-])ccc4F)c4nc(c(-c5cc(S(=O)(=O)[O-])ccc5F)c5ccc2[nH]5)C=C4)C=C3)cc1
REMARK SMILES IDX 5 1 4 2 3 3 1 4 2 5 28 7 29 8 90 9 30 10 89 11 31 12 32 13
REMARK SMILES IDX 33 14 83 15 34 16 88 17 82 18 84 19 35 20 87 21 81 22 80 23
REMARK SMILES IDX 36 25 68 26 48 27 67 28 49 29 52 30 66 31 85 32 50 33 51 34
REMARK SMILES IDX 65 36 86 37 53 38 37 39 38 40 46 41 39 42 45 43 47 44 44 45
REMARK SMILES IDX 40 46 41 47 42 48 43 49 69 50 70 51 78 52 71 53 77 54 79 55
REMARK SMILES IDX 76 56 72 57 73 58 74 59 75 60 54 61 55 62 63 63 56 64 62 65
REMARK SMILES IDX 64 66 61 67 57 68 58 69 59 70 60 71 6 72 7 73 8 74 9 75
REMARK SMILES IDX 10 77 11 78 12 79 15 80 13 81 14 82 16 83 17 84 18 85 19 86
REMARK SMILES IDX 27 87 20 88 22 89 26 90 21 91 23 92 25 93 24 94
REMARK H PARENT 3 6 84 24 52 35 8 76
REMARK Flexibility Score: inf
ROOT
ATOM      1  C   UNL A   1      31.557  28.987  26.159  1.00  0.00     0.023 C 
ENDROOT
BRANCH   1   2
ATOM      2  C   UNL A   1      32.740  29.908  25.924  1.00  0.00     0.116 C 
BRANCH   2   3
ATOM      3  N   UNL A   1      32.493  31.290  26.345  1.00  0.00    -0.352 N 
ATOM      4  O   UNL A   1      32.724  33.156  27.600  1.00  0.00    -0.269 OA
ATOM      5  C   UNL A   1      33.186  32.078  27.236  1.00  0.00     0.251 C 
ATOM      6  H   UNL A   1      31.712  31.720  25.929  1.00  0.00     0.163 HD
BRANCH   5   7
ATOM      7  C   UNL A   1      34.480  31.595  27.755  1.00  0.00     0.039 A 
ATOM      8  C   UNL A   1      34.609  30.253  28.106  1.00  0.00     0.014 A 
ATOM      9  C   UNL A   1      35.534  32.485  27.968  1.00  0.00     0.014 A 
ATOM     10  C   UNL A   1      35.673  29.859  28.894  1.00  0.00     0.010 A 
ATOM     11  C   UNL A   1      36.686  32.039  28.626  1.00  0.00     0.010 A 
ATOM     12  C   UNL A   1      36.742  30.735  29.140  1.00  0.00    -0.014 A 
BRANCH  12  13
ATOM     13  C   UNL A   1      37.907  30.217  29.904  1.00  0.00     0.031 A 
ATOM     14  C   UNL A   1      38.951  29.354  29.252  1.00  0.00     0.074 A 
ATOM     15  C   UNL A   1      38.048  30.612  31.186  1.00  0.00     0.049 A 
ATOM     16  N   UNL A   1      40.038  28.842  29.773  1.00  0.00    -0.248 NA
ATOM     17  C   UNL A   1      38.742  29.002  27.841  1.00  0.00     0.031 C 
ATOM     18  C   UNL A   1      37.095  31.460  31.910  1.00  0.00     0.029 A 
ATOM     19  N   UNL A   1      39.056  30.409  32.089  1.00  0.00    -0.354 N 
ATOM     20  C   UNL A   1      40.623  28.076  28.769  1.00  0.00     0.074 A 
ATOM     21  C   UNL A   1      39.752  28.174  27.615  1.00  0.00     0.031 C 
ATOM     22  C   UNL A   1      37.610  31.787  33.101  1.00  0.00     0.029 A 
ATOM     23  C   UNL A   1      38.871  31.082  33.274  1.00  0.00     0.049 A 
ATOM     24  H   UNL A   1      39.837  29.837  31.907  1.00  0.00     0.167 HD
ATOM     25  C   UNL A   1      41.775  27.360  28.814  1.00  0.00     0.034 A 
ATOM     26  C   UNL A   1      39.619  31.111  34.392  1.00  0.00     0.034 A 
ATOM     27  C   UNL A   1      42.633  27.303  29.977  1.00  0.00     0.049 A 
ATOM     28  C   UNL A   1      40.877  30.295  34.423  1.00  0.00     0.074 A 
ATOM     29  C   UNL A   1      43.833  26.630  30.134  1.00  0.00     0.029 A 
ATOM     30  N   UNL A   1      42.379  27.941  31.188  1.00  0.00    -0.354 N 
ATOM     31  N   UNL A   1      41.401  29.552  33.475  1.00  0.00    -0.248 NA
ATOM     32  C   UNL A   1      41.637  30.310  35.676  1.00  0.00     0.031 C 
ATOM     33  C   UNL A   1      44.268  26.806  31.454  1.00  0.00     0.029 A 
ATOM     34  C   UNL A   1      43.382  27.653  32.102  1.00  0.00     0.049 A 
ATOM     35  H   UNL A   1      41.601  28.514  31.368  1.00  0.00     0.167 HD
ATOM     36  C   UNL A   1      42.563  29.017  34.016  1.00  0.00     0.074 A 
ATOM     37  C   UNL A   1      42.672  29.544  35.363  1.00  0.00     0.031 C 
ATOM     38  C   UNL A   1      43.459  28.166  33.451  1.00  0.00     0.034 A 
BRANCH  25  39
ATOM     39  C   UNL A   1      42.130  26.535  27.595  1.00  0.00     0.023 A 
ATOM     40  C   UNL A   1      41.729  25.195  27.452  1.00  0.00     0.031 A 
ATOM     41  C   UNL A   1      42.932  27.087  26.579  1.00  0.00     0.131 A 
ATOM     42  C   UNL A   1      42.198  24.431  26.370  1.00  0.00     0.055 A 
ATOM     43  C   UNL A   1      43.324  26.349  25.460  1.00  0.00     0.041 A 
ATOM     44  F   UNL A   1      43.367  28.354  26.665  1.00  0.00    -0.206 F 
ATOM     45  C   UNL A   1      42.973  25.006  25.360  1.00  0.00     0.022 A 
BRANCH  42  46
ATOM     46  S   UNL A   1      41.929  22.637  26.391  1.00  0.00     0.124 S 
ATOM     47  O   UNL A   1      42.587  22.254  27.638  1.00  0.00    -0.237 OA
ATOM     48  O   UNL A   1      40.475  22.537  26.378  1.00  0.00    -0.237 OA
ATOM     49  O   UNL A   1      42.600  22.174  25.177  1.00  0.00    -0.744 OA
ENDBRANCH  42  46
ENDBRANCH  25  39
BRANCH  26  50
ATOM     50  C   UNL A   1      39.169  31.906  35.567  1.00  0.00     0.023 A 
ATOM     51  C   UNL A   1      38.424  31.319  36.600  1.00  0.00     0.031 A 
ATOM     52  C   UNL A   1      39.497  33.271  35.682  1.00  0.00     0.131 A 
ATOM     53  C   UNL A   1      38.013  32.097  37.692  1.00  0.00     0.055 A 
ATOM     54  C   UNL A   1      39.132  34.026  36.795  1.00  0.00     0.041 A 
ATOM     55  F   UNL A   1      40.216  33.879  34.725  1.00  0.00    -0.206 F 
ATOM     56  C   UNL A   1      38.377  33.442  37.806  1.00  0.00     0.022 A 
BRANCH  53  57
ATOM     57  S   UNL A   1      36.948  31.339  38.949  1.00  0.00     0.124 S 
ATOM     58  O   UNL A   1      36.772  29.992  38.416  1.00  0.00    -0.237 OA
ATOM     59  O   UNL A   1      37.769  31.453  40.151  1.00  0.00    -0.237 OA
ATOM     60  O   UNL A   1      35.752  32.179  38.933  1.00  0.00    -0.744 OA
ENDBRANCH  53  57
ENDBRANCH  26  50
BRANCH  38  61
ATOM     61  C   UNL A   1      44.649  27.793  34.297  1.00  0.00     0.023 A 
ATOM     62  C   UNL A   1      44.635  26.660  35.130  1.00  0.00     0.031 A 
ATOM     63  C   UNL A   1      45.794  28.607  34.303  1.00  0.00     0.131 A 
ATOM     64  C   UNL A   1      45.719  26.409  35.983  1.00  0.00     0.055 A 
ATOM     65  C   UNL A   1      46.896  28.317  35.108  1.00  0.00     0.041 A 
ATOM     66  F   UNL A   1      45.858  29.703  33.531  1.00  0.00    -0.206 F 
ATOM     67  C   UNL A   1      46.856  27.220  35.966  1.00  0.00     0.022 A 
BRANCH  64  68
ATOM     68  S   UNL A   1      45.579  25.067  37.195  1.00  0.00     0.124 S 
ATOM     69  O   UNL A   1      46.882  25.113  37.850  1.00  0.00    -0.237 OA
ATOM     70  O   UNL A   1      44.443  25.494  38.005  1.00  0.00    -0.237 OA
ATOM     71  O   UNL A   1      45.342  23.883  36.371  1.00  0.00    -0.744 OA
ENDBRANCH  64  68
ENDBRANCH  38  61
ENDBRANCH  12  13
ENDBRANCH   5   7
ENDBRANCH   2   3
ENDBRANCH   1   2
BRANCH   1  72
ATOM     72  C   UNL A   1      31.778  27.991  27.280  1.00  0.00     0.023 C 
BRANCH  72  73
ATOM     73  C   UNL A   1      32.342  26.639  26.866  1.00  0.00     0.116 C 
BRANCH  73  74
ATOM     74  N   UNL A   1      31.326  25.612  26.840  1.00  0.00    -0.354 N 
ATOM     75  C   UNL A   1      31.428  24.326  26.386  1.00  0.00     0.243 C 
ATOM     76  H   UNL A   1      30.446  25.871  27.196  1.00  0.00     0.163 HD
ATOM     77  O   UNL A   1      30.494  23.557  26.636  1.00  0.00    -0.273 OA
BRANCH  75  78
ATOM     78  C   UNL A   1      32.766  23.809  25.810  1.00  0.00     0.185 C 
ATOM     79  C   UNL A   1      32.761  22.304  25.587  1.00  0.00     0.106 C 
ATOM     80  N   UNL A   1      33.369  24.409  24.609  1.00  0.00    -0.316 N 
ATOM     81  S   UNL A   1      34.363  22.002  24.747  1.00  0.00    -0.138 SA
ATOM     82  C   UNL A   1      34.619  23.761  24.292  1.00  0.00     0.190 C 
BRANCH  80  83
ATOM     83  C   UNL A   1      32.562  24.834  23.563  1.00  0.00     0.257 C 
ATOM     84  O   UNL A   1      32.043  24.040  22.780  1.00  0.00    -0.269 OA
BRANCH  83  85
ATOM     85  C   UNL A   1      32.275  26.287  23.371  1.00  0.00     0.066 A 
ATOM     86  C   UNL A   1      33.361  27.053  22.910  1.00  0.00     0.016 A 
ATOM     87  C   UNL A   1      30.968  26.814  23.429  1.00  0.00     0.083 A 
ATOM     88  C   UNL A   1      33.166  28.358  22.478  1.00  0.00     0.002 A 
ATOM     89  C   UNL A   1      30.787  28.114  22.894  1.00  0.00     0.001 A 
ATOM     90  N   UNL A   1      29.896  26.132  23.915  1.00  0.00    -0.255 NA
ATOM     91  C   UNL A   1      31.878  28.876  22.448  1.00  0.00     0.010 A 
ATOM     92  C   UNL A   1      29.488  28.628  22.769  1.00  0.00     0.012 A 
ATOM     93  C   UNL A   1      28.655  26.663  23.776  1.00  0.00     0.112 A 
ATOM     94  C   UNL A   1      28.399  27.883  23.190  1.00  0.00     0.021 A 
ENDBRANCH  83  85
ENDBRANCH  80  83
ENDBRANCH  75  78
ENDBRANCH  73  74
ENDBRANCH  72  73
ENDBRANCH   1  72
TORSDOF 16
ENDMDL
MODEL 3
REMARK VINA RESULT:     -12.0      0.624      7.828
REMARK SMILES O=C(NCCCCNC(=O)[C@H]1CSCN1C(=O)c1cccc2cccnc12)c1ccc(-c2c3nc(c(-c4cc(S(=O)(=O)[O-])ccc4F)c4ccc([nH]4)c(-c4cc(S(=O)(=O)[O-])ccc4F)c4nc(c(-c5cc(S(=O)(=O)[O-])ccc5F)c5ccc2[nH]5)C=C4)C=C3)cc1
REMARK SMILES IDX 5 1 4 2 3 3 1 4 2 5 28 7 29 8 90 9 30 10 89 11 31 12 32 13
REMARK SMILES IDX 33 14 83 15 34 16 88 17 82 18 84 19 35 20 87 21 81 22 80 23
REMARK SMILES IDX 36 25 68 26 48 27 67 28 49 29 52 30 66 31 85 32 50 33 51 34
REMARK SMILES IDX 65 36 86 37 53 38 37 39 38 40 46 41 39 42 45 43 47 44 44 45
REMARK SMILES IDX 40 46 41 47 42 48 43 49 69 50 70 51 78 52 71 53 77 54 79 55
REMARK SMILES IDX 76 56 72 57 73 58 74 59 75 60 54 61 55 62 63 63 56 64 62 65
REMARK SMILES IDX 64 66 61 67 57 68 58 69 59 70 60 71 6 72 7 73 8 74 9 75
REMARK SMILES IDX 10 77 11 78 12 79 15 80 13 81 14 82 16 83 17 84 18 85 19 86
REMARK SMILES IDX 27 87 20 88 22 89 26 90 21 91 23 92 25 93 24 94
REMARK H PARENT 3 6 84 24 52 35 8 76
REMARK Flexibility Score: inf
ROOT
ATOM      1  C   UNL A   1      31.529  29.094  26.433  1.00  0.00     0.023 C 
ENDROOT
BRANCH   1   2
ATOM      2  C   UNL A   1      32.711  29.981  26.087  1.00  0.00     0.116 C 
BRANCH   2   3
ATOM      3  N   UNL A   1      32.509  31.387  26.451  1.00  0.00    -0.352 N 
ATOM      4  O   UNL A   1      32.808  33.297  27.622  1.00  0.00    -0.269 OA
ATOM      5  C   UNL A   1      33.234  32.191  27.300  1.00  0.00     0.251 C 
ATOM      6  H   UNL A   1      31.736  31.821  26.023  1.00  0.00     0.163 HD
BRANCH   5   7
ATOM      7  C   UNL A   1      34.519  31.693  27.828  1.00  0.00     0.039 A 
ATOM      8  C   UNL A   1      34.629  30.350  28.179  1.00  0.00     0.014 A 
ATOM      9  C   UNL A   1      35.582  32.570  28.047  1.00  0.00     0.014 A 
ATOM     10  C   UNL A   1      35.684  29.943  28.974  1.00  0.00     0.010 A 
ATOM     11  C   UNL A   1      36.724  32.111  28.712  1.00  0.00     0.010 A 
ATOM     12  C   UNL A   1      36.762  30.806  29.227  1.00  0.00    -0.014 A 
BRANCH  12  13
ATOM     13  C   UNL A   1      37.916  30.275  29.997  1.00  0.00     0.031 A 
ATOM     14  C   UNL A   1      38.933  29.368  29.362  1.00  0.00     0.074 A 
ATOM     15  C   UNL A   1      38.073  30.696  31.269  1.00  0.00     0.049 A 
ATOM     16  N   UNL A   1      40.008  28.839  29.891  1.00  0.00    -0.248 NA
ATOM     17  C   UNL A   1      38.707  28.989  27.961  1.00  0.00     0.031 C 
ATOM     18  C   UNL A   1      37.148  31.587  31.977  1.00  0.00     0.029 A 
ATOM     19  N   UNL A   1      39.080  30.487  32.173  1.00  0.00    -0.354 N 
ATOM     20  C   UNL A   1      40.566  28.033  28.903  1.00  0.00     0.074 A 
ATOM     21  C   UNL A   1      39.693  28.127  27.750  1.00  0.00     0.031 C 
ATOM     22  C   UNL A   1      37.677  31.928  33.157  1.00  0.00     0.029 A 
ATOM     23  C   UNL A   1      38.920  31.192  33.342  1.00  0.00     0.049 A 
ATOM     24  H   UNL A   1      39.844  29.889  32.002  1.00  0.00     0.167 HD
ATOM     25  C   UNL A   1      41.699  27.287  28.960  1.00  0.00     0.034 A 
ATOM     26  C   UNL A   1      39.673  31.227  34.456  1.00  0.00     0.034 A 
ATOM     27  C   UNL A   1      42.560  27.233  30.120  1.00  0.00     0.049 A 
ATOM     28  C   UNL A   1      40.909  30.378  34.501  1.00  0.00     0.074 A 
ATOM     29  C   UNL A   1      43.742  26.532  30.289  1.00  0.00     0.029 A 
ATOM     30  N   UNL A   1      42.330  27.907  31.317  1.00  0.00    -0.354 N 
ATOM     31  N   UNL A   1      41.407  29.598  33.569  1.00  0.00    -0.248 NA
ATOM     32  C   UNL A   1      41.675  30.402  35.750  1.00  0.00     0.031 C 
ATOM     33  C   UNL A   1      44.188  26.727  31.602  1.00  0.00     0.029 A 
ATOM     34  C   UNL A   1      43.329  27.613  32.234  1.00  0.00     0.049 A 
ATOM     35  H   UNL A   1      41.568  28.506  31.487  1.00  0.00     0.167 HD
ATOM     36  C   UNL A   1      42.556  29.045  34.118  1.00  0.00     0.074 A 
ATOM     37  C   UNL A   1      42.687  29.600  35.452  1.00  0.00     0.031 C 
ATOM     38  C   UNL A   1      43.426  28.156  33.570  1.00  0.00     0.034 A 
BRANCH  25  39
ATOM     39  C   UNL A   1      42.025  26.423  27.760  1.00  0.00     0.023 A 
ATOM     40  C   UNL A   1      41.581  25.093  27.648  1.00  0.00     0.031 A 
ATOM     41  C   UNL A   1      42.841  26.927  26.731  1.00  0.00     0.131 A 
ATOM     42  C   UNL A   1      42.024  24.291  26.583  1.00  0.00     0.055 A 
ATOM     43  C   UNL A   1      43.208  26.151  25.628  1.00  0.00     0.041 A 
ATOM     44  F   UNL A   1      43.317  28.181  26.787  1.00  0.00    -0.206 F 
ATOM     45  C   UNL A   1      42.815  24.818  25.559  1.00  0.00     0.022 A 
BRANCH  42  46
ATOM     46  S   UNL A   1      41.699  22.507  26.645  1.00  0.00     0.124 S 
ATOM     47  O   UNL A   1      42.272  22.057  25.378  1.00  0.00    -0.237 OA
ATOM     48  O   UNL A   1      42.410  22.100  27.850  1.00  0.00    -0.237 OA
ATOM     49  O   UNL A   1      40.241  22.426  26.721  1.00  0.00    -0.744 OA
ENDBRANCH  42  46
ENDBRANCH  25  39
BRANCH  26  50
ATOM     50  C   UNL A   1      39.251  32.062  35.614  1.00  0.00     0.023 A 
ATOM     51  C   UNL A   1      39.711  33.378  35.767  1.00  0.00     0.031 A 
ATOM     52  C   UNL A   1      38.359  31.557  36.580  1.00  0.00     0.131 A 
ATOM     53  C   UNL A   1      39.295  34.137  36.871  1.00  0.00     0.055 A 
ATOM     54  C   UNL A   1      37.908  32.334  37.645  1.00  0.00     0.041 A 
ATOM     55  F   UNL A   1      37.882  30.306  36.475  1.00  0.00    -0.206 F 
ATOM     56  C   UNL A   1      38.383  33.631  37.801  1.00  0.00     0.022 A 
BRANCH  53  57
ATOM     57  S   UNL A   1      40.003  35.791  37.105  1.00  0.00     0.124 S 
ATOM     58  O   UNL A   1      41.416  35.484  37.299  1.00  0.00    -0.237 OA
ATOM     59  O   UNL A   1      39.654  36.451  35.851  1.00  0.00    -0.237 OA
ATOM     60  O   UNL A   1      39.306  36.295  38.287  1.00  0.00    -0.744 OA
ENDBRANCH  53  57
ENDBRANCH  26  50
BRANCH  38  61
ATOM     61  C   UNL A   1      44.610  27.770  34.420  1.00  0.00     0.023 A 
ATOM     62  C   UNL A   1      44.569  26.656  35.277  1.00  0.00     0.031 A 
ATOM     63  C   UNL A   1      45.775  28.554  34.404  1.00  0.00     0.131 A 
ATOM     64  C   UNL A   1      45.650  26.395  36.131  1.00  0.00     0.055 A 
ATOM     65  C   UNL A   1      46.872  28.253  35.211  1.00  0.00     0.041 A 
ATOM     66  F   UNL A   1      45.864  29.631  33.608  1.00  0.00    -0.206 F 
ATOM     67  C   UNL A   1      46.807  27.176  36.093  1.00  0.00     0.022 A 
BRANCH  64  68
ATOM     68  S   UNL A   1      45.480  25.084  37.373  1.00  0.00     0.124 S 
ATOM     69  O   UNL A   1      44.695  24.085  36.653  1.00  0.00    -0.237 OA
ATOM     70  O   UNL A   1      46.868  24.729  37.645  1.00  0.00    -0.237 OA
ATOM     71  O   UNL A   1      44.782  25.743  38.475  1.00  0.00    -0.744 OA
ENDBRANCH  64  68
ENDBRANCH  38  61
ENDBRANCH  12  13
ENDBRANCH   5   7
ENDBRANCH   2   3
ENDBRANCH   1   2
BRANCH   1  72
ATOM     72  C   UNL A   1      31.899  27.898  27.287  1.00  0.00     0.023 C 
BRANCH  72  73
ATOM     73  C   UNL A   1      32.234  26.620  26.529  1.00  0.00     0.116 C 
BRANCH  73  74
ATOM     74  N   UNL A   1      31.381  25.520  26.916  1.00  0.00    -0.354 N 
ATOM     75  C   UNL A   1      31.544  24.187  26.660  1.00  0.00     0.243 C 
ATOM     76  H   UNL A   1      30.577  25.762  27.430  1.00  0.00     0.163 HD
ATOM     77  O   UNL A   1      30.798  23.397  27.249  1.00  0.00    -0.273 OA
BRANCH  75  78
ATOM     78  C   UNL A   1      32.773  23.692  25.864  1.00  0.00     0.185 C 
ATOM     79  C   UNL A   1      32.979  22.190  25.984  1.00  0.00     0.106 C 
ATOM     80  N   UNL A   1      32.954  24.028  24.444  1.00  0.00    -0.316 N 
ATOM     81  S   UNL A   1      34.359  21.864  24.821  1.00  0.00    -0.138 SA
ATOM     82  C   UNL A   1      34.185  23.466  23.942  1.00  0.00     0.190 C 
BRANCH  80  83
ATOM     83  C   UNL A   1      31.857  24.078  23.594  1.00  0.00     0.257 C 
ATOM     84  O   UNL A   1      31.396  23.065  23.070  1.00  0.00    -0.269 OA
BRANCH  83  85
ATOM     85  C   UNL A   1      31.180  25.378  23.309  1.00  0.00     0.066 A 
ATOM     86  C   UNL A   1      29.829  25.445  23.696  1.00  0.00     0.016 A 
ATOM     87  C   UNL A   1      31.889  26.525  22.892  1.00  0.00     0.083 A 
ATOM     88  C   UNL A   1      29.158  26.661  23.694  1.00  0.00     0.002 A 
ATOM     89  C   UNL A   1      31.204  27.761  22.991  1.00  0.00     0.001 A 
ATOM     90  N   UNL A   1      33.178  26.503  22.459  1.00  0.00    -0.255 NA
ATOM     91  C   UNL A   1      29.853  27.818  23.366  1.00  0.00     0.010 A 
ATOM     92  C   UNL A   1      31.905  28.953  22.752  1.00  0.00     0.012 A 
ATOM     93  C   UNL A   1      33.822  27.677  22.236  1.00  0.00     0.112 A 
ATOM     94  C   UNL A   1      33.243  28.916  22.396  1.00  0.00     0.021 A 
ENDBRANCH  83  85
ENDBRANCH  80  83
ENDBRANCH  75  78
ENDBRANCH  73  74
ENDBRANCH  72  73
ENDBRANCH   1  72
TORSDOF 16
ENDMDL
