MODEL 1
REMARK VINA RESULT:     -12.4      0.000      0.000
REMARK SMILES CC(C)(C)OC(=O)N1C[C@H](c2ccc(C(F)(F)F)cc2)[C@H](C(=O)NCCCCNC(=O)c2ccc(-c3c4nc(c(-c5cc(S(=O)(=O)[O-])ccc5F)c5ccc([nH]5)c(-c5cc(S(=O)(=O)[O-])ccc5F)c5nc(c(-c6cc(S(=O)(=O)[O-])ccc6F)c6ccc3[nH]6)C=C5)C=C4)cc2)C1
REMARK SMILES IDX 26 1 25 2 24 3 22 4 23 5 21 7 8 8 9 9 95 10 10 11 6 12 7 13
REMARK SMILES IDX 5 14 2 15 1 16 3 17 4 18 11 19 12 20 20 21 13 22 19 23 14 24
REMARK SMILES IDX 15 25 16 26 17 27 18 28 27 29 28 30 29 31 30 32 31 34 32 35
REMARK SMILES IDX 33 36 94 37 34 38 93 39 35 40 36 41 37 42 87 43 38 44 92 45
REMARK SMILES IDX 86 46 88 47 39 48 91 49 85 50 84 51 40 53 72 54 52 55 71 56
REMARK SMILES IDX 53 57 56 58 70 59 89 60 54 61 55 62 69 64 90 65 57 66 41 67
REMARK SMILES IDX 42 68 50 69 43 70 49 71 51 72 48 73 44 74 45 75 46 76 47 77
REMARK SMILES IDX 73 78 74 79 82 80 75 81 81 82 83 83 80 84 76 85 77 86 78 87
REMARK SMILES IDX 79 88 58 89 59 90 67 91 60 92 66 93 68 94 65 95 61 96 62 97
REMARK SMILES IDX 63 98 64 99
REMARK H PARENT 24 6 29 33 88 52 56 63
REMARK Flexibility Score: inf
ROOT
ATOM      1  C   UNL A   1      32.997  27.270  26.598  1.00  0.00     0.023 C 
ENDROOT
BRANCH   1   2
ATOM      2  C   UNL A   1      32.726  25.880  26.047  1.00  0.00     0.116 C 
BRANCH   2   3
ATOM      3  N   UNL A   1      31.573  25.247  26.660  1.00  0.00    -0.356 N 
ATOM      4  C   UNL A   1      30.706  24.299  26.230  1.00  0.00     0.225 C 
ATOM      5  O   UNL A   1      29.793  23.996  27.008  1.00  0.00    -0.275 OA
ATOM      6  H   UNL A   1      31.383  25.569  27.570  1.00  0.00     0.163 HD
BRANCH   4   7
ATOM      7  C   UNL A   1      30.786  23.593  24.885  1.00  0.00     0.107 C 
ATOM      8  N   UNL A   1      32.733  23.405  23.576  1.00  0.00    -0.307 N 
ATOM      9  C   UNL A   1      31.753  23.967  22.678  1.00  0.00     0.132 C 
ATOM     10  C   UNL A   1      32.100  22.827  24.733  1.00  0.00     0.137 C 
ATOM     11  C   UNL A   1      30.514  24.346  23.537  1.00  0.00     0.053 C 
BRANCH   8  12
ATOM     12  C   UNL A   1      34.096  23.369  23.394  1.00  0.00     0.410 C 
ATOM     13  O   UNL A   1      34.695  24.193  22.724  1.00  0.00    -0.224 OA
BRANCH  12  14
ATOM     14  O   UNL A   1      34.667  22.289  23.995  1.00  0.00    -0.444 OA
BRANCH  14  15
ATOM     15  C   UNL A   1      35.724  22.456  24.981  1.00  0.00     0.106 C 
ATOM     16  C   UNL A   1      37.029  22.106  24.246  1.00  0.00     0.056 C 
ATOM     17  C   UNL A   1      35.516  21.459  26.124  1.00  0.00     0.056 C 
ATOM     18  C   UNL A   1      35.856  23.897  25.496  1.00  0.00     0.056 C 
ENDBRANCH  14  15
ENDBRANCH  12  14
ENDBRANCH   8  12
BRANCH  11  19
ATOM     19  C   UNL A   1      30.129  25.825  23.507  1.00  0.00    -0.042 A 
ATOM     20  C   UNL A   1      30.952  26.804  22.928  1.00  0.00     0.005 A 
ATOM     21  C   UNL A   1      28.922  26.277  24.077  1.00  0.00     0.005 A 
ATOM     22  C   UNL A   1      30.472  28.102  22.683  1.00  0.00     0.013 A 
ATOM     23  C   UNL A   1      28.438  27.567  23.838  1.00  0.00     0.013 A 
ATOM     24  C   UNL A   1      29.177  28.469  23.070  1.00  0.00     0.056 A 
BRANCH  24  25
ATOM     25  C   UNL A   1      28.526  29.745  22.590  1.00  0.00     0.416 C 
ATOM     26  F   UNL A   1      29.281  30.856  22.792  1.00  0.00    -0.166 F 
ATOM     27  F   UNL A   1      28.273  29.703  21.250  1.00  0.00    -0.166 F 
ATOM     28  F   UNL A   1      27.324  29.980  23.183  1.00  0.00    -0.166 F 
ENDBRANCH  24  25
ENDBRANCH  11  19
ENDBRANCH   4   7
ENDBRANCH   2   3
ENDBRANCH   1   2
BRANCH   1  29
ATOM     29  C   UNL A   1      32.198  28.383  25.929  1.00  0.00     0.023 C 
BRANCH  29  30
ATOM     30  C   UNL A   1      33.076  29.505  25.411  1.00  0.00     0.116 C 
BRANCH  30  31
ATOM     31  N   UNL A   1      32.634  30.800  25.915  1.00  0.00    -0.352 N 
ATOM     32  C   UNL A   1      33.080  31.518  26.995  1.00  0.00     0.251 C 
ATOM     33  H   UNL A   1      31.906  31.223  25.404  1.00  0.00     0.163 HD
ATOM     34  O   UNL A   1      32.409  32.451  27.425  1.00  0.00    -0.269 OA
BRANCH  32  35
ATOM     35  C   UNL A   1      34.360  31.151  27.630  1.00  0.00     0.039 A 
ATOM     36  C   UNL A   1      35.335  32.130  27.822  1.00  0.00     0.014 A 
ATOM     37  C   UNL A   1      34.583  29.838  28.051  1.00  0.00     0.014 A 
ATOM     38  C   UNL A   1      36.508  31.800  28.501  1.00  0.00     0.010 A 
ATOM     39  C   UNL A   1      35.688  29.544  28.832  1.00  0.00     0.010 A 
ATOM     40  C   UNL A   1      36.671  30.518  29.052  1.00  0.00    -0.014 A 
BRANCH  40  41
ATOM     41  C   UNL A   1      37.865  30.165  29.858  1.00  0.00     0.031 A 
ATOM     42  C   UNL A   1      38.891  29.220  29.294  1.00  0.00     0.074 A 
ATOM     43  C   UNL A   1      37.977  30.639  31.114  1.00  0.00     0.049 A 
ATOM     44  N   UNL A   1      39.955  28.721  29.865  1.00  0.00    -0.248 NA
ATOM     45  C   UNL A   1      38.670  28.743  27.919  1.00  0.00     0.031 C 
ATOM     46  C   UNL A   1      37.007  31.517  31.775  1.00  0.00     0.029 A 
ATOM     47  N   UNL A   1      38.947  30.447  32.062  1.00  0.00    -0.354 N 
ATOM     48  C   UNL A   1      40.519  27.861  28.927  1.00  0.00     0.074 A 
ATOM     49  C   UNL A   1      39.636  27.849  27.783  1.00  0.00     0.031 C 
ATOM     50  C   UNL A   1      37.454  31.821  33.003  1.00  0.00     0.029 A 
ATOM     51  C   UNL A   1      38.705  31.112  33.242  1.00  0.00     0.049 A 
ATOM     52  H   UNL A   1      39.742  29.885  31.913  1.00  0.00     0.167 HD
ATOM     53  C   UNL A   1      41.682  27.171  29.006  1.00  0.00     0.034 A 
ATOM     54  C   UNL A   1      39.409  31.134  34.391  1.00  0.00     0.034 A 
ATOM     55  C   UNL A   1      42.551  27.216  30.156  1.00  0.00     0.049 A 
ATOM     56  C   UNL A   1      40.683  30.333  34.465  1.00  0.00     0.074 A 
ATOM     57  C   UNL A   1      43.785  26.614  30.325  1.00  0.00     0.029 A 
ATOM     58  N   UNL A   1      42.272  27.892  31.337  1.00  0.00    -0.354 N 
ATOM     59  N   UNL A   1      41.240  29.579  33.543  1.00  0.00    -0.248 NA
ATOM     60  C   UNL A   1      41.426  30.389  35.729  1.00  0.00     0.031 C 
ATOM     61  C   UNL A   1      44.212  26.857  31.635  1.00  0.00     0.029 A 
ATOM     62  C   UNL A   1      43.287  27.684  32.257  1.00  0.00     0.049 A 
ATOM     63  H   UNL A   1      41.469  28.439  31.497  1.00  0.00     0.167 HD
ATOM     64  C   UNL A   1      42.411  29.088  34.113  1.00  0.00     0.074 A 
ATOM     65  C   UNL A   1      42.491  29.654  35.444  1.00  0.00     0.031 C 
ATOM     66  C   UNL A   1      43.336  28.244  33.587  1.00  0.00     0.034 A 
BRANCH  53  67
ATOM     67  C   UNL A   1      42.060  26.301  27.830  1.00  0.00     0.023 A 
ATOM     68  C   UNL A   1      41.665  24.953  27.749  1.00  0.00     0.031 A 
ATOM     69  C   UNL A   1      42.850  26.816  26.788  1.00  0.00     0.131 A 
ATOM     70  C   UNL A   1      42.122  24.150  26.694  1.00  0.00     0.055 A 
ATOM     71  C   UNL A   1      43.229  26.034  25.695  1.00  0.00     0.041 A 
ATOM     72  F   UNL A   1      43.282  28.087  26.820  1.00  0.00    -0.206 F 
ATOM     73  C   UNL A   1      42.878  24.688  25.651  1.00  0.00     0.022 A 
BRANCH  70  74
ATOM     74  S   UNL A   1      41.843  22.360  26.785  1.00  0.00     0.124 S 
ATOM     75  O   UNL A   1      41.915  21.978  25.377  1.00  0.00    -0.237 OA
ATOM     76  O   UNL A   1      42.948  21.912  27.626  1.00  0.00    -0.237 OA
ATOM     77  O   UNL A   1      40.516  22.249  27.386  1.00  0.00    -0.744 OA
ENDBRANCH  70  74
ENDBRANCH  53  67
BRANCH  54  78
ATOM     78  C   UNL A   1      38.924  31.921  35.562  1.00  0.00     0.023 A 
ATOM     79  C   UNL A   1      38.313  31.287  36.656  1.00  0.00     0.031 A 
ATOM     80  C   UNL A   1      39.031  33.323  35.591  1.00  0.00     0.131 A 
ATOM     81  C   UNL A   1      37.786  32.055  37.706  1.00  0.00     0.055 A 
ATOM     82  C   UNL A   1      38.562  34.079  36.667  1.00  0.00     0.041 A 
ATOM     83  F   UNL A   1      39.608  33.983  34.573  1.00  0.00    -0.206 F 
ATOM     84  C   UNL A   1      37.923  33.445  37.728  1.00  0.00     0.022 A 
BRANCH  81  85
ATOM     85  S   UNL A   1      36.832  31.216  39.000  1.00  0.00     0.124 S 
ATOM     86  O   UNL A   1      37.730  31.321  40.144  1.00  0.00    -0.237 OA
ATOM     87  O   UNL A   1      35.621  32.027  39.058  1.00  0.00    -0.237 OA
ATOM     88  O   UNL A   1      36.652  29.867  38.469  1.00  0.00    -0.744 OA
ENDBRANCH  81  85
ENDBRANCH  54  78
BRANCH  66  89
ATOM     89  C   UNL A   1      44.522  27.906  34.456  1.00  0.00     0.023 A 
ATOM     90  C   UNL A   1      44.519  26.779  35.296  1.00  0.00     0.031 A 
ATOM     91  C   UNL A   1      45.665  28.724  34.448  1.00  0.00     0.131 A 
ATOM     92  C   UNL A   1      45.613  26.534  36.138  1.00  0.00     0.055 A 
ATOM     93  C   UNL A   1      46.780  28.435  35.234  1.00  0.00     0.041 A 
ATOM     94  F   UNL A   1      45.720  29.815  33.668  1.00  0.00    -0.206 F 
ATOM     95  C   UNL A   1      46.752  27.343  36.097  1.00  0.00     0.022 A 
BRANCH  92  96
ATOM     96  S   UNL A   1      45.486  25.203  37.362  1.00  0.00     0.124 S 
ATOM     97  O   UNL A   1      46.696  24.432  37.097  1.00  0.00    -0.237 OA
ATOM     98  O   UNL A   1      45.463  25.938  38.623  1.00  0.00    -0.237 OA
ATOM     99  O   UNL A   1      44.234  24.533  37.012  1.00  0.00    -0.744 OA
ENDBRANCH  92  96
ENDBRANCH  66  89
ENDBRANCH  40  41
ENDBRANCH  32  35
ENDBRANCH  30  31
ENDBRANCH  29  30
ENDBRANCH   1  29
TORSDOF 19
ENDMDL
MODEL 2
REMARK VINA RESULT:     -12.0      1.882      7.571
REMARK SMILES CC(C)(C)OC(=O)N1C[C@H](c2ccc(C(F)(F)F)cc2)[C@H](C(=O)NCCCCNC(=O)c2ccc(-c3c4nc(c(-c5cc(S(=O)(=O)[O-])ccc5F)c5ccc([nH]5)c(-c5cc(S(=O)(=O)[O-])ccc5F)c5nc(c(-c6cc(S(=O)(=O)[O-])ccc6F)c6ccc3[nH]6)C=C5)C=C4)cc2)C1
REMARK SMILES IDX 26 1 25 2 24 3 22 4 23 5 21 7 8 8 9 9 95 10 10 11 6 12 7 13
REMARK SMILES IDX 5 14 2 15 1 16 3 17 4 18 11 19 12 20 20 21 13 22 19 23 14 24
REMARK SMILES IDX 15 25 16 26 17 27 18 28 27 29 28 30 29 31 30 32 31 34 32 35
REMARK SMILES IDX 33 36 94 37 34 38 93 39 35 40 36 41 37 42 87 43 38 44 92 45
REMARK SMILES IDX 86 46 88 47 39 48 91 49 85 50 84 51 40 53 72 54 52 55 71 56
REMARK SMILES IDX 53 57 56 58 70 59 89 60 54 61 55 62 69 64 90 65 57 66 41 67
REMARK SMILES IDX 42 68 50 69 43 70 49 71 51 72 48 73 44 74 45 75 46 76 47 77
REMARK SMILES IDX 73 78 74 79 82 80 75 81 81 82 83 83 80 84 76 85 77 86 78 87
REMARK SMILES IDX 79 88 58 89 59 90 67 91 60 92 66 93 68 94 65 95 61 96 62 97
REMARK SMILES IDX 63 98 64 99
REMARK H PARENT 24 6 29 33 88 52 56 63
REMARK Flexibility Score: inf
ROOT
ATOM      1  C   UNL A   1      31.786  28.006  26.642  1.00  0.00     0.023 C 
ENDROOT
BRANCH   1   2
ATOM      2  C   UNL A   1      31.989  26.509  26.478  1.00  0.00     0.116 C 
BRANCH   2   3
ATOM      3  N   UNL A   1      30.832  25.736  26.890  1.00  0.00    -0.356 N 
ATOM      4  C   UNL A   1      30.352  24.526  26.515  1.00  0.00     0.225 C 
ATOM      5  O   UNL A   1      29.300  24.161  27.055  1.00  0.00    -0.275 OA
ATOM      6  H   UNL A   1      30.288  26.178  27.581  1.00  0.00     0.163 HD
BRANCH   4   7
ATOM      7  C   UNL A   1      31.012  23.604  25.501  1.00  0.00     0.107 C 
ATOM      8  N   UNL A   1      33.308  23.595  24.984  1.00  0.00    -0.307 N 
ATOM      9  C   UNL A   1      32.655  23.739  23.705  1.00  0.00     0.132 C 
ATOM     10  C   UNL A   1      32.383  23.132  25.985  1.00  0.00     0.137 C 
ATOM     11  C   UNL A   1      31.149  23.997  23.991  1.00  0.00     0.053 C 
BRANCH   8  12
ATOM     12  C   UNL A   1      34.634  23.827  25.265  1.00  0.00     0.410 C 
ATOM     13  O   UNL A   1      35.118  24.946  25.299  1.00  0.00    -0.224 OA
BRANCH  12  14
ATOM     14  O   UNL A   1      35.333  22.671  25.437  1.00  0.00    -0.444 OA
BRANCH  14  15
ATOM     15  C   UNL A   1      36.614  22.469  24.777  1.00  0.00     0.106 C 
ATOM     16  C   UNL A   1      36.888  20.958  24.869  1.00  0.00     0.056 C 
ATOM     17  C   UNL A   1      37.706  23.218  25.545  1.00  0.00     0.056 C 
ATOM     18  C   UNL A   1      36.601  22.846  23.289  1.00  0.00     0.056 C 
ENDBRANCH  14  15
ENDBRANCH  12  14
ENDBRANCH   8  12
BRANCH  11  19
ATOM     19  C   UNL A   1      30.602  25.319  23.452  1.00  0.00    -0.042 A 
ATOM     20  C   UNL A   1      29.323  25.795  23.785  1.00  0.00     0.005 A 
ATOM     21  C   UNL A   1      31.362  26.123  22.580  1.00  0.00     0.005 A 
ATOM     22  C   UNL A   1      28.942  27.115  23.492  1.00  0.00     0.013 A 
ATOM     23  C   UNL A   1      30.990  27.438  22.284  1.00  0.00     0.013 A 
ATOM     24  C   UNL A   1      29.809  27.972  22.804  1.00  0.00     0.056 A 
BRANCH  24  25
ATOM     25  C   UNL A   1      29.562  29.460  22.710  1.00  0.00     0.416 C 
ATOM     26  F   UNL A   1      28.266  29.787  22.463  1.00  0.00    -0.166 F 
ATOM     27  F   UNL A   1      29.892  30.095  23.870  1.00  0.00    -0.166 F 
ATOM     28  F   UNL A   1      30.304  30.058  21.739  1.00  0.00    -0.166 F 
ENDBRANCH  24  25
ENDBRANCH  11  19
ENDBRANCH   4   7
ENDBRANCH   2   3
ENDBRANCH   1   2
BRANCH   1  29
ATOM     29  C   UNL A   1      32.230  28.840  25.445  1.00  0.00     0.023 C 
BRANCH  29  30
ATOM     30  C   UNL A   1      33.516  29.599  25.705  1.00  0.00     0.116 C 
BRANCH  30  31
ATOM     31  N   UNL A   1      33.252  30.898  26.314  1.00  0.00    -0.352 N 
ATOM     32  C   UNL A   1      33.859  31.502  27.386  1.00  0.00     0.251 C 
ATOM     33  H   UNL A   1      32.529  31.418  25.895  1.00  0.00     0.163 HD
ATOM     34  O   UNL A   1      33.325  32.467  27.924  1.00  0.00    -0.269 OA
BRANCH  32  35
ATOM     35  C   UNL A   1      35.146  30.976  27.881  1.00  0.00     0.039 A 
ATOM     36  C   UNL A   1      36.259  31.816  27.922  1.00  0.00     0.014 A 
ATOM     37  C   UNL A   1      35.240  29.654  28.322  1.00  0.00     0.014 A 
ATOM     38  C   UNL A   1      37.450  31.342  28.471  1.00  0.00     0.010 A 
ATOM     39  C   UNL A   1      36.381  29.228  28.979  1.00  0.00     0.010 A 
ATOM     40  C   UNL A   1      37.504  30.062  29.047  1.00  0.00    -0.014 A 
BRANCH  40  41
ATOM     41  C   UNL A   1      38.728  29.565  29.722  1.00  0.00     0.031 A 
ATOM     42  C   UNL A   1      39.109  30.112  31.071  1.00  0.00     0.074 A 
ATOM     43  C   UNL A   1      39.522  28.683  29.084  1.00  0.00     0.049 A 
ATOM     44  N   UNL A   1      40.177  29.875  31.786  1.00  0.00    -0.248 NA
ATOM     45  C   UNL A   1      38.187  31.085  31.678  1.00  0.00     0.031 C 
ATOM     46  C   UNL A   1      39.271  28.133  27.748  1.00  0.00     0.029 A 
ATOM     47  N   UNL A   1      40.701  28.098  29.464  1.00  0.00    -0.354 N 
ATOM     48  C   UNL A   1      40.061  30.679  32.915  1.00  0.00     0.074 A 
ATOM     49  C   UNL A   1      38.860  31.466  32.751  1.00  0.00     0.031 C 
ATOM     50  C   UNL A   1      40.242  27.260  27.442  1.00  0.00     0.029 A 
ATOM     51  C   UNL A   1      41.217  27.234  28.526  1.00  0.00     0.049 A 
ATOM     52  H   UNL A   1      41.138  28.279  30.327  1.00  0.00     0.167 HD
ATOM     53  C   UNL A   1      40.869  30.731  34.002  1.00  0.00     0.034 A 
ATOM     54  C   UNL A   1      42.355  26.514  28.536  1.00  0.00     0.034 A 
ATOM     55  C   UNL A   1      42.054  29.921  34.145  1.00  0.00     0.049 A 
ATOM     56  C   UNL A   1      43.254  26.613  29.742  1.00  0.00     0.074 A 
ATOM     57  C   UNL A   1      42.913  29.837  35.225  1.00  0.00     0.029 A 
ATOM     58  N   UNL A   1      42.552  29.064  33.172  1.00  0.00    -0.354 N 
ATOM     59  N   UNL A   1      43.095  27.326  30.834  1.00  0.00    -0.248 NA
ATOM     60  C   UNL A   1      44.480  25.808  29.720  1.00  0.00     0.031 C 
ATOM     61  C   UNL A   1      43.973  28.995  34.875  1.00  0.00     0.029 A 
ATOM     62  C   UNL A   1      43.732  28.483  33.608  1.00  0.00     0.049 A 
ATOM     63  H   UNL A   1      42.129  28.894  32.300  1.00  0.00     0.167 HD
ATOM     64  C   UNL A   1      44.194  27.037  31.639  1.00  0.00     0.074 A 
ATOM     65  C   UNL A   1      44.990  26.066  30.915  1.00  0.00     0.031 C 
ATOM     66  C   UNL A   1      44.519  27.530  32.861  1.00  0.00     0.034 A 
BRANCH  53  67
ATOM     67  C   UNL A   1      40.507  31.706  35.097  1.00  0.00     0.023 A 
ATOM     68  C   UNL A   1      39.538  31.400  36.071  1.00  0.00     0.031 A 
ATOM     69  C   UNL A   1      41.117  32.971  35.156  1.00  0.00     0.131 A 
ATOM     70  C   UNL A   1      39.155  32.370  37.009  1.00  0.00     0.055 A 
ATOM     71  C   UNL A   1      40.795  33.900  36.147  1.00  0.00     0.041 A 
ATOM     72  F   UNL A   1      42.030  33.333  34.241  1.00  0.00    -0.206 F 
ATOM     73  C   UNL A   1      39.797  33.608  37.072  1.00  0.00     0.022 A 
BRANCH  70  74
ATOM     74  S   UNL A   1      37.702  32.046  38.045  1.00  0.00     0.124 S 
ATOM     75  O   UNL A   1      38.235  32.288  39.384  1.00  0.00    -0.237 OA
ATOM     76  O   UNL A   1      36.740  33.026  37.554  1.00  0.00    -0.237 OA
ATOM     77  O   UNL A   1      37.377  30.651  37.755  1.00  0.00    -0.744 OA
ENDBRANCH  70  74
ENDBRANCH  53  67
BRANCH  54  78
ATOM     78  C   UNL A   1      42.720  25.655  27.372  1.00  0.00     0.023 A 
ATOM     79  C   UNL A   1      42.259  24.332  27.277  1.00  0.00     0.031 A 
ATOM     80  C   UNL A   1      43.565  26.131  26.353  1.00  0.00     0.131 A 
ATOM     81  C   UNL A   1      42.686  23.516  26.217  1.00  0.00     0.055 A 
ATOM     82  C   UNL A   1      43.936  25.335  25.267  1.00  0.00     0.041 A 
ATOM     83  F   UNL A   1      44.034  27.389  26.391  1.00  0.00    -0.206 F 
ATOM     84  C   UNL A   1      43.506  24.014  25.203  1.00  0.00     0.022 A 
BRANCH  81  85
ATOM     85  S   UNL A   1      42.229  21.761  26.237  1.00  0.00     0.124 S 
ATOM     86  O   UNL A   1      40.796  21.825  25.972  1.00  0.00    -0.237 OA
ATOM     87  O   UNL A   1      43.057  21.220  25.164  1.00  0.00    -0.237 OA
ATOM     88  O   UNL A   1      42.596  21.328  27.583  1.00  0.00    -0.744 OA
ENDBRANCH  81  85
ENDBRANCH  54  78
BRANCH  66  89
ATOM     89  C   UNL A   1      45.783  27.002  33.494  1.00  0.00     0.023 A 
ATOM     90  C   UNL A   1      47.022  27.636  33.298  1.00  0.00     0.031 A 
ATOM     91  C   UNL A   1      45.748  25.849  34.297  1.00  0.00     0.131 A 
ATOM     92  C   UNL A   1      48.185  27.079  33.849  1.00  0.00     0.055 A 
ATOM     93  C   UNL A   1      46.897  25.340  34.901  1.00  0.00     0.041 A 
ATOM     94  F   UNL A   1      44.592  25.201  34.513  1.00  0.00    -0.206 F 
ATOM     95  C   UNL A   1      48.128  25.947  34.666  1.00  0.00     0.022 A 
BRANCH  92  96
ATOM     96  S   UNL A   1      49.788  27.796  33.398  1.00  0.00     0.124 S 
ATOM     97  O   UNL A   1      50.719  26.774  33.869  1.00  0.00    -0.237 OA
ATOM     98  O   UNL A   1      49.673  27.933  31.949  1.00  0.00    -0.237 OA
ATOM     99  O   UNL A   1      49.822  29.055  34.139  1.00  0.00    -0.744 OA
ENDBRANCH  92  96
ENDBRANCH  66  89
ENDBRANCH  40  41
ENDBRANCH  32  35
ENDBRANCH  30  31
ENDBRANCH  29  30
ENDBRANCH   1  29
TORSDOF 19
ENDMDL
MODEL 3
REMARK VINA RESULT:     -11.9      6.047     10.866
REMARK SMILES CC(C)(C)OC(=O)N1C[C@H](c2ccc(C(F)(F)F)cc2)[C@H](C(=O)NCCCCNC(=O)c2ccc(-c3c4nc(c(-c5cc(S(=O)(=O)[O-])ccc5F)c5ccc([nH]5)c(-c5cc(S(=O)(=O)[O-])ccc5F)c5nc(c(-c6cc(S(=O)(=O)[O-])ccc6F)c6ccc3[nH]6)C=C5)C=C4)cc2)C1
REMARK SMILES IDX 26 1 25 2 24 3 22 4 23 5 21 7 8 8 9 9 95 10 10 11 6 12 7 13
REMARK SMILES IDX 5 14 2 15 1 16 3 17 4 18 11 19 12 20 20 21 13 22 19 23 14 24
REMARK SMILES IDX 15 25 16 26 17 27 18 28 27 29 28 30 29 31 30 32 31 34 32 35
REMARK SMILES IDX 33 36 94 37 34 38 93 39 35 40 36 41 37 42 87 43 38 44 92 45
REMARK SMILES IDX 86 46 88 47 39 48 91 49 85 50 84 51 40 53 72 54 52 55 71 56
REMARK SMILES IDX 53 57 56 58 70 59 89 60 54 61 55 62 69 64 90 65 57 66 41 67
REMARK SMILES IDX 42 68 50 69 43 70 49 71 51 72 48 73 44 74 45 75 46 76 47 77
REMARK SMILES IDX 73 78 74 79 82 80 75 81 81 82 83 83 80 84 76 85 77 86 78 87
REMARK SMILES IDX 79 88 58 89 59 90 67 91 60 92 66 93 68 94 65 95 61 96 62 97
REMARK SMILES IDX 63 98 64 99
REMARK H PARENT 24 6 29 33 88 52 56 63
REMARK Flexibility Score: inf
ROOT
ATOM      1  C   UNL A   1      37.463  21.713  24.527  1.00  0.00     0.023 C 
ENDROOT
BRANCH   1   2
ATOM      2  C   UNL A   1      37.466  22.745  25.642  1.00  0.00     0.116 C 
BRANCH   2   3
ATOM      3  N   UNL A   1      36.325  22.617  26.530  1.00  0.00    -0.356 N 
ATOM      4  C   UNL A   1      35.004  22.874  26.374  1.00  0.00     0.225 C 
ATOM      5  O   UNL A   1      34.287  22.679  27.364  1.00  0.00    -0.275 OA
ATOM      6  H   UNL A   1      36.557  22.275  27.423  1.00  0.00     0.163 HD
BRANCH   4   7
ATOM      7  C   UNL A   1      34.359  23.368  25.089  1.00  0.00     0.107 C 
ATOM      8  N   UNL A   1      32.119  24.059  24.885  1.00  0.00    -0.307 N 
ATOM      9  C   UNL A   1      32.280  23.064  23.852  1.00  0.00     0.132 C 
ATOM     10  C   UNL A   1      33.397  24.526  25.354  1.00  0.00     0.137 C 
ATOM     11  C   UNL A   1      33.661  22.389  24.084  1.00  0.00     0.053 C 
BRANCH   8  12
ATOM     12  C   UNL A   1      30.934  24.556  25.376  1.00  0.00     0.410 C 
ATOM     13  O   UNL A   1      30.600  24.437  26.543  1.00  0.00    -0.224 OA
BRANCH  12  14
ATOM     14  O   UNL A   1      30.174  25.132  24.404  1.00  0.00    -0.444 OA
BRANCH  14  15
ATOM     15  C   UNL A   1      30.400  26.511  23.998  1.00  0.00     0.106 C 
ATOM     16  C   UNL A   1      29.004  27.084  23.703  1.00  0.00     0.056 C 
ATOM     17  C   UNL A   1      31.228  26.534  22.711  1.00  0.00     0.056 C 
ATOM     18  C   UNL A   1      31.032  27.375  25.099  1.00  0.00     0.056 C 
ENDBRANCH  14  15
ENDBRANCH  12  14
ENDBRANCH   8  12
BRANCH  11  19
ATOM     19  C   UNL A   1      33.614  20.882  24.333  1.00  0.00    -0.042 A 
ATOM     20  C   UNL A   1      32.469  20.111  24.074  1.00  0.00     0.005 A 
ATOM     21  C   UNL A   1      34.729  20.192  24.850  1.00  0.00     0.005 A 
ATOM     22  C   UNL A   1      32.526  18.707  24.066  1.00  0.00     0.013 A 
ATOM     23  C   UNL A   1      34.794  18.795  24.844  1.00  0.00     0.013 A 
ATOM     24  C   UNL A   1      33.716  18.040  24.377  1.00  0.00     0.056 A 
BRANCH  24  25
ATOM     25  C   UNL A   1      33.901  16.563  24.116  1.00  0.00     0.416 C 
ATOM     26  F   UNL A   1      34.787  15.964  24.954  1.00  0.00    -0.166 F 
ATOM     27  F   UNL A   1      32.730  15.880  24.260  1.00  0.00    -0.166 F 
ATOM     28  F   UNL A   1      34.327  16.300  22.850  1.00  0.00    -0.166 F 
ENDBRANCH  24  25
ENDBRANCH  11  19
ENDBRANCH   4   7
ENDBRANCH   2   3
ENDBRANCH   1   2
BRANCH   1  29
ATOM     29  C   UNL A   1      38.186  20.414  24.865  1.00  0.00     0.023 C 
BRANCH  29  30
ATOM     30  C   UNL A   1      39.059  20.534  26.100  1.00  0.00     0.116 C 
BRANCH  30  31
ATOM     31  N   UNL A   1      40.110  19.523  26.106  1.00  0.00    -0.352 N 
ATOM     32  C   UNL A   1      41.473  19.676  26.089  1.00  0.00     0.251 C 
ATOM     33  H   UNL A   1      39.794  18.590  26.125  1.00  0.00     0.163 HD
ATOM     34  O   UNL A   1      42.190  18.716  25.822  1.00  0.00    -0.269 OA
BRANCH  32  35
ATOM     35  C   UNL A   1      42.057  20.998  26.386  1.00  0.00     0.039 A 
ATOM     36  C   UNL A   1      42.288  21.895  25.343  1.00  0.00     0.014 A 
ATOM     37  C   UNL A   1      42.356  21.352  27.704  1.00  0.00     0.014 A 
ATOM     38  C   UNL A   1      42.758  23.175  25.637  1.00  0.00     0.010 A 
ATOM     39  C   UNL A   1      42.701  22.659  28.003  1.00  0.00     0.010 A 
ATOM     40  C   UNL A   1      42.921  23.581  26.972  1.00  0.00    -0.014 A 
BRANCH  40  41
ATOM     41  C   UNL A   1      43.329  24.964  27.318  1.00  0.00     0.031 A 
ATOM     42  C   UNL A   1      42.339  25.892  27.968  1.00  0.00     0.074 A 
ATOM     43  C   UNL A   1      44.560  25.392  26.980  1.00  0.00     0.049 A 
ATOM     44  N   UNL A   1      42.469  27.156  28.271  1.00  0.00    -0.248 NA
ATOM     45  C   UNL A   1      41.013  25.335  28.281  1.00  0.00     0.031 C 
ATOM     46  C   UNL A   1      45.577  24.588  26.296  1.00  0.00     0.029 A 
ATOM     47  N   UNL A   1      45.167  26.608  27.156  1.00  0.00    -0.354 N 
ATOM     48  C   UNL A   1      41.241  27.547  28.794  1.00  0.00     0.074 A 
ATOM     49  C   UNL A   1      40.357  26.408  28.694  1.00  0.00     0.031 C 
ATOM     50  C   UNL A   1      46.693  25.318  26.151  1.00  0.00     0.029 A 
ATOM     51  C   UNL A   1      46.454  26.659  26.671  1.00  0.00     0.049 A 
ATOM     52  H   UNL A   1      44.724  27.374  27.588  1.00  0.00     0.167 HD
ATOM     53  C   UNL A   1      40.894  28.740  29.336  1.00  0.00     0.034 A 
ATOM     54  C   UNL A   1      47.334  27.679  26.639  1.00  0.00     0.034 A 
ATOM     55  C   UNL A   1      41.803  29.856  29.437  1.00  0.00     0.049 A 
ATOM     56  C   UNL A   1      46.914  29.005  27.218  1.00  0.00     0.074 A 
ATOM     57  C   UNL A   1      41.588  31.089  30.024  1.00  0.00     0.029 A 
ATOM     58  N   UNL A   1      43.096  29.876  28.927  1.00  0.00    -0.354 N 
ATOM     59  N   UNL A   1      45.771  29.340  27.773  1.00  0.00    -0.248 NA
ATOM     60  C   UNL A   1      47.903  30.089  27.172  1.00  0.00     0.031 C 
ATOM     61  C   UNL A   1      42.718  31.882  29.797  1.00  0.00     0.029 A 
ATOM     62  C   UNL A   1      43.673  31.116  29.145  1.00  0.00     0.049 A 
ATOM     63  H   UNL A   1      43.536  29.120  28.477  1.00  0.00     0.167 HD
ATOM     64  C   UNL A   1      45.913  30.669  28.162  1.00  0.00     0.074 A 
ATOM     65  C   UNL A   1      47.260  31.062  27.801  1.00  0.00     0.031 C 
ATOM     66  C   UNL A   1      45.013  31.492  28.758  1.00  0.00     0.034 A 
BRANCH  53  67
ATOM     67  C   UNL A   1      39.477  28.898  29.834  1.00  0.00     0.023 A 
ATOM     68  C   UNL A   1      38.442  29.347  28.992  1.00  0.00     0.031 A 
ATOM     69  C   UNL A   1      39.157  28.621  31.174  1.00  0.00     0.131 A 
ATOM     70  C   UNL A   1      37.162  29.579  29.517  1.00  0.00     0.055 A 
ATOM     71  C   UNL A   1      37.860  28.770  31.669  1.00  0.00     0.041 A 
ATOM     72  F   UNL A   1      40.105  28.214  32.033  1.00  0.00    -0.206 F 
ATOM     73  C   UNL A   1      36.857  29.266  30.843  1.00  0.00     0.022 A 
BRANCH  70  74
ATOM     74  S   UNL A   1      35.945  30.439  28.482  1.00  0.00     0.124 S 
ATOM     75  O   UNL A   1      35.059  29.343  28.097  1.00  0.00    -0.237 OA
ATOM     76  O   UNL A   1      35.385  31.420  29.404  1.00  0.00    -0.237 OA
ATOM     77  O   UNL A   1      36.749  30.992  27.394  1.00  0.00    -0.744 OA
ENDBRANCH  70  74
ENDBRANCH  53  67
BRANCH  54  78
ATOM     78  C   UNL A   1      48.683  27.497  26.027  1.00  0.00     0.023 A 
ATOM     79  C   UNL A   1      48.885  27.697  24.652  1.00  0.00     0.031 A 
ATOM     80  C   UNL A   1      49.782  27.085  26.800  1.00  0.00     0.131 A 
ATOM     81  C   UNL A   1      50.142  27.436  24.084  1.00  0.00     0.055 A 
ATOM     82  C   UNL A   1      51.047  26.886  26.241  1.00  0.00     0.041 A 
ATOM     83  F   UNL A   1      49.647  26.880  28.120  1.00  0.00    -0.206 F 
ATOM     84  C   UNL A   1      51.228  27.049  24.872  1.00  0.00     0.022 A 
BRANCH  81  85
ATOM     85  S   UNL A   1      50.312  27.515  22.280  1.00  0.00     0.124 S 
ATOM     86  O   UNL A   1      51.540  26.758  22.065  1.00  0.00    -0.237 OA
ATOM     87  O   UNL A   1      49.078  26.878  21.831  1.00  0.00    -0.237 OA
ATOM     88  O   UNL A   1      50.406  28.948  22.010  1.00  0.00    -0.744 OA
ENDBRANCH  81  85
ENDBRANCH  54  78
BRANCH  66  89
ATOM     89  C   UNL A   1      45.476  32.892  29.074  1.00  0.00     0.023 A 
ATOM     90  C   UNL A   1      45.282  33.951  28.170  1.00  0.00     0.031 A 
ATOM     91  C   UNL A   1      46.125  33.170  30.290  1.00  0.00     0.131 A 
ATOM     92  C   UNL A   1      45.784  35.225  28.470  1.00  0.00     0.055 A 
ATOM     93  C   UNL A   1      46.559  34.455  30.614  1.00  0.00     0.041 A 
ATOM     94  F   UNL A   1      46.340  32.195  31.188  1.00  0.00    -0.206 F 
ATOM     95  C   UNL A   1      46.403  35.489  29.695  1.00  0.00     0.022 A 
BRANCH  92  96
ATOM     96  S   UNL A   1      45.710  36.511  27.193  1.00  0.00     0.124 S 
ATOM     97  O   UNL A   1      46.383  35.862  26.072  1.00  0.00    -0.237 OA
ATOM     98  O   UNL A   1      44.273  36.717  27.041  1.00  0.00    -0.237 OA
ATOM     99  O   UNL A   1      46.437  37.630  27.790  1.00  0.00    -0.744 OA
ENDBRANCH  92  96
ENDBRANCH  66  89
ENDBRANCH  40  41
ENDBRANCH  32  35
ENDBRANCH  30  31
ENDBRANCH  29  30
ENDBRANCH   1  29
TORSDOF 19
ENDMDL
