MODEL 1
REMARK VINA RESULT:     -10.8      0.000      0.000
REMARK SMILES O=C(C[C@@H]1C[N@@H+]([C@@H]2CCOc3ccccc32)CCO1)NCCCCNC(=O)c1ccc(-c2c3nc(c(-c4cc(S(=O)(=O)[O-])ccc4F)c4ccc([nH]4)c(-c4cc(S(=O)(=O)[O-])ccc4F)c4nc(c(-c5cc(S(=O)(=O)[O-])ccc5F)c5ccc2[nH]5)C=C4)C=C3)cc1
REMARK SMILES IDX 23 1 22 2 21 3 20 4 1 5 2 6 3 8 4 9 5 10 19 11 6 12 18 13
REMARK SMILES IDX 17 14 7 16 8 17 16 18 9 19 11 20 15 21 10 22 12 23 14 24
REMARK SMILES IDX 13 25 24 26 25 27 26 28 27 30 28 31 29 32 90 33 30 34 89 35
REMARK SMILES IDX 31 36 32 37 33 38 83 39 34 40 88 41 82 42 84 43 35 44 87 45
REMARK SMILES IDX 81 46 80 47 36 49 68 50 48 51 67 52 49 53 52 54 66 55 85 56
REMARK SMILES IDX 50 57 51 58 65 60 86 61 53 62 37 63 38 64 46 65 39 66 45 67
REMARK SMILES IDX 47 68 44 69 40 70 41 71 42 72 43 73 69 74 70 75 78 76 71 77
REMARK SMILES IDX 77 78 79 79 76 80 72 81 73 82 74 83 75 84 54 85 55 86 63 87
REMARK SMILES IDX 56 88 62 89 64 90 61 91 57 92 58 93 59 94 60 95
REMARK H PARENT 20 7 6 15 25 29 84 48 52 59
REMARK Flexibility Score: inf
ROOT
ATOM      1  C   UNL A   1      35.023  34.756  28.640  1.00  0.00     0.023 C 
ENDROOT
BRANCH   1   2
ATOM      2  C   UNL A   1      33.507  34.786  28.857  1.00  0.00     0.023 C 
BRANCH   2   3
ATOM      3  C   UNL A   1      33.023  35.831  29.859  1.00  0.00     0.116 C 
BRANCH   3   4
ATOM      4  N   UNL A   1      33.813  35.819  31.074  1.00  0.00    -0.356 N 
ATOM      5  O   UNL A   1      32.129  35.152  32.492  1.00  0.00    -0.275 OA
ATOM      6  C   UNL A   1      33.308  35.433  32.295  1.00  0.00     0.222 C 
ATOM      7  H   UNL A   1      34.756  36.100  31.023  1.00  0.00     0.163 HD
BRANCH   6   8
ATOM      8  C   UNL A   1      34.339  35.393  33.408  1.00  0.00     0.138 C 
BRANCH   8   9
ATOM      9  C   UNL A   1      35.322  34.244  33.171  1.00  0.00     0.182 C 
ATOM     10  C   UNL A   1      36.735  34.734  32.830  1.00  0.00     0.295 C 
ATOM     11  O   UNL A   1      34.819  33.420  32.103  1.00  0.00    -0.366 OA
ATOM     12  N   UNL A   1      37.706  33.636  32.627  1.00  0.00    -0.324 N 
ATOM     13  C   UNL A   1      35.675  32.296  31.847  1.00  0.00     0.222 C 
ATOM     14  C   UNL A   1      37.156  32.683  31.649  1.00  0.00     0.291 C 
ATOM     15  H   UNL A   1      38.549  34.053  32.230  1.00  0.00     0.348 HD
BRANCH  12  16
ATOM     16  C   UNL A   1      38.305  33.035  33.847  1.00  0.00     0.222 C 
ATOM     17  C   UNL A   1      37.414  32.105  34.696  1.00  0.00     0.112 C 
ATOM     18  C   UNL A   1      39.037  34.059  34.702  1.00  0.00     0.051 A 
ATOM     19  C   UNL A   1      37.857  32.076  36.147  1.00  0.00     0.236 C 
ATOM     20  C   UNL A   1      38.718  34.218  36.054  1.00  0.00     0.128 A 
ATOM     21  C   UNL A   1      40.027  34.885  34.143  1.00  0.00     0.014 A 
ATOM     22  O   UNL A   1      37.837  33.394  36.701  1.00  0.00    -0.493 OA
ATOM     23  C   UNL A   1      39.287  35.245  36.805  1.00  0.00     0.047 A 
ATOM     24  C   UNL A   1      40.627  35.890  34.903  1.00  0.00     0.001 A 
ATOM     25  C   UNL A   1      40.244  36.081  36.230  1.00  0.00     0.004 A 
ENDBRANCH  12  16
ENDBRANCH   8   9
ENDBRANCH   6   8
ENDBRANCH   3   4
ENDBRANCH   2   3
ENDBRANCH   1   2
BRANCH   1  26
ATOM     26  C   UNL A   1      35.602  33.403  28.232  1.00  0.00     0.116 C 
BRANCH  26  27
ATOM     27  N   UNL A   1      34.576  32.440  27.869  1.00  0.00    -0.352 N 
ATOM     28  C   UNL A   1      34.652  31.069  27.782  1.00  0.00     0.251 C 
ATOM     29  H   UNL A   1      33.696  32.825  27.652  1.00  0.00     0.163 HD
ATOM     30  O   UNL A   1      33.713  30.443  27.292  1.00  0.00    -0.269 OA
BRANCH  28  31
ATOM     31  C   UNL A   1      35.863  30.349  28.242  1.00  0.00     0.039 A 
ATOM     32  C   UNL A   1      36.996  30.344  27.425  1.00  0.00     0.014 A 
ATOM     33  C   UNL A   1      35.888  29.677  29.468  1.00  0.00     0.014 A 
ATOM     34  C   UNL A   1      38.173  29.731  27.868  1.00  0.00     0.010 A 
ATOM     35  C   UNL A   1      37.083  29.134  29.940  1.00  0.00     0.010 A 
ATOM     36  C   UNL A   1      38.242  29.159  29.148  1.00  0.00    -0.014 A 
BRANCH  36  37
ATOM     37  C   UNL A   1      39.515  28.594  29.675  1.00  0.00     0.031 A 
ATOM     38  C   UNL A   1      40.173  29.200  30.886  1.00  0.00     0.074 A 
ATOM     39  C   UNL A   1      40.111  27.570  29.029  1.00  0.00     0.049 A 
ATOM     40  N   UNL A   1      41.320  28.901  31.444  1.00  0.00    -0.248 NA
ATOM     41  C   UNL A   1      39.460  30.307  31.540  1.00  0.00     0.031 C 
ATOM     42  C   UNL A   1      39.593  26.917  27.825  1.00  0.00     0.029 A 
ATOM     43  N   UNL A   1      41.284  26.903  29.287  1.00  0.00    -0.354 N 
ATOM     44  C   UNL A   1      41.468  29.783  32.509  1.00  0.00     0.074 A 
ATOM     45  C   UNL A   1      40.325  30.672  32.474  1.00  0.00     0.031 C 
ATOM     46  C   UNL A   1      40.429  25.931  27.465  1.00  0.00     0.029 A 
ATOM     47  C   UNL A   1      41.571  25.914  28.374  1.00  0.00     0.049 A 
ATOM     48  H   UNL A   1      41.866  27.114  30.052  1.00  0.00     0.167 HD
ATOM     49  C   UNL A   1      42.452  29.832  33.442  1.00  0.00     0.034 A 
ATOM     50  C   UNL A   1      42.638  25.096  28.266  1.00  0.00     0.034 A 
ATOM     51  C   UNL A   1      43.584  28.937  33.466  1.00  0.00     0.049 A 
ATOM     52  C   UNL A   1      43.743  25.201  29.288  1.00  0.00     0.074 A 
ATOM     53  C   UNL A   1      44.614  28.875  34.390  1.00  0.00     0.029 A 
ATOM     54  N   UNL A   1      43.844  27.953  32.519  1.00  0.00    -0.354 N 
ATOM     55  N   UNL A   1      43.845  26.015  30.314  1.00  0.00    -0.248 NA
ATOM     56  C   UNL A   1      44.870  24.270  29.145  1.00  0.00     0.031 C 
ATOM     57  C   UNL A   1      45.533  27.912  33.960  1.00  0.00     0.029 A 
ATOM     58  C   UNL A   1      45.034  27.306  32.819  1.00  0.00     0.049 A 
ATOM     59  H   UNL A   1      43.268  27.746  31.748  1.00  0.00     0.167 HD
ATOM     60  C   UNL A   1      45.033  25.668  30.956  1.00  0.00     0.074 A 
ATOM     61  C   UNL A   1      45.599  24.563  30.211  1.00  0.00     0.031 C 
ATOM     62  C   UNL A   1      45.599  26.211  32.063  1.00  0.00     0.034 A 
BRANCH  49  63
ATOM     63  C   UNL A   1      42.353  30.907  34.501  1.00  0.00     0.023 A 
ATOM     64  C   UNL A   1      43.062  32.116  34.393  1.00  0.00     0.031 A 
ATOM     65  C   UNL A   1      41.553  30.716  35.642  1.00  0.00     0.131 A 
ATOM     66  C   UNL A   1      43.021  33.050  35.440  1.00  0.00     0.055 A 
ATOM     67  C   UNL A   1      41.447  31.688  36.639  1.00  0.00     0.041 A 
ATOM     68  F   UNL A   1      40.870  29.573  35.815  1.00  0.00    -0.206 F 
ATOM     69  C   UNL A   1      42.197  32.857  36.549  1.00  0.00     0.022 A 
BRANCH  66  70
ATOM     70  S   UNL A   1      44.182  34.443  35.401  1.00  0.00     0.124 S 
ATOM     71  O   UNL A   1      43.936  34.994  34.070  1.00  0.00    -0.237 OA
ATOM     72  O   UNL A   1      43.732  35.259  36.523  1.00  0.00    -0.237 OA
ATOM     73  O   UNL A   1      45.486  33.807  35.573  1.00  0.00    -0.744 OA
ENDBRANCH  66  70
ENDBRANCH  49  63
BRANCH  50  74
ATOM     74  C   UNL A   1      42.736  24.122  27.138  1.00  0.00     0.023 A 
ATOM     75  C   UNL A   1      42.113  22.866  27.207  1.00  0.00     0.031 A 
ATOM     76  C   UNL A   1      43.499  24.416  25.993  1.00  0.00     0.131 A 
ATOM     77  C   UNL A   1      42.307  21.931  26.178  1.00  0.00     0.055 A 
ATOM     78  C   UNL A   1      43.637  23.506  24.944  1.00  0.00     0.041 A 
ATOM     79  F   UNL A   1      44.117  25.602  25.874  1.00  0.00    -0.206 F 
ATOM     80  C   UNL A   1      43.051  22.248  25.040  1.00  0.00     0.022 A 
BRANCH  77  81
ATOM     81  S   UNL A   1      41.657  20.251  26.397  1.00  0.00     0.124 S 
ATOM     82  O   UNL A   1      42.347  19.526  25.337  1.00  0.00    -0.237 OA
ATOM     83  O   UNL A   1      42.072  19.942  27.762  1.00  0.00    -0.237 OA
ATOM     84  O   UNL A   1      40.218  20.417  26.207  1.00  0.00    -0.744 OA
ENDBRANCH  77  81
ENDBRANCH  50  74
BRANCH  62  85
ATOM     85  C   UNL A   1      46.877  25.580  32.566  1.00  0.00     0.023 A 
ATOM     86  C   UNL A   1      46.879  24.617  33.589  1.00  0.00     0.031 A 
ATOM     87  C   UNL A   1      48.115  25.960  32.016  1.00  0.00     0.131 A 
ATOM     88  C   UNL A   1      48.095  24.108  34.070  1.00  0.00     0.055 A 
ATOM     89  C   UNL A   1      49.317  25.400  32.451  1.00  0.00     0.041 A 
ATOM     90  F   UNL A   1      48.177  26.879  31.039  1.00  0.00    -0.206 F 
ATOM     91  C   UNL A   1      49.313  24.479  33.494  1.00  0.00     0.022 A 
BRANCH  88  92
ATOM     92  S   UNL A   1      48.075  23.031  35.529  1.00  0.00     0.124 S 
ATOM     93  O   UNL A   1      47.429  21.830  35.009  1.00  0.00    -0.237 OA
ATOM     94  O   UNL A   1      49.494  22.905  35.845  1.00  0.00    -0.237 OA
ATOM     95  O   UNL A   1      47.288  23.785  36.503  1.00  0.00    -0.744 OA
ENDBRANCH  88  92
ENDBRANCH  62  85
ENDBRANCH  36  37
ENDBRANCH  28  31
ENDBRANCH  26  27
ENDBRANCH   1  26
TORSDOF 16
ENDMDL
MODEL 2
REMARK VINA RESULT:     -10.8      4.087     10.786
REMARK SMILES O=C(C[C@@H]1C[N@@H+]([C@@H]2CCOc3ccccc32)CCO1)NCCCCNC(=O)c1ccc(-c2c3nc(c(-c4cc(S(=O)(=O)[O-])ccc4F)c4ccc([nH]4)c(-c4cc(S(=O)(=O)[O-])ccc4F)c4nc(c(-c5cc(S(=O)(=O)[O-])ccc5F)c5ccc2[nH]5)C=C4)C=C3)cc1
REMARK SMILES IDX 23 1 22 2 21 3 20 4 1 5 2 6 3 8 4 9 5 10 19 11 6 12 18 13
REMARK SMILES IDX 17 14 7 16 8 17 16 18 9 19 11 20 15 21 10 22 12 23 14 24
REMARK SMILES IDX 13 25 24 26 25 27 26 28 27 30 28 31 29 32 90 33 30 34 89 35
REMARK SMILES IDX 31 36 32 37 33 38 83 39 34 40 88 41 82 42 84 43 35 44 87 45
REMARK SMILES IDX 81 46 80 47 36 49 68 50 48 51 67 52 49 53 52 54 66 55 85 56
REMARK SMILES IDX 50 57 51 58 65 60 86 61 53 62 37 63 38 64 46 65 39 66 45 67
REMARK SMILES IDX 47 68 44 69 40 70 41 71 42 72 43 73 69 74 70 75 78 76 71 77
REMARK SMILES IDX 77 78 79 79 76 80 72 81 73 82 74 83 75 84 54 85 55 86 63 87
REMARK SMILES IDX 56 88 62 89 64 90 61 91 57 92 58 93 59 94 60 95
REMARK H PARENT 20 7 6 15 25 29 84 48 52 59
REMARK Flexibility Score: inf
ROOT
ATOM      1  C   UNL A   1      31.065  32.114  26.394  1.00  0.00     0.023 C 
ENDROOT
BRANCH   1   2
ATOM      2  C   UNL A   1      31.076  30.854  25.523  1.00  0.00     0.023 C 
BRANCH   2   3
ATOM      3  C   UNL A   1      32.312  29.973  25.684  1.00  0.00     0.116 C 
BRANCH   3   4
ATOM      4  N   UNL A   1      31.978  28.564  25.646  1.00  0.00    -0.356 N 
ATOM      5  O   UNL A   1      33.942  27.790  26.559  1.00  0.00    -0.275 OA
ATOM      6  C   UNL A   1      32.810  27.580  26.133  1.00  0.00     0.222 C 
ATOM      7  H   UNL A   1      31.115  28.297  25.253  1.00  0.00     0.163 HD
BRANCH   6   8
ATOM      8  C   UNL A   1      32.213  26.185  26.090  1.00  0.00     0.138 C 
BRANCH   8   9
ATOM      9  C   UNL A   1      32.323  25.613  24.675  1.00  0.00     0.182 C 
ATOM     10  C   UNL A   1      33.777  25.425  24.223  1.00  0.00     0.295 C 
ATOM     11  O   UNL A   1      31.638  26.495  23.766  1.00  0.00    -0.366 OA
ATOM     12  N   UNL A   1      33.902  24.844  22.868  1.00  0.00    -0.324 N 
ATOM     13  C   UNL A   1      31.668  26.001  22.418  1.00  0.00     0.222 C 
ATOM     14  C   UNL A   1      33.085  25.632  21.930  1.00  0.00     0.291 C 
ATOM     15  H   UNL A   1      34.881  24.933  22.594  1.00  0.00     0.348 HD
BRANCH  12  16
ATOM     16  C   UNL A   1      33.771  23.368  22.756  1.00  0.00     0.222 C 
ATOM     17  C   UNL A   1      32.362  22.762  22.922  1.00  0.00     0.112 C 
ATOM     18  C   UNL A   1      34.812  22.626  23.581  1.00  0.00     0.051 A 
ATOM     19  C   UNL A   1      32.423  21.328  23.415  1.00  0.00     0.236 C 
ATOM     20  C   UNL A   1      34.425  21.665  24.520  1.00  0.00     0.128 A 
ATOM     21  C   UNL A   1      36.179  22.912  23.436  1.00  0.00     0.014 A 
ATOM     22  O   UNL A   1      33.125  21.258  24.660  1.00  0.00    -0.493 OA
ATOM     23  C   UNL A   1      35.361  21.083  25.372  1.00  0.00     0.047 A 
ATOM     24  C   UNL A   1      37.124  22.301  24.262  1.00  0.00     0.001 A 
ATOM     25  C   UNL A   1      36.713  21.400  25.243  1.00  0.00     0.004 A 
ENDBRANCH  12  16
ENDBRANCH   8   9
ENDBRANCH   6   8
ENDBRANCH   3   4
ENDBRANCH   2   3
ENDBRANCH   1   2
BRANCH   1  26
ATOM     26  C   UNL A   1      32.420  32.538  26.954  1.00  0.00     0.116 C 
BRANCH  26  27
ATOM     27  N   UNL A   1      32.408  33.887  27.494  1.00  0.00    -0.352 N 
ATOM     28  C   UNL A   1      33.214  34.455  28.452  1.00  0.00     0.251 C 
ATOM     29  H   UNL A   1      31.721  34.484  27.118  1.00  0.00     0.163 HD
ATOM     30  O   UNL A   1      32.934  35.568  28.894  1.00  0.00    -0.269 OA
BRANCH  28  31
ATOM     31  C   UNL A   1      34.392  33.726  28.977  1.00  0.00     0.039 A 
ATOM     32  C   UNL A   1      35.669  34.238  28.728  1.00  0.00     0.014 A 
ATOM     33  C   UNL A   1      34.249  32.542  29.707  1.00  0.00     0.014 A 
ATOM     34  C   UNL A   1      36.792  33.605  29.271  1.00  0.00     0.010 A 
ATOM     35  C   UNL A   1      35.363  31.958  30.311  1.00  0.00     0.010 A 
ATOM     36  C   UNL A   1      36.647  32.485  30.105  1.00  0.00    -0.014 A 
BRANCH  36  37
ATOM     37  C   UNL A   1      37.823  31.862  30.775  1.00  0.00     0.031 A 
ATOM     38  C   UNL A   1      38.637  30.815  30.064  1.00  0.00     0.074 A 
ATOM     39  C   UNL A   1      38.126  32.200  32.046  1.00  0.00     0.049 A 
ATOM     40  N   UNL A   1      39.643  30.102  30.509  1.00  0.00    -0.248 NA
ATOM     41  C   UNL A   1      38.251  30.507  28.679  1.00  0.00     0.031 C 
ATOM     42  C   UNL A   1      37.395  33.177  32.856  1.00  0.00     0.029 A 
ATOM     43  N   UNL A   1      39.119  31.755  32.883  1.00  0.00    -0.354 N 
ATOM     44  C   UNL A   1      40.006  29.261  29.463  1.00  0.00     0.074 A 
ATOM     45  C   UNL A   1      39.068  29.505  28.387  1.00  0.00     0.031 C 
ATOM     46  C   UNL A   1      37.979  33.274  34.061  1.00  0.00     0.029 A 
ATOM     47  C   UNL A   1      39.089  32.330  34.134  1.00  0.00     0.049 A 
ATOM     48  H   UNL A   1      39.791  31.086  32.616  1.00  0.00     0.167 HD
ATOM     49  C   UNL A   1      41.041  28.385  29.396  1.00  0.00     0.034 A 
ATOM     50  C   UNL A   1      39.854  32.112  35.223  1.00  0.00     0.034 A 
ATOM     51  C   UNL A   1      41.971  28.154  30.476  1.00  0.00     0.049 A 
ATOM     52  C   UNL A   1      40.969  31.098  35.142  1.00  0.00     0.074 A 
ATOM     53  C   UNL A   1      43.076  27.320  30.497  1.00  0.00     0.029 A 
ATOM     54  N   UNL A   1      41.902  28.749  31.730  1.00  0.00    -0.354 N 
ATOM     55  N   UNL A   1      41.324  30.341  34.128  1.00  0.00    -0.248 NA
ATOM     56  C   UNL A   1      41.792  30.917  36.344  1.00  0.00     0.031 C 
ATOM     57  C   UNL A   1      43.625  27.350  31.783  1.00  0.00     0.029 A 
ATOM     58  C   UNL A   1      42.922  28.273  32.540  1.00  0.00     0.049 A 
ATOM     59  H   UNL A   1      41.227  29.412  32.003  1.00  0.00     0.167 HD
ATOM     60  C   UNL A   1      42.433  29.620  34.565  1.00  0.00     0.074 A 
ATOM     61  C   UNL A   1      42.696  30.046  35.923  1.00  0.00     0.031 C 
ATOM     62  C   UNL A   1      43.171  28.695  33.900  1.00  0.00     0.034 A 
BRANCH  49  63
ATOM     63  C   UNL A   1      41.202  27.595  28.117  1.00  0.00     0.023 A 
ATOM     64  C   UNL A   1      40.870  26.231  28.044  1.00  0.00     0.031 A 
ATOM     65  C   UNL A   1      41.709  28.208  26.957  1.00  0.00     0.131 A 
ATOM     66  C   UNL A   1      41.123  25.509  26.869  1.00  0.00     0.055 A 
ATOM     67  C   UNL A   1      41.875  27.504  25.763  1.00  0.00     0.041 A 
ATOM     68  F   UNL A   1      42.067  29.503  26.968  1.00  0.00    -0.206 F 
ATOM     69  C   UNL A   1      41.597  26.141  25.719  1.00  0.00     0.022 A 
BRANCH  66  70
ATOM     70  S   UNL A   1      40.972  23.702  26.915  1.00  0.00     0.124 S 
ATOM     71  O   UNL A   1      41.345  23.411  28.298  1.00  0.00    -0.237 OA
ATOM     72  O   UNL A   1      39.568  23.494  26.576  1.00  0.00    -0.237 OA
ATOM     73  O   UNL A   1      41.931  23.252  25.910  1.00  0.00    -0.744 OA
ENDBRANCH  66  70
ENDBRANCH  49  63
BRANCH  50  74
ATOM     74  C   UNL A   1      39.585  32.844  36.497  1.00  0.00     0.023 A 
ATOM     75  C   UNL A   1      38.679  32.344  37.444  1.00  0.00     0.031 A 
ATOM     76  C   UNL A   1      40.195  34.084  36.761  1.00  0.00     0.131 A 
ATOM     77  C   UNL A   1      38.367  33.103  38.584  1.00  0.00     0.055 A 
ATOM     78  C   UNL A   1      39.930  34.806  37.925  1.00  0.00     0.041 A 
ATOM     79  F   UNL A   1      41.070  34.611  35.889  1.00  0.00    -0.206 F 
ATOM     80  C   UNL A   1      38.998  34.322  38.839  1.00  0.00     0.022 A 
BRANCH  77  81
ATOM     81  S   UNL A   1      37.043  32.521  39.680  1.00  0.00     0.124 S 
ATOM     82  O   UNL A   1      35.868  32.668  38.829  1.00  0.00    -0.237 OA
ATOM     83  O   UNL A   1      37.464  31.153  39.963  1.00  0.00    -0.237 OA
ATOM     84  O   UNL A   1      37.113  33.440  40.814  1.00  0.00    -0.744 OA
ENDBRANCH  77  81
ENDBRANCH  50  74
BRANCH  62  85
ATOM     85  C   UNL A   1      44.367  28.116  34.620  1.00  0.00     0.023 A 
ATOM     86  C   UNL A   1      44.280  26.935  35.377  1.00  0.00     0.031 A 
ATOM     87  C   UNL A   1      45.612  28.766  34.555  1.00  0.00     0.131 A 
ATOM     88  C   UNL A   1      45.400  26.472  36.084  1.00  0.00     0.055 A 
ATOM     89  C   UNL A   1      46.740  28.264  35.205  1.00  0.00     0.041 A 
ATOM     90  F   UNL A   1      45.755  29.902  33.852  1.00  0.00    -0.206 F 
ATOM     91  C   UNL A   1      46.635  27.118  35.987  1.00  0.00     0.022 A 
BRANCH  88  92
ATOM     92  S   UNL A   1      45.199  25.070  37.216  1.00  0.00     0.124 S 
ATOM     93  O   UNL A   1      43.747  24.965  37.314  1.00  0.00    -0.237 OA
ATOM     94  O   UNL A   1      45.868  23.989  36.498  1.00  0.00    -0.237 OA
ATOM     95  O   UNL A   1      45.872  25.513  38.436  1.00  0.00    -0.744 OA
ENDBRANCH  88  92
ENDBRANCH  62  85
ENDBRANCH  36  37
ENDBRANCH  28  31
ENDBRANCH  26  27
ENDBRANCH   1  26
TORSDOF 16
ENDMDL
MODEL 3
REMARK VINA RESULT:     -10.7      6.092     10.807
REMARK SMILES O=C(C[C@@H]1C[N@@H+]([C@@H]2CCOc3ccccc32)CCO1)NCCCCNC(=O)c1ccc(-c2c3nc(c(-c4cc(S(=O)(=O)[O-])ccc4F)c4ccc([nH]4)c(-c4cc(S(=O)(=O)[O-])ccc4F)c4nc(c(-c5cc(S(=O)(=O)[O-])ccc5F)c5ccc2[nH]5)C=C4)C=C3)cc1
REMARK SMILES IDX 23 1 22 2 21 3 20 4 1 5 2 6 3 8 4 9 5 10 19 11 6 12 18 13
REMARK SMILES IDX 17 14 7 16 8 17 16 18 9 19 11 20 15 21 10 22 12 23 14 24
REMARK SMILES IDX 13 25 24 26 25 27 26 28 27 30 28 31 29 32 90 33 30 34 89 35
REMARK SMILES IDX 31 36 32 37 33 38 83 39 34 40 88 41 82 42 84 43 35 44 87 45
REMARK SMILES IDX 81 46 80 47 36 49 68 50 48 51 67 52 49 53 52 54 66 55 85 56
REMARK SMILES IDX 50 57 51 58 65 60 86 61 53 62 37 63 38 64 46 65 39 66 45 67
REMARK SMILES IDX 47 68 44 69 40 70 41 71 42 72 43 73 69 74 70 75 78 76 71 77
REMARK SMILES IDX 77 78 79 79 76 80 72 81 73 82 74 83 75 84 54 85 55 86 63 87
REMARK SMILES IDX 56 88 62 89 64 90 61 91 57 92 58 93 59 94 60 95
REMARK H PARENT 20 7 6 15 25 29 84 48 52 59
REMARK Flexibility Score: inf
ROOT
ATOM      1  C   UNL A   1      38.281  19.892  25.044  1.00  0.00     0.023 C 
ENDROOT
BRANCH   1   2
ATOM      2  C   UNL A   1      37.396  21.074  24.634  1.00  0.00     0.023 C 
BRANCH   2   3
ATOM      3  C   UNL A   1      36.009  21.089  25.273  1.00  0.00     0.116 C 
BRANCH   3   4
ATOM      4  N   UNL A   1      35.120  22.021  24.609  1.00  0.00    -0.356 N 
ATOM      5  O   UNL A   1      35.974  23.937  25.552  1.00  0.00    -0.275 OA
ATOM      6  C   UNL A   1      35.206  23.386  24.770  1.00  0.00     0.222 C 
ATOM      7  H   UNL A   1      34.422  21.660  24.015  1.00  0.00     0.163 HD
BRANCH   6   8
ATOM      8  C   UNL A   1      34.247  24.174  23.896  1.00  0.00     0.138 C 
BRANCH   8   9
ATOM      9  C   UNL A   1      32.859  24.208  24.542  1.00  0.00     0.182 C 
ATOM     10  C   UNL A   1      32.830  25.021  25.842  1.00  0.00     0.295 C 
ATOM     11  O   UNL A   1      32.437  22.856  24.799  1.00  0.00    -0.366 OA
ATOM     12  N   UNL A   1      31.490  25.089  26.464  1.00  0.00    -0.324 N 
ATOM     13  C   UNL A   1      31.122  22.808  25.374  1.00  0.00     0.222 C 
ATOM     14  C   UNL A   1      30.954  23.725  26.604  1.00  0.00     0.291 C 
ATOM     15  H   UNL A   1      31.613  25.483  27.398  1.00  0.00     0.348 HD
BRANCH  12  16
ATOM     16  C   UNL A   1      30.546  26.100  25.917  1.00  0.00     0.222 C 
ATOM     17  C   UNL A   1      29.906  25.809  24.545  1.00  0.00     0.112 C 
ATOM     18  C   UNL A   1      31.097  27.516  26.001  1.00  0.00     0.051 A 
ATOM     19  C   UNL A   1      29.515  27.087  23.826  1.00  0.00     0.236 C 
ATOM     20  C   UNL A   1      31.175  28.320  24.860  1.00  0.00     0.128 A 
ATOM     21  C   UNL A   1      31.565  28.033  27.221  1.00  0.00     0.014 A 
ATOM     22  O   UNL A   1      30.656  27.932  23.653  1.00  0.00    -0.493 OA
ATOM     23  C   UNL A   1      31.802  29.563  24.905  1.00  0.00     0.047 A 
ATOM     24  C   UNL A   1      32.159  29.295  27.277  1.00  0.00     0.001 A 
ATOM     25  C   UNL A   1      32.293  30.053  26.114  1.00  0.00     0.004 A 
ENDBRANCH  12  16
ENDBRANCH   8   9
ENDBRANCH   6   8
ENDBRANCH   3   4
ENDBRANCH   2   3
ENDBRANCH   1   2
BRANCH   1  26
ATOM     26  C   UNL A   1      39.439  20.232  25.979  1.00  0.00     0.116 C 
BRANCH  26  27
ATOM     27  N   UNL A   1      40.435  19.176  26.045  1.00  0.00    -0.352 N 
ATOM     28  C   UNL A   1      41.799  19.265  26.197  1.00  0.00     0.251 C 
ATOM     29  H   UNL A   1      40.082  18.259  25.969  1.00  0.00     0.163 HD
ATOM     30  O   UNL A   1      42.489  18.257  26.060  1.00  0.00    -0.269 OA
BRANCH  28  31
ATOM     31  C   UNL A   1      42.442  20.568  26.492  1.00  0.00     0.039 A 
ATOM     32  C   UNL A   1      42.978  21.309  25.436  1.00  0.00     0.014 A 
ATOM     33  C   UNL A   1      42.524  21.060  27.798  1.00  0.00     0.014 A 
ATOM     34  C   UNL A   1      43.527  22.573  25.679  1.00  0.00     0.010 A 
ATOM     35  C   UNL A   1      43.001  22.350  28.027  1.00  0.00     0.010 A 
ATOM     36  C   UNL A   1      43.504  23.125  26.970  1.00  0.00    -0.014 A 
BRANCH  36  37
ATOM     37  C   UNL A   1      43.990  24.510  27.228  1.00  0.00     0.031 A 
ATOM     38  C   UNL A   1      43.044  25.568  27.726  1.00  0.00     0.074 A 
ATOM     39  C   UNL A   1      45.273  24.828  26.959  1.00  0.00     0.049 A 
ATOM     40  N   UNL A   1      43.260  26.844  27.931  1.00  0.00    -0.248 NA
ATOM     41  C   UNL A   1      41.664  25.142  28.004  1.00  0.00     0.031 C 
ATOM     42  C   UNL A   1      46.282  23.902  26.441  1.00  0.00     0.029 A 
ATOM     43  N   UNL A   1      45.948  26.019  27.075  1.00  0.00    -0.354 N 
ATOM     44  C   UNL A   1      42.046  27.373  28.357  1.00  0.00     0.074 A 
ATOM     45  C   UNL A   1      41.083  26.292  28.313  1.00  0.00     0.031 C 
ATOM     46  C   UNL A   1      47.449  24.552  26.308  1.00  0.00     0.029 A 
ATOM     47  C   UNL A   1      47.264  25.951  26.676  1.00  0.00     0.049 A 
ATOM     48  H   UNL A   1      45.531  26.845  27.412  1.00  0.00     0.167 HD
ATOM     49  C   UNL A   1      41.766  28.635  28.769  1.00  0.00     0.034 A 
ATOM     50  C   UNL A   1      48.211  26.908  26.595  1.00  0.00     0.034 A 
ATOM     51  C   UNL A   1      42.737  29.702  28.811  1.00  0.00     0.049 A 
ATOM     52  C   UNL A   1      47.864  28.316  27.014  1.00  0.00     0.074 A 
ATOM     53  C   UNL A   1      42.567  31.005  29.249  1.00  0.00     0.029 A 
ATOM     54  N   UNL A   1      44.057  29.597  28.390  1.00  0.00    -0.354 N 
ATOM     55  N   UNL A   1      46.720  28.788  27.454  1.00  0.00    -0.248 NA
ATOM     56  C   UNL A   1      48.937  29.316  26.936  1.00  0.00     0.031 C 
ATOM     57  C   UNL A   1      43.757  31.704  29.020  1.00  0.00     0.029 A 
ATOM     58  C   UNL A   1      44.700  30.819  28.525  1.00  0.00     0.049 A 
ATOM     59  H   UNL A   1      44.475  28.775  28.045  1.00  0.00     0.167 HD
ATOM     60  C   UNL A   1      46.949  30.133  27.737  1.00  0.00     0.074 A 
ATOM     61  C   UNL A   1      48.341  30.389  27.433  1.00  0.00     0.031 C 
ATOM     62  C   UNL A   1      46.087  31.069  28.209  1.00  0.00     0.034 A 
BRANCH  49  63
ATOM     63  C   UNL A   1      40.343  28.931  29.185  1.00  0.00     0.023 A 
ATOM     64  C   UNL A   1      39.942  28.885  30.532  1.00  0.00     0.031 A 
ATOM     65  C   UNL A   1      39.368  29.250  28.223  1.00  0.00     0.131 A 
ATOM     66  C   UNL A   1      38.594  29.072  30.871  1.00  0.00     0.055 A 
ATOM     67  C   UNL A   1      38.044  29.523  28.576  1.00  0.00     0.041 A 
ATOM     68  F   UNL A   1      39.682  29.288  26.918  1.00  0.00    -0.206 F 
ATOM     69  C   UNL A   1      37.647  29.418  29.906  1.00  0.00     0.022 A 
BRANCH  66  70
ATOM     70  S   UNL A   1      38.069  28.700  32.567  1.00  0.00     0.124 S 
ATOM     71  O   UNL A   1      38.148  27.241  32.586  1.00  0.00    -0.237 OA
ATOM     72  O   UNL A   1      39.064  29.405  33.366  1.00  0.00    -0.237 OA
ATOM     73  O   UNL A   1      36.714  29.243  32.633  1.00  0.00    -0.744 OA
ENDBRANCH  66  70
ENDBRANCH  49  63
BRANCH  50  74
ATOM     74  C   UNL A   1      49.574  26.584  26.077  1.00  0.00     0.023 A 
ATOM     75  C   UNL A   1      50.021  27.089  24.846  1.00  0.00     0.031 A 
ATOM     76  C   UNL A   1      50.430  25.721  26.783  1.00  0.00     0.131 A 
ATOM     77  C   UNL A   1      51.265  26.685  24.334  1.00  0.00     0.055 A 
ATOM     78  C   UNL A   1      51.692  25.372  26.300  1.00  0.00     0.041 A 
ATOM     79  F   UNL A   1      50.053  25.208  27.966  1.00  0.00    -0.206 F 
ATOM     80  C   UNL A   1      52.110  25.843  25.060  1.00  0.00     0.022 A 
BRANCH  77  81
ATOM     81  S   UNL A   1      51.719  27.195  22.653  1.00  0.00     0.124 S 
ATOM     82  O   UNL A   1      50.413  27.302  22.013  1.00  0.00    -0.237 OA
ATOM     83  O   UNL A   1      52.420  28.451  22.896  1.00  0.00    -0.237 OA
ATOM     84  O   UNL A   1      52.558  26.096  22.180  1.00  0.00    -0.744 OA
ENDBRANCH  77  81
ENDBRANCH  50  74
BRANCH  62  85
ATOM     85  C   UNL A   1      46.643  32.449  28.475  1.00  0.00     0.023 A 
ATOM     86  C   UNL A   1      46.782  33.406  27.454  1.00  0.00     0.031 A 
ATOM     87  C   UNL A   1      47.051  32.808  29.773  1.00  0.00     0.131 A 
ATOM     88  C   UNL A   1      47.366  34.650  27.735  1.00  0.00     0.055 A 
ATOM     89  C   UNL A   1      47.568  34.071  30.060  1.00  0.00     0.041 A 
ATOM     90  F   UNL A   1      46.947  31.935  30.788  1.00  0.00    -0.206 F 
ATOM     91  C   UNL A   1      47.742  34.997  29.035  1.00  0.00     0.022 A 
BRANCH  88  92
ATOM     92  S   UNL A   1      47.724  35.776  26.359  1.00  0.00     0.124 S 
ATOM     93  O   UNL A   1      46.573  36.671  26.393  1.00  0.00    -0.237 OA
ATOM     94  O   UNL A   1      49.000  36.363  26.759  1.00  0.00    -0.237 OA
ATOM     95  O   UNL A   1      47.787  34.891  25.198  1.00  0.00    -0.744 OA
ENDBRANCH  88  92
ENDBRANCH  62  85
ENDBRANCH  36  37
ENDBRANCH  28  31
ENDBRANCH  26  27
ENDBRANCH   1  26
TORSDOF 16
ENDMDL
