MODEL 1
REMARK VINA RESULT:     -11.3      0.000      0.000
REMARK SMILES CCc1ccc(C(=O)[C@@H](Br)CC(=O)NCCCCNC(=O)c2ccc(-c3c4nc(c(-c5cc(S(=O)(=O)[O-])ccc5F)c5ccc([nH]5)c(-c5cc(S(=O)(=O)[O-])ccc5F)c5nc(c(-c6cc(S(=O)(=O)[O-])ccc6F)c6ccc3[nH]6)C=C5)C=C4)cc2)cc1
REMARK SMILES IDX 16 1 15 2 14 3 12 4 13 5 11 7 9 8 10 9 7 10 8 11 6 12 3 13
REMARK SMILES IDX 4 14 86 15 5 16 85 17 2 18 1 19 17 20 18 21 19 22 20 23
REMARK SMILES IDX 21 25 22 26 23 27 84 28 24 29 83 30 25 31 26 32 27 33 77 34
REMARK SMILES IDX 28 35 82 36 76 37 78 38 29 39 81 40 75 41 74 42 30 44 62 45
REMARK SMILES IDX 42 46 61 47 43 48 46 49 60 50 79 51 44 52 45 53 59 55 80 56
REMARK SMILES IDX 47 57 31 58 32 59 40 60 33 61 39 62 41 63 38 64 34 65 35 66
REMARK SMILES IDX 36 67 37 68 63 69 64 70 72 71 65 72 71 73 73 74 70 75 66 76
REMARK SMILES IDX 67 77 68 78 69 79 48 80 49 81 57 82 50 83 56 84 58 85 55 86
REMARK SMILES IDX 51 87 52 88 53 89 54 90
REMARK H PARENT 14 6 19 24 78 43 46 54
REMARK Flexibility Score: inf
ROOT
ATOM      1  C   UNL A   1      31.939  28.078  26.385  1.00  0.00     0.023 C 
ENDROOT
BRANCH   1   2
ATOM      2  C   UNL A   1      31.278  26.856  25.749  1.00  0.00     0.116 C 
BRANCH   2   3
ATOM      3  N   UNL A   1      31.279  25.737  26.671  1.00  0.00    -0.356 N 
ATOM      4  C   UNL A   1      31.234  24.402  26.412  1.00  0.00     0.221 C 
ATOM      5  O   UNL A   1      31.136  23.612  27.350  1.00  0.00    -0.275 OA
ATOM      6  H   UNL A   1      31.316  25.979  27.625  1.00  0.00     0.163 HD
BRANCH   4   7
ATOM      7  C   UNL A   1      31.317  23.906  24.985  1.00  0.00     0.123 C 
BRANCH   7   8
ATOM      8  C   UNL A   1      32.680  23.293  24.696  1.00  0.00     0.138 C 
ATOM      9  Br  UNL A   1      33.983  24.700  24.248  1.00  0.00    -0.080 Br
BRANCH   8  10
ATOM     10  C   UNL A   1      32.815  22.262  23.576  1.00  0.00     0.176 C 
ATOM     11  O   UNL A   1      32.755  22.624  22.397  1.00  0.00    -0.293 OA
BRANCH  10  12
ATOM     12  C   UNL A   1      33.055  20.809  23.838  1.00  0.00     0.019 A 
ATOM     13  C   UNL A   1      33.555  18.031  24.011  1.00  0.00    -0.048 A 
ATOM     14  C   UNL A   1      32.472  18.517  23.268  1.00  0.00     0.004 A 
ATOM     15  C   UNL A   1      34.351  18.950  24.705  1.00  0.00     0.004 A 
ATOM     16  C   UNL A   1      32.213  19.888  23.199  1.00  0.00     0.012 A 
ATOM     17  C   UNL A   1      34.096  20.326  24.632  1.00  0.00     0.012 A 
BRANCH  13  18
ATOM     18  C   UNL A   1      33.830  16.543  23.980  1.00  0.00     0.032 C 
ATOM     19  C   UNL A   1      33.075  15.691  24.991  1.00  0.00     0.009 C 
ENDBRANCH  13  18
ENDBRANCH  10  12
ENDBRANCH   8  10
ENDBRANCH   7   8
ENDBRANCH   4   7
ENDBRANCH   2   3
ENDBRANCH   1   2
BRANCH   1  20
ATOM     20  C   UNL A   1      33.380  27.852  26.831  1.00  0.00     0.023 C 
BRANCH  20  21
ATOM     21  C   UNL A   1      34.358  28.945  26.407  1.00  0.00     0.116 C 
BRANCH  21  22
ATOM     22  N   UNL A   1      33.907  30.297  26.709  1.00  0.00    -0.352 N 
ATOM     23  C   UNL A   1      34.456  31.197  27.597  1.00  0.00     0.251 C 
ATOM     24  H   UNL A   1      33.111  30.607  26.218  1.00  0.00     0.163 HD
ATOM     25  O   UNL A   1      33.920  32.279  27.795  1.00  0.00    -0.269 OA
BRANCH  23  26
ATOM     26  C   UNL A   1      35.672  30.802  28.339  1.00  0.00     0.039 A 
ATOM     27  C   UNL A   1      35.564  29.870  29.373  1.00  0.00     0.014 A 
ATOM     28  C   UNL A   1      36.924  31.281  27.943  1.00  0.00     0.014 A 
ATOM     29  C   UNL A   1      36.723  29.347  29.950  1.00  0.00     0.010 A 
ATOM     30  C   UNL A   1      38.075  30.702  28.464  1.00  0.00     0.010 A 
ATOM     31  C   UNL A   1      37.987  29.720  29.465  1.00  0.00    -0.014 A 
BRANCH  31  32
ATOM     32  C   UNL A   1      39.235  29.094  29.977  1.00  0.00     0.031 A 
ATOM     33  C   UNL A   1      39.931  29.682  31.173  1.00  0.00     0.074 A 
ATOM     34  C   UNL A   1      39.789  28.063  29.308  1.00  0.00     0.049 A 
ATOM     35  N   UNL A   1      41.087  29.367  31.697  1.00  0.00    -0.248 NA
ATOM     36  C   UNL A   1      39.252  30.803  31.840  1.00  0.00     0.031 C 
ATOM     37  C   UNL A   1      39.239  27.443  28.099  1.00  0.00     0.029 A 
ATOM     38  N   UNL A   1      40.946  27.363  29.540  1.00  0.00    -0.354 N 
ATOM     39  C   UNL A   1      41.288  30.268  32.738  1.00  0.00     0.074 A 
ATOM     40  C   UNL A   1      40.160  31.177  32.728  1.00  0.00     0.031 C 
ATOM     41  C   UNL A   1      40.049  26.445  27.709  1.00  0.00     0.029 A 
ATOM     42  C   UNL A   1      41.193  26.379  28.611  1.00  0.00     0.049 A 
ATOM     43  H   UNL A   1      41.544  27.549  30.299  1.00  0.00     0.167 HD
ATOM     44  C   UNL A   1      42.306  30.318  33.632  1.00  0.00     0.034 A 
ATOM     45  C   UNL A   1      42.231  25.526  28.493  1.00  0.00     0.034 A 
ATOM     46  C   UNL A   1      43.406  29.386  33.647  1.00  0.00     0.049 A 
ATOM     47  C   UNL A   1      43.341  25.585  29.511  1.00  0.00     0.074 A 
ATOM     48  C   UNL A   1      44.453  29.299  34.548  1.00  0.00     0.029 A 
ATOM     49  N   UNL A   1      43.603  28.376  32.713  1.00  0.00    -0.354 N 
ATOM     50  N   UNL A   1      43.490  26.410  30.522  1.00  0.00    -0.248 NA
ATOM     51  C   UNL A   1      44.415  24.594  29.377  1.00  0.00     0.031 C 
ATOM     52  C   UNL A   1      45.309  28.273  34.131  1.00  0.00     0.029 A 
ATOM     53  C   UNL A   1      44.764  27.677  33.004  1.00  0.00     0.049 A 
ATOM     54  H   UNL A   1      43.006  28.185  31.954  1.00  0.00     0.167 HD
ATOM     55  C   UNL A   1      44.663  26.016  31.161  1.00  0.00     0.074 A 
ATOM     56  C   UNL A   1      45.172  24.875  30.429  1.00  0.00     0.031 C 
ATOM     57  C   UNL A   1      45.262  26.547  32.257  1.00  0.00     0.034 A 
BRANCH  44  58
ATOM     58  C   UNL A   1      42.275  31.432  34.651  1.00  0.00     0.023 A 
ATOM     59  C   UNL A   1      41.320  31.463  35.681  1.00  0.00     0.031 A 
ATOM     60  C   UNL A   1      43.185  32.501  34.565  1.00  0.00     0.131 A 
ATOM     61  C   UNL A   1      41.235  32.579  36.526  1.00  0.00     0.055 A 
ATOM     62  C   UNL A   1      43.151  33.568  35.466  1.00  0.00     0.041 A 
ATOM     63  F   UNL A   1      44.109  32.538  33.592  1.00  0.00    -0.206 F 
ATOM     64  C   UNL A   1      42.161  33.620  36.443  1.00  0.00     0.022 A 
BRANCH  61  65
ATOM     65  S   UNL A   1      39.805  32.718  37.632  1.00  0.00     0.124 S 
ATOM     66  O   UNL A   1      40.434  32.583  38.944  1.00  0.00    -0.237 OA
ATOM     67  O   UNL A   1      39.283  34.040  37.309  1.00  0.00    -0.237 OA
ATOM     68  O   UNL A   1      38.956  31.596  37.238  1.00  0.00    -0.744 OA
ENDBRANCH  61  65
ENDBRANCH  44  58
BRANCH  45  69
ATOM     69  C   UNL A   1      42.280  24.545  27.374  1.00  0.00     0.023 A 
ATOM     70  C   UNL A   1      41.525  23.363  27.418  1.00  0.00     0.031 A 
ATOM     71  C   UNL A   1      43.111  24.758  26.259  1.00  0.00     0.131 A 
ATOM     72  C   UNL A   1      41.648  22.415  26.390  1.00  0.00     0.055 A 
ATOM     73  C   UNL A   1      43.194  23.834  25.216  1.00  0.00     0.041 A 
ATOM     74  F   UNL A   1      43.844  25.879  26.164  1.00  0.00    -0.206 F 
ATOM     75  C   UNL A   1      42.470  22.648  25.284  1.00  0.00     0.022 A 
BRANCH  72  76
ATOM     76  S   UNL A   1      40.771  20.836  26.555  1.00  0.00     0.124 S 
ATOM     77  O   UNL A   1      41.589  19.953  25.732  1.00  0.00    -0.237 OA
ATOM     78  O   UNL A   1      40.830  20.609  27.995  1.00  0.00    -0.237 OA
ATOM     79  O   UNL A   1      39.441  21.129  26.027  1.00  0.00    -0.744 OA
ENDBRANCH  72  76
ENDBRANCH  45  69
BRANCH  57  80
ATOM     80  C   UNL A   1      46.512  25.862  32.748  1.00  0.00     0.023 A 
ATOM     81  C   UNL A   1      47.739  25.996  32.079  1.00  0.00     0.031 A 
ATOM     82  C   UNL A   1      46.466  25.054  33.899  1.00  0.00     0.131 A 
ATOM     83  C   UNL A   1      48.863  25.292  32.535  1.00  0.00     0.055 A 
ATOM     84  C   UNL A   1      47.600  24.397  34.379  1.00  0.00     0.041 A 
ATOM     85  F   UNL A   1      45.317  24.893  34.574  1.00  0.00    -0.206 F 
ATOM     86  C   UNL A   1      48.804  24.505  33.690  1.00  0.00     0.022 A 
BRANCH  83  87
ATOM     87  S   UNL A   1      50.389  25.353  31.557  1.00  0.00     0.124 S 
ATOM     88  O   UNL A   1      51.110  26.455  32.187  1.00  0.00    -0.237 OA
ATOM     89  O   UNL A   1      50.949  24.022  31.768  1.00  0.00    -0.237 OA
ATOM     90  O   UNL A   1      49.917  25.617  30.199  1.00  0.00    -0.744 OA
ENDBRANCH  83  87
ENDBRANCH  57  80
ENDBRANCH  31  32
ENDBRANCH  23  26
ENDBRANCH  21  22
ENDBRANCH  20  21
ENDBRANCH   1  20
TORSDOF 18
ENDMDL
MODEL 2
REMARK VINA RESULT:     -11.1      5.185      8.177
REMARK SMILES CCc1ccc(C(=O)[C@@H](Br)CC(=O)NCCCCNC(=O)c2ccc(-c3c4nc(c(-c5cc(S(=O)(=O)[O-])ccc5F)c5ccc([nH]5)c(-c5cc(S(=O)(=O)[O-])ccc5F)c5nc(c(-c6cc(S(=O)(=O)[O-])ccc6F)c6ccc3[nH]6)C=C5)C=C4)cc2)cc1
REMARK SMILES IDX 16 1 15 2 14 3 12 4 13 5 11 7 9 8 10 9 7 10 8 11 6 12 3 13
REMARK SMILES IDX 4 14 86 15 5 16 85 17 2 18 1 19 17 20 18 21 19 22 20 23
REMARK SMILES IDX 21 25 22 26 23 27 84 28 24 29 83 30 25 31 26 32 27 33 77 34
REMARK SMILES IDX 28 35 82 36 76 37 78 38 29 39 81 40 75 41 74 42 30 44 62 45
REMARK SMILES IDX 42 46 61 47 43 48 46 49 60 50 79 51 44 52 45 53 59 55 80 56
REMARK SMILES IDX 47 57 31 58 32 59 40 60 33 61 39 62 41 63 38 64 34 65 35 66
REMARK SMILES IDX 36 67 37 68 63 69 64 70 72 71 65 72 71 73 73 74 70 75 66 76
REMARK SMILES IDX 67 77 68 78 69 79 48 80 49 81 57 82 50 83 56 84 58 85 55 86
REMARK SMILES IDX 51 87 52 88 53 89 54 90
REMARK H PARENT 14 6 19 24 78 43 46 54
REMARK Flexibility Score: inf
ROOT
ATOM      1  C   UNL A   1      37.020  22.046  25.625  1.00  0.00     0.023 C 
ENDROOT
BRANCH   1   2
ATOM      2  C   UNL A   1      37.241  23.312  24.801  1.00  0.00     0.116 C 
BRANCH   2   3
ATOM      3  N   UNL A   1      36.361  23.334  23.649  1.00  0.00    -0.356 N 
ATOM      4  C   UNL A   1      35.091  23.812  23.540  1.00  0.00     0.221 C 
ATOM      5  O   UNL A   1      34.473  23.636  22.490  1.00  0.00    -0.275 OA
ATOM      6  H   UNL A   1      36.736  22.944  22.826  1.00  0.00     0.163 HD
BRANCH   4   7
ATOM      7  C   UNL A   1      34.462  24.559  24.695  1.00  0.00     0.123 C 
BRANCH   7   8
ATOM      8  C   UNL A   1      33.072  24.020  25.004  1.00  0.00     0.138 C 
ATOM      9  Br  UNL A   1      32.121  25.236  26.227  1.00  0.00    -0.080 Br
BRANCH   8  10
ATOM     10  C   UNL A   1      32.929  22.636  25.636  1.00  0.00     0.176 C 
ATOM     11  O   UNL A   1      32.714  22.533  26.847  1.00  0.00    -0.293 OA
BRANCH  10  12
ATOM     12  C   UNL A   1      33.006  21.370  24.842  1.00  0.00     0.019 A 
ATOM     13  C   UNL A   1      33.062  18.824  23.613  1.00  0.00    -0.048 A 
ATOM     14  C   UNL A   1      33.912  19.119  24.687  1.00  0.00     0.004 A 
ATOM     15  C   UNL A   1      32.222  19.836  23.133  1.00  0.00     0.004 A 
ATOM     16  C   UNL A   1      33.898  20.383  25.281  1.00  0.00     0.012 A 
ATOM     17  C   UNL A   1      32.204  21.104  23.731  1.00  0.00     0.012 A 
BRANCH  13  18
ATOM     18  C   UNL A   1      33.067  17.413  23.067  1.00  0.00     0.032 C 
ATOM     19  C   UNL A   1      34.092  16.457  23.663  1.00  0.00     0.009 C 
ENDBRANCH  13  18
ENDBRANCH  10  12
ENDBRANCH   8  10
ENDBRANCH   7   8
ENDBRANCH   4   7
ENDBRANCH   2   3
ENDBRANCH   1   2
BRANCH   1  20
ATOM     20  C   UNL A   1      37.983  20.908  25.300  1.00  0.00     0.023 C 
BRANCH  20  21
ATOM     21  C   UNL A   1      39.335  20.996  26.004  1.00  0.00     0.116 C 
BRANCH  21  22
ATOM     22  N   UNL A   1      40.124  19.774  25.932  1.00  0.00    -0.352 N 
ATOM     23  C   UNL A   1      41.488  19.634  26.071  1.00  0.00     0.251 C 
ATOM     24  H   UNL A   1      39.620  18.944  25.764  1.00  0.00     0.163 HD
ATOM     25  O   UNL A   1      42.019  18.543  25.915  1.00  0.00    -0.269 OA
BRANCH  23  26
ATOM     26  C   UNL A   1      42.294  20.840  26.359  1.00  0.00     0.039 A 
ATOM     27  C   UNL A   1      42.698  21.655  25.299  1.00  0.00     0.014 A 
ATOM     28  C   UNL A   1      42.561  21.208  27.680  1.00  0.00     0.014 A 
ATOM     29  C   UNL A   1      43.291  22.890  25.571  1.00  0.00     0.010 A 
ATOM     30  C   UNL A   1      43.079  22.470  27.948  1.00  0.00     0.010 A 
ATOM     31  C   UNL A   1      43.438  23.329  26.897  1.00  0.00    -0.014 A 
BRANCH  31  32
ATOM     32  C   UNL A   1      43.955  24.686  27.215  1.00  0.00     0.031 A 
ATOM     33  C   UNL A   1      43.022  25.734  27.756  1.00  0.00     0.074 A 
ATOM     34  C   UNL A   1      45.234  25.000  26.926  1.00  0.00     0.049 A 
ATOM     35  N   UNL A   1      43.240  27.005  27.977  1.00  0.00    -0.248 NA
ATOM     36  C   UNL A   1      41.646  25.301  28.043  1.00  0.00     0.031 C 
ATOM     37  C   UNL A   1      46.221  24.087  26.343  1.00  0.00     0.029 A 
ATOM     38  N   UNL A   1      45.920  26.180  27.067  1.00  0.00    -0.354 N 
ATOM     39  C   UNL A   1      42.025  27.529  28.404  1.00  0.00     0.074 A 
ATOM     40  C   UNL A   1      41.062  26.448  28.350  1.00  0.00     0.031 C 
ATOM     41  C   UNL A   1      47.388  24.734  26.196  1.00  0.00     0.029 A 
ATOM     42  C   UNL A   1      47.225  26.117  26.633  1.00  0.00     0.049 A 
ATOM     43  H   UNL A   1      45.518  26.995  27.443  1.00  0.00     0.167 HD
ATOM     44  C   UNL A   1      41.743  28.787  28.823  1.00  0.00     0.034 A 
ATOM     45  C   UNL A   1      48.178  27.069  26.582  1.00  0.00     0.034 A 
ATOM     46  C   UNL A   1      42.722  29.843  28.900  1.00  0.00     0.049 A 
ATOM     47  C   UNL A   1      47.849  28.455  27.073  1.00  0.00     0.074 A 
ATOM     48  C   UNL A   1      42.565  31.134  29.375  1.00  0.00     0.029 A 
ATOM     49  N   UNL A   1      44.044  29.732  28.488  1.00  0.00    -0.354 N 
ATOM     50  N   UNL A   1      46.707  28.921  27.524  1.00  0.00    -0.248 NA
ATOM     51  C   UNL A   1      48.939  29.438  27.058  1.00  0.00     0.031 C 
ATOM     52  C   UNL A   1      43.775  31.817  29.203  1.00  0.00     0.029 A 
ATOM     53  C   UNL A   1      44.706  30.935  28.677  1.00  0.00     0.049 A 
ATOM     54  H   UNL A   1      44.452  28.917  28.114  1.00  0.00     0.167 HD
ATOM     55  C   UNL A   1      46.952  30.247  27.872  1.00  0.00     0.074 A 
ATOM     56  C   UNL A   1      48.350  30.500  27.591  1.00  0.00     0.031 C 
ATOM     57  C   UNL A   1      46.099  31.171  28.383  1.00  0.00     0.034 A 
BRANCH  44  58
ATOM     58  C   UNL A   1      40.314  29.082  29.211  1.00  0.00     0.023 A 
ATOM     59  C   UNL A   1      39.898  29.080  30.553  1.00  0.00     0.031 A 
ATOM     60  C   UNL A   1      39.344  29.324  28.222  1.00  0.00     0.131 A 
ATOM     61  C   UNL A   1      38.539  29.225  30.867  1.00  0.00     0.055 A 
ATOM     62  C   UNL A   1      38.005  29.555  28.547  1.00  0.00     0.041 A 
ATOM     63  F   UNL A   1      39.675  29.320  26.921  1.00  0.00    -0.206 F 
ATOM     64  C   UNL A   1      37.593  29.488  29.875  1.00  0.00     0.022 A 
BRANCH  61  65
ATOM     65  S   UNL A   1      38.008  28.911  32.572  1.00  0.00     0.124 S 
ATOM     66  O   UNL A   1      38.979  29.696  33.331  1.00  0.00    -0.237 OA
ATOM     67  O   UNL A   1      36.640  29.412  32.575  1.00  0.00    -0.237 OA
ATOM     68  O   UNL A   1      38.144  27.462  32.712  1.00  0.00    -0.744 OA
ENDBRANCH  61  65
ENDBRANCH  44  58
BRANCH  45  69
ATOM     69  C   UNL A   1      49.531  26.755  26.046  1.00  0.00     0.023 A 
ATOM     70  C   UNL A   1      49.906  27.155  24.754  1.00  0.00     0.031 A 
ATOM     71  C   UNL A   1      50.457  26.016  26.804  1.00  0.00     0.131 A 
ATOM     72  C   UNL A   1      51.157  26.778  24.240  1.00  0.00     0.055 A 
ATOM     73  C   UNL A   1      51.718  25.683  26.306  1.00  0.00     0.041 A 
ATOM     74  F   UNL A   1      50.151  25.619  28.050  1.00  0.00    -0.206 F 
ATOM     75  C   UNL A   1      52.069  26.054  25.012  1.00  0.00     0.022 A 
BRANCH  72  76
ATOM     76  S   UNL A   1      51.546  27.188  22.516  1.00  0.00     0.124 S 
ATOM     77  O   UNL A   1      51.985  28.574  22.631  1.00  0.00    -0.237 OA
ATOM     78  O   UNL A   1      52.582  26.210  22.202  1.00  0.00    -0.237 OA
ATOM     79  O   UNL A   1      50.274  26.990  21.825  1.00  0.00    -0.744 OA
ENDBRANCH  72  76
ENDBRANCH  45  69
BRANCH  57  80
ATOM     80  C   UNL A   1      46.678  32.525  28.708  1.00  0.00     0.023 A 
ATOM     81  C   UNL A   1      46.879  33.500  27.718  1.00  0.00     0.031 A 
ATOM     82  C   UNL A   1      47.042  32.835  30.031  1.00  0.00     0.131 A 
ATOM     83  C   UNL A   1      47.476  34.723  28.054  1.00  0.00     0.055 A 
ATOM     84  C   UNL A   1      47.588  34.073  30.370  1.00  0.00     0.041 A 
ATOM     85  F   UNL A   1      46.871  31.937  31.015  1.00  0.00    -0.206 F 
ATOM     86  C   UNL A   1      47.819  35.022  29.377  1.00  0.00     0.022 A 
BRANCH  83  87
ATOM     87  S   UNL A   1      47.874  35.895  26.729  1.00  0.00     0.124 S 
ATOM     88  O   UNL A   1      46.736  36.807  26.777  1.00  0.00    -0.237 OA
ATOM     89  O   UNL A   1      49.151  36.446  27.172  1.00  0.00    -0.237 OA
ATOM     90  O   UNL A   1      47.945  35.054  25.536  1.00  0.00    -0.744 OA
ENDBRANCH  83  87
ENDBRANCH  57  80
ENDBRANCH  31  32
ENDBRANCH  23  26
ENDBRANCH  21  22
ENDBRANCH  20  21
ENDBRANCH   1  20
TORSDOF 18
ENDMDL
MODEL 3
REMARK VINA RESULT:     -11.0      5.149      9.767
REMARK SMILES CCc1ccc(C(=O)[C@@H](Br)CC(=O)NCCCCNC(=O)c2ccc(-c3c4nc(c(-c5cc(S(=O)(=O)[O-])ccc5F)c5ccc([nH]5)c(-c5cc(S(=O)(=O)[O-])ccc5F)c5nc(c(-c6cc(S(=O)(=O)[O-])ccc6F)c6ccc3[nH]6)C=C5)C=C4)cc2)cc1
REMARK SMILES IDX 16 1 15 2 14 3 12 4 13 5 11 7 9 8 10 9 7 10 8 11 6 12 3 13
REMARK SMILES IDX 4 14 86 15 5 16 85 17 2 18 1 19 17 20 18 21 19 22 20 23
REMARK SMILES IDX 21 25 22 26 23 27 84 28 24 29 83 30 25 31 26 32 27 33 77 34
REMARK SMILES IDX 28 35 82 36 76 37 78 38 29 39 81 40 75 41 74 42 30 44 62 45
REMARK SMILES IDX 42 46 61 47 43 48 46 49 60 50 79 51 44 52 45 53 59 55 80 56
REMARK SMILES IDX 47 57 31 58 32 59 40 60 33 61 39 62 41 63 38 64 34 65 35 66
REMARK SMILES IDX 36 67 37 68 63 69 64 70 72 71 65 72 71 73 73 74 70 75 66 76
REMARK SMILES IDX 67 77 68 78 69 79 48 80 49 81 57 82 50 83 56 84 58 85 55 86
REMARK SMILES IDX 51 87 52 88 53 89 54 90
REMARK H PARENT 14 6 19 24 78 43 46 54
REMARK Flexibility Score: inf
ROOT
ATOM      1  C   UNL A   1      39.882  22.880  26.964  1.00  0.00     0.023 C 
ENDROOT
BRANCH   1   2
ATOM      2  C   UNL A   1      38.689  23.699  26.475  1.00  0.00     0.116 C 
BRANCH   2   3
ATOM      3  N   UNL A   1      38.169  23.156  25.235  1.00  0.00    -0.356 N 
ATOM      4  C   UNL A   1      36.911  23.226  24.719  1.00  0.00     0.221 C 
ATOM      5  O   UNL A   1      36.649  22.601  23.693  1.00  0.00    -0.275 OA
ATOM      6  H   UNL A   1      38.822  22.663  24.686  1.00  0.00     0.163 HD
BRANCH   4   7
ATOM      7  C   UNL A   1      35.861  24.075  25.401  1.00  0.00     0.123 C 
BRANCH   7   8
ATOM      8  C   UNL A   1      34.536  24.011  24.654  1.00  0.00     0.138 C 
ATOM      9  Br  UNL A   1      33.734  25.806  24.528  1.00  0.00    -0.080 Br
BRANCH   8  10
ATOM     10  C   UNL A   1      33.417  23.118  25.188  1.00  0.00     0.176 C 
ATOM     11  O   UNL A   1      32.566  23.588  25.949  1.00  0.00    -0.293 OA
BRANCH  10  12
ATOM     12  C   UNL A   1      33.276  21.679  24.803  1.00  0.00     0.019 A 
ATOM     13  C   UNL A   1      33.062  19.056  23.768  1.00  0.00    -0.048 A 
ATOM     14  C   UNL A   1      32.173  20.060  23.362  1.00  0.00     0.004 A 
ATOM     15  C   UNL A   1      34.024  19.373  24.734  1.00  0.00     0.004 A 
ATOM     16  C   UNL A   1      32.266  21.351  23.888  1.00  0.00     0.012 A 
ATOM     17  C   UNL A   1      34.122  20.668  25.260  1.00  0.00     0.012 A 
BRANCH  13  18
ATOM     18  C   UNL A   1      32.961  17.702  23.101  1.00  0.00     0.032 C 
ATOM     19  C   UNL A   1      34.013  16.672  23.491  1.00  0.00     0.009 C 
ENDBRANCH  13  18
ENDBRANCH  10  12
ENDBRANCH   8  10
ENDBRANCH   7   8
ENDBRANCH   4   7
ENDBRANCH   2   3
ENDBRANCH   1   2
BRANCH   1  20
ATOM     20  C   UNL A   1      39.878  21.427  26.500  1.00  0.00     0.023 C 
BRANCH  20  21
ATOM     21  C   UNL A   1      40.885  20.528  27.213  1.00  0.00     0.116 C 
BRANCH  21  22
ATOM     22  N   UNL A   1      41.720  19.741  26.316  1.00  0.00    -0.352 N 
ATOM     23  C   UNL A   1      42.864  20.135  25.655  1.00  0.00     0.251 C 
ATOM     24  H   UNL A   1      41.433  18.811  26.162  1.00  0.00     0.163 HD
ATOM     25  O   UNL A   1      43.423  19.376  24.875  1.00  0.00    -0.269 OA
BRANCH  23  26
ATOM     26  C   UNL A   1      43.365  21.509  25.873  1.00  0.00     0.039 A 
ATOM     27  C   UNL A   1      43.131  22.479  24.896  1.00  0.00     0.014 A 
ATOM     28  C   UNL A   1      43.976  21.851  27.081  1.00  0.00     0.014 A 
ATOM     29  C   UNL A   1      43.427  23.816  25.172  1.00  0.00     0.010 A 
ATOM     30  C   UNL A   1      44.197  23.190  27.383  1.00  0.00     0.010 A 
ATOM     31  C   UNL A   1      43.914  24.188  26.436  1.00  0.00    -0.014 A 
BRANCH  31  32
ATOM     32  C   UNL A   1      44.126  25.614  26.800  1.00  0.00     0.031 A 
ATOM     33  C   UNL A   1      45.501  26.214  26.703  1.00  0.00     0.074 A 
ATOM     34  C   UNL A   1      43.106  26.333  27.309  1.00  0.00     0.049 A 
ATOM     35  N   UNL A   1      45.923  27.390  27.089  1.00  0.00    -0.248 NA
ATOM     36  C   UNL A   1      46.552  25.355  26.133  1.00  0.00     0.031 C 
ATOM     37  C   UNL A   1      41.739  25.844  27.509  1.00  0.00     0.029 A 
ATOM     38  N   UNL A   1      43.063  27.626  27.767  1.00  0.00    -0.354 N 
ATOM     39  C   UNL A   1      47.290  27.404  26.835  1.00  0.00     0.074 A 
ATOM     40  C   UNL A   1      47.633  26.095  26.319  1.00  0.00     0.031 C 
ATOM     41  C   UNL A   1      40.990  26.829  28.030  1.00  0.00     0.029 A 
ATOM     42  C   UNL A   1      41.828  28.005  28.241  1.00  0.00     0.049 A 
ATOM     43  H   UNL A   1      43.843  28.226  27.759  1.00  0.00     0.167 HD
ATOM     44  C   UNL A   1      48.173  28.422  26.996  1.00  0.00     0.034 A 
ATOM     45  C   UNL A   1      41.419  29.165  28.792  1.00  0.00     0.034 A 
ATOM     46  C   UNL A   1      47.807  29.729  27.483  1.00  0.00     0.049 A 
ATOM     47  C   UNL A   1      42.412  30.290  28.942  1.00  0.00     0.074 A 
ATOM     48  C   UNL A   1      48.603  30.854  27.619  1.00  0.00     0.029 A 
ATOM     49  N   UNL A   1      46.538  30.089  27.916  1.00  0.00    -0.354 N 
ATOM     50  N   UNL A   1      43.692  30.304  28.648  1.00  0.00    -0.248 NA
ATOM     51  C   UNL A   1      41.903  31.554  29.488  1.00  0.00     0.031 C 
ATOM     52  C   UNL A   1      47.829  31.875  28.182  1.00  0.00     0.029 A 
ATOM     53  C   UNL A   1      46.533  31.409  28.340  1.00  0.00     0.049 A 
ATOM     54  H   UNL A   1      45.754  29.493  27.923  1.00  0.00     0.167 HD
ATOM     55  C   UNL A   1      44.133  31.590  28.948  1.00  0.00     0.074 A 
ATOM     56  C   UNL A   1      42.981  32.323  29.433  1.00  0.00     0.031 C 
ATOM     57  C   UNL A   1      45.377  32.120  28.829  1.00  0.00     0.034 A 
BRANCH  44  58
ATOM     58  C   UNL A   1      49.617  28.142  26.657  1.00  0.00     0.023 A 
ATOM     59  C   UNL A   1      50.139  28.406  25.380  1.00  0.00     0.031 A 
ATOM     60  C   UNL A   1      50.472  27.562  27.611  1.00  0.00     0.131 A 
ATOM     61  C   UNL A   1      51.446  28.010  25.060  1.00  0.00     0.055 A 
ATOM     62  C   UNL A   1      51.801  27.250  27.312  1.00  0.00     0.041 A 
ATOM     63  F   UNL A   1      50.027  27.269  28.843  1.00  0.00    -0.206 F 
ATOM     64  C   UNL A   1      52.290  27.457  26.026  1.00  0.00     0.022 A 
BRANCH  61  65
ATOM     65  S   UNL A   1      51.972  28.087  23.327  1.00  0.00     0.124 S 
ATOM     66  O   UNL A   1      51.756  26.708  22.893  1.00  0.00    -0.237 OA
ATOM     67  O   UNL A   1      51.067  29.082  22.765  1.00  0.00    -0.237 OA
ATOM     68  O   UNL A   1      53.374  28.493  23.411  1.00  0.00    -0.744 OA
ENDBRANCH  61  65
ENDBRANCH  44  58
BRANCH  45  69
ATOM     69  C   UNL A   1      40.011  29.330  29.248  1.00  0.00     0.023 A 
ATOM     70  C   UNL A   1      39.679  29.244  30.609  1.00  0.00     0.031 A 
ATOM     71  C   UNL A   1      38.971  29.540  28.326  1.00  0.00     0.131 A 
ATOM     72  C   UNL A   1      38.336  29.322  31.008  1.00  0.00     0.055 A 
ATOM     73  C   UNL A   1      37.641  29.664  28.732  1.00  0.00     0.041 A 
ATOM     74  F   UNL A   1      39.237  29.641  27.014  1.00  0.00    -0.206 F 
ATOM     75  C   UNL A   1      37.316  29.542  30.079  1.00  0.00     0.022 A 
BRANCH  72  76
ATOM     76  S   UNL A   1      37.933  29.058  32.757  1.00  0.00     0.124 S 
ATOM     77  O   UNL A   1      39.067  29.690  33.422  1.00  0.00    -0.237 OA
ATOM     78  O   UNL A   1      36.653  29.747  32.878  1.00  0.00    -0.237 OA
ATOM     79  O   UNL A   1      37.869  27.604  32.876  1.00  0.00    -0.744 OA
ENDBRANCH  72  76
ENDBRANCH  45  69
BRANCH  57  80
ATOM     80  C   UNL A   1      45.535  33.575  29.191  1.00  0.00     0.023 A 
ATOM     81  C   UNL A   1      45.391  34.594  28.235  1.00  0.00     0.031 A 
ATOM     82  C   UNL A   1      45.844  33.942  30.513  1.00  0.00     0.131 A 
ATOM     83  C   UNL A   1      45.607  35.930  28.602  1.00  0.00     0.055 A 
ATOM     84  C   UNL A   1      46.007  35.277  30.884  1.00  0.00     0.041 A 
ATOM     85  F   UNL A   1      45.992  33.005  31.464  1.00  0.00    -0.206 F 
ATOM     86  C   UNL A   1      45.900  36.279  29.924  1.00  0.00     0.022 A 
BRANCH  83  87
ATOM     87  S   UNL A   1      45.579  37.206  27.313  1.00  0.00     0.124 S 
ATOM     88  O   UNL A   1      46.346  38.281  27.933  1.00  0.00    -0.237 OA
ATOM     89  O   UNL A   1      46.222  36.530  26.191  1.00  0.00    -0.237 OA
ATOM     90  O   UNL A   1      44.155  37.483  27.135  1.00  0.00    -0.744 OA
ENDBRANCH  83  87
ENDBRANCH  57  80
ENDBRANCH  31  32
ENDBRANCH  23  26
ENDBRANCH  21  22
ENDBRANCH  20  21
ENDBRANCH   1  20
TORSDOF 18
ENDMDL
