MODEL 1
REMARK VINA RESULT:     -14.0      0.000      0.000
REMARK SMILES Cc1ccc(C(=O)NC2(CC(=O)NCCCCNC(=O)c3ccc(-c4c5nc(c(-c6cc(S(=O)(=O)[O-])ccc6F)c6ccc([nH]6)c(-c6cc(S(=O)(=O)[O-])ccc6F)c6nc(c(-c7cc(S(=O)(=O)[O-])ccc7F)c7ccc4[nH]7)C=C6)C=C5)cc3)CCC2)cc1
REMARK SMILES IDX 15 1 14 2 13 3 11 4 12 5 10 7 9 8 84 9 86 10 85 11 8 12 6 13
REMARK SMILES IDX 7 14 5 16 1 17 2 18 3 19 88 20 4 21 87 22 16 23 17 24 18 25
REMARK SMILES IDX 19 26 20 28 21 29 22 30 83 31 23 32 82 33 24 34 25 35 26 36
REMARK SMILES IDX 76 37 27 38 81 39 75 40 77 41 28 42 80 43 74 44 73 45 29 47
REMARK SMILES IDX 61 48 41 49 60 50 42 51 45 52 59 53 78 54 43 55 44 56 58 58
REMARK SMILES IDX 79 59 46 60 30 61 31 62 39 63 32 64 38 65 40 66 37 67 33 68
REMARK SMILES IDX 34 69 35 70 36 71 62 72 63 73 71 74 64 75 70 76 72 77 69 78
REMARK SMILES IDX 65 79 66 80 67 81 68 82 47 83 48 84 56 85 49 86 55 87 57 88
REMARK SMILES IDX 54 89 50 90 51 91 52 92 53 93
REMARK H PARENT 13 6 8 15 18 27 77 46 45 57
REMARK Flexibility Score: inf
ROOT
ATOM      1  C   UNL A   1      35.052  32.062  27.627  1.00  0.00     0.023 C 
ENDROOT
BRANCH   1   2
ATOM      2  C   UNL A   1      34.935  30.540  27.725  1.00  0.00     0.116 C 
BRANCH   2   3
ATOM      3  N   UNL A   1      33.330  29.985  27.959  1.00  0.00    -0.356 N 
ATOM      4  C   UNL A   1      32.160  28.556  27.285  1.00  0.00     0.222 C 
ATOM      5  O   UNL A   1      31.097  28.047  27.759  1.00  0.00    -0.275 OA
ATOM      6  H   UNL A   1      32.859  30.541  28.621  1.00  0.00     0.163 HD
BRANCH   4   7
ATOM      7  C   UNL A   1      32.419  27.694  25.610  1.00  0.00     0.128 C 
BRANCH   7   8
ATOM      8  C   UNL A   1      31.187  27.018  24.675  1.00  0.00     0.049 C 
ATOM      9  C   UNL A   1      31.570  26.440  23.265  1.00  0.00     0.029 C 
ATOM     10  C   UNL A   1      29.867  27.600  23.782  1.00  0.00     0.029 C 
ATOM     11  C   UNL A   1      30.776  27.591  22.573  1.00  0.00     0.005 C 
BRANCH   8  12
ATOM     12  N   UNL A   1      30.465  26.171  25.613  1.00  0.00    -0.346 N 
ATOM     13  C   UNL A   1      31.120  25.017  25.931  1.00  0.00     0.251 C 
ATOM     14  O   UNL A   1      30.727  24.244  26.793  1.00  0.00    -0.269 OA
ATOM     15  H   UNL A   1      29.584  26.409  25.983  1.00  0.00     0.164 HD
BRANCH  13  16
ATOM     16  C   UNL A   1      32.235  24.693  24.970  1.00  0.00     0.039 A 
ATOM     17  C   UNL A   1      36.624  22.897  23.205  1.00  0.00     0.044 C 
ATOM     18  C   UNL A   1      35.290  23.049  23.885  1.00  0.00    -0.051 A 
ATOM     19  C   UNL A   1      35.283  24.077  25.366  1.00  0.00     0.004 A 
ATOM     20  C   UNL A   1      33.794  22.749  22.932  1.00  0.00     0.004 A 
ATOM     21  C   UNL A   1      33.779  24.884  25.903  1.00  0.00     0.014 A 
ATOM     22  C   UNL A   1      32.240  23.591  23.427  1.00  0.00     0.014 A 
ENDBRANCH  13  16
ENDBRANCH   8  12
ENDBRANCH   7   8
ENDBRANCH   4   7
ENDBRANCH   2   3
ENDBRANCH   1   2
BRANCH   1  23
ATOM     23  C   UNL A   1      35.574  32.723  28.887  1.00  0.00     0.023 C 
BRANCH  23  24
ATOM     24  C   UNL A   1      34.791  32.307  30.111  1.00  0.00     0.116 C 
BRANCH  24  25
ATOM     25  N   UNL A   1      34.111  33.387  30.803  1.00  0.00    -0.352 N 
ATOM     26  C   UNL A   1      34.280  33.805  32.109  1.00  0.00     0.251 C 
ATOM     27  H   UNL A   1      33.445  33.883  30.275  1.00  0.00     0.163 HD
ATOM     28  O   UNL A   1      33.362  34.359  32.708  1.00  0.00    -0.269 OA
BRANCH  26  29
ATOM     29  C   UNL A   1      35.651  33.823  32.704  1.00  0.00     0.039 A 
ATOM     30  C   UNL A   1      36.624  34.521  31.969  1.00  0.00     0.014 A 
ATOM     31  C   UNL A   1      36.046  32.798  33.543  1.00  0.00     0.014 A 
ATOM     32  C   UNL A   1      37.879  33.957  31.805  1.00  0.00     0.010 A 
ATOM     33  C   UNL A   1      37.164  32.107  33.200  1.00  0.00     0.010 A 
ATOM     34  C   UNL A   1      38.057  32.677  32.303  1.00  0.00    -0.014 A 
BRANCH  34  35
ATOM     35  C   UNL A   1      39.255  31.887  32.201  1.00  0.00     0.031 A 
ATOM     36  C   UNL A   1      39.042  30.634  31.455  1.00  0.00     0.074 A 
ATOM     37  C   UNL A   1      40.402  32.514  32.550  1.00  0.00     0.049 A 
ATOM     38  N   UNL A   1      39.745  29.581  31.584  1.00  0.00    -0.248 NA
ATOM     39  C   UNL A   1      37.918  30.423  30.521  1.00  0.00     0.031 C 
ATOM     40  C   UNL A   1      41.800  32.181  32.302  1.00  0.00     0.029 A 
ATOM     41  N   UNL A   1      40.487  33.584  33.449  1.00  0.00    -0.354 N 
ATOM     42  C   UNL A   1      39.471  28.782  30.493  1.00  0.00     0.074 A 
ATOM     43  C   UNL A   1      38.215  29.240  29.977  1.00  0.00     0.031 C 
ATOM     44  C   UNL A   1      42.557  32.741  33.270  1.00  0.00     0.029 A 
ATOM     45  C   UNL A   1      41.651  33.379  34.214  1.00  0.00     0.049 A 
ATOM     46  H   UNL A   1      39.854  34.334  33.530  1.00  0.00     0.167 HD
ATOM     47  C   UNL A   1      40.468  27.975  30.045  1.00  0.00     0.034 A 
ATOM     48  C   UNL A   1      41.497  33.032  35.528  1.00  0.00     0.034 A 
ATOM     49  C   UNL A   1      41.644  28.204  30.878  1.00  0.00     0.049 A 
ATOM     50  C   UNL A   1      41.837  31.561  35.713  1.00  0.00     0.074 A 
ATOM     51  C   UNL A   1      42.749  29.026  30.740  1.00  0.00     0.029 A 
ATOM     52  N   UNL A   1      41.544  27.895  32.221  1.00  0.00    -0.354 N 
ATOM     53  N   UNL A   1      41.753  30.655  34.770  1.00  0.00    -0.248 NA
ATOM     54  C   UNL A   1      42.453  31.046  36.929  1.00  0.00     0.031 C 
ATOM     55  C   UNL A   1      43.271  29.256  32.049  1.00  0.00     0.029 A 
ATOM     56  C   UNL A   1      42.477  28.580  32.962  1.00  0.00     0.049 A 
ATOM     57  H   UNL A   1      40.888  27.265  32.599  1.00  0.00     0.167 HD
ATOM     58  C   UNL A   1      42.355  29.493  35.189  1.00  0.00     0.074 A 
ATOM     59  C   UNL A   1      42.776  29.799  36.549  1.00  0.00     0.031 C 
ATOM     60  C   UNL A   1      42.506  28.379  34.400  1.00  0.00     0.034 A 
BRANCH  47  61
ATOM     61  C   UNL A   1      40.533  27.180  28.775  1.00  0.00     0.023 A 
ATOM     62  C   UNL A   1      41.529  27.547  27.846  1.00  0.00     0.031 A 
ATOM     63  C   UNL A   1      39.740  26.077  28.411  1.00  0.00     0.131 A 
ATOM     64  C   UNL A   1      41.706  26.867  26.635  1.00  0.00     0.055 A 
ATOM     65  C   UNL A   1      39.905  25.401  27.191  1.00  0.00     0.041 A 
ATOM     66  F   UNL A   1      38.804  25.577  29.228  1.00  0.00    -0.206 F 
ATOM     67  C   UNL A   1      40.894  25.792  26.295  1.00  0.00     0.022 A 
BRANCH  64  68
ATOM     68  S   UNL A   1      43.039  27.417  25.541  1.00  0.00     0.124 S 
ATOM     69  O   UNL A   1      43.522  26.154  24.991  1.00  0.00    -0.237 OA
ATOM     70  O   UNL A   1      42.335  28.295  24.613  1.00  0.00    -0.237 OA
ATOM     71  O   UNL A   1      43.964  28.091  26.449  1.00  0.00    -0.744 OA
ENDBRANCH  64  68
ENDBRANCH  47  61
BRANCH  48  72
ATOM     72  C   UNL A   1      40.371  33.830  36.142  1.00  0.00     0.023 A 
ATOM     73  C   UNL A   1      39.224  33.077  36.516  1.00  0.00     0.031 A 
ATOM     74  C   UNL A   1      40.619  35.015  36.848  1.00  0.00     0.131 A 
ATOM     75  C   UNL A   1      38.564  33.347  37.728  1.00  0.00     0.055 A 
ATOM     76  C   UNL A   1      39.876  35.340  37.995  1.00  0.00     0.041 A 
ATOM     77  F   UNL A   1      41.679  35.781  36.551  1.00  0.00    -0.206 F 
ATOM     78  C   UNL A   1      38.902  34.466  38.484  1.00  0.00     0.022 A 
BRANCH  75  79
ATOM     79  S   UNL A   1      37.512  32.046  38.461  1.00  0.00     0.124 S 
ATOM     80  O   UNL A   1      38.156  31.818  39.749  1.00  0.00    -0.237 OA
ATOM     81  O   UNL A   1      36.197  32.684  38.512  1.00  0.00    -0.237 OA
ATOM     82  O   UNL A   1      37.591  30.941  37.505  1.00  0.00    -0.744 OA
ENDBRANCH  75  79
ENDBRANCH  48  72
BRANCH  60  83
ATOM     83  C   UNL A   1      42.738  26.964  34.909  1.00  0.00     0.023 A 
ATOM     84  C   UNL A   1      43.733  26.145  34.385  1.00  0.00     0.031 A 
ATOM     85  C   UNL A   1      42.031  26.407  36.011  1.00  0.00     0.131 A 
ATOM     86  C   UNL A   1      43.912  24.828  34.826  1.00  0.00     0.055 A 
ATOM     87  C   UNL A   1      42.301  25.143  36.542  1.00  0.00     0.041 A 
ATOM     88  F   UNL A   1      41.050  27.055  36.654  1.00  0.00    -0.206 F 
ATOM     89  C   UNL A   1      43.226  24.325  35.924  1.00  0.00     0.022 A 
BRANCH  86  90
ATOM     90  S   UNL A   1      44.992  23.780  33.834  1.00  0.00     0.124 S 
ATOM     91  O   UNL A   1      44.232  23.667  32.590  1.00  0.00    -0.237 OA
ATOM     92  O   UNL A   1      46.213  24.577  33.755  1.00  0.00    -0.237 OA
ATOM     93  O   UNL A   1      45.093  22.553  34.617  1.00  0.00    -0.744 OA
ENDBRANCH  86  90
ENDBRANCH  60  83
ENDBRANCH  34  35
ENDBRANCH  26  29
ENDBRANCH  24  25
ENDBRANCH  23  24
ENDBRANCH   1  23
TORSDOF 17
ENDMDL
MODEL 2
REMARK VINA RESULT:     -13.5      4.354      9.778
REMARK SMILES Cc1ccc(C(=O)NC2(CC(=O)NCCCCNC(=O)c3ccc(-c4c5nc(c(-c6cc(S(=O)(=O)[O-])ccc6F)c6ccc([nH]6)c(-c6cc(S(=O)(=O)[O-])ccc6F)c6nc(c(-c7cc(S(=O)(=O)[O-])ccc7F)c7ccc4[nH]7)C=C6)C=C5)cc3)CCC2)cc1
REMARK SMILES IDX 15 1 14 2 13 3 11 4 12 5 10 7 9 8 84 9 86 10 85 11 8 12 6 13
REMARK SMILES IDX 7 14 5 16 1 17 2 18 3 19 88 20 4 21 87 22 16 23 17 24 18 25
REMARK SMILES IDX 19 26 20 28 21 29 22 30 83 31 23 32 82 33 24 34 25 35 26 36
REMARK SMILES IDX 76 37 27 38 81 39 75 40 77 41 28 42 80 43 74 44 73 45 29 47
REMARK SMILES IDX 61 48 41 49 60 50 42 51 45 52 59 53 78 54 43 55 44 56 58 58
REMARK SMILES IDX 79 59 46 60 30 61 31 62 39 63 32 64 38 65 40 66 37 67 33 68
REMARK SMILES IDX 34 69 35 70 36 71 62 72 63 73 71 74 64 75 70 76 72 77 69 78
REMARK SMILES IDX 65 79 66 80 67 81 68 82 47 83 48 84 56 85 49 86 55 87 57 88
REMARK SMILES IDX 54 89 50 90 51 91 52 92 53 93
REMARK H PARENT 13 6 8 15 18 27 77 46 45 57
REMARK Flexibility Score: inf
ROOT
ATOM      1  C   UNL A   1      36.530  20.942  24.506  1.00  0.00     0.023 C 
ENDROOT
BRANCH   1   2
ATOM      2  C   UNL A   1      35.501  19.998  25.129  1.00  0.00     0.116 C 
BRANCH   2   3
ATOM      3  N   UNL A   1      34.020  19.926  24.267  1.00  0.00    -0.356 N 
ATOM      4  C   UNL A   1      32.702  21.173  23.511  1.00  0.00     0.222 C 
ATOM      5  O   UNL A   1      31.809  21.013  22.622  1.00  0.00    -0.275 OA
ATOM      6  H   UNL A   1      33.752  18.992  24.106  1.00  0.00     0.163 HD
BRANCH   4   7
ATOM      7  C   UNL A   1      32.484  22.962  24.118  1.00  0.00     0.128 C 
BRANCH   7   8
ATOM      8  C   UNL A   1      33.166  23.589  25.529  1.00  0.00     0.049 C 
ATOM      9  C   UNL A   1      33.808  25.021  25.460  1.00  0.00     0.029 C 
ATOM     10  C   UNL A   1      34.561  23.299  26.450  1.00  0.00     0.029 C 
ATOM     11  C   UNL A   1      35.226  24.399  25.651  1.00  0.00     0.005 C 
BRANCH   8  12
ATOM     12  N   UNL A   1      32.166  23.313  26.550  1.00  0.00    -0.346 N 
ATOM     13  C   UNL A   1      31.091  24.154  26.512  1.00  0.00     0.251 C 
ATOM     14  O   UNL A   1      30.099  24.000  27.208  1.00  0.00    -0.269 OA
ATOM     15  H   UNL A   1      32.256  22.586  27.208  1.00  0.00     0.164 HD
BRANCH  13  16
ATOM     16  C   UNL A   1      31.351  25.396  25.698  1.00  0.00     0.039 A 
ATOM     17  C   UNL A   1      30.497  29.397  22.720  1.00  0.00     0.044 C 
ATOM     18  C   UNL A   1      30.428  28.364  23.811  1.00  0.00    -0.051 A 
ATOM     19  C   UNL A   1      29.827  26.739  23.309  1.00  0.00     0.004 A 
ATOM     20  C   UNL A   1      31.442  28.587  25.280  1.00  0.00     0.004 A 
ATOM     21  C   UNL A   1      30.279  25.279  24.239  1.00  0.00     0.014 A 
ATOM     22  C   UNL A   1      31.960  27.108  26.238  1.00  0.00     0.014 A 
ENDBRANCH  13  16
ENDBRANCH   8  12
ENDBRANCH   7   8
ENDBRANCH   4   7
ENDBRANCH   2   3
ENDBRANCH   1   2
BRANCH   1  23
ATOM     23  C   UNL A   1      37.880  20.926  25.196  1.00  0.00     0.023 C 
BRANCH  23  24
ATOM     24  C   UNL A   1      38.256  22.287  25.736  1.00  0.00     0.116 C 
BRANCH  24  25
ATOM     25  N   UNL A   1      39.551  22.354  26.388  1.00  0.00    -0.352 N 
ATOM     26  C   UNL A   1      40.415  23.430  26.463  1.00  0.00     0.251 C 
ATOM     27  H   UNL A   1      39.852  21.529  26.832  1.00  0.00     0.163 HD
ATOM     28  O   UNL A   1      41.623  23.248  26.594  1.00  0.00    -0.269 OA
BRANCH  26  29
ATOM     29  C   UNL A   1      39.863  24.805  26.650  1.00  0.00     0.039 A 
ATOM     30  C   UNL A   1      40.615  25.846  26.078  1.00  0.00     0.014 A 
ATOM     31  C   UNL A   1      39.058  25.077  27.740  1.00  0.00     0.014 A 
ATOM     32  C   UNL A   1      40.829  27.004  26.807  1.00  0.00     0.010 A 
ATOM     33  C   UNL A   1      39.449  26.077  28.572  1.00  0.00     0.010 A 
ATOM     34  C   UNL A   1      40.363  27.015  28.111  1.00  0.00    -0.014 A 
BRANCH  34  35
ATOM     35  C   UNL A   1      40.517  28.087  29.057  1.00  0.00     0.031 A 
ATOM     36  C   UNL A   1      39.483  29.125  28.907  1.00  0.00     0.074 A 
ATOM     37  C   UNL A   1      41.381  27.852  30.073  1.00  0.00     0.049 A 
ATOM     38  N   UNL A   1      39.613  30.340  29.266  1.00  0.00    -0.248 NA
ATOM     39  C   UNL A   1      38.190  28.896  28.233  1.00  0.00     0.031 C 
ATOM     40  C   UNL A   1      41.577  28.525  31.351  1.00  0.00     0.029 A 
ATOM     41  N   UNL A   1      42.468  26.972  30.010  1.00  0.00    -0.354 N 
ATOM     42  C   UNL A   1      38.345  30.886  29.292  1.00  0.00     0.074 A 
ATOM     43  C   UNL A   1      37.535  30.036  28.471  1.00  0.00     0.031 C 
ATOM     44  C   UNL A   1      42.849  28.326  31.756  1.00  0.00     0.029 A 
ATOM     45  C   UNL A   1      43.528  27.587  30.702  1.00  0.00     0.049 A 
ATOM     46  H   UNL A   1      42.486  26.092  29.567  1.00  0.00     0.167 HD
ATOM     47  C   UNL A   1      38.111  31.874  30.195  1.00  0.00     0.034 A 
ATOM     48  C   UNL A   1      44.589  28.042  29.968  1.00  0.00     0.034 A 
ATOM     49  C   UNL A   1      39.335  32.088  30.960  1.00  0.00     0.049 A 
ATOM     50  C   UNL A   1      44.547  29.560  29.893  1.00  0.00     0.074 A 
ATOM     51  C   UNL A   1      39.786  31.593  32.171  1.00  0.00     0.029 A 
ATOM     52  N   UNL A   1      40.449  32.525  30.270  1.00  0.00    -0.354 N 
ATOM     53  N   UNL A   1      43.457  30.280  30.008  1.00  0.00    -0.248 NA
ATOM     54  C   UNL A   1      45.753  30.377  29.851  1.00  0.00     0.031 C 
ATOM     55  C   UNL A   1      41.211  31.686  32.162  1.00  0.00     0.029 A 
ATOM     56  C   UNL A   1      41.607  32.226  30.949  1.00  0.00     0.049 A 
ATOM     57  H   UNL A   1      40.418  32.992  29.403  1.00  0.00     0.167 HD
ATOM     58  C   UNL A   1      43.790  31.607  30.139  1.00  0.00     0.074 A 
ATOM     59  C   UNL A   1      45.242  31.606  30.034  1.00  0.00     0.031 C 
ATOM     60  C   UNL A   1      42.877  32.609  30.359  1.00  0.00     0.034 A 
BRANCH  47  61
ATOM     61  C   UNL A   1      36.802  32.487  30.596  1.00  0.00     0.023 A 
ATOM     62  C   UNL A   1      36.117  33.224  29.608  1.00  0.00     0.031 A 
ATOM     63  C   UNL A   1      36.149  32.380  31.836  1.00  0.00     0.131 A 
ATOM     64  C   UNL A   1      34.875  33.823  29.852  1.00  0.00     0.055 A 
ATOM     65  C   UNL A   1      34.910  32.992  32.090  1.00  0.00     0.041 A 
ATOM     66  F   UNL A   1      36.651  31.652  32.842  1.00  0.00    -0.206 F 
ATOM     67  C   UNL A   1      34.263  33.717  31.095  1.00  0.00     0.022 A 
BRANCH  64  68
ATOM     68  S   UNL A   1      34.084  34.720  28.493  1.00  0.00     0.124 S 
ATOM     69  O   UNL A   1      32.727  34.184  28.524  1.00  0.00    -0.237 OA
ATOM     70  O   UNL A   1      34.237  36.110  28.908  1.00  0.00    -0.237 OA
ATOM     71  O   UNL A   1      34.876  34.332  27.328  1.00  0.00    -0.744 OA
ENDBRANCH  64  68
ENDBRANCH  47  61
BRANCH  48  72
ATOM     72  C   UNL A   1      44.927  27.048  28.881  1.00  0.00     0.023 A 
ATOM     73  C   UNL A   1      45.030  27.591  27.570  1.00  0.00     0.031 A 
ATOM     74  C   UNL A   1      45.668  25.891  29.158  1.00  0.00     0.131 A 
ATOM     75  C   UNL A   1      46.058  27.168  26.708  1.00  0.00     0.055 A 
ATOM     76  C   UNL A   1      46.613  25.405  28.239  1.00  0.00     0.041 A 
ATOM     77  F   UNL A   1      45.620  25.320  30.370  1.00  0.00    -0.206 F 
ATOM     78  C   UNL A   1      46.869  26.089  27.049  1.00  0.00     0.022 A 
BRANCH  75  79
ATOM     79  S   UNL A   1      46.533  28.251  25.317  1.00  0.00     0.124 S 
ATOM     80  O   UNL A   1      46.177  27.439  24.159  1.00  0.00    -0.237 OA
ATOM     81  O   UNL A   1      45.711  29.440  25.537  1.00  0.00    -0.237 OA
ATOM     82  O   UNL A   1      47.964  28.483  25.516  1.00  0.00    -0.744 OA
ENDBRANCH  75  79
ENDBRANCH  48  72
BRANCH  60  83
ATOM     83  C   UNL A   1      43.104  34.086  30.070  1.00  0.00     0.023 A 
ATOM     84  C   UNL A   1      42.924  34.624  28.799  1.00  0.00     0.031 A 
ATOM     85  C   UNL A   1      43.418  35.039  31.078  1.00  0.00     0.131 A 
ATOM     86  C   UNL A   1      43.179  35.974  28.528  1.00  0.00     0.055 A 
ATOM     87  C   UNL A   1      43.538  36.410  30.835  1.00  0.00     0.041 A 
ATOM     88  F   UNL A   1      43.610  34.708  32.362  1.00  0.00    -0.206 F 
ATOM     89  C   UNL A   1      43.454  36.883  29.541  1.00  0.00     0.022 A 
BRANCH  86  90
ATOM     90  S   UNL A   1      43.242  36.455  26.792  1.00  0.00     0.124 S 
ATOM     91  O   UNL A   1      44.668  36.716  26.610  1.00  0.00    -0.237 OA
ATOM     92  O   UNL A   1      42.730  35.264  26.120  1.00  0.00    -0.237 OA
ATOM     93  O   UNL A   1      42.379  37.630  26.730  1.00  0.00    -0.744 OA
ENDBRANCH  86  90
ENDBRANCH  60  83
ENDBRANCH  34  35
ENDBRANCH  26  29
ENDBRANCH  24  25
ENDBRANCH  23  24
ENDBRANCH   1  23
TORSDOF 17
ENDMDL
MODEL 3
REMARK VINA RESULT:     -13.5      5.307     10.984
REMARK SMILES Cc1ccc(C(=O)NC2(CC(=O)NCCCCNC(=O)c3ccc(-c4c5nc(c(-c6cc(S(=O)(=O)[O-])ccc6F)c6ccc([nH]6)c(-c6cc(S(=O)(=O)[O-])ccc6F)c6nc(c(-c7cc(S(=O)(=O)[O-])ccc7F)c7ccc4[nH]7)C=C6)C=C5)cc3)CCC2)cc1
REMARK SMILES IDX 15 1 14 2 13 3 11 4 12 5 10 7 9 8 84 9 86 10 85 11 8 12 6 13
REMARK SMILES IDX 7 14 5 16 1 17 2 18 3 19 88 20 4 21 87 22 16 23 17 24 18 25
REMARK SMILES IDX 19 26 20 28 21 29 22 30 83 31 23 32 82 33 24 34 25 35 26 36
REMARK SMILES IDX 76 37 27 38 81 39 75 40 77 41 28 42 80 43 74 44 73 45 29 47
REMARK SMILES IDX 61 48 41 49 60 50 42 51 45 52 59 53 78 54 43 55 44 56 58 58
REMARK SMILES IDX 79 59 46 60 30 61 31 62 39 63 32 64 38 65 40 66 37 67 33 68
REMARK SMILES IDX 34 69 35 70 36 71 62 72 63 73 71 74 64 75 70 76 72 77 69 78
REMARK SMILES IDX 65 79 66 80 67 81 68 82 47 83 48 84 56 85 49 86 55 87 57 88
REMARK SMILES IDX 54 89 50 90 51 91 52 92 53 93
REMARK H PARENT 13 6 8 15 18 27 77 46 45 57
REMARK Flexibility Score: inf
ROOT
ATOM      1  C   UNL A   1      40.035  21.847  27.115  1.00  0.00     0.023 C 
ENDROOT
BRANCH   1   2
ATOM      2  C   UNL A   1      38.974  22.814  26.590  1.00  0.00     0.116 C 
BRANCH   2   3
ATOM      3  N   UNL A   1      38.402  22.426  25.020  1.00  0.00    -0.356 N 
ATOM      4  C   UNL A   1      36.792  22.721  23.932  1.00  0.00     0.222 C 
ATOM      5  O   UNL A   1      36.604  22.662  22.677  1.00  0.00    -0.275 OA
ATOM      6  H   UNL A   1      39.073  21.906  24.521  1.00  0.00     0.163 HD
BRANCH   4   7
ATOM      7  C   UNL A   1      35.080  23.091  24.673  1.00  0.00     0.128 C 
BRANCH   7   8
ATOM      8  C   UNL A   1      33.626  22.453  24.102  1.00  0.00     0.049 C 
ATOM      9  C   UNL A   1      32.362  22.566  25.028  1.00  0.00     0.029 C 
ATOM     10  C   UNL A   1      32.980  20.903  23.860  1.00  0.00     0.029 C 
ATOM     11  C   UNL A   1      32.375  21.020  25.241  1.00  0.00     0.005 C 
BRANCH   8  12
ATOM     12  N   UNL A   1      33.545  22.943  22.734  1.00  0.00    -0.346 N 
ATOM     13  C   UNL A   1      33.266  24.276  22.642  1.00  0.00     0.251 C 
ATOM     14  O   UNL A   1      33.281  24.888  21.584  1.00  0.00    -0.269 OA
ATOM     15  H   UNL A   1      33.679  22.366  21.948  1.00  0.00     0.164 HD
BRANCH  13  16
ATOM     16  C   UNL A   1      32.729  24.851  23.927  1.00  0.00     0.039 A 
ATOM     17  C   UNL A   1      31.757  28.185  27.608  1.00  0.00     0.044 C 
ATOM     18  C   UNL A   1      31.915  27.505  26.276  1.00  0.00    -0.051 A 
ATOM     19  C   UNL A   1      33.614  27.268  25.718  1.00  0.00     0.004 A 
ATOM     20  C   UNL A   1      30.564  26.493  25.654  1.00  0.00     0.004 A 
ATOM     21  C   UNL A   1      34.014  25.964  24.560  1.00  0.00     0.014 A 
ATOM     22  C   UNL A   1      30.940  25.120  24.495  1.00  0.00     0.014 A 
ENDBRANCH  13  16
ENDBRANCH   8  12
ENDBRANCH   7   8
ENDBRANCH   4   7
ENDBRANCH   2   3
ENDBRANCH   1   2
BRANCH   1  23
ATOM     23  C   UNL A   1      41.438  22.421  27.135  1.00  0.00     0.023 C 
BRANCH  23  24
ATOM     24  C   UNL A   1      41.945  22.721  25.743  1.00  0.00     0.116 C 
BRANCH  24  25
ATOM     25  N   UNL A   1      42.931  21.787  25.232  1.00  0.00    -0.352 N 
ATOM     26  C   UNL A   1      44.211  22.054  24.785  1.00  0.00     0.251 C 
ATOM     27  H   UNL A   1      42.652  20.843  25.198  1.00  0.00     0.163 HD
ATOM     28  O   UNL A   1      44.747  21.319  23.959  1.00  0.00    -0.269 OA
BRANCH  26  29
ATOM     29  C   UNL A   1      45.040  23.075  25.494  1.00  0.00     0.039 A 
ATOM     30  C   UNL A   1      45.185  22.886  26.879  1.00  0.00     0.014 A 
ATOM     31  C   UNL A   1      45.147  24.351  24.973  1.00  0.00     0.014 A 
ATOM     32  C   UNL A   1      45.063  23.976  27.726  1.00  0.00     0.010 A 
ATOM     33  C   UNL A   1      44.777  25.385  25.773  1.00  0.00     0.010 A 
ATOM     34  C   UNL A   1      44.701  25.179  27.144  1.00  0.00    -0.014 A 
BRANCH  34  35
ATOM     35  C   UNL A   1      44.472  26.420  27.835  1.00  0.00     0.031 A 
ATOM     36  C   UNL A   1      43.092  26.911  27.668  1.00  0.00     0.074 A 
ATOM     37  C   UNL A   1      45.430  26.786  28.717  1.00  0.00     0.049 A 
ATOM     38  N   UNL A   1      42.736  28.129  27.767  1.00  0.00    -0.248 NA
ATOM     39  C   UNL A   1      41.962  26.047  27.274  1.00  0.00     0.031 C 
ATOM     40  C   UNL A   1      45.428  27.766  29.797  1.00  0.00     0.029 A 
ATOM     41  N   UNL A   1      46.775  26.405  28.640  1.00  0.00    -0.354 N 
ATOM     42  C   UNL A   1      41.362  28.133  27.903  1.00  0.00     0.074 A 
ATOM     43  C   UNL A   1      40.915  26.867  27.402  1.00  0.00     0.031 C 
ATOM     44  C   UNL A   1      46.696  28.175  30.013  1.00  0.00     0.029 A 
ATOM     45  C   UNL A   1      47.537  27.527  29.017  1.00  0.00     0.049 A 
ATOM     46  H   UNL A   1      47.121  25.522  28.372  1.00  0.00     0.167 HD
ATOM     47  C   UNL A   1      40.811  29.139  28.631  1.00  0.00     0.034 A 
ATOM     48  C   UNL A   1      48.254  28.167  28.044  1.00  0.00     0.034 A 
ATOM     49  C   UNL A   1      41.892  29.984  29.127  1.00  0.00     0.049 A 
ATOM     50  C   UNL A   1      47.583  29.486  27.696  1.00  0.00     0.074 A 
ATOM     51  C   UNL A   1      42.599  30.005  30.317  1.00  0.00     0.029 A 
ATOM     52  N   UNL A   1      42.669  30.639  28.192  1.00  0.00    -0.354 N 
ATOM     53  N   UNL A   1      46.306  29.735  27.855  1.00  0.00    -0.248 NA
ATOM     54  C   UNL A   1      48.338  30.669  27.301  1.00  0.00     0.031 C 
ATOM     55  C   UNL A   1      43.852  30.635  30.053  1.00  0.00     0.029 A 
ATOM     56  C   UNL A   1      43.895  30.981  28.711  1.00  0.00     0.049 A 
ATOM     57  H   UNL A   1      42.382  30.836  27.270  1.00  0.00     0.167 HD
ATOM     58  C   UNL A   1      46.070  31.078  27.678  1.00  0.00     0.074 A 
ATOM     59  C   UNL A   1      47.380  31.611  27.334  1.00  0.00     0.031 C 
ATOM     60  C   UNL A   1      44.844  31.671  27.857  1.00  0.00     0.034 A 
BRANCH  47  61
ATOM     61  C   UNL A   1      39.401  29.276  29.124  1.00  0.00     0.023 A 
ATOM     62  C   UNL A   1      39.219  29.327  30.522  1.00  0.00     0.031 A 
ATOM     63  C   UNL A   1      38.231  29.402  28.354  1.00  0.00     0.131 A 
ATOM     64  C   UNL A   1      37.954  29.478  31.103  1.00  0.00     0.055 A 
ATOM     65  C   UNL A   1      36.959  29.539  28.934  1.00  0.00     0.041 A 
ATOM     66  F   UNL A   1      38.264  29.441  27.016  1.00  0.00    -0.206 F 
ATOM     67  C   UNL A   1      36.814  29.581  30.316  1.00  0.00     0.022 A 
BRANCH  64  68
ATOM     68  S   UNL A   1      37.856  29.558  32.909  1.00  0.00     0.124 S 
ATOM     69  O   UNL A   1      37.402  28.214  33.250  1.00  0.00    -0.237 OA
ATOM     70  O   UNL A   1      39.228  29.887  33.280  1.00  0.00    -0.237 OA
ATOM     71  O   UNL A   1      36.880  30.619  33.147  1.00  0.00    -0.744 OA
ENDBRANCH  64  68
ENDBRANCH  47  61
BRANCH  48  72
ATOM     72  C   UNL A   1      48.888  27.153  27.121  1.00  0.00     0.023 A 
ATOM     73  C   UNL A   1      48.327  27.082  25.816  1.00  0.00     0.031 A 
ATOM     74  C   UNL A   1      50.231  26.777  27.265  1.00  0.00     0.131 A 
ATOM     75  C   UNL A   1      49.163  26.947  24.693  1.00  0.00     0.055 A 
ATOM     76  C   UNL A   1      51.033  26.527  26.139  1.00  0.00     0.041 A 
ATOM     77  F   UNL A   1      50.829  26.813  28.464  1.00  0.00    -0.206 F 
ATOM     78  C   UNL A   1      50.523  26.691  24.849  1.00  0.00     0.022 A 
BRANCH  75  79
ATOM     79  S   UNL A   1      48.519  27.443  23.058  1.00  0.00     0.124 S 
ATOM     80  O   UNL A   1      48.276  26.156  22.418  1.00  0.00    -0.237 OA
ATOM     81  O   UNL A   1      47.327  28.218  23.402  1.00  0.00    -0.237 OA
ATOM     82  O   UNL A   1      49.594  28.250  22.479  1.00  0.00    -0.744 OA
ENDBRANCH  75  79
ENDBRANCH  48  72
BRANCH  60  83
ATOM     83  C   UNL A   1      44.418  33.005  27.263  1.00  0.00     0.023 A 
ATOM     84  C   UNL A   1      44.349  34.165  28.030  1.00  0.00     0.031 A 
ATOM     85  C   UNL A   1      44.153  33.194  25.878  1.00  0.00     0.131 A 
ATOM     86  C   UNL A   1      43.912  35.381  27.489  1.00  0.00     0.055 A 
ATOM     87  C   UNL A   1      43.850  34.435  25.312  1.00  0.00     0.041 A 
ATOM     88  F   UNL A   1      44.189  32.196  24.984  1.00  0.00    -0.206 F 
ATOM     89  C   UNL A   1      43.691  35.538  26.128  1.00  0.00     0.022 A 
BRANCH  86  90
ATOM     90  S   UNL A   1      43.542  36.702  28.659  1.00  0.00     0.124 S 
ATOM     91  O   UNL A   1      43.156  35.944  29.848  1.00  0.00    -0.237 OA
ATOM     92  O   UNL A   1      44.818  37.405  28.748  1.00  0.00    -0.237 OA
ATOM     93  O   UNL A   1      42.462  37.440  28.012  1.00  0.00    -0.744 OA
ENDBRANCH  86  90
ENDBRANCH  60  83
ENDBRANCH  34  35
ENDBRANCH  26  29
ENDBRANCH  24  25
ENDBRANCH  23  24
ENDBRANCH   1  23
TORSDOF 17
ENDMDL
