MODEL 1
REMARK VINA RESULT:     -11.7      0.000      0.000
REMARK SMILES C[C@H]1CC[C@@](NC(=O)N[C@H]2CCOC2)(C(=O)NCCCCNC(=O)c2ccc(-c3c4nc(c(-c5cc(S(=O)(=O)[O-])ccc5F)c5ccc([nH]5)c(-c5cc(S(=O)(=O)[O-])ccc5F)c5nc(c(-c6cc(S(=O)(=O)[O-])ccc6F)c6ccc3[nH]6)C=C5)C=C4)cc2)CC1
REMARK SMILES IDX 20 1 19 2 18 3 17 4 15 5 16 6 5 8 1 9 2 10 89 11 3 12 88 13
REMARK SMILES IDX 4 14 6 15 7 16 8 18 9 19 10 21 11 22 14 23 12 24 13 25 21 26
REMARK SMILES IDX 22 27 23 28 24 30 25 31 26 32 87 33 27 34 86 35 28 36 29 37
REMARK SMILES IDX 30 38 80 39 31 40 85 41 79 42 81 43 32 44 84 45 78 46 77 47
REMARK SMILES IDX 33 49 65 50 45 51 64 52 46 53 49 54 63 55 82 56 47 57 48 58
REMARK SMILES IDX 62 60 83 61 50 62 34 63 35 64 43 65 36 66 42 67 44 68 41 69
REMARK SMILES IDX 37 70 38 71 39 72 40 73 66 74 67 75 75 76 68 77 74 78 76 79
REMARK SMILES IDX 73 80 69 81 70 82 71 83 72 84 51 85 52 86 60 87 53 88 59 89
REMARK SMILES IDX 61 90 58 91 54 92 55 93 56 94 57 95
REMARK H PARENT 17 7 6 17 9 20 22 29 81 48 49 59
REMARK Flexibility Score: inf
ROOT
ATOM      1  C   UNL A   1      32.634  29.052  25.815  1.00  0.00     0.023 C 
ENDROOT
BRANCH   1   2
ATOM      2  C   UNL A   1      31.738  28.652  26.990  1.00  0.00     0.023 C 
BRANCH   2   3
ATOM      3  C   UNL A   1      31.311  27.189  26.968  1.00  0.00     0.116 C 
BRANCH   3   4
ATOM      4  N   UNL A   1      32.386  26.342  26.493  1.00  0.00    -0.354 N 
ATOM      5  C   UNL A   1      32.383  25.355  25.554  1.00  0.00     0.245 C 
ATOM      6  O   UNL A   1      33.474  24.822  25.330  1.00  0.00    -0.272 OA
ATOM      7  H   UNL A   1      33.260  26.505  26.917  1.00  0.00     0.163 HD
BRANCH   5   8
ATOM      8  C   UNL A   1      31.057  24.839  24.917  1.00  0.00     0.120 C 
ATOM      9  C   UNL A   1      32.890  26.717  21.566  1.00  0.00     0.007 C 
ATOM     10  C   UNL A   1      31.773  25.848  22.159  1.00  0.00    -0.014 C 
ATOM     11  C   UNL A   1      30.927  26.695  23.126  1.00  0.00     0.006 C 
ATOM     12  C   UNL A   1      32.382  24.570  22.752  1.00  0.00     0.006 C 
ATOM     13  C   UNL A   1      30.202  25.915  24.221  1.00  0.00     0.039 C 
ATOM     14  C   UNL A   1      31.479  23.875  23.771  1.00  0.00     0.039 C 
BRANCH   8  15
ATOM     15  N   UNL A   1      30.217  24.104  25.894  1.00  0.00    -0.324 N 
ATOM     16  C   UNL A   1      30.388  23.101  26.761  1.00  0.00     0.315 C 
ATOM     17  H   UNL A   1      29.293  24.444  25.906  1.00  0.00     0.166 HD
ATOM     18  O   UNL A   1      29.522  22.981  27.633  1.00  0.00    -0.249 OA
ATOM     19  N   UNL A   1      31.380  22.211  26.768  1.00  0.00    -0.333 N 
ATOM     20  H   UNL A   1      31.377  21.661  27.585  1.00  0.00     0.165 HD
BRANCH  19  21
ATOM     21  C   UNL A   1      32.465  21.848  25.875  1.00  0.00     0.112 C 
ATOM     22  C   UNL A   1      33.773  21.528  26.564  1.00  0.00     0.056 C 
ATOM     23  C   UNL A   1      32.245  20.563  25.075  1.00  0.00     0.185 C 
ATOM     24  C   UNL A   1      34.524  20.857  25.434  1.00  0.00     0.162 C 
ATOM     25  O   UNL A   1      33.553  20.067  24.733  1.00  0.00    -0.379 OA
ENDBRANCH  19  21
ENDBRANCH   8  15
ENDBRANCH   5   8
ENDBRANCH   3   4
ENDBRANCH   2   3
ENDBRANCH   1   2
BRANCH   1  26
ATOM     26  C   UNL A   1      33.981  29.638  26.229  1.00  0.00     0.116 C 
BRANCH  26  27
ATOM     27  N   UNL A   1      33.822  30.933  26.872  1.00  0.00    -0.352 N 
ATOM     28  C   UNL A   1      34.480  31.433  27.966  1.00  0.00     0.251 C 
ATOM     29  H   UNL A   1      33.153  31.530  26.466  1.00  0.00     0.163 HD
ATOM     30  O   UNL A   1      34.023  32.409  28.562  1.00  0.00    -0.269 OA
BRANCH  28  31
ATOM     31  C   UNL A   1      35.728  30.792  28.425  1.00  0.00     0.039 A 
ATOM     32  C   UNL A   1      36.951  31.212  27.898  1.00  0.00     0.014 A 
ATOM     33  C   UNL A   1      35.682  29.759  29.368  1.00  0.00     0.014 A 
ATOM     34  C   UNL A   1      38.135  30.633  28.360  1.00  0.00     0.010 A 
ATOM     35  C   UNL A   1      36.865  29.232  29.875  1.00  0.00     0.010 A 
ATOM     36  C   UNL A   1      38.103  29.656  29.369  1.00  0.00    -0.014 A 
BRANCH  36  37
ATOM     37  C   UNL A   1      39.351  29.044  29.892  1.00  0.00     0.031 A 
ATOM     38  C   UNL A   1      40.036  29.651  31.087  1.00  0.00     0.074 A 
ATOM     39  C   UNL A   1      39.898  27.991  29.256  1.00  0.00     0.049 A 
ATOM     40  N   UNL A   1      41.174  29.326  31.643  1.00  0.00    -0.248 NA
ATOM     41  C   UNL A   1      39.363  30.796  31.717  1.00  0.00     0.031 C 
ATOM     42  C   UNL A   1      39.346  27.343  28.064  1.00  0.00     0.029 A 
ATOM     43  N   UNL A   1      41.048  27.288  29.513  1.00  0.00    -0.354 N 
ATOM     44  C   UNL A   1      41.362  30.236  32.679  1.00  0.00     0.074 A 
ATOM     45  C   UNL A   1      40.249  31.159  32.632  1.00  0.00     0.031 C 
ATOM     46  C   UNL A   1      40.149  26.329  27.704  1.00  0.00     0.029 A 
ATOM     47  C   UNL A   1      41.292  26.278  28.611  1.00  0.00     0.049 A 
ATOM     48  H   UNL A   1      41.643  27.488  30.271  1.00  0.00     0.167 HD
ATOM     49  C   UNL A   1      42.360  30.283  33.597  1.00  0.00     0.034 A 
ATOM     50  C   UNL A   1      42.325  25.418  28.519  1.00  0.00     0.034 A 
ATOM     51  C   UNL A   1      43.455  29.344  33.637  1.00  0.00     0.049 A 
ATOM     52  C   UNL A   1      43.428  25.495  29.544  1.00  0.00     0.074 A 
ATOM     53  C   UNL A   1      44.489  29.261  34.553  1.00  0.00     0.029 A 
ATOM     54  N   UNL A   1      43.662  28.324  32.715  1.00  0.00    -0.354 N 
ATOM     55  N   UNL A   1      43.568  26.331  30.546  1.00  0.00    -0.248 NA
ATOM     56  C   UNL A   1      44.506  24.504  29.429  1.00  0.00     0.031 C 
ATOM     57  C   UNL A   1      45.351  28.233  34.153  1.00  0.00     0.029 A 
ATOM     58  C   UNL A   1      44.820  27.627  33.026  1.00  0.00     0.049 A 
ATOM     59  H   UNL A   1      43.073  28.127  31.952  1.00  0.00     0.167 HD
ATOM     60  C   UNL A   1      44.736  25.946  31.200  1.00  0.00     0.074 A 
ATOM     61  C   UNL A   1      45.252  24.796  30.484  1.00  0.00     0.031 C 
ATOM     62  C   UNL A   1      45.326  26.490  32.294  1.00  0.00     0.034 A 
BRANCH  49  63
ATOM     63  C   UNL A   1      42.318  31.401  34.609  1.00  0.00     0.023 A 
ATOM     64  C   UNL A   1      41.346  31.440  35.626  1.00  0.00     0.031 A 
ATOM     65  C   UNL A   1      43.238  32.462  34.539  1.00  0.00     0.131 A 
ATOM     66  C   UNL A   1      41.266  32.553  36.477  1.00  0.00     0.055 A 
ATOM     67  C   UNL A   1      43.203  33.527  35.442  1.00  0.00     0.041 A 
ATOM     68  F   UNL A   1      44.176  32.492  33.580  1.00  0.00    -0.206 F 
ATOM     69  C   UNL A   1      42.203  33.585  36.408  1.00  0.00     0.022 A 
BRANCH  66  70
ATOM     70  S   UNL A   1      39.831  32.698  37.577  1.00  0.00     0.124 S 
ATOM     71  O   UNL A   1      40.455  32.586  38.893  1.00  0.00    -0.237 OA
ATOM     72  O   UNL A   1      39.298  34.010  37.231  1.00  0.00    -0.237 OA
ATOM     73  O   UNL A   1      38.991  31.563  37.196  1.00  0.00    -0.744 OA
ENDBRANCH  66  70
ENDBRANCH  49  63
BRANCH  50  74
ATOM     74  C   UNL A   1      42.375  24.414  27.420  1.00  0.00     0.023 A 
ATOM     75  C   UNL A   1      41.626  23.229  27.488  1.00  0.00     0.031 A 
ATOM     76  C   UNL A   1      43.201  24.610  26.299  1.00  0.00     0.131 A 
ATOM     77  C   UNL A   1      41.751  22.264  26.477  1.00  0.00     0.055 A 
ATOM     78  C   UNL A   1      43.286  23.668  25.273  1.00  0.00     0.041 A 
ATOM     79  F   UNL A   1      43.931  25.730  26.181  1.00  0.00    -0.206 F 
ATOM     80  C   UNL A   1      42.567  22.480  25.364  1.00  0.00     0.022 A 
BRANCH  77  81
ATOM     81  S   UNL A   1      40.884  20.683  26.676  1.00  0.00     0.124 S 
ATOM     82  O   UNL A   1      40.842  20.546  28.127  1.00  0.00    -0.237 OA
ATOM     83  O   UNL A   1      39.609  20.952  26.019  1.00  0.00    -0.237 OA
ATOM     84  O   UNL A   1      41.750  19.732  25.982  1.00  0.00    -0.744 OA
ENDBRANCH  77  81
ENDBRANCH  50  74
BRANCH  62  85
ATOM     85  C   UNL A   1      46.573  25.812  32.804  1.00  0.00     0.023 A 
ATOM     86  C   UNL A   1      47.831  26.037  32.217  1.00  0.00     0.031 A 
ATOM     87  C   UNL A   1      46.496  24.916  33.885  1.00  0.00     0.131 A 
ATOM     88  C   UNL A   1      48.952  25.333  32.680  1.00  0.00     0.055 A 
ATOM     89  C   UNL A   1      47.625  24.260  34.377  1.00  0.00     0.041 A 
ATOM     90  F   UNL A   1      45.319  24.663  34.480  1.00  0.00    -0.206 F 
ATOM     91  C   UNL A   1      48.860  24.458  33.765  1.00  0.00     0.022 A 
BRANCH  88  92
ATOM     92  S   UNL A   1      50.523  25.511  31.789  1.00  0.00     0.124 S 
ATOM     93  O   UNL A   1      50.164  26.447  30.727  1.00  0.00    -0.237 OA
ATOM     94  O   UNL A   1      51.411  26.030  32.823  1.00  0.00    -0.237 OA
ATOM     95  O   UNL A   1      50.820  24.151  31.343  1.00  0.00    -0.744 OA
ENDBRANCH  88  92
ENDBRANCH  62  85
ENDBRANCH  36  37
ENDBRANCH  28  31
ENDBRANCH  26  27
ENDBRANCH   1  26
TORSDOF 16
ENDMDL
MODEL 2
REMARK VINA RESULT:     -11.7      4.755      9.676
REMARK SMILES C[C@H]1CC[C@@](NC(=O)N[C@H]2CCOC2)(C(=O)NCCCCNC(=O)c2ccc(-c3c4nc(c(-c5cc(S(=O)(=O)[O-])ccc5F)c5ccc([nH]5)c(-c5cc(S(=O)(=O)[O-])ccc5F)c5nc(c(-c6cc(S(=O)(=O)[O-])ccc6F)c6ccc3[nH]6)C=C5)C=C4)cc2)CC1
REMARK SMILES IDX 20 1 19 2 18 3 17 4 15 5 16 6 5 8 1 9 2 10 89 11 3 12 88 13
REMARK SMILES IDX 4 14 6 15 7 16 8 18 9 19 10 21 11 22 14 23 12 24 13 25 21 26
REMARK SMILES IDX 22 27 23 28 24 30 25 31 26 32 87 33 27 34 86 35 28 36 29 37
REMARK SMILES IDX 30 38 80 39 31 40 85 41 79 42 81 43 32 44 84 45 78 46 77 47
REMARK SMILES IDX 33 49 65 50 45 51 64 52 46 53 49 54 63 55 82 56 47 57 48 58
REMARK SMILES IDX 62 60 83 61 50 62 34 63 35 64 43 65 36 66 42 67 44 68 41 69
REMARK SMILES IDX 37 70 38 71 39 72 40 73 66 74 67 75 75 76 68 77 74 78 76 79
REMARK SMILES IDX 73 80 69 81 70 82 71 83 72 84 51 85 52 86 60 87 53 88 59 89
REMARK SMILES IDX 61 90 58 91 54 92 55 93 56 94 57 95
REMARK H PARENT 17 7 6 17 9 20 22 29 81 48 49 59
REMARK Flexibility Score: inf
ROOT
ATOM      1  C   UNL A   1      36.899  21.792  24.296  1.00  0.00     0.023 C 
ENDROOT
BRANCH   1   2
ATOM      2  C   UNL A   1      36.691  23.075  23.485  1.00  0.00     0.023 C 
BRANCH   2   3
ATOM      3  C   UNL A   1      35.239  23.330  23.099  1.00  0.00     0.116 C 
BRANCH   3   4
ATOM      4  N   UNL A   1      34.663  24.383  23.911  1.00  0.00    -0.354 N 
ATOM      5  C   UNL A   1      33.366  24.766  24.070  1.00  0.00     0.245 C 
ATOM      6  O   UNL A   1      33.170  25.688  24.867  1.00  0.00    -0.272 OA
ATOM      7  H   UNL A   1      35.315  24.907  24.432  1.00  0.00     0.163 HD
BRANCH   5   8
ATOM      8  C   UNL A   1      32.226  24.172  23.187  1.00  0.00     0.120 C 
ATOM      9  C   UNL A   1      31.095  22.750  27.036  1.00  0.00     0.007 C 
ATOM     10  C   UNL A   1      30.790  22.941  25.545  1.00  0.00    -0.014 C 
ATOM     11  C   UNL A   1      31.798  22.131  24.710  1.00  0.00     0.006 C 
ATOM     12  C   UNL A   1      30.716  24.440  25.227  1.00  0.00     0.006 C 
ATOM     13  C   UNL A   1      32.042  22.646  23.293  1.00  0.00     0.039 C 
ATOM     14  C   UNL A   1      30.900  24.764  23.745  1.00  0.00     0.039 C 
BRANCH   8  15
ATOM     15  N   UNL A   1      32.371  24.549  21.760  1.00  0.00    -0.324 N 
ATOM     16  C   UNL A   1      32.551  25.677  21.066  1.00  0.00     0.315 C 
ATOM     17  H   UNL A   1      32.322  23.762  21.170  1.00  0.00     0.166 HD
ATOM     18  O   UNL A   1      32.946  25.546  19.903  1.00  0.00    -0.249 OA
ATOM     19  N   UNL A   1      32.331  26.921  21.493  1.00  0.00    -0.333 N 
ATOM     20  H   UNL A   1      32.674  27.594  20.861  1.00  0.00     0.165 HD
BRANCH  19  21
ATOM     21  C   UNL A   1      31.713  27.534  22.654  1.00  0.00     0.112 C 
ATOM     22  C   UNL A   1      32.460  28.723  23.216  1.00  0.00     0.056 C 
ATOM     23  C   UNL A   1      30.338  28.155  22.406  1.00  0.00     0.185 C 
ATOM     24  C   UNL A   1      31.400  29.314  24.120  1.00  0.00     0.162 C 
ATOM     25  O   UNL A   1      30.158  29.163  23.417  1.00  0.00    -0.379 OA
ENDBRANCH  19  21
ENDBRANCH   8  15
ENDBRANCH   5   8
ENDBRANCH   3   4
ENDBRANCH   2   3
ENDBRANCH   1   2
BRANCH   1  26
ATOM     26  C   UNL A   1      37.361  22.030  25.731  1.00  0.00     0.116 C 
BRANCH  26  27
ATOM     27  N   UNL A   1      38.366  21.058  26.133  1.00  0.00    -0.352 N 
ATOM     28  C   UNL A   1      39.666  21.276  26.511  1.00  0.00     0.251 C 
ATOM     29  H   UNL A   1      38.073  20.119  26.134  1.00  0.00     0.163 HD
ATOM     30  O   UNL A   1      40.464  20.339  26.526  1.00  0.00    -0.269 OA
BRANCH  28  31
ATOM     31  C   UNL A   1      40.098  22.636  26.889  1.00  0.00     0.039 A 
ATOM     32  C   UNL A   1      40.976  22.806  27.963  1.00  0.00     0.014 A 
ATOM     33  C   UNL A   1      39.619  23.748  26.186  1.00  0.00     0.014 A 
ATOM     34  C   UNL A   1      41.416  24.088  28.297  1.00  0.00     0.010 A 
ATOM     35  C   UNL A   1      40.111  25.015  26.478  1.00  0.00     0.010 A 
ATOM     36  C   UNL A   1      41.007  25.200  27.543  1.00  0.00    -0.014 A 
BRANCH  36  37
ATOM     37  C   UNL A   1      41.481  26.570  27.864  1.00  0.00     0.031 A 
ATOM     38  C   UNL A   1      42.886  26.977  27.506  1.00  0.00     0.074 A 
ATOM     39  C   UNL A   1      40.676  27.418  28.533  1.00  0.00     0.049 A 
ATOM     40  N   UNL A   1      43.521  28.087  27.776  1.00  0.00    -0.248 NA
ATOM     41  C   UNL A   1      43.689  25.986  26.775  1.00  0.00     0.031 C 
ATOM     42  C   UNL A   1      39.310  27.120  28.968  1.00  0.00     0.029 A 
ATOM     43  N   UNL A   1      40.894  28.697  28.977  1.00  0.00    -0.354 N 
ATOM     44  C   UNL A   1      44.803  27.925  27.263  1.00  0.00     0.074 A 
ATOM     45  C   UNL A   1      44.869  26.585  26.719  1.00  0.00     0.031 C 
ATOM     46  C   UNL A   1      38.807  28.192  29.601  1.00  0.00     0.029 A 
ATOM     47  C   UNL A   1      39.826  29.237  29.655  1.00  0.00     0.049 A 
ATOM     48  H   UNL A   1      41.736  29.183  28.825  1.00  0.00     0.167 HD
ATOM     49  C   UNL A   1      45.824  28.818  27.229  1.00  0.00     0.034 A 
ATOM     50  C   UNL A   1      39.687  30.433  30.259  1.00  0.00     0.034 A 
ATOM     51  C   UNL A   1      45.735  30.155  27.763  1.00  0.00     0.049 A 
ATOM     52  C   UNL A   1      40.838  31.406  30.218  1.00  0.00     0.074 A 
ATOM     53  C   UNL A   1      46.684  31.162  27.734  1.00  0.00     0.029 A 
ATOM     54  N   UNL A   1      44.631  30.673  28.431  1.00  0.00    -0.354 N 
ATOM     55  N   UNL A   1      42.029  31.255  29.687  1.00  0.00    -0.248 NA
ATOM     56  C   UNL A   1      40.620  32.714  30.849  1.00  0.00     0.031 C 
ATOM     57  C   UNL A   1      46.178  32.265  28.433  1.00  0.00     0.029 A 
ATOM     58  C   UNL A   1      44.886  31.973  28.840  1.00  0.00     0.049 A 
ATOM     59  H   UNL A   1      43.790  30.186  28.590  1.00  0.00     0.167 HD
ATOM     60  C   UNL A   1      42.692  32.462  29.895  1.00  0.00     0.074 A 
ATOM     61  C   UNL A   1      41.762  33.331  30.588  1.00  0.00     0.031 C 
ATOM     62  C   UNL A   1      43.952  32.821  29.541  1.00  0.00     0.034 A 
BRANCH  49  63
ATOM     63  C   UNL A   1      47.124  28.360  26.615  1.00  0.00     0.023 A 
ATOM     64  C   UNL A   1      47.307  28.314  25.221  1.00  0.00     0.031 A 
ATOM     65  C   UNL A   1      48.185  27.929  27.431  1.00  0.00     0.131 A 
ATOM     66  C   UNL A   1      48.486  27.775  24.685  1.00  0.00     0.055 A 
ATOM     67  C   UNL A   1      49.389  27.470  26.891  1.00  0.00     0.041 A 
ATOM     68  F   UNL A   1      48.065  27.930  28.767  1.00  0.00    -0.206 F 
ATOM     69  C   UNL A   1      49.539  27.375  25.511  1.00  0.00     0.022 A 
BRANCH  66  70
ATOM     70  S   UNL A   1      48.564  27.469  22.899  1.00  0.00     0.124 S 
ATOM     71  O   UNL A   1      48.453  26.013  22.844  1.00  0.00    -0.237 OA
ATOM     72  O   UNL A   1      47.417  28.217  22.400  1.00  0.00    -0.237 OA
ATOM     73  O   UNL A   1      49.871  28.002  22.517  1.00  0.00    -0.744 OA
ENDBRANCH  66  70
ENDBRANCH  49  63
BRANCH  50  74
ATOM     74  C   UNL A   1      38.420  30.781  30.960  1.00  0.00     0.023 A 
ATOM     75  C   UNL A   1      37.397  31.479  30.300  1.00  0.00     0.031 A 
ATOM     76  C   UNL A   1      38.228  30.451  32.314  1.00  0.00     0.131 A 
ATOM     77  C   UNL A   1      36.246  31.864  31.004  1.00  0.00     0.055 A 
ATOM     78  C   UNL A   1      37.061  30.796  32.997  1.00  0.00     0.041 A 
ATOM     79  F   UNL A   1      39.172  29.777  32.988  1.00  0.00    -0.206 F 
ATOM     80  C   UNL A   1      36.065  31.517  32.345  1.00  0.00     0.022 A 
BRANCH  77  81
ATOM     81  S   UNL A   1      35.015  32.894  30.159  1.00  0.00     0.124 S 
ATOM     82  O   UNL A   1      34.100  33.219  31.247  1.00  0.00    -0.237 OA
ATOM     83  O   UNL A   1      35.835  33.994  29.659  1.00  0.00    -0.237 OA
ATOM     84  O   UNL A   1      34.476  32.006  29.132  1.00  0.00    -0.744 OA
ENDBRANCH  77  81
ENDBRANCH  50  74
BRANCH  62  85
ATOM     85  C   UNL A   1      44.373  34.233  29.862  1.00  0.00     0.023 A 
ATOM     86  C   UNL A   1      44.169  35.290  28.956  1.00  0.00     0.031 A 
ATOM     87  C   UNL A   1      45.001  34.521  31.086  1.00  0.00     0.131 A 
ATOM     88  C   UNL A   1      44.638  36.575  29.267  1.00  0.00     0.055 A 
ATOM     89  C   UNL A   1      45.416  35.813  31.413  1.00  0.00     0.041 A 
ATOM     90  F   UNL A   1      45.222  33.549  31.986  1.00  0.00    -0.206 F 
ATOM     91  C   UNL A   1      45.247  36.845  30.496  1.00  0.00     0.022 A 
BRANCH  88  92
ATOM     92  S   UNL A   1      44.520  37.875  28.007  1.00  0.00     0.124 S 
ATOM     93  O   UNL A   1      43.166  37.681  27.498  1.00  0.00    -0.237 OA
ATOM     94  O   UNL A   1      44.740  39.088  28.788  1.00  0.00    -0.237 OA
ATOM     95  O   UNL A   1      45.589  37.540  27.068  1.00  0.00    -0.744 OA
ENDBRANCH  88  92
ENDBRANCH  62  85
ENDBRANCH  36  37
ENDBRANCH  28  31
ENDBRANCH  26  27
ENDBRANCH   1  26
TORSDOF 16
ENDMDL
MODEL 3
REMARK VINA RESULT:     -11.7      1.426      1.724
REMARK SMILES C[C@H]1CC[C@@](NC(=O)N[C@H]2CCOC2)(C(=O)NCCCCNC(=O)c2ccc(-c3c4nc(c(-c5cc(S(=O)(=O)[O-])ccc5F)c5ccc([nH]5)c(-c5cc(S(=O)(=O)[O-])ccc5F)c5nc(c(-c6cc(S(=O)(=O)[O-])ccc6F)c6ccc3[nH]6)C=C5)C=C4)cc2)CC1
REMARK SMILES IDX 20 1 19 2 18 3 17 4 15 5 16 6 5 8 1 9 2 10 89 11 3 12 88 13
REMARK SMILES IDX 4 14 6 15 7 16 8 18 9 19 10 21 11 22 14 23 12 24 13 25 21 26
REMARK SMILES IDX 22 27 23 28 24 30 25 31 26 32 87 33 27 34 86 35 28 36 29 37
REMARK SMILES IDX 30 38 80 39 31 40 85 41 79 42 81 43 32 44 84 45 78 46 77 47
REMARK SMILES IDX 33 49 65 50 45 51 64 52 46 53 49 54 63 55 82 56 47 57 48 58
REMARK SMILES IDX 62 60 83 61 50 62 34 63 35 64 43 65 36 66 42 67 44 68 41 69
REMARK SMILES IDX 37 70 38 71 39 72 40 73 66 74 67 75 75 76 68 77 74 78 76 79
REMARK SMILES IDX 73 80 69 81 70 82 71 83 72 84 51 85 52 86 60 87 53 88 59 89
REMARK SMILES IDX 61 90 58 91 54 92 55 93 56 94 57 95
REMARK H PARENT 17 7 6 17 9 20 22 29 81 48 49 59
REMARK Flexibility Score: inf
ROOT
ATOM      1  C   UNL A   1      33.312  28.361  27.150  1.00  0.00     0.023 C 
ENDROOT
BRANCH   1   2
ATOM      2  C   UNL A   1      31.795  28.448  27.343  1.00  0.00     0.023 C 
BRANCH   2   3
ATOM      3  C   UNL A   1      31.053  27.169  26.973  1.00  0.00     0.116 C 
BRANCH   3   4
ATOM      4  N   UNL A   1      30.530  27.244  25.623  1.00  0.00    -0.354 N 
ATOM      5  C   UNL A   1      30.381  26.273  24.680  1.00  0.00     0.245 C 
ATOM      6  O   UNL A   1      29.867  26.632  23.616  1.00  0.00    -0.272 OA
ATOM      7  H   UNL A   1      30.236  28.141  25.343  1.00  0.00     0.163 HD
BRANCH   5   8
ATOM      8  C   UNL A   1      30.961  24.841  24.884  1.00  0.00     0.120 C 
ATOM      9  C   UNL A   1      33.595  26.368  21.910  1.00  0.00     0.007 C 
ATOM     10  C   UNL A   1      33.214  25.273  22.915  1.00  0.00    -0.014 C 
ATOM     11  C   UNL A   1      31.886  24.625  22.483  1.00  0.00     0.006 C 
ATOM     12  C   UNL A   1      33.239  25.853  24.336  1.00  0.00     0.006 C 
ATOM     13  C   UNL A   1      31.069  23.989  23.605  1.00  0.00     0.039 C 
ATOM     14  C   UNL A   1      32.434  25.038  25.347  1.00  0.00     0.039 C 
BRANCH   8  15
ATOM     15  N   UNL A   1      30.219  24.079  25.918  1.00  0.00    -0.324 N 
ATOM     16  C   UNL A   1      30.476  23.064  26.749  1.00  0.00     0.315 C 
ATOM     17  H   UNL A   1      29.297  24.408  26.019  1.00  0.00     0.166 HD
ATOM     18  O   UNL A   1      29.692  22.920  27.693  1.00  0.00    -0.249 OA
ATOM     19  N   UNL A   1      31.474  22.186  26.652  1.00  0.00    -0.333 N 
ATOM     20  H   UNL A   1      31.549  21.622  27.456  1.00  0.00     0.165 HD
BRANCH  19  21
ATOM     21  C   UNL A   1      32.479  21.850  25.660  1.00  0.00     0.112 C 
ATOM     22  C   UNL A   1      33.850  21.551  26.223  1.00  0.00     0.056 C 
ATOM     23  C   UNL A   1      32.210  20.567  24.872  1.00  0.00     0.185 C 
ATOM     24  C   UNL A   1      34.507  20.903  25.024  1.00  0.00     0.162 C 
ATOM     25  O   UNL A   1      33.490  20.100  24.408  1.00  0.00    -0.379 OA
ENDBRANCH  19  21
ENDBRANCH   8  15
ENDBRANCH   5   8
ENDBRANCH   3   4
ENDBRANCH   2   3
ENDBRANCH   1   2
BRANCH   1  26
ATOM     26  C   UNL A   1      33.886  29.436  26.232  1.00  0.00     0.116 C 
BRANCH  26  27
ATOM     27  N   UNL A   1      33.748  30.761  26.815  1.00  0.00    -0.352 N 
ATOM     28  C   UNL A   1      34.428  31.306  27.874  1.00  0.00     0.251 C 
ATOM     29  H   UNL A   1      33.077  31.345  26.393  1.00  0.00     0.163 HD
ATOM     30  O   UNL A   1      33.989  32.312  28.432  1.00  0.00    -0.269 OA
BRANCH  28  31
ATOM     31  C   UNL A   1      35.679  30.675  28.341  1.00  0.00     0.039 A 
ATOM     32  C   UNL A   1      36.873  30.929  27.662  1.00  0.00     0.014 A 
ATOM     33  C   UNL A   1      35.664  29.818  29.447  1.00  0.00     0.014 A 
ATOM     34  C   UNL A   1      38.063  30.364  28.126  1.00  0.00     0.010 A 
ATOM     35  C   UNL A   1      36.859  29.312  29.946  1.00  0.00     0.010 A 
ATOM     36  C   UNL A   1      38.069  29.571  29.285  1.00  0.00    -0.014 A 
BRANCH  36  37
ATOM     37  C   UNL A   1      39.326  28.981  29.811  1.00  0.00     0.031 A 
ATOM     38  C   UNL A   1      40.003  29.604  31.003  1.00  0.00     0.074 A 
ATOM     39  C   UNL A   1      39.889  27.933  29.180  1.00  0.00     0.049 A 
ATOM     40  N   UNL A   1      41.146  29.299  31.559  1.00  0.00    -0.248 NA
ATOM     41  C   UNL A   1      39.313  30.742  31.628  1.00  0.00     0.031 C 
ATOM     42  C   UNL A   1      39.346  27.271  27.992  1.00  0.00     0.029 A 
ATOM     43  N   UNL A   1      41.049  27.248  29.439  1.00  0.00    -0.354 N 
ATOM     44  C   UNL A   1      41.321  30.216  32.590  1.00  0.00     0.074 A 
ATOM     45  C   UNL A   1      40.194  31.123  32.539  1.00  0.00     0.031 C 
ATOM     46  C   UNL A   1      40.164  26.267  27.636  1.00  0.00     0.029 A 
ATOM     47  C   UNL A   1      41.308  26.238  28.542  1.00  0.00     0.049 A 
ATOM     48  H   UNL A   1      41.642  27.461  30.196  1.00  0.00     0.167 HD
ATOM     49  C   UNL A   1      42.319  30.283  33.507  1.00  0.00     0.034 A 
ATOM     50  C   UNL A   1      42.353  25.393  28.454  1.00  0.00     0.034 A 
ATOM     51  C   UNL A   1      43.428  29.360  33.552  1.00  0.00     0.049 A 
ATOM     52  C   UNL A   1      43.456  25.491  29.477  1.00  0.00     0.074 A 
ATOM     53  C   UNL A   1      44.464  29.298  34.468  1.00  0.00     0.029 A 
ATOM     54  N   UNL A   1      43.650  28.340  32.634  1.00  0.00    -0.354 N 
ATOM     55  N   UNL A   1      43.584  26.334  30.475  1.00  0.00    -0.248 NA
ATOM     56  C   UNL A   1      44.548  24.516  29.367  1.00  0.00     0.031 C 
ATOM     57  C   UNL A   1      45.340  28.281  34.072  1.00  0.00     0.029 A 
ATOM     58  C   UNL A   1      44.818  27.661  32.948  1.00  0.00     0.049 A 
ATOM     59  H   UNL A   1      43.063  28.129  31.873  1.00  0.00     0.167 HD
ATOM     60  C   UNL A   1      44.758  25.971  31.130  1.00  0.00     0.074 A 
ATOM     61  C   UNL A   1      45.291  24.825  30.420  1.00  0.00     0.031 C 
ATOM     62  C   UNL A   1      45.340  26.529  32.221  1.00  0.00     0.034 A 
BRANCH  49  63
ATOM     63  C   UNL A   1      42.260  31.405  34.514  1.00  0.00     0.023 A 
ATOM     64  C   UNL A   1      41.310  31.418  35.551  1.00  0.00     0.031 A 
ATOM     65  C   UNL A   1      43.142  32.496  34.419  1.00  0.00     0.131 A 
ATOM     66  C   UNL A   1      41.210  32.532  36.398  1.00  0.00     0.055 A 
ATOM     67  C   UNL A   1      43.091  33.565  35.316  1.00  0.00     0.041 A 
ATOM     68  F   UNL A   1      44.058  32.552  33.439  1.00  0.00    -0.206 F 
ATOM     69  C   UNL A   1      42.110  33.595  36.303  1.00  0.00     0.022 A 
BRANCH  66  70
ATOM     70  S   UNL A   1      39.795  32.636  37.528  1.00  0.00     0.124 S 
ATOM     71  O   UNL A   1      40.440  32.454  38.826  1.00  0.00    -0.237 OA
ATOM     72  O   UNL A   1      39.269  33.968  37.256  1.00  0.00    -0.237 OA
ATOM     73  O   UNL A   1      38.938  31.529  37.106  1.00  0.00    -0.744 OA
ENDBRANCH  66  70
ENDBRANCH  49  63
BRANCH  50  74
ATOM     74  C   UNL A   1      42.418  24.384  27.360  1.00  0.00     0.023 A 
ATOM     75  C   UNL A   1      41.634  23.221  27.402  1.00  0.00     0.031 A 
ATOM     76  C   UNL A   1      43.293  24.553  26.272  1.00  0.00     0.131 A 
ATOM     77  C   UNL A   1      41.770  22.250  26.398  1.00  0.00     0.055 A 
ATOM     78  C   UNL A   1      43.391  23.605  25.252  1.00  0.00     0.041 A 
ATOM     79  F   UNL A   1      44.058  25.651  26.180  1.00  0.00    -0.206 F 
ATOM     80  C   UNL A   1      42.635  22.438  25.318  1.00  0.00     0.022 A 
BRANCH  77  81
ATOM     81  S   UNL A   1      40.852  20.694  26.566  1.00  0.00     0.124 S 
ATOM     82  O   UNL A   1      41.652  19.786  25.751  1.00  0.00    -0.237 OA
ATOM     83  O   UNL A   1      40.896  20.472  28.007  1.00  0.00    -0.237 OA
ATOM     84  O   UNL A   1      39.533  21.018  26.029  1.00  0.00    -0.744 OA
ENDBRANCH  77  81
ENDBRANCH  50  74
BRANCH  62  85
ATOM     85  C   UNL A   1      46.597  25.871  32.734  1.00  0.00     0.023 A 
ATOM     86  C   UNL A   1      46.556  24.839  33.689  1.00  0.00     0.031 A 
ATOM     87  C   UNL A   1      47.855  26.295  32.270  1.00  0.00     0.131 A 
ATOM     88  C   UNL A   1      47.753  24.304  34.188  1.00  0.00     0.055 A 
ATOM     89  C   UNL A   1      49.040  25.719  32.730  1.00  0.00     0.041 A 
ATOM     90  F   UNL A   1      47.951  27.278  31.359  1.00  0.00    -0.206 F 
ATOM     91  C   UNL A   1      48.993  24.727  33.704  1.00  0.00     0.022 A 
BRANCH  88  92
ATOM     92  S   UNL A   1      47.670  23.102  35.546  1.00  0.00     0.124 S 
ATOM     93  O   UNL A   1      48.357  21.949  34.972  1.00  0.00    -0.237 OA
ATOM     94  O   UNL A   1      48.374  23.795  36.619  1.00  0.00    -0.237 OA
ATOM     95  O   UNL A   1      46.235  22.926  35.760  1.00  0.00    -0.744 OA
ENDBRANCH  88  92
ENDBRANCH  62  85
ENDBRANCH  36  37
ENDBRANCH  28  31
ENDBRANCH  26  27
ENDBRANCH   1  26
TORSDOF 16
ENDMDL
