MODEL 1
REMARK VINA RESULT:     -13.0      0.000      0.000
REMARK SMILES Cc1c(C)c2c(c(C)c1O)CC[C@@](C)(C(=O)NCCCCNC(=O)c1ccc(-c3c4nc(c(-c5cc(S(=O)(=O)[O-])ccc5F)c5ccc([nH]5)c(-c5cc(S(=O)(=O)[O-])ccc5F)c5nc(c(-c6cc(S(=O)(=O)[O-])ccc6F)c6ccc3[nH]6)C=C5)C=C4)cc1)O2
REMARK SMILES IDX 20 1 19 2 18 3 17 4 15 5 16 6 13 8 1 9 2 10 3 11 9 12 4 13
REMARK SMILES IDX 5 14 7 15 6 16 88 17 8 18 11 19 12 20 14 21 10 22 21 24
REMARK SMILES IDX 22 25 23 26 24 28 25 29 26 30 87 31 27 32 86 33 28 34 29 35
REMARK SMILES IDX 30 36 80 37 31 38 85 39 79 40 81 41 32 42 84 43 78 44 77 45
REMARK SMILES IDX 33 47 65 48 45 49 64 50 46 51 49 52 63 53 82 54 47 55 48 56
REMARK SMILES IDX 62 58 83 59 50 60 34 61 35 62 43 63 36 64 42 65 44 66 41 67
REMARK SMILES IDX 37 68 38 69 39 70 40 71 66 72 67 73 75 74 68 75 74 76 76 77
REMARK SMILES IDX 73 78 69 79 70 80 71 81 72 82 51 83 52 84 60 85 53 86 59 87
REMARK SMILES IDX 61 88 58 89 54 90 55 91 56 92 57 93
REMARK H PARENT 17 7 10 23 22 27 81 46 49 57
REMARK Flexibility Score: inf
ROOT
ATOM      1  C   UNL A   1      31.679  28.925  24.841  1.00  0.00     0.023 C 
ENDROOT
BRANCH   1   2
ATOM      2  C   UNL A   1      31.943  28.825  23.341  1.00  0.00     0.023 C 
BRANCH   2   3
ATOM      3  C   UNL A   1      33.309  28.255  22.969  1.00  0.00     0.116 C 
BRANCH   3   4
ATOM      4  N   UNL A   1      33.236  27.330  21.850  1.00  0.00    -0.353 N 
ATOM      5  C   UNL A   1      33.101  25.966  21.805  1.00  0.00     0.263 C 
ATOM      6  O   UNL A   1      33.058  25.456  20.682  1.00  0.00    -0.270 OA
ATOM      7  H   UNL A   1      33.293  27.760  20.965  1.00  0.00     0.163 HD
BRANCH   5   8
ATOM      8  C   UNL A   1      32.991  25.117  23.107  1.00  0.00     0.184 C 
ATOM      9  C   UNL A   1      32.273  19.141  24.392  1.00  0.00     0.049 C 
ATOM     10  C   UNL A   1      32.768  20.552  24.586  1.00  0.00    -0.002 A 
ATOM     11  C   UNL A   1      32.732  21.497  23.533  1.00  0.00    -0.002 A 
ATOM     12  C   UNL A   1      33.271  20.951  25.843  1.00  0.00     0.122 A 
ATOM     13  C   UNL A   1      32.206  21.118  22.170  1.00  0.00     0.049 C 
ATOM     14  C   UNL A   1      33.161  22.817  23.778  1.00  0.00     0.127 A 
ATOM     15  C   UNL A   1      33.718  22.258  26.084  1.00  0.00    -0.002 A 
ATOM     16  C   UNL A   1      33.682  23.192  25.030  1.00  0.00     0.001 A 
ATOM     17  O   UNL A   1      33.030  23.717  22.741  1.00  0.00    -0.477 OA
ATOM     18  C   UNL A   1      34.234  22.668  27.441  1.00  0.00     0.049 C 
ATOM     19  C   UNL A   1      34.156  24.599  25.262  1.00  0.00     0.044 C 
ATOM     20  C   UNL A   1      34.228  25.380  23.970  1.00  0.00     0.063 C 
ATOM     21  C   UNL A   1      31.603  25.373  23.728  1.00  0.00     0.067 C 
BRANCH  12  22
ATOM     22  O   UNL A   1      33.338  20.074  26.896  1.00  0.00    -0.507 OA
ATOM     23  H   UNL A   1      34.045  20.129  27.508  1.00  0.00     0.293 HD
ENDBRANCH  12  22
ENDBRANCH   5   8
ENDBRANCH   3   4
ENDBRANCH   2   3
ENDBRANCH   1   2
BRANCH   1  24
ATOM     24  C   UNL A   1      32.748  29.661  25.640  1.00  0.00     0.116 C 
BRANCH  24  25
ATOM     25  N   UNL A   1      32.323  30.976  26.099  1.00  0.00    -0.352 N 
ATOM     26  C   UNL A   1      32.920  31.795  27.027  1.00  0.00     0.251 C 
ATOM     27  H   UNL A   1      31.497  31.324  25.691  1.00  0.00     0.163 HD
ATOM     28  O   UNL A   1      32.366  32.831  27.381  1.00  0.00    -0.269 OA
BRANCH  26  29
ATOM     29  C   UNL A   1      34.211  31.390  27.618  1.00  0.00     0.039 A 
ATOM     30  C   UNL A   1      35.184  32.365  27.847  1.00  0.00     0.014 A 
ATOM     31  C   UNL A   1      34.433  30.062  27.994  1.00  0.00     0.014 A 
ATOM     32  C   UNL A   1      36.354  32.021  28.525  1.00  0.00     0.010 A 
ATOM     33  C   UNL A   1      35.569  29.736  28.727  1.00  0.00     0.010 A 
ATOM     34  C   UNL A   1      36.536  30.714  29.005  1.00  0.00    -0.014 A 
BRANCH  34  35
ATOM     35  C   UNL A   1      37.739  30.347  29.793  1.00  0.00     0.031 A 
ATOM     36  C   UNL A   1      38.786  29.457  29.185  1.00  0.00     0.074 A 
ATOM     37  C   UNL A   1      37.860  30.772  31.067  1.00  0.00     0.049 A 
ATOM     38  N   UNL A   1      39.859  28.951  29.736  1.00  0.00    -0.248 NA
ATOM     39  C   UNL A   1      38.587  29.066  27.781  1.00  0.00     0.031 C 
ATOM     40  C   UNL A   1      36.895  31.618  31.773  1.00  0.00     0.029 A 
ATOM     41  N   UNL A   1      38.847  30.552  31.994  1.00  0.00    -0.354 N 
ATOM     42  C   UNL A   1      40.457  28.174  28.751  1.00  0.00     0.074 A 
ATOM     43  C   UNL A   1      39.600  28.236  27.585  1.00  0.00     0.031 C 
ATOM     44  C   UNL A   1      37.354  31.870  33.010  1.00  0.00     0.029 A 
ATOM     45  C   UNL A   1      38.622  31.173  33.200  1.00  0.00     0.049 A 
ATOM     46  H   UNL A   1      39.641  29.999  31.813  1.00  0.00     0.167 HD
ATOM     47  C   UNL A   1      41.625  27.491  28.805  1.00  0.00     0.034 A 
ATOM     48  C   UNL A   1      39.353  31.175  34.332  1.00  0.00     0.034 A 
ATOM     49  C   UNL A   1      42.484  27.458  29.960  1.00  0.00     0.049 A 
ATOM     50  C   UNL A   1      40.638  30.392  34.375  1.00  0.00     0.074 A 
ATOM     51  C   UNL A   1      43.707  26.829  30.104  1.00  0.00     0.029 A 
ATOM     52  N   UNL A   1      42.213  28.087  31.166  1.00  0.00    -0.354 N 
ATOM     53  N   UNL A   1      41.187  29.661  33.433  1.00  0.00    -0.248 NA
ATOM     54  C   UNL A   1      41.400  30.433  35.630  1.00  0.00     0.031 C 
ATOM     55  C   UNL A   1      44.156  27.039  31.412  1.00  0.00     0.029 A 
ATOM     56  C   UNL A   1      43.238  27.845  32.067  1.00  0.00     0.049 A 
ATOM     57  H   UNL A   1      41.411  28.624  31.356  1.00  0.00     0.167 HD
ATOM     58  C   UNL A   1      42.367  29.168  33.978  1.00  0.00     0.074 A 
ATOM     59  C   UNL A   1      42.455  29.689  35.327  1.00  0.00     0.031 C 
ATOM     60  C   UNL A   1      43.298  28.361  33.411  1.00  0.00     0.034 A 
BRANCH  47  61
ATOM     61  C   UNL A   1      42.033  26.719  27.579  1.00  0.00     0.023 A 
ATOM     62  C   UNL A   1      41.790  25.340  27.470  1.00  0.00     0.031 A 
ATOM     63  C   UNL A   1      42.673  27.369  26.510  1.00  0.00     0.131 A 
ATOM     64  C   UNL A   1      42.231  24.643  26.337  1.00  0.00     0.055 A 
ATOM     65  C   UNL A   1      43.052  26.681  25.357  1.00  0.00     0.041 A 
ATOM     66  F   UNL A   1      42.946  28.682  26.574  1.00  0.00    -0.206 F 
ATOM     67  C   UNL A   1      42.839  25.307  25.269  1.00  0.00     0.022 A 
BRANCH  64  68
ATOM     68  S   UNL A   1      42.071  22.837  26.310  1.00  0.00     0.124 S 
ATOM     69  O   UNL A   1      42.622  22.516  24.995  1.00  0.00    -0.237 OA
ATOM     70  O   UNL A   1      42.875  22.427  27.455  1.00  0.00    -0.237 OA
ATOM     71  O   UNL A   1      40.632  22.619  26.447  1.00  0.00    -0.744 OA
ENDBRANCH  64  68
ENDBRANCH  47  61
BRANCH  48  72
ATOM     72  C   UNL A   1      38.887  31.937  35.523  1.00  0.00     0.023 A 
ATOM     73  C   UNL A   1      38.240  31.286  36.583  1.00  0.00     0.031 A 
ATOM     74  C   UNL A   1      39.071  33.328  35.609  1.00  0.00     0.131 A 
ATOM     75  C   UNL A   1      37.773  32.031  37.677  1.00  0.00     0.055 A 
ATOM     76  C   UNL A   1      38.634  34.060  36.715  1.00  0.00     0.041 A 
ATOM     77  F   UNL A   1      39.694  33.993  34.623  1.00  0.00    -0.206 F 
ATOM     78  C   UNL A   1      37.975  33.411  37.755  1.00  0.00     0.022 A 
BRANCH  75  79
ATOM     79  S   UNL A   1      36.866  31.171  38.991  1.00  0.00     0.124 S 
ATOM     80  O   UNL A   1      35.657  31.980  39.096  1.00  0.00    -0.237 OA
ATOM     81  O   UNL A   1      36.698  29.837  38.424  1.00  0.00    -0.237 OA
ATOM     82  O   UNL A   1      37.772  31.247  40.136  1.00  0.00    -0.744 OA
ENDBRANCH  75  79
ENDBRANCH  48  72
BRANCH  60  83
ATOM     83  C   UNL A   1      44.503  28.012  34.241  1.00  0.00     0.023 A 
ATOM     84  C   UNL A   1      44.536  26.852  35.030  1.00  0.00     0.031 A 
ATOM     85  C   UNL A   1      45.643  28.834  34.209  1.00  0.00     0.131 A 
ATOM     86  C   UNL A   1      45.682  26.556  35.781  1.00  0.00     0.055 A 
ATOM     87  C   UNL A   1      46.795  28.513  34.926  1.00  0.00     0.041 A 
ATOM     88  F   UNL A   1      45.658  29.952  33.465  1.00  0.00    -0.206 F 
ATOM     89  C   UNL A   1      46.818  27.371  35.722  1.00  0.00     0.022 A 
BRANCH  86  90
ATOM     90  S   UNL A   1      45.667  25.099  36.862  1.00  0.00     0.124 S 
ATOM     91  O   UNL A   1      45.978  24.025  35.924  1.00  0.00    -0.237 OA
ATOM     92  O   UNL A   1      46.709  25.417  37.835  1.00  0.00    -0.237 OA
ATOM     93  O   UNL A   1      44.307  25.083  37.397  1.00  0.00    -0.744 OA
ENDBRANCH  86  90
ENDBRANCH  60  83
ENDBRANCH  34  35
ENDBRANCH  26  29
ENDBRANCH  24  25
ENDBRANCH   1  24
TORSDOF 15
ENDMDL
MODEL 2
REMARK VINA RESULT:     -13.0      5.186     10.324
REMARK SMILES Cc1c(C)c2c(c(C)c1O)CC[C@@](C)(C(=O)NCCCCNC(=O)c1ccc(-c3c4nc(c(-c5cc(S(=O)(=O)[O-])ccc5F)c5ccc([nH]5)c(-c5cc(S(=O)(=O)[O-])ccc5F)c5nc(c(-c6cc(S(=O)(=O)[O-])ccc6F)c6ccc3[nH]6)C=C5)C=C4)cc1)O2
REMARK SMILES IDX 20 1 19 2 18 3 17 4 15 5 16 6 13 8 1 9 2 10 3 11 9 12 4 13
REMARK SMILES IDX 5 14 7 15 6 16 88 17 8 18 11 19 12 20 14 21 10 22 21 24
REMARK SMILES IDX 22 25 23 26 24 28 25 29 26 30 87 31 27 32 86 33 28 34 29 35
REMARK SMILES IDX 30 36 80 37 31 38 85 39 79 40 81 41 32 42 84 43 78 44 77 45
REMARK SMILES IDX 33 47 65 48 45 49 64 50 46 51 49 52 63 53 82 54 47 55 48 56
REMARK SMILES IDX 62 58 83 59 50 60 34 61 35 62 43 63 36 64 42 65 44 66 41 67
REMARK SMILES IDX 37 68 38 69 39 70 40 71 66 72 67 73 75 74 68 75 74 76 76 77
REMARK SMILES IDX 73 78 69 79 70 80 71 81 72 82 51 83 52 84 60 85 53 86 59 87
REMARK SMILES IDX 61 88 58 89 54 90 55 91 56 92 57 93
REMARK H PARENT 17 7 10 23 22 27 81 46 49 57
REMARK Flexibility Score: inf
ROOT
ATOM      1  C   UNL A   1      35.008  21.533  25.058  1.00  0.00     0.023 C 
ENDROOT
BRANCH   1   2
ATOM      2  C   UNL A   1      34.100  21.286  26.259  1.00  0.00     0.023 C 
BRANCH   2   3
ATOM      3  C   UNL A   1      33.806  22.523  27.104  1.00  0.00     0.116 C 
BRANCH   3   4
ATOM      4  N   UNL A   1      32.383  22.713  27.331  1.00  0.00    -0.353 N 
ATOM      5  C   UNL A   1      31.476  23.561  26.748  1.00  0.00     0.263 C 
ATOM      6  O   UNL A   1      30.312  23.479  27.153  1.00  0.00    -0.270 OA
ATOM      7  H   UNL A   1      32.002  22.128  28.025  1.00  0.00     0.163 HD
BRANCH   5   8
ATOM      8  C   UNL A   1      31.897  24.557  25.628  1.00  0.00     0.184 C 
ATOM      9  C   UNL A   1      29.029  28.855  22.282  1.00  0.00     0.049 C 
ATOM     10  C   UNL A   1      30.170  28.210  23.029  1.00  0.00    -0.002 A 
ATOM     11  C   UNL A   1      29.949  27.144  23.933  1.00  0.00    -0.002 A 
ATOM     12  C   UNL A   1      31.490  28.666  22.822  1.00  0.00     0.122 A 
ATOM     13  C   UNL A   1      28.556  26.623  24.191  1.00  0.00     0.049 C 
ATOM     14  C   UNL A   1      31.053  26.542  24.570  1.00  0.00     0.127 A 
ATOM     15  C   UNL A   1      32.587  28.084  23.471  1.00  0.00    -0.002 A 
ATOM     16  C   UNL A   1      32.360  27.025  24.371  1.00  0.00     0.001 A 
ATOM     17  O   UNL A   1      30.789  25.456  25.379  1.00  0.00    -0.477 OA
ATOM     18  C   UNL A   1      33.992  28.575  23.219  1.00  0.00     0.049 C 
ATOM     19  C   UNL A   1      33.520  26.383  25.079  1.00  0.00     0.044 C 
ATOM     20  C   UNL A   1      33.053  25.417  26.143  1.00  0.00     0.063 C 
ATOM     21  C   UNL A   1      32.112  23.752  24.330  1.00  0.00     0.067 C 
BRANCH  12  22
ATOM     22  O   UNL A   1      31.760  29.703  21.965  1.00  0.00    -0.507 OA
ATOM     23  H   UNL A   1      32.254  29.549  21.184  1.00  0.00     0.293 HD
ENDBRANCH  12  22
ENDBRANCH   5   8
ENDBRANCH   3   4
ENDBRANCH   2   3
ENDBRANCH   1   2
BRANCH   1  24
ATOM     24  C   UNL A   1      36.425  21.983  25.396  1.00  0.00     0.116 C 
BRANCH  24  25
ATOM     25  N   UNL A   1      37.379  20.884  25.461  1.00  0.00    -0.352 N 
ATOM     26  C   UNL A   1      38.698  20.914  25.847  1.00  0.00     0.251 C 
ATOM     27  H   UNL A   1      37.033  20.002  25.193  1.00  0.00     0.163 HD
ATOM     28  O   UNL A   1      39.395  19.910  25.737  1.00  0.00    -0.269 OA
BRANCH  26  29
ATOM     29  C   UNL A   1      39.269  22.178  26.353  1.00  0.00     0.039 A 
ATOM     30  C   UNL A   1      40.319  22.124  27.271  1.00  0.00     0.014 A 
ATOM     31  C   UNL A   1      38.803  23.408  25.878  1.00  0.00     0.014 A 
ATOM     32  C   UNL A   1      40.957  23.304  27.656  1.00  0.00     0.010 A 
ATOM     33  C   UNL A   1      39.482  24.576  26.211  1.00  0.00     0.010 A 
ATOM     34  C   UNL A   1      40.568  24.534  27.098  1.00  0.00    -0.014 A 
BRANCH  34  35
ATOM     35  C   UNL A   1      41.282  25.789  27.436  1.00  0.00     0.031 A 
ATOM     36  C   UNL A   1      40.595  26.837  28.267  1.00  0.00     0.074 A 
ATOM     37  C   UNL A   1      42.522  26.006  26.955  1.00  0.00     0.049 A 
ATOM     38  N   UNL A   1      41.011  28.032  28.596  1.00  0.00    -0.248 NA
ATOM     39  C   UNL A   1      39.255  26.503  28.775  1.00  0.00     0.031 C 
ATOM     40  C   UNL A   1      43.280  25.074  26.115  1.00  0.00     0.029 A 
ATOM     41  N   UNL A   1      43.366  27.078  27.102  1.00  0.00    -0.354 N 
ATOM     42  C   UNL A   1      39.981  28.598  29.338  1.00  0.00     0.074 A 
ATOM     43  C   UNL A   1      38.902  27.633  29.369  1.00  0.00     0.031 C 
ATOM     44  C   UNL A   1      44.486  25.602  25.850  1.00  0.00     0.029 A 
ATOM     45  C   UNL A   1      44.574  26.924  26.464  1.00  0.00     0.049 A 
ATOM     46  H   UNL A   1      43.127  27.883  27.616  1.00  0.00     0.167 HD
ATOM     47  C   UNL A   1      39.947  29.801  29.958  1.00  0.00     0.034 A 
ATOM     48  C   UNL A   1      45.630  27.756  26.379  1.00  0.00     0.034 A 
ATOM     49  C   UNL A   1      41.036  30.743  29.944  1.00  0.00     0.049 A 
ATOM     50  C   UNL A   1      45.561  29.097  27.058  1.00  0.00     0.074 A 
ATOM     51  C   UNL A   1      41.118  31.973  30.572  1.00  0.00     0.029 A 
ATOM     52  N   UNL A   1      42.236  30.557  29.273  1.00  0.00    -0.354 N 
ATOM     53  N   UNL A   1      44.577  29.617  27.755  1.00  0.00    -0.248 NA
ATOM     54  C   UNL A   1      46.741  29.964  26.941  1.00  0.00     0.031 C 
ATOM     55  C   UNL A   1      42.349  32.551  30.245  1.00  0.00     0.029 A 
ATOM     56  C   UNL A   1      43.057  31.658  29.457  1.00  0.00     0.049 A 
ATOM     57  H   UNL A   1      42.469  29.761  28.743  1.00  0.00     0.167 HD
ATOM     58  C   UNL A   1      45.027  30.864  28.172  1.00  0.00     0.074 A 
ATOM     59  C   UNL A   1      46.372  31.019  27.655  1.00  0.00     0.031 C 
ATOM     60  C   UNL A   1      44.388  31.798  28.920  1.00  0.00     0.034 A 
BRANCH  47  61
ATOM     61  C   UNL A   1      38.687  30.166  30.694  1.00  0.00     0.023 A 
ATOM     62  C   UNL A   1      37.663  30.899  30.072  1.00  0.00     0.031 A 
ATOM     63  C   UNL A   1      38.508  29.777  32.033  1.00  0.00     0.131 A 
ATOM     64  C   UNL A   1      36.526  31.267  30.804  1.00  0.00     0.055 A 
ATOM     65  C   UNL A   1      37.345  30.091  32.737  1.00  0.00     0.041 A 
ATOM     66  F   UNL A   1      39.465  29.093  32.679  1.00  0.00    -0.206 F 
ATOM     67  C   UNL A   1      36.348  30.848  32.125  1.00  0.00     0.022 A 
BRANCH  64  68
ATOM     68  S   UNL A   1      35.313  32.370  30.031  1.00  0.00     0.124 S 
ATOM     69  O   UNL A   1      36.148  33.513  29.668  1.00  0.00    -0.237 OA
ATOM     70  O   UNL A   1      34.813  31.568  28.920  1.00  0.00    -0.237 OA
ATOM     71  O   UNL A   1      34.350  32.622  31.100  1.00  0.00    -0.744 OA
ENDBRANCH  64  68
ENDBRANCH  47  61
BRANCH  48  72
ATOM     72  C   UNL A   1      46.842  27.352  25.615  1.00  0.00     0.023 A 
ATOM     73  C   UNL A   1      47.041  27.794  24.299  1.00  0.00     0.031 A 
ATOM     74  C   UNL A   1      47.810  26.508  26.186  1.00  0.00     0.131 A 
ATOM     75  C   UNL A   1      48.170  27.368  23.583  1.00  0.00     0.055 A 
ATOM     76  C   UNL A   1      48.949  26.114  25.482  1.00  0.00     0.041 A 
ATOM     77  F   UNL A   1      47.667  26.068  27.447  1.00  0.00    -0.206 F 
ATOM     78  C   UNL A   1      49.131  26.540  24.170  1.00  0.00     0.022 A 
BRANCH  75  79
ATOM     79  S   UNL A   1      48.354  27.889  21.856  1.00  0.00     0.124 S 
ATOM     80  O   UNL A   1      47.211  28.779  21.690  1.00  0.00    -0.237 OA
ATOM     81  O   UNL A   1      49.667  28.526  21.867  1.00  0.00    -0.237 OA
ATOM     82  O   UNL A   1      48.282  26.632  21.112  1.00  0.00    -0.744 OA
ENDBRANCH  75  79
ENDBRANCH  48  72
BRANCH  60  83
ATOM     83  C   UNL A   1      45.144  33.056  29.243  1.00  0.00     0.023 A 
ATOM     84  C   UNL A   1      45.018  34.209  28.452  1.00  0.00     0.031 A 
ATOM     85  C   UNL A   1      45.970  33.111  30.380  1.00  0.00     0.131 A 
ATOM     86  C   UNL A   1      45.731  35.366  28.792  1.00  0.00     0.055 A 
ATOM     87  C   UNL A   1      46.644  34.278  30.737  1.00  0.00     0.041 A 
ATOM     88  F   UNL A   1      46.117  32.034  31.168  1.00  0.00    -0.206 F 
ATOM     89  C   UNL A   1      46.532  35.413  29.939  1.00  0.00     0.022 A 
BRANCH  86  90
ATOM     90  S   UNL A   1      45.622  36.813  27.704  1.00  0.00     0.124 S 
ATOM     91  O   UNL A   1      46.906  36.767  27.013  1.00  0.00    -0.237 OA
ATOM     92  O   UNL A   1      44.449  36.507  26.890  1.00  0.00    -0.237 OA
ATOM     93  O   UNL A   1      45.455  37.929  28.633  1.00  0.00    -0.744 OA
ENDBRANCH  86  90
ENDBRANCH  60  83
ENDBRANCH  34  35
ENDBRANCH  26  29
ENDBRANCH  24  25
ENDBRANCH   1  24
TORSDOF 15
ENDMDL
MODEL 3
REMARK VINA RESULT:     -12.9      5.147      7.831
REMARK SMILES Cc1c(C)c2c(c(C)c1O)CC[C@@](C)(C(=O)NCCCCNC(=O)c1ccc(-c3c4nc(c(-c5cc(S(=O)(=O)[O-])ccc5F)c5ccc([nH]5)c(-c5cc(S(=O)(=O)[O-])ccc5F)c5nc(c(-c6cc(S(=O)(=O)[O-])ccc6F)c6ccc3[nH]6)C=C5)C=C4)cc1)O2
REMARK SMILES IDX 20 1 19 2 18 3 17 4 15 5 16 6 13 8 1 9 2 10 3 11 9 12 4 13
REMARK SMILES IDX 5 14 7 15 6 16 88 17 8 18 11 19 12 20 14 21 10 22 21 24
REMARK SMILES IDX 22 25 23 26 24 28 25 29 26 30 87 31 27 32 86 33 28 34 29 35
REMARK SMILES IDX 30 36 80 37 31 38 85 39 79 40 81 41 32 42 84 43 78 44 77 45
REMARK SMILES IDX 33 47 65 48 45 49 64 50 46 51 49 52 63 53 82 54 47 55 48 56
REMARK SMILES IDX 62 58 83 59 50 60 34 61 35 62 43 63 36 64 42 65 44 66 41 67
REMARK SMILES IDX 37 68 38 69 39 70 40 71 66 72 67 73 75 74 68 75 74 76 76 77
REMARK SMILES IDX 73 78 69 79 70 80 71 81 72 82 51 83 52 84 60 85 53 86 59 87
REMARK SMILES IDX 61 88 58 89 54 90 55 91 56 92 57 93
REMARK H PARENT 17 7 10 23 22 27 81 46 49 57
REMARK Flexibility Score: inf
ROOT
ATOM      1  C   UNL A   1      35.264  21.363  25.049  1.00  0.00     0.023 C 
ENDROOT
BRANCH   1   2
ATOM      2  C   UNL A   1      34.237  21.200  26.167  1.00  0.00     0.023 C 
BRANCH   2   3
ATOM      3  C   UNL A   1      33.992  22.457  26.998  1.00  0.00     0.116 C 
BRANCH   3   4
ATOM      4  N   UNL A   1      32.583  22.660  27.291  1.00  0.00    -0.353 N 
ATOM      5  C   UNL A   1      31.660  23.525  26.761  1.00  0.00     0.263 C 
ATOM      6  O   UNL A   1      30.515  23.451  27.217  1.00  0.00    -0.270 OA
ATOM      7  H   UNL A   1      32.227  22.070  27.995  1.00  0.00     0.163 HD
BRANCH   5   8
ATOM      8  C   UNL A   1      32.042  24.530  25.634  1.00  0.00     0.184 C 
ATOM      9  C   UNL A   1      29.042  28.804  22.376  1.00  0.00     0.049 C 
ATOM     10  C   UNL A   1      30.207  28.171  23.092  1.00  0.00    -0.002 A 
ATOM     11  C   UNL A   1      30.022  27.099  23.997  1.00  0.00    -0.002 A 
ATOM     12  C   UNL A   1      31.516  28.645  22.856  1.00  0.00     0.122 A 
ATOM     13  C   UNL A   1      28.642  26.559  24.287  1.00  0.00     0.049 C 
ATOM     14  C   UNL A   1      31.148  26.509  24.605  1.00  0.00     0.127 A 
ATOM     15  C   UNL A   1      32.636  28.074  23.475  1.00  0.00    -0.002 A 
ATOM     16  C   UNL A   1      32.444  27.009  24.377  1.00  0.00     0.001 A 
ATOM     17  O   UNL A   1      30.917  25.417  25.416  1.00  0.00    -0.477 OA
ATOM     18  C   UNL A   1      34.028  28.583  23.193  1.00  0.00     0.049 C 
ATOM     19  C   UNL A   1      33.628  26.379  25.055  1.00  0.00     0.044 C 
ATOM     20  C   UNL A   1      33.200  25.403  26.126  1.00  0.00     0.063 C 
ATOM     21  C   UNL A   1      32.235  23.733  24.328  1.00  0.00     0.067 C 
BRANCH  12  22
ATOM     22  O   UNL A   1      31.752  29.687  21.996  1.00  0.00    -0.507 OA
ATOM     23  H   UNL A   1      31.415  30.540  22.189  1.00  0.00     0.293 HD
ENDBRANCH  12  22
ENDBRANCH   5   8
ENDBRANCH   3   4
ENDBRANCH   2   3
ENDBRANCH   1   2
BRANCH   1  24
ATOM     24  C   UNL A   1      36.624  21.893  25.488  1.00  0.00     0.116 C 
BRANCH  24  25
ATOM     25  N   UNL A   1      37.639  20.856  25.600  1.00  0.00    -0.352 N 
ATOM     26  C   UNL A   1      38.949  20.977  26.000  1.00  0.00     0.251 C 
ATOM     27  H   UNL A   1      37.350  19.947  25.356  1.00  0.00     0.163 HD
ATOM     28  O   UNL A   1      39.705  20.013  25.931  1.00  0.00    -0.269 OA
BRANCH  26  29
ATOM     29  C   UNL A   1      39.437  22.288  26.473  1.00  0.00     0.039 A 
ATOM     30  C   UNL A   1      40.562  22.330  27.300  1.00  0.00     0.014 A 
ATOM     31  C   UNL A   1      38.817  23.469  26.054  1.00  0.00     0.014 A 
ATOM     32  C   UNL A   1      41.113  23.565  27.645  1.00  0.00     0.010 A 
ATOM     33  C   UNL A   1      39.406  24.695  26.345  1.00  0.00     0.010 A 
ATOM     34  C   UNL A   1      40.563  24.754  27.137  1.00  0.00    -0.014 A 
BRANCH  34  35
ATOM     35  C   UNL A   1      41.179  26.070  27.431  1.00  0.00     0.031 A 
ATOM     36  C   UNL A   1      42.550  26.388  26.901  1.00  0.00     0.074 A 
ATOM     37  C   UNL A   1      40.529  26.955  28.214  1.00  0.00     0.049 A 
ATOM     38  N   UNL A   1      43.295  27.440  27.119  1.00  0.00    -0.248 NA
ATOM     39  C   UNL A   1      43.172  25.378  26.031  1.00  0.00     0.031 C 
ATOM     40  C   UNL A   1      39.206  26.747  28.808  1.00  0.00     0.029 A 
ATOM     41  N   UNL A   1      40.892  28.206  28.645  1.00  0.00    -0.354 N 
ATOM     42  C   UNL A   1      44.477  27.214  26.424  1.00  0.00     0.074 A 
ATOM     43  C   UNL A   1      44.368  25.904  25.818  1.00  0.00     0.031 C 
ATOM     44  C   UNL A   1      38.857  27.846  29.498  1.00  0.00     0.029 A 
ATOM     45  C   UNL A   1      39.944  28.818  29.431  1.00  0.00     0.049 A 
ATOM     46  H   UNL A   1      41.752  28.626  28.413  1.00  0.00     0.167 HD
ATOM     47  C   UNL A   1      45.545  28.035  26.283  1.00  0.00     0.034 A 
ATOM     48  C   UNL A   1      39.953  30.023  30.034  1.00  0.00     0.034 A 
ATOM     49  C   UNL A   1      45.632  29.348  26.867  1.00  0.00     0.049 A 
ATOM     50  C   UNL A   1      41.160  30.908  29.879  1.00  0.00     0.074 A 
ATOM     51  C   UNL A   1      46.654  30.274  26.752  1.00  0.00     0.029 A 
ATOM     52  N   UNL A   1      44.659  29.925  27.669  1.00  0.00    -0.354 N 
ATOM     53  N   UNL A   1      42.271  30.677  29.219  1.00  0.00    -0.248 NA
ATOM     54  C   UNL A   1      41.117  32.214  30.551  1.00  0.00     0.031 C 
ATOM     55  C   UNL A   1      46.318  31.393  27.521  1.00  0.00     0.029 A 
ATOM     56  C   UNL A   1      45.063  31.187  28.072  1.00  0.00     0.049 A 
ATOM     57  H   UNL A   1      43.806  29.499  27.917  1.00  0.00     0.167 HD
ATOM     58  C   UNL A   1      43.051  31.816  29.382  1.00  0.00     0.074 A 
ATOM     59  C   UNL A   1      42.284  32.736  30.198  1.00  0.00     0.031 C 
ATOM     60  C   UNL A   1      44.290  32.081  28.897  1.00  0.00     0.034 A 
BRANCH  47  61
ATOM     61  C   UNL A   1      46.706  27.527  25.471  1.00  0.00     0.023 A 
ATOM     62  C   UNL A   1      46.915  27.954  24.149  1.00  0.00     0.031 A 
ATOM     63  C   UNL A   1      47.612  26.607  26.025  1.00  0.00     0.131 A 
ATOM     64  C   UNL A   1      47.976  27.420  23.405  1.00  0.00     0.055 A 
ATOM     65  C   UNL A   1      48.704  26.129  25.300  1.00  0.00     0.041 A 
ATOM     66  F   UNL A   1      47.445  26.153  27.277  1.00  0.00    -0.206 F 
ATOM     67  C   UNL A   1      48.887  26.529  23.978  1.00  0.00     0.022 A 
BRANCH  64  68
ATOM     68  S   UNL A   1      48.107  27.847  21.648  1.00  0.00     0.124 S 
ATOM     69  O   UNL A   1      46.818  28.491  21.408  1.00  0.00    -0.237 OA
ATOM     70  O   UNL A   1      49.273  28.723  21.617  1.00  0.00    -0.237 OA
ATOM     71  O   UNL A   1      48.283  26.552  20.994  1.00  0.00    -0.744 OA
ENDBRANCH  64  68
ENDBRANCH  47  61
BRANCH  48  72
ATOM     72  C   UNL A   1      38.786  30.462  30.846  1.00  0.00     0.023 A 
ATOM     73  C   UNL A   1      37.726  31.167  30.257  1.00  0.00     0.031 A 
ATOM     74  C   UNL A   1      38.722  30.195  32.224  1.00  0.00     0.131 A 
ATOM     75  C   UNL A   1      36.655  31.607  31.050  1.00  0.00     0.055 A 
ATOM     76  C   UNL A   1      37.638  30.605  33.003  1.00  0.00     0.041 A 
ATOM     77  F   UNL A   1      39.709  29.514  32.830  1.00  0.00    -0.206 F 
ATOM     78  C   UNL A   1      36.599  31.321  32.416  1.00  0.00     0.022 A 
BRANCH  75  79
ATOM     79  S   UNL A   1      35.343  32.589  30.273  1.00  0.00     0.124 S 
ATOM     80  O   UNL A   1      34.907  31.705  29.198  1.00  0.00    -0.237 OA
ATOM     81  O   UNL A   1      34.405  32.771  31.375  1.00  0.00    -0.237 OA
ATOM     82  O   UNL A   1      36.036  33.802  29.843  1.00  0.00    -0.744 OA
ENDBRANCH  75  79
ENDBRANCH  48  72
BRANCH  60  83
ATOM     83  C   UNL A   1      44.881  33.426  29.216  1.00  0.00     0.023 A 
ATOM     84  C   UNL A   1      44.573  34.561  28.450  1.00  0.00     0.031 A 
ATOM     85  C   UNL A   1      45.731  33.578  30.326  1.00  0.00     0.131 A 
ATOM     86  C   UNL A   1      45.135  35.800  28.786  1.00  0.00     0.055 A 
ATOM     87  C   UNL A   1      46.255  34.820  30.681  1.00  0.00     0.041 A 
ATOM     88  F   UNL A   1      46.049  32.520  31.091  1.00  0.00    -0.206 F 
ATOM     89  C   UNL A   1      45.962  35.940  29.906  1.00  0.00     0.022 A 
BRANCH  86  90
ATOM     90  S   UNL A   1      44.794  37.232  27.727  1.00  0.00     0.124 S 
ATOM     91  O   UNL A   1      44.498  38.269  28.710  1.00  0.00    -0.237 OA
ATOM     92  O   UNL A   1      46.047  37.387  26.994  1.00  0.00    -0.237 OA
ATOM     93  O   UNL A   1      43.656  36.797  26.920  1.00  0.00    -0.744 OA
ENDBRANCH  86  90
ENDBRANCH  60  83
ENDBRANCH  34  35
ENDBRANCH  26  29
ENDBRANCH  24  25
ENDBRANCH   1  24
TORSDOF 15
ENDMDL
