MODEL 1
REMARK VINA RESULT:     -11.1      0.000      0.000
REMARK SMILES CC[C@H](C)[C@@H](NC(=O)/C=C/c1csc(C)n1)C(=O)NCCCCNC(=O)c1ccc(-c2c3nc(c(-c4cc(S(=O)(=O)[O-])ccc4F)c4ccc([nH]4)c(-c4cc(S(=O)(=O)[O-])ccc4F)c4nc(c(-c5cc(S(=O)(=O)[O-])ccc5F)c5ccc2[nH]5)C=C4)C=C3)cc1
REMARK SMILES IDX 21 1 20 2 19 3 17 4 18 5 5 7 3 8 4 9 2 10 1 11 6 12 7 13
REMARK SMILES IDX 8 15 9 16 10 17 11 18 12 19 16 20 13 21 14 22 15 23 22 24
REMARK SMILES IDX 23 25 24 26 25 27 26 29 27 30 28 31 89 32 29 33 88 34 30 35
REMARK SMILES IDX 31 36 32 37 82 38 33 39 87 40 81 41 83 42 34 43 86 44 80 45
REMARK SMILES IDX 79 46 35 48 67 49 47 50 66 51 48 52 51 53 65 54 84 55 49 56
REMARK SMILES IDX 50 57 64 59 85 60 52 61 36 62 37 63 45 64 38 65 44 66 46 67
REMARK SMILES IDX 43 68 39 69 40 70 41 71 42 72 68 73 69 74 77 75 70 76 76 77
REMARK SMILES IDX 78 78 75 79 71 80 72 81 73 82 74 83 53 84 54 85 62 86 55 87
REMARK SMILES IDX 61 88 63 89 60 90 56 91 57 92 58 93 59 94
REMARK H PARENT 19 6 6 14 24 28 83 47 51 58
REMARK Flexibility Score: inf
ROOT
ATOM      1  C   UNL A   1      37.047  22.287  24.449  1.00  0.00     0.023 C 
ENDROOT
BRANCH   1   2
ATOM      2  C   UNL A   1      36.261  23.154  25.423  1.00  0.00     0.116 C 
BRANCH   2   3
ATOM      3  N   UNL A   1      35.763  22.366  26.533  1.00  0.00    -0.354 N 
ATOM      4  C   UNL A   1      34.505  21.905  26.765  1.00  0.00     0.242 C 
ATOM      5  O   UNL A   1      34.290  21.288  27.814  1.00  0.00    -0.273 OA
ATOM      6  H   UNL A   1      36.430  22.133  27.217  1.00  0.00     0.163 HD
BRANCH   4   7
ATOM      7  C   UNL A   1      33.339  22.248  25.818  1.00  0.00     0.174 C 
BRANCH   7   8
ATOM      8  C   UNL A   1      33.397  21.254  24.600  1.00  0.00     0.018 C 
ATOM      9  C   UNL A   1      32.649  19.943  24.866  1.00  0.00     0.010 C 
BRANCH   8  10
ATOM     10  C   UNL A   1      32.887  21.950  23.310  1.00  0.00     0.002 C 
ATOM     11  C   UNL A   1      33.421  23.354  23.068  1.00  0.00     0.004 C 
ENDBRANCH   8  10
ENDBRANCH   7   8
BRANCH   7  12
ATOM     12  N   UNL A   1      32.006  22.302  26.462  1.00  0.00    -0.340 N 
ATOM     13  C   UNL A   1      31.089  23.320  26.495  1.00  0.00     0.244 C 
ATOM     14  H   UNL A   1      31.738  21.482  26.937  1.00  0.00     0.164 HD
ATOM     15  O   UNL A   1      29.896  23.059  26.616  1.00  0.00    -0.270 OA
BRANCH  13  16
ATOM     16  C   UNL A   1      31.564  24.707  26.642  1.00  0.00     0.073 C 
ATOM     17  C   UNL A   1      31.065  25.745  25.959  1.00  0.00     0.035 C 
BRANCH  17  18
ATOM     18  C   UNL A   1      31.723  27.011  25.861  1.00  0.00     0.074 A 
ATOM     19  C   UNL A   1      31.415  27.963  24.913  1.00  0.00     0.095 A 
ATOM     20  N   UNL A   1      32.841  27.276  26.633  1.00  0.00    -0.242 NA
ATOM     21  S   UNL A   1      32.533  29.257  25.010  1.00  0.00    -0.127 S 
ATOM     22  C   UNL A   1      33.352  28.440  26.284  1.00  0.00     0.090 A 
ATOM     23  C   UNL A   1      34.564  29.057  26.894  1.00  0.00     0.079 C 
ENDBRANCH  17  18
ENDBRANCH  13  16
ENDBRANCH   7  12
ENDBRANCH   4   7
ENDBRANCH   2   3
ENDBRANCH   1   2
BRANCH   1  24
ATOM     24  C   UNL A   1      37.676  21.050  25.092  1.00  0.00     0.023 C 
BRANCH  24  25
ATOM     25  C   UNL A   1      39.024  21.301  25.763  1.00  0.00     0.116 C 
BRANCH  25  26
ATOM     26  N   UNL A   1      39.790  20.073  25.920  1.00  0.00    -0.352 N 
ATOM     27  C   UNL A   1      41.144  19.916  26.114  1.00  0.00     0.251 C 
ATOM     28  H   UNL A   1      39.268  19.239  25.882  1.00  0.00     0.163 HD
ATOM     29  O   UNL A   1      41.663  18.816  26.002  1.00  0.00    -0.269 OA
BRANCH  27  30
ATOM     30  C   UNL A   1      41.955  21.109  26.430  1.00  0.00     0.039 A 
ATOM     31  C   UNL A   1      42.335  21.967  25.397  1.00  0.00     0.014 A 
ATOM     32  C   UNL A   1      42.279  21.404  27.758  1.00  0.00     0.014 A 
ATOM     33  C   UNL A   1      42.960  23.176  25.707  1.00  0.00     0.010 A 
ATOM     34  C   UNL A   1      42.842  22.637  28.068  1.00  0.00     0.010 A 
ATOM     35  C   UNL A   1      43.168  23.544  27.047  1.00  0.00    -0.014 A 
BRANCH  35  36
ATOM     36  C   UNL A   1      43.670  24.894  27.411  1.00  0.00     0.031 A 
ATOM     37  C   UNL A   1      42.726  25.930  27.951  1.00  0.00     0.074 A 
ATOM     38  C   UNL A   1      44.957  25.209  27.158  1.00  0.00     0.049 A 
ATOM     39  N   UNL A   1      42.947  27.192  28.209  1.00  0.00    -0.248 NA
ATOM     40  C   UNL A   1      41.343  25.497  28.208  1.00  0.00     0.031 C 
ATOM     41  C   UNL A   1      45.956  24.295  26.595  1.00  0.00     0.029 A 
ATOM     42  N   UNL A   1      45.645  26.386  27.317  1.00  0.00    -0.354 N 
ATOM     43  C   UNL A   1      41.732  27.710  28.644  1.00  0.00     0.074 A 
ATOM     44  C   UNL A   1      40.768  26.633  28.577  1.00  0.00     0.031 C 
ATOM     45  C   UNL A   1      47.124  24.943  26.462  1.00  0.00     0.029 A 
ATOM     46  C   UNL A   1      46.949  26.331  26.878  1.00  0.00     0.049 A 
ATOM     47  H   UNL A   1      45.243  27.195  27.709  1.00  0.00     0.167 HD
ATOM     48  C   UNL A   1      41.455  28.966  29.070  1.00  0.00     0.034 A 
ATOM     49  C   UNL A   1      47.888  27.294  26.792  1.00  0.00     0.034 A 
ATOM     50  C   UNL A   1      42.435  30.020  29.154  1.00  0.00     0.049 A 
ATOM     51  C   UNL A   1      47.540  28.690  27.247  1.00  0.00     0.074 A 
ATOM     52  C   UNL A   1      42.280  31.297  29.668  1.00  0.00     0.029 A 
ATOM     53  N   UNL A   1      43.744  29.929  28.702  1.00  0.00    -0.354 N 
ATOM     54  N   UNL A   1      46.405  29.139  27.733  1.00  0.00    -0.248 NA
ATOM     55  C   UNL A   1      48.595  29.706  27.146  1.00  0.00     0.031 C 
ATOM     56  C   UNL A   1      43.471  31.999  29.457  1.00  0.00     0.029 A 
ATOM     57  C   UNL A   1      44.392  31.141  28.879  1.00  0.00     0.049 A 
ATOM     58  H   UNL A   1      44.151  29.122  28.313  1.00  0.00     0.167 HD
ATOM     59  C   UNL A   1      46.622  30.486  28.013  1.00  0.00     0.074 A 
ATOM     60  C   UNL A   1      47.999  30.768  27.667  1.00  0.00     0.031 C 
ATOM     61  C   UNL A   1      45.760  31.409  28.510  1.00  0.00     0.034 A 
BRANCH  48  62
ATOM     62  C   UNL A   1      40.033  29.282  29.454  1.00  0.00     0.023 A 
ATOM     63  C   UNL A   1      39.636  29.402  30.797  1.00  0.00     0.031 A 
ATOM     64  C   UNL A   1      39.065  29.496  28.458  1.00  0.00     0.131 A 
ATOM     65  C   UNL A   1      38.297  29.684  31.107  1.00  0.00     0.055 A 
ATOM     66  C   UNL A   1      37.749  29.840  28.771  1.00  0.00     0.041 A 
ATOM     67  F   UNL A   1      39.384  29.375  27.159  1.00  0.00    -0.206 F 
ATOM     68  C   UNL A   1      37.357  29.928  30.104  1.00  0.00     0.022 A 
BRANCH  65  69
ATOM     69  S   UNL A   1      37.780  29.643  32.845  1.00  0.00     0.124 S 
ATOM     70  O   UNL A   1      39.010  30.038  33.528  1.00  0.00    -0.237 OA
ATOM     71  O   UNL A   1      36.694  30.615  32.875  1.00  0.00    -0.237 OA
ATOM     72  O   UNL A   1      37.378  28.254  33.051  1.00  0.00    -0.744 OA
ENDBRANCH  65  69
ENDBRANCH  48  62
BRANCH  49  73
ATOM     73  C   UNL A   1      49.233  27.002  26.214  1.00  0.00     0.023 A 
ATOM     74  C   UNL A   1      49.566  27.414  24.913  1.00  0.00     0.031 A 
ATOM     75  C   UNL A   1      50.178  26.239  26.924  1.00  0.00     0.131 A 
ATOM     76  C   UNL A   1      50.782  27.008  24.340  1.00  0.00     0.055 A 
ATOM     77  C   UNL A   1      51.411  25.890  26.372  1.00  0.00     0.041 A 
ATOM     78  F   UNL A   1      49.912  25.820  28.172  1.00  0.00    -0.206 F 
ATOM     79  C   UNL A   1      51.713  26.260  25.066  1.00  0.00     0.022 A 
BRANCH  76  80
ATOM     80  S   UNL A   1      51.078  27.372  22.588  1.00  0.00     0.124 S 
ATOM     81  O   UNL A   1      49.927  26.736  21.955  1.00  0.00    -0.237 OA
ATOM     82  O   UNL A   1      51.090  28.830  22.581  1.00  0.00    -0.237 OA
ATOM     83  O   UNL A   1      52.367  26.737  22.322  1.00  0.00    -0.744 OA
ENDBRANCH  76  80
ENDBRANCH  49  73
BRANCH  61  84
ATOM     84  C   UNL A   1      46.301  32.801  28.726  1.00  0.00     0.023 A 
ATOM     85  C   UNL A   1      46.267  33.766  27.706  1.00  0.00     0.031 A 
ATOM     86  C   UNL A   1      46.861  33.161  29.964  1.00  0.00     0.131 A 
ATOM     87  C   UNL A   1      46.830  35.032  27.926  1.00  0.00     0.055 A 
ATOM     88  C   UNL A   1      47.367  34.440  30.195  1.00  0.00     0.041 A 
ATOM     89  F   UNL A   1      46.921  32.275  30.972  1.00  0.00    -0.206 F 
ATOM     90  C   UNL A   1      47.364  35.381  29.169  1.00  0.00     0.022 A 
BRANCH  87  91
ATOM     91  S   UNL A   1      46.922  36.195  26.537  1.00  0.00     0.124 S 
ATOM     92  O   UNL A   1      48.334  36.121  26.173  1.00  0.00    -0.237 OA
ATOM     93  O   UNL A   1      45.987  35.616  25.580  1.00  0.00    -0.237 OA
ATOM     94  O   UNL A   1      46.500  37.465  27.126  1.00  0.00    -0.744 OA
ENDBRANCH  87  91
ENDBRANCH  61  84
ENDBRANCH  35  36
ENDBRANCH  27  30
ENDBRANCH  25  26
ENDBRANCH  24  25
ENDBRANCH   1  24
TORSDOF 19
ENDMDL
MODEL 2
REMARK VINA RESULT:     -11.0      5.775     11.544
REMARK SMILES CC[C@H](C)[C@@H](NC(=O)/C=C/c1csc(C)n1)C(=O)NCCCCNC(=O)c1ccc(-c2c3nc(c(-c4cc(S(=O)(=O)[O-])ccc4F)c4ccc([nH]4)c(-c4cc(S(=O)(=O)[O-])ccc4F)c4nc(c(-c5cc(S(=O)(=O)[O-])ccc5F)c5ccc2[nH]5)C=C4)C=C3)cc1
REMARK SMILES IDX 21 1 20 2 19 3 17 4 18 5 5 7 3 8 4 9 2 10 1 11 6 12 7 13
REMARK SMILES IDX 8 15 9 16 10 17 11 18 12 19 16 20 13 21 14 22 15 23 22 24
REMARK SMILES IDX 23 25 24 26 25 27 26 29 27 30 28 31 89 32 29 33 88 34 30 35
REMARK SMILES IDX 31 36 32 37 82 38 33 39 87 40 81 41 83 42 34 43 86 44 80 45
REMARK SMILES IDX 79 46 35 48 67 49 47 50 66 51 48 52 51 53 65 54 84 55 49 56
REMARK SMILES IDX 50 57 64 59 85 60 52 61 36 62 37 63 45 64 38 65 44 66 46 67
REMARK SMILES IDX 43 68 39 69 40 70 41 71 42 72 68 73 69 74 77 75 70 76 76 77
REMARK SMILES IDX 78 78 75 79 71 80 72 81 73 82 74 83 53 84 54 85 62 86 55 87
REMARK SMILES IDX 61 88 63 89 60 90 56 91 57 92 58 93 59 94
REMARK H PARENT 19 6 6 14 24 28 83 47 51 58
REMARK Flexibility Score: inf
ROOT
ATOM      1  C   UNL A   1      33.607  31.402  27.607  1.00  0.00     0.023 C 
ENDROOT
BRANCH   1   2
ATOM      2  C   UNL A   1      33.205  30.235  26.717  1.00  0.00     0.116 C 
BRANCH   2   3
ATOM      3  N   UNL A   1      32.462  29.242  27.467  1.00  0.00    -0.354 N 
ATOM      4  C   UNL A   1      31.916  28.073  27.041  1.00  0.00     0.242 C 
ATOM      5  O   UNL A   1      31.273  27.395  27.851  1.00  0.00    -0.273 OA
ATOM      6  H   UNL A   1      32.334  29.445  28.422  1.00  0.00     0.163 HD
BRANCH   4   7
ATOM      7  C   UNL A   1      31.975  27.653  25.560  1.00  0.00     0.174 C 
BRANCH   7   8
ATOM      8  C   UNL A   1      33.465  27.275  25.225  1.00  0.00     0.018 C 
ATOM      9  C   UNL A   1      33.851  25.879  25.727  1.00  0.00     0.010 C 
BRANCH   8  10
ATOM     10  C   UNL A   1      33.731  27.427  23.702  1.00  0.00     0.002 C 
ATOM     11  C   UNL A   1      33.583  28.837  23.150  1.00  0.00     0.004 C 
ENDBRANCH   8  10
ENDBRANCH   7   8
BRANCH   7  12
ATOM     12  N   UNL A   1      31.005  26.604  25.167  1.00  0.00    -0.340 N 
ATOM     13  C   UNL A   1      30.141  26.562  24.105  1.00  0.00     0.244 C 
ATOM     14  H   UNL A   1      30.979  25.818  25.759  1.00  0.00     0.164 HD
ATOM     15  O   UNL A   1      29.793  25.478  23.647  1.00  0.00    -0.270 OA
BRANCH  13  16
ATOM     16  C   UNL A   1      29.449  27.797  23.696  1.00  0.00     0.073 C 
ATOM     17  C   UNL A   1      29.838  28.570  22.674  1.00  0.00     0.035 C 
BRANCH  17  18
ATOM     18  C   UNL A   1      29.373  29.908  22.479  1.00  0.00     0.074 A 
ATOM     19  C   UNL A   1      29.145  30.798  23.506  1.00  0.00     0.095 A 
ATOM     20  N   UNL A   1      28.966  30.327  21.223  1.00  0.00    -0.242 NA
ATOM     21  S   UNL A   1      28.431  32.226  22.886  1.00  0.00    -0.127 S 
ATOM     22  C   UNL A   1      28.458  31.541  21.307  1.00  0.00     0.090 A 
ATOM     23  C   UNL A   1      27.912  32.319  20.159  1.00  0.00     0.079 C 
ENDBRANCH  17  18
ENDBRANCH  13  16
ENDBRANCH   7  12
ENDBRANCH   4   7
ENDBRANCH   2   3
ENDBRANCH   1   2
BRANCH   1  24
ATOM     24  C   UNL A   1      32.592  32.545  27.625  1.00  0.00     0.023 C 
BRANCH  24  25
ATOM     25  C   UNL A   1      33.192  33.929  27.390  1.00  0.00     0.116 C 
BRANCH  25  26
ATOM     26  N   UNL A   1      32.868  34.852  28.468  1.00  0.00    -0.352 N 
ATOM     27  C   UNL A   1      33.382  34.908  29.744  1.00  0.00     0.251 C 
ATOM     28  H   UNL A   1      32.187  35.531  28.255  1.00  0.00     0.163 HD
ATOM     29  O   UNL A   1      32.847  35.596  30.599  1.00  0.00    -0.269 OA
BRANCH  27  30
ATOM     30  C   UNL A   1      34.575  34.096  30.061  1.00  0.00     0.039 A 
ATOM     31  C   UNL A   1      35.820  34.496  29.572  1.00  0.00     0.014 A 
ATOM     32  C   UNL A   1      34.461  32.979  30.894  1.00  0.00     0.014 A 
ATOM     33  C   UNL A   1      36.969  33.828  29.999  1.00  0.00     0.010 A 
ATOM     34  C   UNL A   1      35.611  32.358  31.368  1.00  0.00     0.010 A 
ATOM     35  C   UNL A   1      36.877  32.790  30.943  1.00  0.00    -0.014 A 
BRANCH  35  36
ATOM     36  C   UNL A   1      38.090  32.180  31.544  1.00  0.00     0.031 A 
ATOM     37  C   UNL A   1      38.815  31.078  30.825  1.00  0.00     0.074 A 
ATOM     38  C   UNL A   1      38.473  32.556  32.781  1.00  0.00     0.049 A 
ATOM     39  N   UNL A   1      39.814  30.342  31.238  1.00  0.00    -0.248 NA
ATOM     40  C   UNL A   1      38.338  30.740  29.474  1.00  0.00     0.031 C 
ATOM     41  C   UNL A   1      37.819  33.588  33.592  1.00  0.00     0.029 A 
ATOM     42  N   UNL A   1      39.488  32.103  33.587  1.00  0.00    -0.354 N 
ATOM     43  C   UNL A   1      40.075  29.443  30.209  1.00  0.00     0.074 A 
ATOM     44  C   UNL A   1      39.103  29.703  29.168  1.00  0.00     0.031 C 
ATOM     45  C   UNL A   1      38.451  33.690  34.772  1.00  0.00     0.029 A 
ATOM     46  C   UNL A   1      39.521  32.700  34.827  1.00  0.00     0.049 A 
ATOM     47  H   UNL A   1      40.134  31.415  33.304  1.00  0.00     0.167 HD
ATOM     48  C   UNL A   1      41.045  28.500  30.140  1.00  0.00     0.034 A 
ATOM     49  C   UNL A   1      40.303  32.457  35.898  1.00  0.00     0.034 A 
ATOM     50  C   UNL A   1      42.020  28.273  31.177  1.00  0.00     0.049 A 
ATOM     51  C   UNL A   1      41.355  31.379  35.800  1.00  0.00     0.074 A 
ATOM     52  C   UNL A   1      43.105  27.413  31.162  1.00  0.00     0.029 A 
ATOM     53  N   UNL A   1      42.023  28.894  32.418  1.00  0.00    -0.354 N 
ATOM     54  N   UNL A   1      41.639  30.596  34.785  1.00  0.00    -0.248 NA
ATOM     55  C   UNL A   1      42.191  31.155  36.986  1.00  0.00     0.031 C 
ATOM     56  C   UNL A   1      43.717  27.459  32.418  1.00  0.00     0.029 A 
ATOM     57  C   UNL A   1      43.060  28.400  33.194  1.00  0.00     0.049 A 
ATOM     58  H   UNL A   1      41.383  29.585  32.705  1.00  0.00     0.167 HD
ATOM     59  C   UNL A   1      42.701  29.801  35.208  1.00  0.00     0.074 A 
ATOM     60  C   UNL A   1      43.022  30.218  36.557  1.00  0.00     0.031 C 
ATOM     61  C   UNL A   1      43.353  28.814  34.544  1.00  0.00     0.034 A 
BRANCH  48  62
ATOM     62  C   UNL A   1      41.088  27.622  28.916  1.00  0.00     0.023 A 
ATOM     63  C   UNL A   1      42.059  27.792  27.915  1.00  0.00     0.031 A 
ATOM     64  C   UNL A   1      40.158  26.579  28.764  1.00  0.00     0.131 A 
ATOM     65  C   UNL A   1      42.052  26.959  26.786  1.00  0.00     0.055 A 
ATOM     66  C   UNL A   1      40.195  25.713  27.671  1.00  0.00     0.041 A 
ATOM     67  F   UNL A   1      39.196  26.384  29.681  1.00  0.00    -0.206 F 
ATOM     68  C   UNL A   1      41.142  25.905  26.669  1.00  0.00     0.022 A 
BRANCH  65  69
ATOM     69  S   UNL A   1      43.195  27.325  25.427  1.00  0.00     0.124 S 
ATOM     70  O   UNL A   1      42.283  27.839  24.406  1.00  0.00    -0.237 OA
ATOM     71  O   UNL A   1      44.097  28.301  26.026  1.00  0.00    -0.237 OA
ATOM     72  O   UNL A   1      43.794  26.028  25.122  1.00  0.00    -0.744 OA
ENDBRANCH  65  69
ENDBRANCH  48  62
BRANCH  49  73
ATOM     73  C   UNL A   1      40.104  33.204  37.175  1.00  0.00     0.023 A 
ATOM     74  C   UNL A   1      39.262  32.705  38.182  1.00  0.00     0.031 A 
ATOM     75  C   UNL A   1      40.692  34.466  37.376  1.00  0.00     0.131 A 
ATOM     76  C   UNL A   1      38.982  33.488  39.313  1.00  0.00     0.055 A 
ATOM     77  C   UNL A   1      40.458  35.215  38.531  1.00  0.00     0.041 A 
ATOM     78  F   UNL A   1      41.506  34.992  36.447  1.00  0.00    -0.206 F 
ATOM     79  C   UNL A   1      39.584  34.735  39.500  1.00  0.00     0.022 A 
BRANCH  76  80
ATOM     80  S   UNL A   1      37.721  32.905  40.480  1.00  0.00     0.124 S 
ATOM     81  O   UNL A   1      37.640  34.023  41.413  1.00  0.00    -0.237 OA
ATOM     82  O   UNL A   1      36.569  32.711  39.606  1.00  0.00    -0.237 OA
ATOM     83  O   UNL A   1      38.303  31.679  41.023  1.00  0.00    -0.744 OA
ENDBRANCH  76  80
ENDBRANCH  49  73
BRANCH  61  84
ATOM     84  C   UNL A   1      44.491  28.140  35.268  1.00  0.00     0.023 A 
ATOM     85  C   UNL A   1      44.345  26.862  35.833  1.00  0.00     0.031 A 
ATOM     86  C   UNL A   1      45.733  28.787  35.399  1.00  0.00     0.131 A 
ATOM     87  C   UNL A   1      45.408  26.290  36.548  1.00  0.00     0.055 A 
ATOM     88  C   UNL A   1      46.805  28.189  36.061  1.00  0.00     0.041 A 
ATOM     89  F   UNL A   1      45.925  30.010  34.879  1.00  0.00    -0.206 F 
ATOM     90  C   UNL A   1      46.642  26.938  36.651  1.00  0.00     0.022 A 
BRANCH  87  91
ATOM     91  S   UNL A   1      45.132  24.718  37.408  1.00  0.00     0.124 S 
ATOM     92  O   UNL A   1      44.451  25.153  38.624  1.00  0.00    -0.237 OA
ATOM     93  O   UNL A   1      44.316  23.977  36.452  1.00  0.00    -0.237 OA
ATOM     94  O   UNL A   1      46.482  24.194  37.607  1.00  0.00    -0.744 OA
ENDBRANCH  87  91
ENDBRANCH  61  84
ENDBRANCH  35  36
ENDBRANCH  27  30
ENDBRANCH  25  26
ENDBRANCH  24  25
ENDBRANCH   1  24
TORSDOF 19
ENDMDL
MODEL 3
REMARK VINA RESULT:     -11.0      5.837     10.522
REMARK SMILES CC[C@H](C)[C@@H](NC(=O)/C=C/c1csc(C)n1)C(=O)NCCCCNC(=O)c1ccc(-c2c3nc(c(-c4cc(S(=O)(=O)[O-])ccc4F)c4ccc([nH]4)c(-c4cc(S(=O)(=O)[O-])ccc4F)c4nc(c(-c5cc(S(=O)(=O)[O-])ccc5F)c5ccc2[nH]5)C=C4)C=C3)cc1
REMARK SMILES IDX 21 1 20 2 19 3 17 4 18 5 5 7 3 8 4 9 2 10 1 11 6 12 7 13
REMARK SMILES IDX 8 15 9 16 10 17 11 18 12 19 16 20 13 21 14 22 15 23 22 24
REMARK SMILES IDX 23 25 24 26 25 27 26 29 27 30 28 31 89 32 29 33 88 34 30 35
REMARK SMILES IDX 31 36 32 37 82 38 33 39 87 40 81 41 83 42 34 43 86 44 80 45
REMARK SMILES IDX 79 46 35 48 67 49 47 50 66 51 48 52 51 53 65 54 84 55 49 56
REMARK SMILES IDX 50 57 64 59 85 60 52 61 36 62 37 63 45 64 38 65 44 66 46 67
REMARK SMILES IDX 43 68 39 69 40 70 41 71 42 72 68 73 69 74 77 75 70 76 76 77
REMARK SMILES IDX 78 78 75 79 71 80 72 81 73 82 74 83 53 84 54 85 62 86 55 87
REMARK SMILES IDX 61 88 63 89 60 90 56 91 57 92 58 93 59 94
REMARK H PARENT 19 6 6 14 24 28 83 47 51 58
REMARK Flexibility Score: inf
ROOT
ATOM      1  C   UNL A   1      31.433  26.908  26.917  1.00  0.00     0.023 C 
ENDROOT
BRANCH   1   2
ATOM      2  C   UNL A   1      30.635  26.733  25.633  1.00  0.00     0.116 C 
BRANCH   2   3
ATOM      3  N   UNL A   1      30.381  25.331  25.367  1.00  0.00    -0.354 N 
ATOM      4  C   UNL A   1      31.120  24.443  24.652  1.00  0.00     0.242 C 
ATOM      5  O   UNL A   1      30.684  23.295  24.510  1.00  0.00    -0.273 OA
ATOM      6  H   UNL A   1      29.553  24.971  25.760  1.00  0.00     0.163 HD
BRANCH   4   7
ATOM      7  C   UNL A   1      32.405  24.876  23.919  1.00  0.00     0.174 C 
BRANCH   7   8
ATOM      8  C   UNL A   1      33.561  23.905  24.360  1.00  0.00     0.018 C 
ATOM      9  C   UNL A   1      34.614  23.699  23.266  1.00  0.00     0.010 C 
BRANCH   8  10
ATOM     10  C   UNL A   1      34.204  24.397  25.685  1.00  0.00     0.002 C 
ATOM     11  C   UNL A   1      34.559  25.876  25.730  1.00  0.00     0.004 C 
ENDBRANCH   8  10
ENDBRANCH   7   8
BRANCH   7  12
ATOM     12  N   UNL A   1      32.276  24.998  22.448  1.00  0.00    -0.340 N 
ATOM     13  C   UNL A   1      32.416  26.100  21.645  1.00  0.00     0.244 C 
ATOM     14  H   UNL A   1      32.056  24.162  21.977  1.00  0.00     0.164 HD
ATOM     15  O   UNL A   1      32.767  25.958  20.477  1.00  0.00    -0.270 OA
BRANCH  13  16
ATOM     16  C   UNL A   1      31.902  27.398  22.113  1.00  0.00     0.073 C 
ATOM     17  C   UNL A   1      30.612  27.641  22.378  1.00  0.00     0.035 C 
BRANCH  17  18
ATOM     18  C   UNL A   1      30.073  28.958  22.520  1.00  0.00     0.074 A 
ATOM     19  C   UNL A   1      29.919  29.596  23.731  1.00  0.00     0.095 A 
ATOM     20  N   UNL A   1      29.514  29.602  21.429  1.00  0.00    -0.242 NA
ATOM     21  S   UNL A   1      29.082  31.074  23.503  1.00  0.00    -0.127 S 
ATOM     22  C   UNL A   1      28.967  30.737  21.819  1.00  0.00     0.090 A 
ATOM     23  C   UNL A   1      28.268  31.700  20.923  1.00  0.00     0.079 C 
ENDBRANCH  17  18
ENDBRANCH  13  16
ENDBRANCH   7  12
ENDBRANCH   4   7
ENDBRANCH   2   3
ENDBRANCH   1   2
BRANCH   1  24
ATOM     24  C   UNL A   1      31.587  28.365  27.356  1.00  0.00     0.023 C 
BRANCH  24  25
ATOM     25  C   UNL A   1      32.566  29.179  26.514  1.00  0.00     0.116 C 
BRANCH  25  26
ATOM     26  N   UNL A   1      32.321  30.610  26.628  1.00  0.00    -0.352 N 
ATOM     27  C   UNL A   1      33.087  31.572  27.248  1.00  0.00     0.251 C 
ATOM     28  H   UNL A   1      31.494  30.935  26.205  1.00  0.00     0.163 HD
ATOM     29  O   UNL A   1      32.636  32.688  27.451  1.00  0.00    -0.269 OA
BRANCH  27  30
ATOM     30  C   UNL A   1      34.452  31.215  27.684  1.00  0.00     0.039 A 
ATOM     31  C   UNL A   1      35.415  32.219  27.796  1.00  0.00     0.014 A 
ATOM     32  C   UNL A   1      34.751  29.898  28.043  1.00  0.00     0.014 A 
ATOM     33  C   UNL A   1      36.656  31.918  28.360  1.00  0.00     0.010 A 
ATOM     34  C   UNL A   1      35.962  29.615  28.664  1.00  0.00     0.010 A 
ATOM     35  C   UNL A   1      36.918  30.627  28.848  1.00  0.00    -0.014 A 
BRANCH  35  36
ATOM     36  C   UNL A   1      38.158  30.322  29.607  1.00  0.00     0.031 A 
ATOM     37  C   UNL A   1      39.139  29.315  29.077  1.00  0.00     0.074 A 
ATOM     38  C   UNL A   1      38.344  30.883  30.820  1.00  0.00     0.049 A 
ATOM     39  N   UNL A   1      40.209  28.828  29.647  1.00  0.00    -0.248 NA
ATOM     40  C   UNL A   1      38.865  28.762  27.740  1.00  0.00     0.031 C 
ATOM     41  C   UNL A   1      37.436  31.844  31.454  1.00  0.00     0.029 A 
ATOM     42  N   UNL A   1      39.341  30.714  31.748  1.00  0.00    -0.354 N 
ATOM     43  C   UNL A   1      40.730  27.901  28.751  1.00  0.00     0.074 A 
ATOM     44  C   UNL A   1      39.833  27.866  27.614  1.00  0.00     0.031 C 
ATOM     45  C   UNL A   1      37.921  32.180  32.660  1.00  0.00     0.029 A 
ATOM     46  C   UNL A   1      39.143  31.424  32.911  1.00  0.00     0.049 A 
ATOM     47  H   UNL A   1      40.126  30.139  31.596  1.00  0.00     0.167 HD
ATOM     48  C   UNL A   1      41.857  27.159  28.864  1.00  0.00     0.034 A 
ATOM     49  C   UNL A   1      39.848  31.441  34.060  1.00  0.00     0.034 A 
ATOM     50  C   UNL A   1      42.752  27.225  29.993  1.00  0.00     0.049 A 
ATOM     51  C   UNL A   1      41.083  30.581  34.167  1.00  0.00     0.074 A 
ATOM     52  C   UNL A   1      43.972  26.592  30.160  1.00  0.00     0.029 A 
ATOM     53  N   UNL A   1      42.521  27.953  31.151  1.00  0.00    -0.354 N 
ATOM     54  N   UNL A   1      41.603  29.772  33.273  1.00  0.00    -0.248 NA
ATOM     55  C   UNL A   1      41.827  30.638  35.431  1.00  0.00     0.031 C 
ATOM     56  C   UNL A   1      44.440  26.876  31.446  1.00  0.00     0.029 A 
ATOM     57  C   UNL A   1      43.550  27.745  32.056  1.00  0.00     0.049 A 
ATOM     58  H   UNL A   1      41.741  28.532  31.307  1.00  0.00     0.167 HD
ATOM     59  C   UNL A   1      42.747  29.241  33.865  1.00  0.00     0.074 A 
ATOM     60  C   UNL A   1      42.853  29.840  35.178  1.00  0.00     0.031 C 
ATOM     61  C   UNL A   1      43.629  28.337  33.369  1.00  0.00     0.034 A 
BRANCH  48  62
ATOM     62  C   UNL A   1      42.179  26.191  27.756  1.00  0.00     0.023 A 
ATOM     63  C   UNL A   1      41.700  24.869  27.762  1.00  0.00     0.031 A 
ATOM     64  C   UNL A   1      42.954  26.607  26.660  1.00  0.00     0.131 A 
ATOM     65  C   UNL A   1      42.037  24.000  26.713  1.00  0.00     0.055 A 
ATOM     66  C   UNL A   1      43.233  25.757  25.589  1.00  0.00     0.041 A 
ATOM     67  F   UNL A   1      43.454  27.853  26.612  1.00  0.00    -0.206 F 
ATOM     68  C   UNL A   1      42.779  24.441  25.615  1.00  0.00     0.022 A 
BRANCH  65  69
ATOM     69  S   UNL A   1      41.564  22.254  26.846  1.00  0.00     0.124 S 
ATOM     70  O   UNL A   1      42.293  21.842  28.044  1.00  0.00    -0.237 OA
ATOM     71  O   UNL A   1      40.114  22.328  26.976  1.00  0.00    -0.237 OA
ATOM     72  O   UNL A   1      42.050  21.671  25.598  1.00  0.00    -0.744 OA
ENDBRANCH  65  69
ENDBRANCH  48  62
BRANCH  49  73
ATOM     73  C   UNL A   1      39.393  32.256  35.224  1.00  0.00     0.023 A 
ATOM     74  C   UNL A   1      38.767  31.655  36.328  1.00  0.00     0.031 A 
ATOM     75  C   UNL A   1      39.507  33.659  35.217  1.00  0.00     0.131 A 
ATOM     76  C   UNL A   1      38.223  32.455  37.347  1.00  0.00     0.055 A 
ATOM     77  C   UNL A   1      39.019  34.446  36.261  1.00  0.00     0.041 A 
ATOM     78  F   UNL A   1      40.097  34.287  34.187  1.00  0.00    -0.206 F 
ATOM     79  C   UNL A   1      38.357  33.846  37.327  1.00  0.00     0.022 A 
BRANCH  76  80
ATOM     80  S   UNL A   1      37.232  31.656  38.639  1.00  0.00     0.124 S 
ATOM     81  O   UNL A   1      37.077  30.308  38.103  1.00  0.00    -0.237 OA
ATOM     82  O   UNL A   1      38.097  31.789  39.806  1.00  0.00    -0.237 OA
ATOM     83  O   UNL A   1      36.011  32.459  38.674  1.00  0.00    -0.744 OA
ENDBRANCH  76  80
ENDBRANCH  49  73
BRANCH  61  84
ATOM     84  C   UNL A   1      44.796  27.968  34.251  1.00  0.00     0.023 A 
ATOM     85  C   UNL A   1      44.723  26.888  35.147  1.00  0.00     0.031 A 
ATOM     86  C   UNL A   1      45.989  28.709  34.198  1.00  0.00     0.131 A 
ATOM     87  C   UNL A   1      45.808  26.609  35.992  1.00  0.00     0.055 A 
ATOM     88  C   UNL A   1      47.085  28.391  35.000  1.00  0.00     0.041 A 
ATOM     89  F   UNL A   1      46.110  29.753  33.362  1.00  0.00    -0.206 F 
ATOM     90  C   UNL A   1      46.994  27.342  35.912  1.00  0.00     0.022 A 
BRANCH  87  91
ATOM     91  S   UNL A   1      45.619  25.319  37.252  1.00  0.00     0.124 S 
ATOM     92  O   UNL A   1      45.481  26.106  38.473  1.00  0.00    -0.237 OA
ATOM     93  O   UNL A   1      44.419  24.619  36.806  1.00  0.00    -0.237 OA
ATOM     94  O   UNL A   1      46.859  24.552  37.145  1.00  0.00    -0.744 OA
ENDBRANCH  87  91
ENDBRANCH  61  84
ENDBRANCH  35  36
ENDBRANCH  27  30
ENDBRANCH  25  26
ENDBRANCH  24  25
ENDBRANCH   1  24
TORSDOF 19
ENDMDL
