MODEL 1
REMARK VINA RESULT:     -10.2      0.000      0.000
REMARK SMILES CCCCC[C@@H]1C[C@H](CC(=O)NCCCCNC(=O)c2ccc(-c3c4nc(c(-c5cc(S(=O)(=O)[O-])ccc5F)c5ccc([nH]5)c(-c5cc(S(=O)(=O)[O-])ccc5F)c5nc(c(-c6cc(S(=O)(=O)[O-])ccc6F)c6ccc3[nH]6)C=C5)C=C4)cc2)C(=O)O1
REMARK SMILES IDX 13 1 12 2 10 3 11 4 9 6 8 7 6 8 7 9 85 10 83 11 84 12 5 13
REMARK SMILES IDX 4 14 3 15 2 16 1 17 14 18 15 19 16 20 17 21 18 22 19 24
REMARK SMILES IDX 20 25 21 26 82 27 22 28 81 29 23 30 24 31 25 32 75 33 26 34
REMARK SMILES IDX 80 35 74 36 76 37 27 38 79 39 73 40 72 41 28 43 60 44 40 45
REMARK SMILES IDX 59 46 41 47 44 48 58 49 77 50 42 51 43 52 57 54 78 55 45 56
REMARK SMILES IDX 29 57 30 58 38 59 31 60 37 61 39 62 36 63 32 64 33 65 34 66
REMARK SMILES IDX 35 67 61 68 62 69 70 70 63 71 69 72 71 73 68 74 64 75 65 76
REMARK SMILES IDX 66 77 67 78 46 79 47 80 55 81 48 82 54 83 56 84 53 85 49 86
REMARK SMILES IDX 50 87 51 88 52 89
REMARK H PARENT 12 5 17 23 76 42 44 53
REMARK Flexibility Score: inf
ROOT
ATOM      1  C   UNL A   1      31.196  28.339  23.508  1.00  0.00     0.116 C 
ENDROOT
BRANCH   1   2
ATOM      2  N   UNL A   1      29.820  27.897  23.608  1.00  0.00    -0.356 N 
ATOM      3  C   UNL A   1      29.317  26.646  23.777  1.00  0.00     0.220 C 
ATOM      4  O   UNL A   1      28.103  26.493  23.901  1.00  0.00    -0.275 OA
ATOM      5  H   UNL A   1      29.147  28.612  23.543  1.00  0.00     0.163 HD
BRANCH   3   6
ATOM      6  C   UNL A   1      30.253  25.463  23.888  1.00  0.00     0.115 C 
BRANCH   6   7
ATOM      7  C   UNL A   1      30.259  24.724  25.222  1.00  0.00     0.112 C 
ATOM      8  C   UNL A   1      31.737  23.370  26.550  1.00  0.00     0.177 C 
ATOM      9  C   UNL A   1      31.104  23.465  25.175  1.00  0.00     0.061 C 
ATOM     10  O   UNL A   1      31.460  24.588  27.230  1.00  0.00    -0.462 OA
ATOM     11  C   UNL A   1      30.830  25.466  26.402  1.00  0.00     0.309 C 
ATOM     12  O   UNL A   1      30.684  26.640  26.674  1.00  0.00    -0.252 OA
BRANCH   8  13
ATOM     13  C   UNL A   1      33.252  23.127  26.526  1.00  0.00     0.045 C 
BRANCH  13  14
ATOM     14  C   UNL A   1      33.935  23.150  25.145  1.00  0.00     0.004 C 
BRANCH  14  15
ATOM     15  C   UNL A   1      34.781  24.380  24.781  1.00  0.00    -0.000 C 
BRANCH  15  16
ATOM     16  C   UNL A   1      34.009  25.668  24.493  1.00  0.00    -0.003 C 
ATOM     17  C   UNL A   1      33.725  25.862  23.013  1.00  0.00     0.004 C 
ENDBRANCH  15  16
ENDBRANCH  14  15
ENDBRANCH  13  14
ENDBRANCH   8  13
ENDBRANCH   6   7
ENDBRANCH   3   6
ENDBRANCH   1   2
BRANCH   1  18
ATOM     18  C   UNL A   1      31.567  29.381  24.565  1.00  0.00     0.023 C 
BRANCH  18  19
ATOM     19  C   UNL A   1      32.908  29.139  25.259  1.00  0.00     0.023 C 
BRANCH  19  20
ATOM     20  C   UNL A   1      32.932  29.534  26.728  1.00  0.00     0.116 C 
BRANCH  20  21
ATOM     21  N   UNL A   1      32.893  30.977  26.911  1.00  0.00    -0.352 N 
ATOM     22  C   UNL A   1      33.763  31.787  27.597  1.00  0.00     0.251 C 
ATOM     23  H   UNL A   1      32.137  31.437  26.480  1.00  0.00     0.163 HD
ATOM     24  O   UNL A   1      33.465  32.961  27.798  1.00  0.00    -0.269 OA
BRANCH  22  25
ATOM     25  C   UNL A   1      35.030  31.231  28.110  1.00  0.00     0.039 A 
ATOM     26  C   UNL A   1      36.158  32.052  28.155  1.00  0.00     0.014 A 
ATOM     27  C   UNL A   1      35.105  29.907  28.555  1.00  0.00     0.014 A 
ATOM     28  C   UNL A   1      37.347  31.562  28.697  1.00  0.00     0.010 A 
ATOM     29  C   UNL A   1      36.263  29.449  29.173  1.00  0.00     0.010 A 
ATOM     30  C   UNL A   1      37.400  30.267  29.242  1.00  0.00    -0.014 A 
BRANCH  30  31
ATOM     31  C   UNL A   1      38.643  29.754  29.875  1.00  0.00     0.031 A 
ATOM     32  C   UNL A   1      39.073  30.275  31.219  1.00  0.00     0.074 A 
ATOM     33  C   UNL A   1      39.403  28.855  29.219  1.00  0.00     0.049 A 
ATOM     34  N   UNL A   1      40.143  29.985  31.916  1.00  0.00    -0.248 NA
ATOM     35  C   UNL A   1      38.200  31.276  31.851  1.00  0.00     0.031 C 
ATOM     36  C   UNL A   1      39.109  28.312  27.890  1.00  0.00     0.029 A 
ATOM     37  N   UNL A   1      40.578  28.242  29.574  1.00  0.00    -0.354 N 
ATOM     38  C   UNL A   1      40.077  30.774  33.059  1.00  0.00     0.074 A 
ATOM     39  C   UNL A   1      38.898  31.603  32.928  1.00  0.00     0.031 C 
ATOM     40  C   UNL A   1      40.058  27.422  27.560  1.00  0.00     0.029 A 
ATOM     41  C   UNL A   1      41.055  27.370  28.623  1.00  0.00     0.049 A 
ATOM     42  H   UNL A   1      41.035  28.411  30.428  1.00  0.00     0.167 HD
ATOM     43  C   UNL A   1      40.909  30.787  34.129  1.00  0.00     0.034 A 
ATOM     44  C   UNL A   1      42.176  26.621  28.603  1.00  0.00     0.034 A 
ATOM     45  C   UNL A   1      42.077  29.947  34.243  1.00  0.00     0.049 A 
ATOM     46  C   UNL A   1      43.104  26.676  29.792  1.00  0.00     0.074 A 
ATOM     47  C   UNL A   1      42.959  29.837  35.304  1.00  0.00     0.029 A 
ATOM     48  N   UNL A   1      42.536  29.083  33.256  1.00  0.00    -0.354 N 
ATOM     49  N   UNL A   1      42.996  27.383  30.894  1.00  0.00    -0.248 NA
ATOM     50  C   UNL A   1      44.296  25.821  29.739  1.00  0.00     0.031 C 
ATOM     51  C   UNL A   1      43.993  28.973  34.927  1.00  0.00     0.029 A 
ATOM     52  C   UNL A   1      43.709  28.467  33.669  1.00  0.00     0.049 A 
ATOM     53  H   UNL A   1      42.094  28.929  32.390  1.00  0.00     0.167 HD
ATOM     54  C   UNL A   1      44.092  27.032  31.679  1.00  0.00     0.074 A 
ATOM     55  C   UNL A   1      44.834  26.038  30.930  1.00  0.00     0.031 C 
ATOM     56  C   UNL A   1      44.449  27.486  32.908  1.00  0.00     0.034 A 
BRANCH  43  57
ATOM     57  C   UNL A   1      40.597  31.760  35.244  1.00  0.00     0.023 A 
ATOM     58  C   UNL A   1      39.562  31.526  36.166  1.00  0.00     0.031 A 
ATOM     59  C   UNL A   1      41.329  32.954  35.370  1.00  0.00     0.131 A 
ATOM     60  C   UNL A   1      39.236  32.502  37.119  1.00  0.00     0.055 A 
ATOM     61  C   UNL A   1      41.058  33.882  36.379  1.00  0.00     0.041 A 
ATOM     62  F   UNL A   1      42.314  33.248  34.507  1.00  0.00    -0.206 F 
ATOM     63  C   UNL A   1      39.995  33.666  37.250  1.00  0.00     0.022 A 
BRANCH  60  64
ATOM     64  S   UNL A   1      37.709  32.301  38.078  1.00  0.00     0.124 S 
ATOM     65  O   UNL A   1      36.821  33.256  37.423  1.00  0.00    -0.237 OA
ATOM     66  O   UNL A   1      37.393  30.891  37.876  1.00  0.00    -0.237 OA
ATOM     67  O   UNL A   1      38.107  32.662  39.437  1.00  0.00    -0.744 OA
ENDBRANCH  60  64
ENDBRANCH  43  57
BRANCH  44  68
ATOM     68  C   UNL A   1      42.496  25.768  27.422  1.00  0.00     0.023 A 
ATOM     69  C   UNL A   1      42.042  24.441  27.340  1.00  0.00     0.031 A 
ATOM     70  C   UNL A   1      43.299  26.254  26.375  1.00  0.00     0.131 A 
ATOM     71  C   UNL A   1      42.435  23.632  26.262  1.00  0.00     0.055 A 
ATOM     72  C   UNL A   1      43.636  25.465  25.274  1.00  0.00     0.041 A 
ATOM     73  F   UNL A   1      43.760  27.515  26.401  1.00  0.00    -0.206 F 
ATOM     74  C   UNL A   1      43.216  24.140  25.221  1.00  0.00     0.022 A 
BRANCH  71  75
ATOM     75  S   UNL A   1      41.990  21.874  26.288  1.00  0.00     0.124 S 
ATOM     76  O   UNL A   1      42.910  21.321  25.301  1.00  0.00    -0.237 OA
ATOM     77  O   UNL A   1      42.250  21.515  27.678  1.00  0.00    -0.237 OA
ATOM     78  O   UNL A   1      40.581  21.874  25.899  1.00  0.00    -0.744 OA
ENDBRANCH  71  75
ENDBRANCH  44  68
BRANCH  56  79
ATOM     79  C   UNL A   1      45.674  26.869  33.539  1.00  0.00     0.023 A 
ATOM     80  C   UNL A   1      45.595  25.730  34.361  1.00  0.00     0.031 A 
ATOM     81  C   UNL A   1      46.943  27.440  33.324  1.00  0.00     0.131 A 
ATOM     82  C   UNL A   1      46.751  25.238  34.988  1.00  0.00     0.055 A 
ATOM     83  C   UNL A   1      48.098  26.902  33.892  1.00  0.00     0.041 A 
ATOM     84  F   UNL A   1      47.080  28.531  32.555  1.00  0.00    -0.206 F 
ATOM     85  C   UNL A   1      48.004  25.804  34.741  1.00  0.00     0.022 A 
BRANCH  82  86
ATOM     86  S   UNL A   1      46.579  23.916  36.218  1.00  0.00     0.124 S 
ATOM     87  O   UNL A   1      47.070  24.565  37.429  1.00  0.00    -0.237 OA
ATOM     88  O   UNL A   1      45.147  23.638  36.180  1.00  0.00    -0.237 OA
ATOM     89  O   UNL A   1      47.431  22.849  35.697  1.00  0.00    -0.744 OA
ENDBRANCH  82  86
ENDBRANCH  56  79
ENDBRANCH  30  31
ENDBRANCH  22  25
ENDBRANCH  20  21
ENDBRANCH  19  20
ENDBRANCH  18  19
ENDBRANCH   1  18
TORSDOF 19
ENDMDL
MODEL 2
REMARK VINA RESULT:     -10.2      2.819      3.455
REMARK SMILES CCCCC[C@@H]1C[C@H](CC(=O)NCCCCNC(=O)c2ccc(-c3c4nc(c(-c5cc(S(=O)(=O)[O-])ccc5F)c5ccc([nH]5)c(-c5cc(S(=O)(=O)[O-])ccc5F)c5nc(c(-c6cc(S(=O)(=O)[O-])ccc6F)c6ccc3[nH]6)C=C5)C=C4)cc2)C(=O)O1
REMARK SMILES IDX 13 1 12 2 10 3 11 4 9 6 8 7 6 8 7 9 85 10 83 11 84 12 5 13
REMARK SMILES IDX 4 14 3 15 2 16 1 17 14 18 15 19 16 20 17 21 18 22 19 24
REMARK SMILES IDX 20 25 21 26 82 27 22 28 81 29 23 30 24 31 25 32 75 33 26 34
REMARK SMILES IDX 80 35 74 36 76 37 27 38 79 39 73 40 72 41 28 43 60 44 40 45
REMARK SMILES IDX 59 46 41 47 44 48 58 49 77 50 42 51 43 52 57 54 78 55 45 56
REMARK SMILES IDX 29 57 30 58 38 59 31 60 37 61 39 62 36 63 32 64 33 65 34 66
REMARK SMILES IDX 35 67 61 68 62 69 70 70 63 71 69 72 71 73 68 74 64 75 65 76
REMARK SMILES IDX 66 77 67 78 46 79 47 80 55 81 48 82 54 83 56 84 53 85 49 86
REMARK SMILES IDX 50 87 51 88 52 89
REMARK H PARENT 12 5 17 23 76 42 44 53
REMARK Flexibility Score: inf
ROOT
ATOM      1  C   UNL A   1      31.304  27.117  24.156  1.00  0.00     0.116 C 
ENDROOT
BRANCH   1   2
ATOM      2  N   UNL A   1      32.247  27.091  23.057  1.00  0.00    -0.356 N 
ATOM      3  C   UNL A   1      33.112  26.115  22.674  1.00  0.00     0.220 C 
ATOM      4  O   UNL A   1      33.792  26.272  21.661  1.00  0.00    -0.275 OA
ATOM      5  H   UNL A   1      32.265  27.905  22.504  1.00  0.00     0.163 HD
BRANCH   3   6
ATOM      6  C   UNL A   1      33.179  24.818  23.448  1.00  0.00     0.115 C 
BRANCH   6   7
ATOM      7  C   UNL A   1      34.389  24.631  24.357  1.00  0.00     0.112 C 
ATOM      8  C   UNL A   1      35.141  23.171  26.115  1.00  0.00     0.177 C 
ATOM      9  C   UNL A   1      34.001  24.092  25.721  1.00  0.00     0.061 C 
ATOM     10  O   UNL A   1      35.979  23.023  24.975  1.00  0.00    -0.462 OA
ATOM     11  C   UNL A   1      35.435  23.650  23.896  1.00  0.00     0.309 C 
ATOM     12  O   UNL A   1      35.843  23.487  22.764  1.00  0.00    -0.252 OA
BRANCH   8  13
ATOM     13  C   UNL A   1      34.688  21.790  26.604  1.00  0.00     0.045 C 
BRANCH  13  14
ATOM     14  C   UNL A   1      34.460  20.712  25.527  1.00  0.00     0.004 C 
BRANCH  14  15
ATOM     15  C   UNL A   1      33.124  19.955  25.539  1.00  0.00    -0.000 C 
BRANCH  15  16
ATOM     16  C   UNL A   1      32.342  19.944  24.225  1.00  0.00    -0.003 C 
ATOM     17  C   UNL A   1      32.513  21.228  23.431  1.00  0.00     0.004 C 
ENDBRANCH  15  16
ENDBRANCH  14  15
ENDBRANCH  13  14
ENDBRANCH   8  13
ENDBRANCH   6   7
ENDBRANCH   3   6
ENDBRANCH   1   2
BRANCH   1  18
ATOM     18  C   UNL A   1      31.696  28.102  25.258  1.00  0.00     0.023 C 
BRANCH  18  19
ATOM     19  C   UNL A   1      32.837  27.630  26.160  1.00  0.00     0.023 C 
BRANCH  19  20
ATOM     20  C   UNL A   1      34.065  28.529  26.138  1.00  0.00     0.116 C 
BRANCH  20  21
ATOM     21  N   UNL A   1      33.753  29.896  26.530  1.00  0.00    -0.352 N 
ATOM     22  C   UNL A   1      34.386  30.700  27.444  1.00  0.00     0.251 C 
ATOM     23  H   UNL A   1      32.980  30.300  26.075  1.00  0.00     0.163 HD
ATOM     24  O   UNL A   1      33.866  31.761  27.778  1.00  0.00    -0.269 OA
BRANCH  22  25
ATOM     25  C   UNL A   1      35.667  30.268  28.036  1.00  0.00     0.039 A 
ATOM     26  C   UNL A   1      35.660  29.667  29.296  1.00  0.00     0.014 A 
ATOM     27  C   UNL A   1      36.871  30.445  27.347  1.00  0.00     0.014 A 
ATOM     28  C   UNL A   1      36.855  29.194  29.840  1.00  0.00     0.010 A 
ATOM     29  C   UNL A   1      38.045  29.896  27.852  1.00  0.00     0.010 A 
ATOM     30  C   UNL A   1      38.052  29.274  29.108  1.00  0.00    -0.014 A 
BRANCH  30  31
ATOM     31  C   UNL A   1      39.320  28.721  29.652  1.00  0.00     0.031 A 
ATOM     32  C   UNL A   1      39.954  29.344  30.866  1.00  0.00     0.074 A 
ATOM     33  C   UNL A   1      39.920  27.690  29.024  1.00  0.00     0.049 A 
ATOM     34  N   UNL A   1      41.076  29.035  31.464  1.00  0.00    -0.248 NA
ATOM     35  C   UNL A   1      39.246  30.483  31.470  1.00  0.00     0.031 C 
ATOM     36  C   UNL A   1      39.422  27.035  27.812  1.00  0.00     0.029 A 
ATOM     37  N   UNL A   1      41.079  27.015  29.313  1.00  0.00    -0.354 N 
ATOM     38  C   UNL A   1      41.214  29.947  32.506  1.00  0.00     0.074 A 
ATOM     39  C   UNL A   1      40.097  30.861  32.413  1.00  0.00     0.031 C 
ATOM     40  C   UNL A   1      40.250  26.032  27.483  1.00  0.00     0.029 A 
ATOM     41  C   UNL A   1      41.365  26.004  28.424  1.00  0.00     0.049 A 
ATOM     42  H   UNL A   1      41.651  27.233  30.083  1.00  0.00     0.167 HD
ATOM     43  C   UNL A   1      42.172  30.000  33.464  1.00  0.00     0.034 A 
ATOM     44  C   UNL A   1      42.413  25.158  28.365  1.00  0.00     0.034 A 
ATOM     45  C   UNL A   1      43.275  29.074  33.542  1.00  0.00     0.049 A 
ATOM     46  C   UNL A   1      43.483  25.257  29.424  1.00  0.00     0.074 A 
ATOM     47  C   UNL A   1      44.272  28.999  34.500  1.00  0.00     0.029 A 
ATOM     48  N   UNL A   1      43.540  28.069  32.619  1.00  0.00    -0.354 N 
ATOM     49  N   UNL A   1      43.568  26.087  30.439  1.00  0.00    -0.248 NA
ATOM     50  C   UNL A   1      44.589  24.296  29.338  1.00  0.00     0.031 C 
ATOM     51  C   UNL A   1      45.180  28.009  34.114  1.00  0.00     0.029 A 
ATOM     52  C   UNL A   1      44.703  27.396  32.965  1.00  0.00     0.049 A 
ATOM     53  H   UNL A   1      42.983  27.863  31.834  1.00  0.00     0.167 HD
ATOM     54  C   UNL A   1      44.722  25.725  31.130  1.00  0.00     0.074 A 
ATOM     55  C   UNL A   1      45.287  24.591  30.425  1.00  0.00     0.031 C 
ATOM     56  C   UNL A   1      45.264  26.275  32.247  1.00  0.00     0.034 A 
BRANCH  43  57
ATOM     57  C   UNL A   1      42.077  31.113  34.483  1.00  0.00     0.023 A 
ATOM     58  C   UNL A   1      42.736  32.342  34.304  1.00  0.00     0.031 A 
ATOM     59  C   UNL A   1      41.338  30.933  35.666  1.00  0.00     0.131 A 
ATOM     60  C   UNL A   1      42.710  33.308  35.320  1.00  0.00     0.055 A 
ATOM     61  C   UNL A   1      41.241  31.935  36.634  1.00  0.00     0.041 A 
ATOM     62  F   UNL A   1      40.705  29.775  35.908  1.00  0.00    -0.206 F 
ATOM     63  C   UNL A   1      41.944  33.125  36.472  1.00  0.00     0.022 A 
BRANCH  60  64
ATOM     64  S   UNL A   1      43.819  34.737  35.186  1.00  0.00     0.124 S 
ATOM     65  O   UNL A   1      43.040  35.780  35.849  1.00  0.00    -0.237 OA
ATOM     66  O   UNL A   1      45.009  34.281  35.895  1.00  0.00    -0.237 OA
ATOM     67  O   UNL A   1      43.980  34.913  33.744  1.00  0.00    -0.744 OA
ENDBRANCH  60  64
ENDBRANCH  43  57
BRANCH  44  68
ATOM     68  C   UNL A   1      42.516  24.156  27.265  1.00  0.00     0.023 A 
ATOM     69  C   UNL A   1      41.905  22.896  27.371  1.00  0.00     0.031 A 
ATOM     70  C   UNL A   1      43.265  24.428  26.107  1.00  0.00     0.131 A 
ATOM     71  C   UNL A   1      42.095  21.938  26.362  1.00  0.00     0.055 A 
ATOM     72  C   UNL A   1      43.401  23.494  25.078  1.00  0.00     0.041 A 
ATOM     73  F   UNL A   1      43.871  25.616  25.952  1.00  0.00    -0.206 F 
ATOM     74  C   UNL A   1      42.826  22.235  25.209  1.00  0.00     0.022 A 
BRANCH  71  75
ATOM     75  S   UNL A   1      41.453  20.262  26.623  1.00  0.00     0.124 S 
ATOM     76  O   UNL A   1      40.022  20.510  26.753  1.00  0.00    -0.237 OA
ATOM     77  O   UNL A   1      41.878  19.580  25.406  1.00  0.00    -0.237 OA
ATOM     78  O   UNL A   1      42.125  19.826  27.846  1.00  0.00    -0.744 OA
ENDBRANCH  71  75
ENDBRANCH  44  68
BRANCH  56  79
ATOM     79  C   UNL A   1      46.507  25.621  32.803  1.00  0.00     0.023 A 
ATOM     80  C   UNL A   1      47.793  25.952  32.340  1.00  0.00     0.031 A 
ATOM     81  C   UNL A   1      46.400  24.639  33.805  1.00  0.00     0.131 A 
ATOM     82  C   UNL A   1      48.913  25.262  32.832  1.00  0.00     0.055 A 
ATOM     83  C   UNL A   1      47.523  24.009  34.342  1.00  0.00     0.041 A 
ATOM     84  F   UNL A   1      45.198  24.277  34.282  1.00  0.00    -0.206 F 
ATOM     85  C   UNL A   1      48.787  24.308  33.844  1.00  0.00     0.022 A 
BRANCH  82  86
ATOM     86  S   UNL A   1      50.524  25.549  32.051  1.00  0.00     0.124 S 
ATOM     87  O   UNL A   1      50.354  24.897  30.756  1.00  0.00    -0.237 OA
ATOM     88  O   UNL A   1      50.605  27.005  32.026  1.00  0.00    -0.237 OA
ATOM     89  O   UNL A   1      51.466  24.892  32.956  1.00  0.00    -0.744 OA
ENDBRANCH  82  86
ENDBRANCH  56  79
ENDBRANCH  30  31
ENDBRANCH  22  25
ENDBRANCH  20  21
ENDBRANCH  19  20
ENDBRANCH  18  19
ENDBRANCH   1  18
TORSDOF 19
ENDMDL
MODEL 3
REMARK VINA RESULT:     -10.2      2.256      3.355
REMARK SMILES CCCCC[C@@H]1C[C@H](CC(=O)NCCCCNC(=O)c2ccc(-c3c4nc(c(-c5cc(S(=O)(=O)[O-])ccc5F)c5ccc([nH]5)c(-c5cc(S(=O)(=O)[O-])ccc5F)c5nc(c(-c6cc(S(=O)(=O)[O-])ccc6F)c6ccc3[nH]6)C=C5)C=C4)cc2)C(=O)O1
REMARK SMILES IDX 13 1 12 2 10 3 11 4 9 6 8 7 6 8 7 9 85 10 83 11 84 12 5 13
REMARK SMILES IDX 4 14 3 15 2 16 1 17 14 18 15 19 16 20 17 21 18 22 19 24
REMARK SMILES IDX 20 25 21 26 82 27 22 28 81 29 23 30 24 31 25 32 75 33 26 34
REMARK SMILES IDX 80 35 74 36 76 37 27 38 79 39 73 40 72 41 28 43 60 44 40 45
REMARK SMILES IDX 59 46 41 47 44 48 58 49 77 50 42 51 43 52 57 54 78 55 45 56
REMARK SMILES IDX 29 57 30 58 38 59 31 60 37 61 39 62 36 63 32 64 33 65 34 66
REMARK SMILES IDX 35 67 61 68 62 69 70 70 63 71 69 72 71 73 68 74 64 75 65 76
REMARK SMILES IDX 66 77 67 78 46 79 47 80 55 81 48 82 54 83 56 84 53 85 49 86
REMARK SMILES IDX 50 87 51 88 52 89
REMARK H PARENT 12 5 17 23 76 42 44 53
REMARK Flexibility Score: inf
ROOT
ATOM      1  C   UNL A   1      33.355  25.212  26.048  1.00  0.00     0.116 C 
ENDROOT
BRANCH   1   2
ATOM      2  N   UNL A   1      31.992  25.283  26.535  1.00  0.00    -0.356 N 
ATOM      3  C   UNL A   1      30.855  24.741  26.025  1.00  0.00     0.220 C 
ATOM      4  O   UNL A   1      29.795  24.871  26.636  1.00  0.00    -0.275 OA
ATOM      5  H   UNL A   1      31.872  25.803  27.362  1.00  0.00     0.163 HD
BRANCH   3   6
ATOM      6  C   UNL A   1      30.911  23.921  24.755  1.00  0.00     0.115 C 
BRANCH   6   7
ATOM      7  C   UNL A   1      30.675  24.674  23.451  1.00  0.00     0.112 C 
ATOM      8  C   UNL A   1      30.552  26.938  22.647  1.00  0.00     0.177 C 
ATOM      9  C   UNL A   1      29.956  25.991  23.673  1.00  0.00     0.061 C 
ATOM     10  O   UNL A   1      31.668  26.279  22.062  1.00  0.00    -0.462 OA
ATOM     11  C   UNL A   1      31.899  25.088  22.679  1.00  0.00     0.309 C 
ATOM     12  O   UNL A   1      32.916  24.446  22.510  1.00  0.00    -0.252 OA
BRANCH   8  13
ATOM     13  C   UNL A   1      30.996  28.287  23.227  1.00  0.00     0.045 C 
BRANCH  13  14
ATOM     14  C   UNL A   1      30.038  29.477  23.024  1.00  0.00     0.004 C 
BRANCH  14  15
ATOM     15  C   UNL A   1      28.534  29.181  22.929  1.00  0.00    -0.000 C 
BRANCH  15  16
ATOM     16  C   UNL A   1      27.640  30.353  22.521  1.00  0.00    -0.003 C 
ATOM     17  C   UNL A   1      27.608  31.456  23.564  1.00  0.00     0.004 C 
ENDBRANCH  15  16
ENDBRANCH  14  15
ENDBRANCH  13  14
ENDBRANCH   8  13
ENDBRANCH   6   7
ENDBRANCH   3   6
ENDBRANCH   1   2
BRANCH   1  18
ATOM     18  C   UNL A   1      33.878  26.555  25.539  1.00  0.00     0.023 C 
BRANCH  18  19
ATOM     19  C   UNL A   1      33.051  27.768  25.967  1.00  0.00     0.023 C 
BRANCH  19  20
ATOM     20  C   UNL A   1      33.544  28.444  27.238  1.00  0.00     0.116 C 
BRANCH  20  21
ATOM     21  N   UNL A   1      33.482  29.896  27.148  1.00  0.00    -0.352 N 
ATOM     22  C   UNL A   1      34.357  30.832  27.639  1.00  0.00     0.251 C 
ATOM     23  H   UNL A   1      32.703  30.256  26.666  1.00  0.00     0.163 HD
ATOM     24  O   UNL A   1      34.043  32.019  27.627  1.00  0.00    -0.269 OA
BRANCH  22  25
ATOM     25  C   UNL A   1      35.652  30.399  28.200  1.00  0.00     0.039 A 
ATOM     26  C   UNL A   1      35.673  29.795  29.459  1.00  0.00     0.014 A 
ATOM     27  C   UNL A   1      36.840  30.579  27.485  1.00  0.00     0.014 A 
ATOM     28  C   UNL A   1      36.880  29.323  29.976  1.00  0.00     0.010 A 
ATOM     29  C   UNL A   1      38.025  30.031  27.963  1.00  0.00     0.010 A 
ATOM     30  C   UNL A   1      38.061  29.405  29.218  1.00  0.00    -0.014 A 
BRANCH  30  31
ATOM     31  C   UNL A   1      39.341  28.852  29.731  1.00  0.00     0.031 A 
ATOM     32  C   UNL A   1      40.014  29.488  30.917  1.00  0.00     0.074 A 
ATOM     33  C   UNL A   1      39.916  27.809  29.101  1.00  0.00     0.049 A 
ATOM     34  N   UNL A   1      41.151  29.181  31.487  1.00  0.00    -0.248 NA
ATOM     35  C   UNL A   1      39.331  30.640  31.526  1.00  0.00     0.031 C 
ATOM     36  C   UNL A   1      39.379  27.140  27.914  1.00  0.00     0.029 A 
ATOM     37  N   UNL A   1      41.079  27.130  29.365  1.00  0.00    -0.354 N 
ATOM     38  C   UNL A   1      41.325  30.106  32.511  1.00  0.00     0.074 A 
ATOM     39  C   UNL A   1      40.211  31.026  32.438  1.00  0.00     0.031 C 
ATOM     40  C   UNL A   1      40.191  26.127  27.576  1.00  0.00     0.029 A 
ATOM     41  C   UNL A   1      41.333  26.105  28.483  1.00  0.00     0.049 A 
ATOM     42  H   UNL A   1      41.675  27.356  30.115  1.00  0.00     0.167 HD
ATOM     43  C   UNL A   1      42.311  30.167  33.440  1.00  0.00     0.034 A 
ATOM     44  C   UNL A   1      42.374  25.252  28.406  1.00  0.00     0.034 A 
ATOM     45  C   UNL A   1      43.411  29.235  33.499  1.00  0.00     0.049 A 
ATOM     46  C   UNL A   1      43.475  25.359  29.432  1.00  0.00     0.074 A 
ATOM     47  C   UNL A   1      44.435  29.168  34.428  1.00  0.00     0.029 A 
ATOM     48  N   UNL A   1      43.643  28.216  32.583  1.00  0.00    -0.354 N 
ATOM     49  N   UNL A   1      43.595  26.203  30.432  1.00  0.00    -0.248 NA
ATOM     50  C   UNL A   1      44.573  24.391  29.327  1.00  0.00     0.031 C 
ATOM     51  C   UNL A   1      45.326  28.167  34.029  1.00  0.00     0.029 A 
ATOM     52  C   UNL A   1      44.812  27.541  32.904  1.00  0.00     0.049 A 
ATOM     53  H   UNL A   1      43.061  28.002  31.817  1.00  0.00     0.167 HD
ATOM     54  C   UNL A   1      44.767  25.843  31.093  1.00  0.00     0.074 A 
ATOM     55  C   UNL A   1      45.304  24.697  30.388  1.00  0.00     0.031 C 
ATOM     56  C   UNL A   1      45.345  26.406  32.186  1.00  0.00     0.034 A 
BRANCH  43  57
ATOM     57  C   UNL A   1      42.253  31.295  34.445  1.00  0.00     0.023 A 
ATOM     58  C   UNL A   1      41.303  31.318  35.481  1.00  0.00     0.031 A 
ATOM     59  C   UNL A   1      43.145  32.378  34.351  1.00  0.00     0.131 A 
ATOM     60  C   UNL A   1      41.215  32.433  36.328  1.00  0.00     0.055 A 
ATOM     61  C   UNL A   1      43.111  33.443  35.254  1.00  0.00     0.041 A 
ATOM     62  F   UNL A   1      44.061  32.427  33.370  1.00  0.00    -0.206 F 
ATOM     63  C   UNL A   1      42.130  33.483  36.239  1.00  0.00     0.022 A 
BRANCH  60  64
ATOM     64  S   UNL A   1      39.788  32.564  37.441  1.00  0.00     0.124 S 
ATOM     65  O   UNL A   1      38.973  31.430  37.013  1.00  0.00    -0.237 OA
ATOM     66  O   UNL A   1      40.404  32.448  38.758  1.00  0.00    -0.237 OA
ATOM     67  O   UNL A   1      39.227  33.876  37.127  1.00  0.00    -0.744 OA
ENDBRANCH  60  64
ENDBRANCH  43  57
BRANCH  44  68
ATOM     68  C   UNL A   1      42.439  24.234  27.318  1.00  0.00     0.023 A 
ATOM     69  C   UNL A   1      41.631  23.085  27.349  1.00  0.00     0.031 A 
ATOM     70  C   UNL A   1      43.343  24.373  26.250  1.00  0.00     0.131 A 
ATOM     71  C   UNL A   1      41.779  22.098  26.361  1.00  0.00     0.055 A 
ATOM     72  C   UNL A   1      43.442  23.418  25.237  1.00  0.00     0.041 A 
ATOM     73  F   UNL A   1      44.139  25.451  26.169  1.00  0.00    -0.206 F 
ATOM     74  C   UNL A   1      42.668  22.265  25.297  1.00  0.00     0.022 A 
BRANCH  71  75
ATOM     75  S   UNL A   1      40.859  20.545  26.541  1.00  0.00     0.124 S 
ATOM     76  O   UNL A   1      39.538  20.926  26.055  1.00  0.00    -0.237 OA
ATOM     77  O   UNL A   1      41.620  19.641  25.687  1.00  0.00    -0.237 OA
ATOM     78  O   UNL A   1      40.942  20.264  27.973  1.00  0.00    -0.744 OA
ENDBRANCH  71  75
ENDBRANCH  44  68
BRANCH  56  79
ATOM     79  C   UNL A   1      46.599  25.752  32.714  1.00  0.00     0.023 A 
ATOM     80  C   UNL A   1      47.863  25.998  32.147  1.00  0.00     0.031 A 
ATOM     81  C   UNL A   1      46.526  24.857  33.797  1.00  0.00     0.131 A 
ATOM     82  C   UNL A   1      48.989  25.308  32.622  1.00  0.00     0.055 A 
ATOM     83  C   UNL A   1      47.661  24.229  34.312  1.00  0.00     0.041 A 
ATOM     84  F   UNL A   1      45.347  24.578  34.376  1.00  0.00    -0.206 F 
ATOM     85  C   UNL A   1      48.899  24.442  33.714  1.00  0.00     0.022 A 
BRANCH  82  86
ATOM     86  S   UNL A   1      50.555  25.473  31.722  1.00  0.00     0.124 S 
ATOM     87  O   UNL A   1      50.175  26.339  30.610  1.00  0.00    -0.237 OA
ATOM     88  O   UNL A   1      51.431  26.070  32.725  1.00  0.00    -0.237 OA
ATOM     89  O   UNL A   1      50.884  24.098  31.352  1.00  0.00    -0.744 OA
ENDBRANCH  82  86
ENDBRANCH  56  79
ENDBRANCH  30  31
ENDBRANCH  22  25
ENDBRANCH  20  21
ENDBRANCH  19  20
ENDBRANCH  18  19
ENDBRANCH   1  18
TORSDOF 19
ENDMDL
