MODEL 1
REMARK VINA RESULT:     -10.6      0.000      0.000
REMARK SMILES O=C(C[C@@H](c1c[nH]c2ccccc12)C(F)(F)F)NCCCCNC(=O)c1ccc(-c2c3nc(c(-c4cc(S(=O)(=O)[O-])ccc4F)c4ccc([nH]4)c(-c4cc(S(=O)(=O)[O-])ccc4F)c4nc(c(-c5cc(S(=O)(=O)[O-])ccc5F)c5ccc2[nH]5)C=C4)C=C3)cc1
REMARK SMILES IDX 21 1 20 2 19 3 18 4 1 5 2 6 3 8 4 9 5 10 6 11 13 12 7 13
REMARK SMILES IDX 8 14 12 15 9 17 11 18 10 19 14 20 15 21 16 22 17 23 22 24
REMARK SMILES IDX 23 25 24 26 25 28 26 29 27 30 88 31 28 32 87 33 29 34 30 35
REMARK SMILES IDX 31 36 81 37 32 38 86 39 80 40 82 41 33 42 85 43 79 44 78 45
REMARK SMILES IDX 34 47 66 48 46 49 65 50 47 51 50 52 64 53 83 54 48 55 49 56
REMARK SMILES IDX 63 58 84 59 51 60 35 61 36 62 44 63 37 64 43 65 45 66 42 67
REMARK SMILES IDX 38 68 39 69 40 70 41 71 67 72 68 73 76 74 69 75 75 76 77 77
REMARK SMILES IDX 74 78 70 79 71 80 72 81 73 82 52 83 53 84 61 85 54 86 60 87
REMARK SMILES IDX 62 88 59 89 55 90 56 91 57 92 58 93
REMARK H PARENT 18 7 7 16 23 27 82 46 50 57
REMARK Flexibility Score: inf
ROOT
ATOM      1  C   UNL A   1      34.533  35.155  28.406  1.00  0.00     0.023 C 
ENDROOT
BRANCH   1   2
ATOM      2  C   UNL A   1      33.091  35.476  28.825  1.00  0.00     0.023 C 
BRANCH   2   3
ATOM      3  C   UNL A   1      32.933  36.477  29.972  1.00  0.00     0.116 C 
BRANCH   3   4
ATOM      4  N   UNL A   1      33.945  36.331  31.002  1.00  0.00    -0.356 N 
ATOM      5  O   UNL A   1      32.635  35.070  32.407  1.00  0.00    -0.275 OA
ATOM      6  C   UNL A   1      33.731  35.532  32.108  1.00  0.00     0.220 C 
ATOM      7  H   UNL A   1      34.799  36.811  30.911  1.00  0.00     0.163 HD
BRANCH   6   8
ATOM      8  C   UNL A   1      34.984  35.218  32.900  1.00  0.00     0.117 C 
BRANCH   8   9
ATOM      9  C   UNL A   1      35.876  34.154  32.193  1.00  0.00     0.136 C 
BRANCH   9  10
ATOM     10  C   UNL A   1      37.366  34.320  32.554  1.00  0.00    -0.010 A 
ATOM     11  C   UNL A   1      37.821  34.625  33.827  1.00  0.00     0.087 A 
ATOM     12  C   UNL A   1      38.566  34.340  31.734  1.00  0.00     0.003 A 
ATOM     13  N   UNL A   1      39.178  34.560  33.866  1.00  0.00    -0.361 N 
ATOM     14  C   UNL A   1      39.664  34.461  32.596  1.00  0.00     0.046 A 
ATOM     15  C   UNL A   1      38.864  34.296  30.354  1.00  0.00     0.010 A 
ATOM     16  H   UNL A   1      39.725  34.581  34.684  1.00  0.00     0.166 HD
ATOM     17  C   UNL A   1      40.998  34.501  32.179  1.00  0.00     0.026 A 
ATOM     18  C   UNL A   1      40.194  34.385  29.911  1.00  0.00     0.001 A 
ATOM     19  C   UNL A   1      41.245  34.476  30.812  1.00  0.00     0.002 A 
ENDBRANCH   9  10
BRANCH   9  20
ATOM     20  C   UNL A   1      35.259  32.793  32.523  1.00  0.00     0.396 C 
ATOM     21  F   UNL A   1      36.225  31.847  32.663  1.00  0.00    -0.170 F 
ATOM     22  F   UNL A   1      34.584  32.791  33.691  1.00  0.00    -0.170 F 
ATOM     23  F   UNL A   1      34.430  32.358  31.548  1.00  0.00    -0.170 F 
ENDBRANCH   9  20
ENDBRANCH   8   9
ENDBRANCH   6   8
ENDBRANCH   3   4
ENDBRANCH   2   3
ENDBRANCH   1   2
BRANCH   1  24
ATOM     24  C   UNL A   1      35.008  33.723  28.659  1.00  0.00     0.116 C 
BRANCH  24  25
ATOM     25  N   UNL A   1      34.159  32.718  28.055  1.00  0.00    -0.352 N 
ATOM     26  C   UNL A   1      34.375  31.377  27.829  1.00  0.00     0.251 C 
ATOM     27  H   UNL A   1      33.280  33.047  27.757  1.00  0.00     0.163 HD
ATOM     28  O   UNL A   1      33.544  30.747  27.181  1.00  0.00    -0.269 OA
BRANCH  26  29
ATOM     29  C   UNL A   1      35.601  30.693  28.316  1.00  0.00     0.039 A 
ATOM     30  C   UNL A   1      36.807  30.949  27.654  1.00  0.00     0.014 A 
ATOM     31  C   UNL A   1      35.580  29.775  29.370  1.00  0.00     0.014 A 
ATOM     32  C   UNL A   1      37.992  30.349  28.091  1.00  0.00     0.010 A 
ATOM     33  C   UNL A   1      36.778  29.230  29.850  1.00  0.00     0.010 A 
ATOM     34  C   UNL A   1      38.000  29.515  29.221  1.00  0.00    -0.014 A 
BRANCH  34  35
ATOM     35  C   UNL A   1      39.278  28.952  29.748  1.00  0.00     0.031 A 
ATOM     36  C   UNL A   1      39.980  29.596  30.916  1.00  0.00     0.074 A 
ATOM     37  C   UNL A   1      39.833  27.875  29.151  1.00  0.00     0.049 A 
ATOM     38  N   UNL A   1      41.126  29.286  31.467  1.00  0.00    -0.248 NA
ATOM     39  C   UNL A   1      39.315  30.756  31.527  1.00  0.00     0.031 C 
ATOM     40  C   UNL A   1      39.270  27.168  27.999  1.00  0.00     0.029 A 
ATOM     41  N   UNL A   1      40.992  27.188  29.424  1.00  0.00    -0.354 N 
ATOM     42  C   UNL A   1      41.323  30.211  32.488  1.00  0.00     0.074 A 
ATOM     43  C   UNL A   1      40.205  31.130  32.433  1.00  0.00     0.031 C 
ATOM     44  C   UNL A   1      40.070  26.138  27.680  1.00  0.00     0.029 A 
ATOM     45  C   UNL A   1      41.232  26.140  28.565  1.00  0.00     0.049 A 
ATOM     46  H   UNL A   1      41.596  27.426  30.164  1.00  0.00     0.167 HD
ATOM     47  C   UNL A   1      42.327  30.275  33.399  1.00  0.00     0.034 A 
ATOM     48  C   UNL A   1      42.272  25.285  28.481  1.00  0.00     0.034 A 
ATOM     49  C   UNL A   1      43.435  29.350  33.448  1.00  0.00     0.049 A 
ATOM     50  C   UNL A   1      43.404  25.409  29.472  1.00  0.00     0.074 A 
ATOM     51  C   UNL A   1      44.481  29.306  34.355  1.00  0.00     0.029 A 
ATOM     52  N   UNL A   1      43.651  28.313  32.550  1.00  0.00    -0.354 N 
ATOM     53  N   UNL A   1      43.551  26.269  30.453  1.00  0.00    -0.248 NA
ATOM     54  C   UNL A   1      44.503  24.442  29.350  1.00  0.00     0.031 C 
ATOM     55  C   UNL A   1      45.366  28.298  33.960  1.00  0.00     0.029 A 
ATOM     56  C   UNL A   1      44.830  27.650  32.860  1.00  0.00     0.049 A 
ATOM     57  H   UNL A   1      43.054  28.082  31.802  1.00  0.00     0.167 HD
ATOM     58  C   UNL A   1      44.744  25.921  31.085  1.00  0.00     0.074 A 
ATOM     59  C   UNL A   1      45.263  24.766  30.384  1.00  0.00     0.031 C 
ATOM     60  C   UNL A   1      45.350  26.502  32.152  1.00  0.00     0.034 A 
BRANCH  47  61
ATOM     61  C   UNL A   1      42.285  31.403  34.405  1.00  0.00     0.023 A 
ATOM     62  C   UNL A   1      41.334  31.436  35.440  1.00  0.00     0.031 A 
ATOM     63  C   UNL A   1      43.201  32.468  34.322  1.00  0.00     0.131 A 
ATOM     64  C   UNL A   1      41.270  32.543  36.300  1.00  0.00     0.055 A 
ATOM     65  C   UNL A   1      43.187  33.525  35.236  1.00  0.00     0.041 A 
ATOM     66  F   UNL A   1      44.119  32.506  33.345  1.00  0.00    -0.206 F 
ATOM     67  C   UNL A   1      42.209  33.575  36.223  1.00  0.00     0.022 A 
BRANCH  64  68
ATOM     68  S   UNL A   1      39.851  32.686  37.421  1.00  0.00     0.124 S 
ATOM     69  O   UNL A   1      39.297  33.980  37.029  1.00  0.00    -0.237 OA
ATOM     70  O   UNL A   1      39.053  31.517  37.069  1.00  0.00    -0.237 OA
ATOM     71  O   UNL A   1      40.459  32.653  38.749  1.00  0.00    -0.744 OA
ENDBRANCH  64  68
ENDBRANCH  47  61
BRANCH  48  72
ATOM     72  C   UNL A   1      42.318  24.249  27.405  1.00  0.00     0.023 A 
ATOM     73  C   UNL A   1      41.720  22.991  27.581  1.00  0.00     0.031 A 
ATOM     74  C   UNL A   1      43.011  24.486  26.204  1.00  0.00     0.131 A 
ATOM     75  C   UNL A   1      41.871  22.000  26.598  1.00  0.00     0.055 A 
ATOM     76  C   UNL A   1      43.105  23.518  25.203  1.00  0.00     0.041 A 
ATOM     77  F   UNL A   1      43.602  25.670  25.982  1.00  0.00    -0.206 F 
ATOM     78  C   UNL A   1      42.545  22.260  25.403  1.00  0.00     0.022 A 
BRANCH  75  79
ATOM     79  S   UNL A   1      41.260  20.329  26.948  1.00  0.00     0.124 S 
ATOM     80  O   UNL A   1      42.446  19.520  26.694  1.00  0.00    -0.237 OA
ATOM     81  O   UNL A   1      40.847  20.443  28.343  1.00  0.00    -0.237 OA
ATOM     82  O   UNL A   1      40.170  20.159  25.989  1.00  0.00    -0.744 OA
ENDBRANCH  75  79
ENDBRANCH  48  72
BRANCH  60  83
ATOM     83  C   UNL A   1      46.622  25.862  32.658  1.00  0.00     0.023 A 
ATOM     84  C   UNL A   1      47.872  26.122  32.069  1.00  0.00     0.031 A 
ATOM     85  C   UNL A   1      46.579  24.968  33.744  1.00  0.00     0.131 A 
ATOM     86  C   UNL A   1      49.016  25.452  32.530  1.00  0.00     0.055 A 
ATOM     87  C   UNL A   1      47.730  24.357  34.241  1.00  0.00     0.041 A 
ATOM     88  F   UNL A   1      45.413  24.677  34.343  1.00  0.00    -0.206 F 
ATOM     89  C   UNL A   1      48.957  24.586  33.624  1.00  0.00     0.022 A 
BRANCH  86  90
ATOM     90  S   UNL A   1      50.570  25.648  31.614  1.00  0.00     0.124 S 
ATOM     91  O   UNL A   1      50.096  26.057  30.296  1.00  0.00    -0.237 OA
ATOM     92  O   UNL A   1      51.262  26.672  32.389  1.00  0.00    -0.237 OA
ATOM     93  O   UNL A   1      51.172  24.316  31.671  1.00  0.00    -0.744 OA
ENDBRANCH  86  90
ENDBRANCH  60  83
ENDBRANCH  34  35
ENDBRANCH  26  29
ENDBRANCH  24  25
ENDBRANCH   1  24
TORSDOF 17
ENDMDL
MODEL 2
REMARK VINA RESULT:     -10.5      1.296      1.586
REMARK SMILES O=C(C[C@@H](c1c[nH]c2ccccc12)C(F)(F)F)NCCCCNC(=O)c1ccc(-c2c3nc(c(-c4cc(S(=O)(=O)[O-])ccc4F)c4ccc([nH]4)c(-c4cc(S(=O)(=O)[O-])ccc4F)c4nc(c(-c5cc(S(=O)(=O)[O-])ccc5F)c5ccc2[nH]5)C=C4)C=C3)cc1
REMARK SMILES IDX 21 1 20 2 19 3 18 4 1 5 2 6 3 8 4 9 5 10 6 11 13 12 7 13
REMARK SMILES IDX 8 14 12 15 9 17 11 18 10 19 14 20 15 21 16 22 17 23 22 24
REMARK SMILES IDX 23 25 24 26 25 28 26 29 27 30 88 31 28 32 87 33 29 34 30 35
REMARK SMILES IDX 31 36 81 37 32 38 86 39 80 40 82 41 33 42 85 43 79 44 78 45
REMARK SMILES IDX 34 47 66 48 46 49 65 50 47 51 50 52 64 53 83 54 48 55 49 56
REMARK SMILES IDX 63 58 84 59 51 60 35 61 36 62 44 63 37 64 43 65 45 66 42 67
REMARK SMILES IDX 38 68 39 69 40 70 41 71 67 72 68 73 76 74 69 75 75 76 77 77
REMARK SMILES IDX 74 78 70 79 71 80 72 81 73 82 52 83 53 84 61 85 54 86 60 87
REMARK SMILES IDX 62 88 59 89 55 90 56 91 57 92 58 93
REMARK H PARENT 18 7 7 16 23 27 82 46 50 57
REMARK Flexibility Score: inf
ROOT
ATOM      1  C   UNL A   1      34.495  35.177  28.243  1.00  0.00     0.023 C 
ENDROOT
BRANCH   1   2
ATOM      2  C   UNL A   1      33.077  35.458  28.762  1.00  0.00     0.023 C 
BRANCH   2   3
ATOM      3  C   UNL A   1      32.976  36.412  29.954  1.00  0.00     0.116 C 
BRANCH   3   4
ATOM      4  N   UNL A   1      33.970  36.153  30.980  1.00  0.00    -0.356 N 
ATOM      5  O   UNL A   1      32.463  35.404  32.546  1.00  0.00    -0.275 OA
ATOM      6  C   UNL A   1      33.623  35.559  32.178  1.00  0.00     0.220 C 
ATOM      7  H   UNL A   1      34.907  36.406  30.820  1.00  0.00     0.163 HD
BRANCH   6   8
ATOM      8  C   UNL A   1      34.802  35.053  32.986  1.00  0.00     0.117 C 
BRANCH   8   9
ATOM      9  C   UNL A   1      35.749  34.150  32.141  1.00  0.00     0.136 C 
BRANCH   9  10
ATOM     10  C   UNL A   1      37.227  34.327  32.546  1.00  0.00    -0.010 A 
ATOM     11  C   UNL A   1      37.640  34.656  33.828  1.00  0.00     0.087 A 
ATOM     12  C   UNL A   1      38.453  34.336  31.766  1.00  0.00     0.003 A 
ATOM     13  N   UNL A   1      38.995  34.597  33.912  1.00  0.00    -0.361 N 
ATOM     14  C   UNL A   1      39.522  34.476  32.660  1.00  0.00     0.046 A 
ATOM     15  C   UNL A   1      38.794  34.269  30.397  1.00  0.00     0.010 A 
ATOM     16  H   UNL A   1      39.516  34.634  34.746  1.00  0.00     0.166 HD
ATOM     17  C   UNL A   1      40.869  34.512  32.285  1.00  0.00     0.026 A 
ATOM     18  C   UNL A   1      40.138  34.354  29.995  1.00  0.00     0.001 A 
ATOM     19  C   UNL A   1      41.160  34.464  30.928  1.00  0.00     0.002 A 
ENDBRANCH   9  10
BRANCH   9  20
ATOM     20  C   UNL A   1      35.195  32.729  32.252  1.00  0.00     0.396 C 
ATOM     21  F   UNL A   1      34.424  32.597  33.365  1.00  0.00    -0.170 F 
ATOM     22  F   UNL A   1      34.393  32.394  31.220  1.00  0.00    -0.170 F 
ATOM     23  F   UNL A   1      36.175  31.803  32.351  1.00  0.00    -0.170 F 
ENDBRANCH   9  20
ENDBRANCH   8   9
ENDBRANCH   6   8
ENDBRANCH   3   4
ENDBRANCH   2   3
ENDBRANCH   1   2
BRANCH   1  24
ATOM     24  C   UNL A   1      35.024  33.758  28.454  1.00  0.00     0.116 C 
BRANCH  24  25
ATOM     25  N   UNL A   1      34.126  32.728  27.974  1.00  0.00    -0.352 N 
ATOM     26  C   UNL A   1      34.305  31.370  27.842  1.00  0.00     0.251 C 
ATOM     27  H   UNL A   1      33.239  33.054  27.695  1.00  0.00     0.163 HD
ATOM     28  O   UNL A   1      33.430  30.711  27.287  1.00  0.00    -0.269 OA
BRANCH  26  29
ATOM     29  C   UNL A   1      35.541  30.697  28.320  1.00  0.00     0.039 A 
ATOM     30  C   UNL A   1      36.746  30.994  27.673  1.00  0.00     0.014 A 
ATOM     31  C   UNL A   1      35.532  29.752  29.349  1.00  0.00     0.014 A 
ATOM     32  C   UNL A   1      37.940  30.406  28.103  1.00  0.00     0.010 A 
ATOM     33  C   UNL A   1      36.736  29.218  29.823  1.00  0.00     0.010 A 
ATOM     34  C   UNL A   1      37.957  29.543  29.210  1.00  0.00    -0.014 A 
BRANCH  34  35
ATOM     35  C   UNL A   1      39.243  28.991  29.731  1.00  0.00     0.031 A 
ATOM     36  C   UNL A   1      39.936  29.633  30.906  1.00  0.00     0.074 A 
ATOM     37  C   UNL A   1      39.812  27.928  29.123  1.00  0.00     0.049 A 
ATOM     38  N   UNL A   1      41.086  29.332  31.454  1.00  0.00    -0.248 NA
ATOM     39  C   UNL A   1      39.256  30.777  31.529  1.00  0.00     0.031 C 
ATOM     40  C   UNL A   1      39.257  27.226  27.964  1.00  0.00     0.029 A 
ATOM     41  N   UNL A   1      40.980  27.254  29.389  1.00  0.00    -0.354 N 
ATOM     42  C   UNL A   1      41.272  30.249  32.484  1.00  0.00     0.074 A 
ATOM     43  C   UNL A   1      40.142  31.154  32.439  1.00  0.00     0.031 C 
ATOM     44  C   UNL A   1      40.071  26.210  27.634  1.00  0.00     0.029 A 
ATOM     45  C   UNL A   1      41.233  26.218  28.519  1.00  0.00     0.049 A 
ATOM     46  H   UNL A   1      41.580  27.492  30.131  1.00  0.00     0.167 HD
ATOM     47  C   UNL A   1      42.275  30.317  33.396  1.00  0.00     0.034 A 
ATOM     48  C   UNL A   1      42.285  25.378  28.426  1.00  0.00     0.034 A 
ATOM     49  C   UNL A   1      43.395  29.406  33.434  1.00  0.00     0.049 A 
ATOM     50  C   UNL A   1      43.415  25.507  29.418  1.00  0.00     0.074 A 
ATOM     51  C   UNL A   1      44.442  29.367  34.341  1.00  0.00     0.029 A 
ATOM     52  N   UNL A   1      43.624  28.381  32.526  1.00  0.00    -0.354 N 
ATOM     53  N   UNL A   1      43.551  26.358  30.408  1.00  0.00    -0.248 NA
ATOM     54  C   UNL A   1      44.526  24.555  29.286  1.00  0.00     0.031 C 
ATOM     55  C   UNL A   1      45.340  28.374  33.936  1.00  0.00     0.029 A 
ATOM     56  C   UNL A   1      44.812  27.730  32.829  1.00  0.00     0.049 A 
ATOM     57  H   UNL A   1      43.030  28.150  31.775  1.00  0.00     0.167 HD
ATOM     58  C   UNL A   1      44.748  26.020  31.036  1.00  0.00     0.074 A 
ATOM     59  C   UNL A   1      45.283  24.878  30.324  1.00  0.00     0.031 C 
ATOM     60  C   UNL A   1      45.347  26.598  32.109  1.00  0.00     0.034 A 
BRANCH  47  61
ATOM     61  C   UNL A   1      42.218  31.434  34.413  1.00  0.00     0.023 A 
ATOM     62  C   UNL A   1      41.263  31.447  35.445  1.00  0.00     0.031 A 
ATOM     63  C   UNL A   1      43.124  32.508  34.346  1.00  0.00     0.131 A 
ATOM     64  C   UNL A   1      41.185  32.545  36.316  1.00  0.00     0.055 A 
ATOM     65  C   UNL A   1      43.097  33.555  35.270  1.00  0.00     0.041 A 
ATOM     66  F   UNL A   1      44.047  32.564  33.373  1.00  0.00    -0.206 F 
ATOM     67  C   UNL A   1      42.114  33.585  36.254  1.00  0.00     0.022 A 
BRANCH  64  68
ATOM     68  S   UNL A   1      39.760  32.663  37.431  1.00  0.00     0.124 S 
ATOM     69  O   UNL A   1      39.005  31.465  37.071  1.00  0.00    -0.237 OA
ATOM     70  O   UNL A   1      40.389  32.650  38.747  1.00  0.00    -0.237 OA
ATOM     71  O   UNL A   1      39.131  33.925  37.051  1.00  0.00    -0.744 OA
ENDBRANCH  64  68
ENDBRANCH  47  61
BRANCH  48  72
ATOM     72  C   UNL A   1      42.343  24.354  27.340  1.00  0.00     0.023 A 
ATOM     73  C   UNL A   1      41.623  23.152  27.433  1.00  0.00     0.031 A 
ATOM     74  C   UNL A   1      43.168  24.540  26.216  1.00  0.00     0.131 A 
ATOM     75  C   UNL A   1      41.781  22.162  26.449  1.00  0.00     0.055 A 
ATOM     76  C   UNL A   1      43.274  23.579  25.209  1.00  0.00     0.041 A 
ATOM     77  F   UNL A   1      43.880  25.670  26.074  1.00  0.00    -0.206 F 
ATOM     78  C   UNL A   1      42.589  22.374  25.331  1.00  0.00     0.022 A 
BRANCH  75  79
ATOM     79  S   UNL A   1      40.995  20.549  26.707  1.00  0.00     0.124 S 
ATOM     80  O   UNL A   1      41.986  19.642  26.139  1.00  0.00    -0.237 OA
ATOM     81  O   UNL A   1      40.847  20.512  28.158  1.00  0.00    -0.237 OA
ATOM     82  O   UNL A   1      39.745  20.657  25.957  1.00  0.00    -0.744 OA
ENDBRANCH  75  79
ENDBRANCH  48  72
BRANCH  60  83
ATOM     83  C   UNL A   1      46.628  25.969  32.608  1.00  0.00     0.023 A 
ATOM     84  C   UNL A   1      46.628  24.942  33.568  1.00  0.00     0.031 A 
ATOM     85  C   UNL A   1      47.870  26.416  32.122  1.00  0.00     0.131 A 
ATOM     86  C   UNL A   1      47.845  24.437  34.052  1.00  0.00     0.055 A 
ATOM     87  C   UNL A   1      49.074  25.863  32.557  1.00  0.00     0.041 A 
ATOM     88  F   UNL A   1      47.932  27.400  31.209  1.00  0.00    -0.206 F 
ATOM     89  C   UNL A   1      49.068  24.877  33.539  1.00  0.00     0.022 A 
BRANCH  86  90
ATOM     90  S   UNL A   1      47.814  23.266  35.438  1.00  0.00     0.124 S 
ATOM     91  O   UNL A   1      48.656  22.183  34.940  1.00  0.00    -0.237 OA
ATOM     92  O   UNL A   1      48.374  24.058  36.528  1.00  0.00    -0.237 OA
ATOM     93  O   UNL A   1      46.396  22.937  35.577  1.00  0.00    -0.744 OA
ENDBRANCH  86  90
ENDBRANCH  60  83
ENDBRANCH  34  35
ENDBRANCH  26  29
ENDBRANCH  24  25
ENDBRANCH   1  24
TORSDOF 17
ENDMDL
MODEL 3
REMARK VINA RESULT:     -10.2      1.905      2.247
REMARK SMILES O=C(C[C@@H](c1c[nH]c2ccccc12)C(F)(F)F)NCCCCNC(=O)c1ccc(-c2c3nc(c(-c4cc(S(=O)(=O)[O-])ccc4F)c4ccc([nH]4)c(-c4cc(S(=O)(=O)[O-])ccc4F)c4nc(c(-c5cc(S(=O)(=O)[O-])ccc5F)c5ccc2[nH]5)C=C4)C=C3)cc1
REMARK SMILES IDX 21 1 20 2 19 3 18 4 1 5 2 6 3 8 4 9 5 10 6 11 13 12 7 13
REMARK SMILES IDX 8 14 12 15 9 17 11 18 10 19 14 20 15 21 16 22 17 23 22 24
REMARK SMILES IDX 23 25 24 26 25 28 26 29 27 30 88 31 28 32 87 33 29 34 30 35
REMARK SMILES IDX 31 36 81 37 32 38 86 39 80 40 82 41 33 42 85 43 79 44 78 45
REMARK SMILES IDX 34 47 66 48 46 49 65 50 47 51 50 52 64 53 83 54 48 55 49 56
REMARK SMILES IDX 63 58 84 59 51 60 35 61 36 62 44 63 37 64 43 65 45 66 42 67
REMARK SMILES IDX 38 68 39 69 40 70 41 71 67 72 68 73 76 74 69 75 75 76 77 77
REMARK SMILES IDX 74 78 70 79 71 80 72 81 73 82 52 83 53 84 61 85 54 86 60 87
REMARK SMILES IDX 62 88 59 89 55 90 56 91 57 92 58 93
REMARK H PARENT 18 7 7 16 23 27 82 46 50 57
REMARK Flexibility Score: inf
ROOT
ATOM      1  C   UNL A   1      34.225  35.231  28.382  1.00  0.00     0.023 C 
ENDROOT
BRANCH   1   2
ATOM      2  C   UNL A   1      32.903  35.642  29.047  1.00  0.00     0.023 C 
BRANCH   2   3
ATOM      3  C   UNL A   1      33.006  36.706  30.142  1.00  0.00     0.116 C 
BRANCH   3   4
ATOM      4  N   UNL A   1      34.015  36.404  31.140  1.00  0.00    -0.356 N 
ATOM      5  O   UNL A   1      32.634  35.117  32.452  1.00  0.00    -0.275 OA
ATOM      6  C   UNL A   1      33.757  35.528  32.177  1.00  0.00     0.220 C 
ATOM      7  H   UNL A   1      34.899  36.832  31.078  1.00  0.00     0.163 HD
BRANCH   6   8
ATOM      8  C   UNL A   1      34.993  35.063  32.921  1.00  0.00     0.117 C 
BRANCH   8   9
ATOM      9  C   UNL A   1      35.853  34.079  32.074  1.00  0.00     0.136 C 
BRANCH   9  10
ATOM     10  C   UNL A   1      37.363  34.282  32.311  1.00  0.00    -0.010 A 
ATOM     11  C   UNL A   1      37.918  34.564  33.550  1.00  0.00     0.087 A 
ATOM     12  C   UNL A   1      38.486  34.368  31.393  1.00  0.00     0.003 A 
ATOM     13  N   UNL A   1      39.274  34.543  33.470  1.00  0.00    -0.361 N 
ATOM     14  C   UNL A   1      39.651  34.498  32.160  1.00  0.00     0.046 A 
ATOM     15  C   UNL A   1      38.664  34.376  29.991  1.00  0.00     0.010 A 
ATOM     16  H   UNL A   1      39.889  34.557  34.238  1.00  0.00     0.166 HD
ATOM     17  C   UNL A   1      40.942  34.595  31.631  1.00  0.00     0.026 A 
ATOM     18  C   UNL A   1      39.947  34.522  29.438  1.00  0.00     0.001 A 
ATOM     19  C   UNL A   1      41.070  34.620  30.249  1.00  0.00     0.002 A 
ENDBRANCH   9  10
BRANCH   9  20
ATOM     20  C   UNL A   1      35.316  32.678  32.374  1.00  0.00     0.396 C 
ATOM     21  F   UNL A   1      36.326  31.767  32.394  1.00  0.00    -0.170 F 
ATOM     22  F   UNL A   1      34.729  32.587  33.585  1.00  0.00    -0.170 F 
ATOM     23  F   UNL A   1      34.436  32.256  31.439  1.00  0.00    -0.170 F 
ENDBRANCH   9  20
ENDBRANCH   8   9
ENDBRANCH   6   8
ENDBRANCH   3   4
ENDBRANCH   2   3
ENDBRANCH   1   2
BRANCH   1  24
ATOM     24  C   UNL A   1      34.785  33.864  28.776  1.00  0.00     0.116 C 
BRANCH  24  25
ATOM     25  N   UNL A   1      34.120  32.756  28.122  1.00  0.00    -0.352 N 
ATOM     26  C   UNL A   1      34.530  31.458  27.915  1.00  0.00     0.251 C 
ATOM     27  H   UNL A   1      33.226  32.966  27.765  1.00  0.00     0.163 HD
ATOM     28  O   UNL A   1      33.835  30.726  27.216  1.00  0.00    -0.269 OA
BRANCH  26  29
ATOM     29  C   UNL A   1      35.801  30.943  28.484  1.00  0.00     0.039 A 
ATOM     30  C   UNL A   1      35.735  29.882  29.394  1.00  0.00     0.014 A 
ATOM     31  C   UNL A   1      37.043  31.509  28.182  1.00  0.00     0.014 A 
ATOM     32  C   UNL A   1      36.907  29.345  29.937  1.00  0.00     0.010 A 
ATOM     33  C   UNL A   1      38.219  30.927  28.673  1.00  0.00     0.010 A 
ATOM     34  C   UNL A   1      38.166  29.833  29.552  1.00  0.00    -0.014 A 
BRANCH  34  35
ATOM     35  C   UNL A   1      39.420  29.198  30.055  1.00  0.00     0.031 A 
ATOM     36  C   UNL A   1      40.130  29.748  31.265  1.00  0.00     0.074 A 
ATOM     37  C   UNL A   1      39.946  28.142  29.399  1.00  0.00     0.049 A 
ATOM     38  N   UNL A   1      41.260  29.368  31.806  1.00  0.00    -0.248 NA
ATOM     39  C   UNL A   1      39.497  30.890  31.939  1.00  0.00     0.031 C 
ATOM     40  C   UNL A   1      39.373  27.524  28.201  1.00  0.00     0.029 A 
ATOM     41  N   UNL A   1      41.080  27.403  29.639  1.00  0.00    -0.354 N 
ATOM     42  C   UNL A   1      41.477  30.223  32.882  1.00  0.00     0.074 A 
ATOM     43  C   UNL A   1      40.390  31.181  32.873  1.00  0.00     0.031 C 
ATOM     44  C   UNL A   1      40.143  26.489  27.827  1.00  0.00     0.029 A 
ATOM     45  C   UNL A   1      41.295  26.400  28.720  1.00  0.00     0.049 A 
ATOM     46  H   UNL A   1      41.684  27.576  30.396  1.00  0.00     0.167 HD
ATOM     47  C   UNL A   1      42.474  30.200  33.804  1.00  0.00     0.034 A 
ATOM     48  C   UNL A   1      42.308  25.519  28.594  1.00  0.00     0.034 A 
ATOM     49  C   UNL A   1      43.550  29.238  33.805  1.00  0.00     0.049 A 
ATOM     50  C   UNL A   1      43.433  25.546  29.599  1.00  0.00     0.074 A 
ATOM     51  C   UNL A   1      44.585  29.106  34.717  1.00  0.00     0.029 A 
ATOM     52  N   UNL A   1      43.742  28.250  32.848  1.00  0.00    -0.354 N 
ATOM     53  N   UNL A   1      43.598  26.340  30.631  1.00  0.00    -0.248 NA
ATOM     54  C   UNL A   1      44.501  24.552  29.428  1.00  0.00     0.031 C 
ATOM     55  C   UNL A   1      45.442  28.095  34.269  1.00  0.00     0.029 A 
ATOM     56  C   UNL A   1      44.896  27.532  33.128  1.00  0.00     0.049 A 
ATOM     57  H   UNL A   1      43.145  28.084  32.083  1.00  0.00     0.167 HD
ATOM     58  C   UNL A   1      44.772  25.917  31.251  1.00  0.00     0.074 A 
ATOM     59  C   UNL A   1      45.262  24.789  30.486  1.00  0.00     0.031 C 
ATOM     60  C   UNL A   1      45.386  26.412  32.356  1.00  0.00     0.034 A 
BRANCH  47  61
ATOM     61  C   UNL A   1      42.457  31.267  34.875  1.00  0.00     0.023 A 
ATOM     62  C   UNL A   1      43.122  32.494  34.707  1.00  0.00     0.031 A 
ATOM     63  C   UNL A   1      41.778  31.051  36.088  1.00  0.00     0.131 A 
ATOM     64  C   UNL A   1      43.159  33.423  35.758  1.00  0.00     0.055 A 
ATOM     65  C   UNL A   1      41.744  32.016  37.097  1.00  0.00     0.041 A 
ATOM     66  F   UNL A   1      41.141  29.892  36.318  1.00  0.00    -0.206 F 
ATOM     67  C   UNL A   1      42.450  33.205  36.942  1.00  0.00     0.022 A 
BRANCH  64  68
ATOM     68  S   UNL A   1      44.269  34.850  35.612  1.00  0.00     0.124 S 
ATOM     69  O   UNL A   1      44.934  34.839  36.913  1.00  0.00    -0.237 OA
ATOM     70  O   UNL A   1      45.098  34.488  34.468  1.00  0.00    -0.237 OA
ATOM     71  O   UNL A   1      43.358  35.972  35.396  1.00  0.00    -0.744 OA
ENDBRANCH  64  68
ENDBRANCH  47  61
BRANCH  48  72
ATOM     72  C   UNL A   1      42.331  24.548  27.457  1.00  0.00     0.023 A 
ATOM     73  C   UNL A   1      41.676  23.309  27.545  1.00  0.00     0.031 A 
ATOM     74  C   UNL A   1      43.058  24.825  26.286  1.00  0.00     0.131 A 
ATOM     75  C   UNL A   1      41.805  22.374  26.507  1.00  0.00     0.055 A 
ATOM     76  C   UNL A   1      43.132  23.916  25.229  1.00  0.00     0.041 A 
ATOM     77  F   UNL A   1      43.705  25.994  26.147  1.00  0.00    -0.206 F 
ATOM     78  C   UNL A   1      42.514  22.675  25.343  1.00  0.00     0.022 A 
BRANCH  75  79
ATOM     79  S   UNL A   1      41.115  20.713  26.743  1.00  0.00     0.124 S 
ATOM     80  O   UNL A   1      40.814  20.717  28.170  1.00  0.00    -0.237 OA
ATOM     81  O   UNL A   1      39.966  20.731  25.844  1.00  0.00    -0.237 OA
ATOM     82  O   UNL A   1      42.208  19.831  26.337  1.00  0.00    -0.744 OA
ENDBRANCH  75  79
ENDBRANCH  48  72
BRANCH  60  83
ATOM     83  C   UNL A   1      46.632  25.702  32.833  1.00  0.00     0.023 A 
ATOM     84  C   UNL A   1      46.578  24.643  33.756  1.00  0.00     0.031 A 
ATOM     85  C   UNL A   1      47.897  26.102  32.362  1.00  0.00     0.131 A 
ATOM     86  C   UNL A   1      47.767  24.060  34.222  1.00  0.00     0.055 A 
ATOM     87  C   UNL A   1      49.070  25.473  32.778  1.00  0.00     0.041 A 
ATOM     88  F   UNL A   1      48.011  27.112  31.484  1.00  0.00    -0.206 F 
ATOM     89  C   UNL A   1      49.011  24.454  33.725  1.00  0.00     0.022 A 
BRANCH  86  90
ATOM     90  S   UNL A   1      47.673  22.845  35.566  1.00  0.00     0.124 S 
ATOM     91  O   UNL A   1      48.847  23.184  36.364  1.00  0.00    -0.237 OA
ATOM     92  O   UNL A   1      46.381  23.149  36.172  1.00  0.00    -0.237 OA
ATOM     93  O   UNL A   1      47.744  21.559  34.873  1.00  0.00    -0.744 OA
ENDBRANCH  86  90
ENDBRANCH  60  83
ENDBRANCH  34  35
ENDBRANCH  26  29
ENDBRANCH  24  25
ENDBRANCH   1  24
TORSDOF 17
ENDMDL
