MODEL 1
REMARK VINA RESULT:     -13.4      0.000      0.000
REMARK SMILES Cc1ccc([C@H]2CC(c3cccs3)=NN2C(=O)CCC(=O)NCCCCNC(=O)c2ccc(-c3c4nc(c(-c5cc(S(=O)(=O)[O-])ccc5F)c5ccc([nH]5)c(-c5cc(S(=O)(=O)[O-])ccc5F)c5nc(c(-c6cc(S(=O)(=O)[O-])ccc6F)c6ccc3[nH]6)C=C5)C=C4)cc2)o1
REMARK SMILES IDX 24 1 23 2 22 3 20 4 21 5 19 7 18 8 16 9 17 10 15 11 6 12
REMARK SMILES IDX 7 13 8 14 14 15 5 16 1 17 2 18 3 19 93 20 4 21 9 22 10 23
REMARK SMILES IDX 13 24 11 25 12 26 25 27 26 28 27 29 28 30 29 32 30 33 31 34
REMARK SMILES IDX 92 35 32 36 91 37 33 38 34 39 35 40 85 41 36 42 90 43 84 44
REMARK SMILES IDX 86 45 37 46 89 47 83 48 82 49 38 51 70 52 50 53 69 54 51 55
REMARK SMILES IDX 54 56 68 57 87 58 52 59 53 60 67 62 88 63 55 64 39 65 40 66
REMARK SMILES IDX 48 67 41 68 47 69 49 70 46 71 42 72 43 73 44 74 45 75 71 76
REMARK SMILES IDX 72 77 80 78 73 79 79 80 81 81 78 82 74 83 75 84 76 85 77 86
REMARK SMILES IDX 56 87 57 88 65 89 58 90 64 91 66 92 63 93 59 94 60 95 61 96
REMARK SMILES IDX 62 97
REMARK H PARENT 22 6 27 31 86 50 54 61
REMARK Flexibility Score: inf
ROOT
ATOM      1  C   UNL A   1      33.239  29.020  25.819  1.00  0.00     0.023 C 
ENDROOT
BRANCH   1   2
ATOM      2  C   UNL A   1      33.169  26.808  26.073  1.00  0.00     0.116 C 
BRANCH   2   3
ATOM      3  N   UNL A   1      31.985  25.885  26.506  1.00  0.00    -0.356 N 
ATOM      4  C   UNL A   1      31.912  24.536  26.679  1.00  0.00     0.220 C 
ATOM      5  O   UNL A   1      30.871  24.077  27.151  1.00  0.00    -0.275 OA
ATOM      6  H   UNL A   1      31.143  26.363  26.686  1.00  0.00     0.163 HD
BRANCH   4   7
ATOM      7  C   UNL A   1      33.083  23.656  26.331  1.00  0.00     0.110 C 
BRANCH   7   8
ATOM      8  C   UNL A   1      32.878  22.174  26.625  1.00  0.00     0.112 C 
BRANCH   8   9
ATOM      9  C   UNL A   1      32.899  21.360  25.357  1.00  0.00     0.243 C 
ATOM     10  O   UNL A   1      32.099  20.435  25.206  1.00  0.00    -0.273 OA
BRANCH   9  11
ATOM     11  N   UNL A   1      33.999  21.570  24.524  1.00  0.00    -0.222 N 
ATOM     12  C   UNL A   1      34.406  22.973  23.279  1.00  0.00     0.183 C 
ATOM     13  C   UNL A   1      36.345  23.337  23.641  1.00  0.00     0.095 C 
ATOM     14  C   UNL A   1      36.881  21.775  24.889  1.00  0.00     0.081 C 
ATOM     15  N   UNL A   1      35.576  20.967  25.346  1.00  0.00    -0.173 NA
BRANCH  12  16
ATOM     16  C   UNL A   1      33.493  24.019  22.722  1.00  0.00     0.129 A 
ATOM     17  C   UNL A   1      33.382  27.548  22.170  1.00  0.00     0.087 C 
ATOM     18  C   UNL A   1      33.011  26.134  22.377  1.00  0.00     0.101 A 
ATOM     19  C   UNL A   1      31.808  25.489  22.563  1.00  0.00     0.045 A 
ATOM     20  O   UNL A   1      34.038  25.248  22.486  1.00  0.00    -0.464 OA
ATOM     21  C   UNL A   1      32.116  24.124  22.773  1.00  0.00     0.048 A 
ENDBRANCH  12  16
BRANCH  14  22
ATOM     22  C   UNL A   1      38.146  21.027  25.115  1.00  0.00     0.050 A 
ATOM     23  C   UNL A   1      38.472  19.682  24.988  1.00  0.00     0.022 A 
ATOM     24  S   UNL A   1      39.343  21.778  26.118  1.00  0.00    -0.142 S 
ATOM     25  C   UNL A   1      39.606  19.258  25.738  1.00  0.00     0.012 A 
ATOM     26  C   UNL A   1      40.139  20.298  26.451  1.00  0.00     0.065 A 
ENDBRANCH  14  22
ENDBRANCH   9  11
ENDBRANCH   8   9
ENDBRANCH   7   8
ENDBRANCH   4   7
ENDBRANCH   2   3
ENDBRANCH   1   2
BRANCH   1  27
ATOM     27  C   UNL A   1      32.868  30.354  26.993  1.00  0.00     0.023 C 
BRANCH  27  28
ATOM     28  C   UNL A   1      33.812  31.542  27.615  1.00  0.00     0.116 C 
BRANCH  28  29
ATOM     29  N   UNL A   1      33.278  32.937  27.762  1.00  0.00    -0.352 N 
ATOM     30  C   UNL A   1      33.477  33.921  28.692  1.00  0.00     0.251 C 
ATOM     31  H   UNL A   1      32.657  33.196  27.043  1.00  0.00     0.163 HD
ATOM     32  O   UNL A   1      32.813  34.949  28.676  1.00  0.00    -0.269 OA
BRANCH  30  33
ATOM     33  C   UNL A   1      34.568  33.712  29.615  1.00  0.00     0.039 A 
ATOM     34  C   UNL A   1      34.423  32.868  30.713  1.00  0.00     0.014 A 
ATOM     35  C   UNL A   1      35.787  34.244  29.204  1.00  0.00     0.014 A 
ATOM     36  C   UNL A   1      35.572  32.456  31.369  1.00  0.00     0.010 A 
ATOM     37  C   UNL A   1      36.921  33.762  29.793  1.00  0.00     0.010 A 
ATOM     38  C   UNL A   1      36.816  32.873  30.878  1.00  0.00    -0.014 A 
BRANCH  38  39
ATOM     39  C   UNL A   1      38.097  32.504  31.492  1.00  0.00     0.031 A 
ATOM     40  C   UNL A   1      38.840  31.382  30.839  1.00  0.00     0.074 A 
ATOM     41  C   UNL A   1      38.396  32.968  32.715  1.00  0.00     0.049 A 
ATOM     42  N   UNL A   1      39.704  30.556  31.352  1.00  0.00    -0.248 NA
ATOM     43  C   UNL A   1      38.449  31.082  29.450  1.00  0.00     0.031 C 
ATOM     44  C   UNL A   1      37.669  34.016  33.436  1.00  0.00     0.029 A 
ATOM     45  N   UNL A   1      39.360  32.560  33.592  1.00  0.00    -0.354 N 
ATOM     46  C   UNL A   1      39.922  29.604  30.365  1.00  0.00     0.074 A 
ATOM     47  C   UNL A   1      39.027  29.908  29.271  1.00  0.00     0.031 C 
ATOM     48  C   UNL A   1      38.212  34.159  34.658  1.00  0.00     0.029 A 
ATOM     49  C   UNL A   1      39.282  33.180  34.815  1.00  0.00     0.049 A 
ATOM     50  H   UNL A   1      40.044  31.888  33.369  1.00  0.00     0.167 HD
ATOM     51  C   UNL A   1      40.812  28.585  30.375  1.00  0.00     0.034 A 
ATOM     52  C   UNL A   1      39.986  32.945  35.936  1.00  0.00     0.034 A 
ATOM     53  C   UNL A   1      41.708  28.355  31.477  1.00  0.00     0.049 A 
ATOM     54  C   UNL A   1      41.017  31.845  35.906  1.00  0.00     0.074 A 
ATOM     55  C   UNL A   1      42.722  27.425  31.592  1.00  0.00     0.029 A 
ATOM     56  N   UNL A   1      41.698  29.088  32.660  1.00  0.00    -0.354 N 
ATOM     57  N   UNL A   1      41.272  30.977  34.951  1.00  0.00    -0.248 NA
ATOM     58  C   UNL A   1      41.862  31.702  37.096  1.00  0.00     0.031 C 
ATOM     59  C   UNL A   1      43.301  27.572  32.858  1.00  0.00     0.029 A 
ATOM     60  C   UNL A   1      42.686  28.631  33.511  1.00  0.00     0.049 A 
ATOM     61  H   UNL A   1      41.076  29.825  32.860  1.00  0.00     0.167 HD
ATOM     62  C   UNL A   1      42.341  30.213  35.410  1.00  0.00     0.074 A 
ATOM     63  C   UNL A   1      42.678  30.726  36.724  1.00  0.00     0.031 C 
ATOM     64  C   UNL A   1      42.993  29.185  34.809  1.00  0.00     0.034 A 
BRANCH  51  65
ATOM     65  C   UNL A   1      40.834  27.684  29.165  1.00  0.00     0.023 A 
ATOM     66  C   UNL A   1      41.786  27.860  28.143  1.00  0.00     0.031 A 
ATOM     67  C   UNL A   1      39.844  26.706  28.978  1.00  0.00     0.131 A 
ATOM     68  C   UNL A   1      41.656  27.160  26.936  1.00  0.00     0.055 A 
ATOM     69  C   UNL A   1      39.784  25.936  27.813  1.00  0.00     0.041 A 
ATOM     70  F   UNL A   1      38.894  26.507  29.904  1.00  0.00    -0.206 F 
ATOM     71  C   UNL A   1      40.679  26.178  26.773  1.00  0.00     0.022 A 
BRANCH  68  72
ATOM     72  S   UNL A   1      42.662  27.694  25.524  1.00  0.00     0.124 S 
ATOM     73  O   UNL A   1      43.939  27.985  26.172  1.00  0.00    -0.237 OA
ATOM     74  O   UNL A   1      42.639  26.522  24.658  1.00  0.00    -0.237 OA
ATOM     75  O   UNL A   1      41.947  28.863  25.018  1.00  0.00    -0.744 OA
ENDBRANCH  68  72
ENDBRANCH  51  65
BRANCH  52  76
ATOM     76  C   UNL A   1      39.769  33.767  37.155  1.00  0.00     0.023 A 
ATOM     77  C   UNL A   1      40.586  34.878  37.410  1.00  0.00     0.031 A 
ATOM     78  C   UNL A   1      38.777  33.446  38.097  1.00  0.00     0.131 A 
ATOM     79  C   UNL A   1      40.440  35.596  38.605  1.00  0.00     0.055 A 
ATOM     80  C   UNL A   1      38.604  34.192  39.264  1.00  0.00     0.041 A 
ATOM     81  F   UNL A   1      37.953  32.406  37.888  1.00  0.00    -0.206 F 
ATOM     82  C   UNL A   1      39.449  35.266  39.531  1.00  0.00     0.022 A 
BRANCH  79  83
ATOM     83  S   UNL A   1      41.626  36.919  38.963  1.00  0.00     0.124 S 
ATOM     84  O   UNL A   1      42.369  36.356  40.086  1.00  0.00    -0.237 OA
ATOM     85  O   UNL A   1      42.352  37.022  37.701  1.00  0.00    -0.237 OA
ATOM     86  O   UNL A   1      40.774  38.061  39.286  1.00  0.00    -0.744 OA
ENDBRANCH  79  83
ENDBRANCH  52  76
BRANCH  64  87
ATOM     87  C   UNL A   1      44.176  28.613  35.542  1.00  0.00     0.023 A 
ATOM     88  C   UNL A   1      44.039  27.549  36.446  1.00  0.00     0.031 A 
ATOM     89  C   UNL A   1      45.459  29.144  35.322  1.00  0.00     0.131 A 
ATOM     90  C   UNL A   1      45.164  27.079  37.139  1.00  0.00     0.055 A 
ATOM     91  C   UNL A   1      46.582  28.635  35.971  1.00  0.00     0.041 A 
ATOM     92  F   UNL A   1      45.639  30.163  34.465  1.00  0.00    -0.206 F 
ATOM     93  C   UNL A   1      46.437  27.604  36.895  1.00  0.00     0.022 A 
BRANCH  90  94
ATOM     94  S   UNL A   1      44.928  25.823  38.425  1.00  0.00     0.124 S 
ATOM     95  O   UNL A   1      43.849  26.402  39.220  1.00  0.00    -0.237 OA
ATOM     96  O   UNL A   1      44.578  24.641  37.644  1.00  0.00    -0.237 OA
ATOM     97  O   UNL A   1      46.228  25.765  39.090  1.00  0.00    -0.744 OA
ENDBRANCH  90  94
ENDBRANCH  64  87
ENDBRANCH  38  39
ENDBRANCH  30  33
ENDBRANCH  28  29
ENDBRANCH  27  28
ENDBRANCH   1  27
TORSDOF 19
ENDMDL
MODEL 2
REMARK VINA RESULT:     -13.1      2.297      2.977
REMARK SMILES Cc1ccc([C@H]2CC(c3cccs3)=NN2C(=O)CCC(=O)NCCCCNC(=O)c2ccc(-c3c4nc(c(-c5cc(S(=O)(=O)[O-])ccc5F)c5ccc([nH]5)c(-c5cc(S(=O)(=O)[O-])ccc5F)c5nc(c(-c6cc(S(=O)(=O)[O-])ccc6F)c6ccc3[nH]6)C=C5)C=C4)cc2)o1
REMARK SMILES IDX 24 1 23 2 22 3 20 4 21 5 19 7 18 8 16 9 17 10 15 11 6 12
REMARK SMILES IDX 7 13 8 14 14 15 5 16 1 17 2 18 3 19 93 20 4 21 9 22 10 23
REMARK SMILES IDX 13 24 11 25 12 26 25 27 26 28 27 29 28 30 29 32 30 33 31 34
REMARK SMILES IDX 92 35 32 36 91 37 33 38 34 39 35 40 85 41 36 42 90 43 84 44
REMARK SMILES IDX 86 45 37 46 89 47 83 48 82 49 38 51 70 52 50 53 69 54 51 55
REMARK SMILES IDX 54 56 68 57 87 58 52 59 53 60 67 62 88 63 55 64 39 65 40 66
REMARK SMILES IDX 48 67 41 68 47 69 49 70 46 71 42 72 43 73 44 74 45 75 71 76
REMARK SMILES IDX 72 77 80 78 73 79 79 80 81 81 78 82 74 83 75 84 76 85 77 86
REMARK SMILES IDX 56 87 57 88 65 89 58 90 64 91 66 92 63 93 59 94 60 95 61 96
REMARK SMILES IDX 62 97
REMARK H PARENT 22 6 27 31 86 50 54 61
REMARK Flexibility Score: inf
ROOT
ATOM      1  C   UNL A   1      31.788  30.452  25.605  1.00  0.00     0.023 C 
ENDROOT
BRANCH   1   2
ATOM      2  C   UNL A   1      31.341  29.004  23.972  1.00  0.00     0.116 C 
BRANCH   2   3
ATOM      3  N   UNL A   1      30.213  27.928  23.865  1.00  0.00    -0.356 N 
ATOM      4  C   UNL A   1      30.256  26.608  23.533  1.00  0.00     0.220 C 
ATOM      5  O   UNL A   1      29.217  25.957  23.649  1.00  0.00    -0.275 OA
ATOM      6  H   UNL A   1      29.312  28.264  24.077  1.00  0.00     0.163 HD
BRANCH   4   7
ATOM      7  C   UNL A   1      31.543  25.977  23.072  1.00  0.00     0.110 C 
BRANCH   7   8
ATOM      8  C   UNL A   1      31.402  24.557  22.536  1.00  0.00     0.112 C 
BRANCH   8   9
ATOM      9  C   UNL A   1      32.750  23.911  22.345  1.00  0.00     0.243 C 
ATOM     10  O   UNL A   1      33.278  23.905  21.232  1.00  0.00    -0.273 OA
BRANCH   9  11
ATOM     11  N   UNL A   1      33.211  23.149  23.419  1.00  0.00    -0.222 N 
ATOM     12  C   UNL A   1      33.425  23.566  25.281  1.00  0.00     0.183 C 
ATOM     13  C   UNL A   1      32.725  21.918  26.186  1.00  0.00     0.095 C 
ATOM     14  C   UNL A   1      32.499  20.590  24.616  1.00  0.00     0.081 C 
ATOM     15  N   UNL A   1      32.701  21.352  23.221  1.00  0.00    -0.173 NA
BRANCH  12  16
ATOM     16  C   UNL A   1      33.403  24.905  25.944  1.00  0.00     0.129 A 
ATOM     17  C   UNL A   1      31.072  27.287  27.237  1.00  0.00     0.087 C 
ATOM     18  C   UNL A   1      32.281  26.643  26.684  1.00  0.00     0.101 A 
ATOM     19  C   UNL A   1      33.485  27.129  26.226  1.00  0.00     0.045 A 
ATOM     20  O   UNL A   1      32.220  25.296  26.504  1.00  0.00    -0.464 OA
ATOM     21  C   UNL A   1      34.215  26.009  25.760  1.00  0.00     0.048 A 
ENDBRANCH  12  16
BRANCH  14  22
ATOM     22  C   UNL A   1      32.594  19.111  24.497  1.00  0.00     0.050 A 
ATOM     23  C   UNL A   1      33.077  18.133  25.359  1.00  0.00     0.022 A 
ATOM     24  S   UNL A   1      32.528  18.437  22.902  1.00  0.00    -0.142 S 
ATOM     25  C   UNL A   1      33.453  16.908  24.738  1.00  0.00     0.012 A 
ATOM     26  C   UNL A   1      33.260  16.965  23.384  1.00  0.00     0.065 A 
ENDBRANCH  14  22
ENDBRANCH   9  11
ENDBRANCH   8   9
ENDBRANCH   7   8
ENDBRANCH   4   7
ENDBRANCH   2   3
ENDBRANCH   1   2
BRANCH   1  27
ATOM     27  C   UNL A   1      33.032  30.391  26.927  1.00  0.00     0.023 C 
BRANCH  27  28
ATOM     28  C   UNL A   1      33.927  31.574  27.625  1.00  0.00     0.116 C 
BRANCH  28  29
ATOM     29  N   UNL A   1      33.361  32.955  27.793  1.00  0.00    -0.352 N 
ATOM     30  C   UNL A   1      33.510  33.915  28.755  1.00  0.00     0.251 C 
ATOM     31  H   UNL A   1      32.759  33.223  27.061  1.00  0.00     0.163 HD
ATOM     32  O   UNL A   1      32.827  34.931  28.746  1.00  0.00    -0.269 OA
BRANCH  30  33
ATOM     33  C   UNL A   1      34.574  33.701  29.708  1.00  0.00     0.039 A 
ATOM     34  C   UNL A   1      34.438  32.768  30.733  1.00  0.00     0.014 A 
ATOM     35  C   UNL A   1      35.773  34.333  29.392  1.00  0.00     0.014 A 
ATOM     36  C   UNL A   1      35.583  32.375  31.408  1.00  0.00     0.010 A 
ATOM     37  C   UNL A   1      36.911  33.875  29.994  1.00  0.00     0.010 A 
ATOM     38  C   UNL A   1      36.818  32.901  31.005  1.00  0.00    -0.014 A 
BRANCH  38  39
ATOM     39  C   UNL A   1      38.093  32.562  31.646  1.00  0.00     0.031 A 
ATOM     40  C   UNL A   1      38.891  31.479  30.991  1.00  0.00     0.074 A 
ATOM     41  C   UNL A   1      38.343  33.009  32.886  1.00  0.00     0.049 A 
ATOM     42  N   UNL A   1      39.769  30.672  31.511  1.00  0.00    -0.248 NA
ATOM     43  C   UNL A   1      38.547  31.196  29.586  1.00  0.00     0.031 C 
ATOM     44  C   UNL A   1      37.562  34.016  33.608  1.00  0.00     0.029 A 
ATOM     45  N   UNL A   1      39.297  32.614  33.781  1.00  0.00    -0.354 N 
ATOM     46  C   UNL A   1      40.045  29.748  30.511  1.00  0.00     0.074 A 
ATOM     47  C   UNL A   1      39.169  30.046  29.398  1.00  0.00     0.031 C 
ATOM     48  C   UNL A   1      38.067  34.151  34.847  1.00  0.00     0.029 A 
ATOM     49  C   UNL A   1      39.164  33.205  35.014  1.00  0.00     0.049 A 
ATOM     50  H   UNL A   1      40.009  31.971  33.563  1.00  0.00     0.167 HD
ATOM     51  C   UNL A   1      40.969  28.760  30.524  1.00  0.00     0.034 A 
ATOM     52  C   UNL A   1      39.846  32.970  36.148  1.00  0.00     0.034 A 
ATOM     53  C   UNL A   1      41.841  28.536  31.645  1.00  0.00     0.049 A 
ATOM     54  C   UNL A   1      40.914  31.906  36.124  1.00  0.00     0.074 A 
ATOM     55  C   UNL A   1      42.883  27.638  31.770  1.00  0.00     0.029 A 
ATOM     56  N   UNL A   1      41.775  29.243  32.842  1.00  0.00    -0.354 N 
ATOM     57  N   UNL A   1      41.224  31.067  35.160  1.00  0.00    -0.248 NA
ATOM     58  C   UNL A   1      41.731  31.766  37.334  1.00  0.00     0.031 C 
ATOM     59  C   UNL A   1      43.422  27.777  33.054  1.00  0.00     0.029 A 
ATOM     60  C   UNL A   1      42.754  28.801  33.711  1.00  0.00     0.049 A 
ATOM     61  H   UNL A   1      41.123  29.954  33.040  1.00  0.00     0.167 HD
ATOM     62  C   UNL A   1      42.305  30.330  35.632  1.00  0.00     0.074 A 
ATOM     63  C   UNL A   1      42.589  30.826  36.965  1.00  0.00     0.031 C 
ATOM     64  C   UNL A   1      43.008  29.337  35.028  1.00  0.00     0.034 A 
BRANCH  51  65
ATOM     65  C   UNL A   1      41.053  27.886  29.297  1.00  0.00     0.023 A 
ATOM     66  C   UNL A   1      42.082  28.055  28.352  1.00  0.00     0.031 A 
ATOM     67  C   UNL A   1      40.052  26.943  29.014  1.00  0.00     0.131 A 
ATOM     68  C   UNL A   1      42.021  27.388  27.122  1.00  0.00     0.055 A 
ATOM     69  C   UNL A   1      40.056  26.203  27.830  1.00  0.00     0.041 A 
ATOM     70  F   UNL A   1      39.031  26.753  29.863  1.00  0.00    -0.206 F 
ATOM     71  C   UNL A   1      41.031  26.440  26.864  1.00  0.00     0.022 A 
BRANCH  68  72
ATOM     72  S   UNL A   1      43.144  27.922  25.801  1.00  0.00     0.124 S 
ATOM     73  O   UNL A   1      43.602  29.212  26.314  1.00  0.00    -0.237 OA
ATOM     74  O   UNL A   1      44.138  26.856  25.780  1.00  0.00    -0.237 OA
ATOM     75  O   UNL A   1      42.279  27.997  24.627  1.00  0.00    -0.744 OA
ENDBRANCH  68  72
ENDBRANCH  51  65
BRANCH  52  76
ATOM     76  C   UNL A   1      39.569  33.758  37.378  1.00  0.00     0.023 A 
ATOM     77  C   UNL A   1      38.876  33.173  38.447  1.00  0.00     0.031 A 
ATOM     78  C   UNL A   1      39.953  35.104  37.496  1.00  0.00     0.131 A 
ATOM     79  C   UNL A   1      38.534  33.944  39.568  1.00  0.00     0.055 A 
ATOM     80  C   UNL A   1      39.652  35.857  38.633  1.00  0.00     0.041 A 
ATOM     81  F   UNL A   1      40.639  35.704  36.510  1.00  0.00    -0.206 F 
ATOM     82  C   UNL A   1      38.924  35.281  39.671  1.00  0.00     0.022 A 
BRANCH  79  83
ATOM     83  S   UNL A   1      37.498  33.188  40.847  1.00  0.00     0.124 S 
ATOM     84  O   UNL A   1      36.699  32.249  40.067  1.00  0.00    -0.237 OA
ATOM     85  O   UNL A   1      38.497  32.599  41.734  1.00  0.00    -0.237 OA
ATOM     86  O   UNL A   1      36.765  34.322  41.404  1.00  0.00    -0.744 OA
ENDBRANCH  79  83
ENDBRANCH  52  76
BRANCH  64  87
ATOM     87  C   UNL A   1      44.190  28.789  35.781  1.00  0.00     0.023 A 
ATOM     88  C   UNL A   1      44.070  27.685  36.639  1.00  0.00     0.031 A 
ATOM     89  C   UNL A   1      45.454  29.385  35.629  1.00  0.00     0.131 A 
ATOM     90  C   UNL A   1      45.190  27.239  37.354  1.00  0.00     0.055 A 
ATOM     91  C   UNL A   1      46.576  28.901  36.298  1.00  0.00     0.041 A 
ATOM     92  F   UNL A   1      45.617  30.443  34.818  1.00  0.00    -0.206 F 
ATOM     93  C   UNL A   1      46.445  27.828  37.176  1.00  0.00     0.022 A 
BRANCH  90  94
ATOM     94  S   UNL A   1      44.966  25.923  38.581  1.00  0.00     0.124 S 
ATOM     95  O   UNL A   1      46.307  25.806  39.147  1.00  0.00    -0.237 OA
ATOM     96  O   UNL A   1      43.950  26.489  39.463  1.00  0.00    -0.237 OA
ATOM     97  O   UNL A   1      44.527  24.780  37.782  1.00  0.00    -0.744 OA
ENDBRANCH  90  94
ENDBRANCH  64  87
ENDBRANCH  38  39
ENDBRANCH  30  33
ENDBRANCH  28  29
ENDBRANCH  27  28
ENDBRANCH   1  27
TORSDOF 19
ENDMDL
MODEL 3
REMARK VINA RESULT:     -13.1      1.762      2.814
REMARK SMILES Cc1ccc([C@H]2CC(c3cccs3)=NN2C(=O)CCC(=O)NCCCCNC(=O)c2ccc(-c3c4nc(c(-c5cc(S(=O)(=O)[O-])ccc5F)c5ccc([nH]5)c(-c5cc(S(=O)(=O)[O-])ccc5F)c5nc(c(-c6cc(S(=O)(=O)[O-])ccc6F)c6ccc3[nH]6)C=C5)C=C4)cc2)o1
REMARK SMILES IDX 24 1 23 2 22 3 20 4 21 5 19 7 18 8 16 9 17 10 15 11 6 12
REMARK SMILES IDX 7 13 8 14 14 15 5 16 1 17 2 18 3 19 93 20 4 21 9 22 10 23
REMARK SMILES IDX 13 24 11 25 12 26 25 27 26 28 27 29 28 30 29 32 30 33 31 34
REMARK SMILES IDX 92 35 32 36 91 37 33 38 34 39 35 40 85 41 36 42 90 43 84 44
REMARK SMILES IDX 86 45 37 46 89 47 83 48 82 49 38 51 70 52 50 53 69 54 51 55
REMARK SMILES IDX 54 56 68 57 87 58 52 59 53 60 67 62 88 63 55 64 39 65 40 66
REMARK SMILES IDX 48 67 41 68 47 69 49 70 46 71 42 72 43 73 44 74 45 75 71 76
REMARK SMILES IDX 72 77 80 78 73 79 79 80 81 81 78 82 74 83 75 84 76 85 77 86
REMARK SMILES IDX 56 87 57 88 65 89 58 90 64 91 66 92 63 93 59 94 60 95 61 96
REMARK SMILES IDX 62 97
REMARK H PARENT 22 6 27 31 86 50 54 61
REMARK Flexibility Score: inf
ROOT
ATOM      1  C   UNL A   1      32.150  29.689  27.223  1.00  0.00     0.023 C 
ENDROOT
BRANCH   1   2
ATOM      2  C   UNL A   1      33.366  28.131  26.196  1.00  0.00     0.116 C 
BRANCH   2   3
ATOM      3  N   UNL A   1      33.581  27.870  24.670  1.00  0.00    -0.356 N 
ATOM      4  C   UNL A   1      33.574  26.719  23.944  1.00  0.00     0.220 C 
ATOM      5  O   UNL A   1      33.652  26.816  22.719  1.00  0.00    -0.275 OA
ATOM      6  H   UNL A   1      33.751  28.683  24.140  1.00  0.00     0.163 HD
BRANCH   4   7
ATOM      7  C   UNL A   1      33.444  25.384  24.628  1.00  0.00     0.110 C 
BRANCH   7   8
ATOM      8  C   UNL A   1      34.711  24.891  25.316  1.00  0.00     0.112 C 
BRANCH   8   9
ATOM      9  C   UNL A   1      35.397  23.828  24.497  1.00  0.00     0.243 C 
ATOM     10  O   UNL A   1      35.331  23.861  23.267  1.00  0.00    -0.273 OA
BRANCH   9  11
ATOM     11  N   UNL A   1      35.877  22.731  25.213  1.00  0.00    -0.222 N 
ATOM     12  C   UNL A   1      35.331  20.890  25.244  1.00  0.00     0.183 C 
ATOM     13  C   UNL A   1      37.081  19.910  25.231  1.00  0.00     0.095 C 
ATOM     14  C   UNL A   1      38.459  21.423  25.539  1.00  0.00     0.081 C 
ATOM     15  N   UNL A   1      37.738  22.849  25.436  1.00  0.00    -0.173 NA
BRANCH  12  16
ATOM     16  C   UNL A   1      34.077  20.281  24.705  1.00  0.00     0.129 A 
ATOM     17  C   UNL A   1      32.915  17.227  23.257  1.00  0.00     0.087 C 
ATOM     18  C   UNL A   1      33.056  18.641  23.658  1.00  0.00     0.101 A 
ATOM     19  C   UNL A   1      32.392  19.795  23.307  1.00  0.00     0.045 A 
ATOM     20  O   UNL A   1      34.088  18.932  24.496  1.00  0.00    -0.464 OA
ATOM     21  C   UNL A   1      33.040  20.851  23.990  1.00  0.00     0.048 A 
ENDBRANCH  12  16
BRANCH  14  22
ATOM     22  C   UNL A   1      39.791  21.483  26.198  1.00  0.00     0.050 A 
ATOM     23  C   UNL A   1      40.590  22.550  26.594  1.00  0.00     0.022 A 
ATOM     24  S   UNL A   1      40.788  20.070  26.102  1.00  0.00    -0.142 S 
ATOM     25  C   UNL A   1      41.975  22.249  26.740  1.00  0.00     0.012 A 
ATOM     26  C   UNL A   1      42.226  20.937  26.439  1.00  0.00     0.065 A 
ENDBRANCH  14  22
ENDBRANCH   9  11
ENDBRANCH   8   9
ENDBRANCH   7   8
ENDBRANCH   4   7
ENDBRANCH   2   3
ENDBRANCH   1   2
BRANCH   1  27
ATOM     27  C   UNL A   1      31.985  31.466  26.888  1.00  0.00     0.023 C 
BRANCH  27  28
ATOM     28  C   UNL A   1      33.015  32.716  27.146  1.00  0.00     0.116 C 
BRANCH  28  29
ATOM     29  N   UNL A   1      32.663  33.800  28.122  1.00  0.00    -0.352 N 
ATOM     30  C   UNL A   1      33.239  34.233  29.285  1.00  0.00     0.251 C 
ATOM     31  H   UNL A   1      31.853  34.301  27.875  1.00  0.00     0.163 HD
ATOM     32  O   UNL A   1      32.684  35.062  29.994  1.00  0.00    -0.269 OA
BRANCH  30  33
ATOM     33  C   UNL A   1      34.564  33.731  29.565  1.00  0.00     0.039 A 
ATOM     34  C   UNL A   1      35.688  34.330  29.001  1.00  0.00     0.014 A 
ATOM     35  C   UNL A   1      34.622  32.771  30.570  1.00  0.00     0.014 A 
ATOM     36  C   UNL A   1      36.926  34.023  29.543  1.00  0.00     0.010 A 
ATOM     37  C   UNL A   1      35.832  32.543  31.163  1.00  0.00     0.010 A 
ATOM     38  C   UNL A   1      36.984  33.164  30.649  1.00  0.00    -0.014 A 
BRANCH  38  39
ATOM     39  C   UNL A   1      38.236  32.767  31.303  1.00  0.00     0.031 A 
ATOM     40  C   UNL A   1      38.950  31.598  30.703  1.00  0.00     0.074 A 
ATOM     41  C   UNL A   1      38.525  33.258  32.518  1.00  0.00     0.049 A 
ATOM     42  N   UNL A   1      39.771  30.757  31.261  1.00  0.00    -0.248 NA
ATOM     43  C   UNL A   1      38.579  31.269  29.315  1.00  0.00     0.031 C 
ATOM     44  C   UNL A   1      37.821  34.354  33.190  1.00  0.00     0.029 A 
ATOM     45  N   UNL A   1      39.453  32.841  33.430  1.00  0.00    -0.354 N 
ATOM     46  C   UNL A   1      39.975  29.767  30.309  1.00  0.00     0.074 A 
ATOM     47  C   UNL A   1      39.116  30.070  29.185  1.00  0.00     0.031 C 
ATOM     48  C   UNL A   1      38.342  34.515  34.419  1.00  0.00     0.029 A 
ATOM     49  C   UNL A   1      39.370  33.502  34.631  1.00  0.00     0.049 A 
ATOM     50  H   UNL A   1      40.116  32.138  33.244  1.00  0.00     0.167 HD
ATOM     51  C   UNL A   1      40.826  28.717  30.370  1.00  0.00     0.034 A 
ATOM     52  C   UNL A   1      40.040  33.277  35.775  1.00  0.00     0.034 A 
ATOM     53  C   UNL A   1      41.687  28.488  31.500  1.00  0.00     0.049 A 
ATOM     54  C   UNL A   1      41.029  32.138  35.803  1.00  0.00     0.074 A 
ATOM     55  C   UNL A   1      42.662  27.525  31.667  1.00  0.00     0.029 A 
ATOM     56  N   UNL A   1      41.678  29.258  32.659  1.00  0.00    -0.354 N 
ATOM     57  N   UNL A   1      41.273  31.232  34.882  1.00  0.00    -0.248 NA
ATOM     58  C   UNL A   1      41.841  32.002  37.016  1.00  0.00     0.031 C 
ATOM     59  C   UNL A   1      43.218  27.690  32.941  1.00  0.00     0.029 A 
ATOM     60  C   UNL A   1      42.628  28.791  33.547  1.00  0.00     0.049 A 
ATOM     61  H   UNL A   1      41.080  30.023  32.822  1.00  0.00     0.167 HD
ATOM     62  C   UNL A   1      42.301  30.444  35.389  1.00  0.00     0.074 A 
ATOM     63  C   UNL A   1      42.628  30.985  36.694  1.00  0.00     0.031 C 
ATOM     64  C   UNL A   1      42.928  29.374  34.834  1.00  0.00     0.034 A 
BRANCH  51  65
ATOM     65  C   UNL A   1      40.840  27.778  29.189  1.00  0.00     0.023 A 
ATOM     66  C   UNL A   1      41.773  27.933  28.147  1.00  0.00     0.031 A 
ATOM     67  C   UNL A   1      39.861  26.782  29.050  1.00  0.00     0.131 A 
ATOM     68  C   UNL A   1      41.634  27.194  26.965  1.00  0.00     0.055 A 
ATOM     69  C   UNL A   1      39.793  25.975  27.911  1.00  0.00     0.041 A 
ATOM     70  F   UNL A   1      38.929  26.600  29.997  1.00  0.00    -0.206 F 
ATOM     71  C   UNL A   1      40.668  26.194  26.849  1.00  0.00     0.022 A 
BRANCH  68  72
ATOM     72  S   UNL A   1      42.610  27.696  25.521  1.00  0.00     0.124 S 
ATOM     73  O   UNL A   1      42.400  26.564  24.621  1.00  0.00    -0.237 OA
ATOM     74  O   UNL A   1      41.975  28.949  25.129  1.00  0.00    -0.237 OA
ATOM     75  O   UNL A   1      43.965  27.820  26.052  1.00  0.00    -0.744 OA
ENDBRANCH  68  72
ENDBRANCH  51  65
BRANCH  52  76
ATOM     76  C   UNL A   1      39.827  34.144  36.963  1.00  0.00     0.023 A 
ATOM     77  C   UNL A   1      39.226  33.621  38.117  1.00  0.00     0.031 A 
ATOM     78  C   UNL A   1      40.182  35.503  36.961  1.00  0.00     0.131 A 
ATOM     79  C   UNL A   1      38.942  34.463  39.202  1.00  0.00     0.055 A 
ATOM     80  C   UNL A   1      39.940  36.328  38.061  1.00  0.00     0.041 A 
ATOM     81  F   UNL A   1      40.782  36.046  35.888  1.00  0.00    -0.206 F 
ATOM     82  C   UNL A   1      39.301  35.811  39.185  1.00  0.00     0.022 A 
BRANCH  79  83
ATOM     83  S   UNL A   1      38.017  33.777  40.602  1.00  0.00     0.124 S 
ATOM     84  O   UNL A   1      38.997  32.871  41.191  1.00  0.00    -0.237 OA
ATOM     85  O   UNL A   1      37.706  34.976  41.374  1.00  0.00    -0.237 OA
ATOM     86  O   UNL A   1      36.871  33.131  39.967  1.00  0.00    -0.744 OA
ENDBRANCH  79  83
ENDBRANCH  52  76
BRANCH  64  87
ATOM     87  C   UNL A   1      44.071  28.782  35.612  1.00  0.00     0.023 A 
ATOM     88  C   UNL A   1      43.886  27.703  36.491  1.00  0.00     0.031 A 
ATOM     89  C   UNL A   1      45.367  29.308  35.462  1.00  0.00     0.131 A 
ATOM     90  C   UNL A   1      44.974  27.215  37.227  1.00  0.00     0.055 A 
ATOM     91  C   UNL A   1      46.455  28.781  36.153  1.00  0.00     0.041 A 
ATOM     92  F   UNL A   1      45.592  30.339  34.631  1.00  0.00    -0.206 F 
ATOM     93  C   UNL A   1      46.260  27.735  37.052  1.00  0.00     0.022 A 
BRANCH  90  94
ATOM     94  S   UNL A   1      44.670  25.939  38.479  1.00  0.00     0.124 S 
ATOM     95  O   UNL A   1      46.027  25.568  38.868  1.00  0.00    -0.237 OA
ATOM     96  O   UNL A   1      43.896  26.664  39.481  1.00  0.00    -0.237 OA
ATOM     97  O   UNL A   1      43.930  24.912  37.748  1.00  0.00    -0.744 OA
ENDBRANCH  90  94
ENDBRANCH  64  87
ENDBRANCH  38  39
ENDBRANCH  30  33
ENDBRANCH  28  29
ENDBRANCH  27  28
ENDBRANCH   1  27
TORSDOF 19
ENDMDL
