MODEL 1
REMARK VINA RESULT:     -12.5      0.000      0.000
REMARK SMILES O=C(NCCCCNC(=O)[C@H]1CC(=O)N(c2cccc(OC(F)(F)F)c2)C1)c1ccc(-c2c3nc(c(-c4cc(S(=O)(=O)[O-])ccc4F)c4ccc([nH]4)c(-c4cc(S(=O)(=O)[O-])ccc4F)c4nc(c(-c5cc(S(=O)(=O)[O-])ccc5F)c5ccc2[nH]5)C=C4)C=C3)cc1
REMARK SMILES IDX 5 1 4 2 3 3 1 4 2 5 28 7 29 8 90 9 30 10 89 11 31 12 32 13
REMARK SMILES IDX 33 14 83 15 34 16 88 17 82 18 84 19 35 20 87 21 81 22 80 23
REMARK SMILES IDX 36 25 68 26 48 27 67 28 49 29 52 30 66 31 85 32 50 33 51 34
REMARK SMILES IDX 65 36 86 37 53 38 37 39 38 40 46 41 39 42 45 43 47 44 44 45
REMARK SMILES IDX 40 46 41 47 42 48 43 49 69 50 70 51 78 52 71 53 77 54 79 55
REMARK SMILES IDX 76 56 72 57 73 58 74 59 75 60 54 61 55 62 63 63 56 64 62 65
REMARK SMILES IDX 64 66 61 67 57 68 58 69 59 70 60 71 6 72 7 73 8 74 9 75
REMARK SMILES IDX 10 77 11 78 12 79 27 80 13 81 15 82 14 83 16 84 17 85 26 86
REMARK SMILES IDX 18 87 20 88 19 89 21 90 22 91 23 92 24 93 25 94
REMARK H PARENT 3 6 84 24 52 35 8 76
REMARK Flexibility Score: inf
ROOT
ATOM      1  C   UNL A   1      35.784  21.606  25.326  1.00  0.00     0.023 C 
ENDROOT
BRANCH   1   2
ATOM      2  C   UNL A   1      37.249  21.963  25.120  1.00  0.00     0.116 C 
BRANCH   2   3
ATOM      3  N   UNL A   1      38.174  20.863  25.368  1.00  0.00    -0.352 N 
ATOM      4  O   UNL A   1      40.094  19.931  26.133  1.00  0.00    -0.269 OA
ATOM      5  C   UNL A   1      39.370  20.917  26.049  1.00  0.00     0.251 C 
ATOM      6  H   UNL A   1      37.915  19.984  25.008  1.00  0.00     0.163 HD
BRANCH   5   7
ATOM      7  C   UNL A   1      39.782  22.211  26.632  1.00  0.00     0.039 A 
ATOM      8  C   UNL A   1      39.252  23.400  26.129  1.00  0.00     0.014 A 
ATOM      9  C   UNL A   1      40.787  22.235  27.602  1.00  0.00     0.014 A 
ATOM     10  C   UNL A   1      39.850  24.607  26.462  1.00  0.00     0.010 A 
ATOM     11  C   UNL A   1      41.324  23.460  28.005  1.00  0.00     0.010 A 
ATOM     12  C   UNL A   1      40.896  24.653  27.399  1.00  0.00    -0.014 A 
BRANCH  12  13
ATOM     13  C   UNL A   1      41.518  25.964  27.725  1.00  0.00     0.031 A 
ATOM     14  C   UNL A   1      42.865  26.343  27.169  1.00  0.00     0.074 A 
ATOM     15  C   UNL A   1      40.829  26.835  28.486  1.00  0.00     0.049 A 
ATOM     16  N   UNL A   1      43.542  27.452  27.328  1.00  0.00    -0.248 NA
ATOM     17  C   UNL A   1      43.547  25.340  26.337  1.00  0.00     0.031 C 
ATOM     18  C   UNL A   1      39.512  26.577  29.075  1.00  0.00     0.029 A 
ATOM     19  N   UNL A   1      41.118  28.118  28.873  1.00  0.00    -0.354 N 
ATOM     20  C   UNL A   1      44.740  27.274  26.643  1.00  0.00     0.074 A 
ATOM     21  C   UNL A   1      44.706  25.936  26.091  1.00  0.00     0.031 C 
ATOM     22  C   UNL A   1      39.083  27.685  29.695  1.00  0.00     0.029 A 
ATOM     23  C   UNL A   1      40.120  28.706  29.613  1.00  0.00     0.049 A 
ATOM     24  H   UNL A   1      41.959  28.574  28.642  1.00  0.00     0.167 HD
ATOM     25  C   UNL A   1      45.768  28.148  26.488  1.00  0.00     0.034 A 
ATOM     26  C   UNL A   1      40.050  29.927  30.176  1.00  0.00     0.034 A 
ATOM     27  C   UNL A   1      45.774  29.486  27.034  1.00  0.00     0.049 A 
ATOM     28  C   UNL A   1      41.208  30.870  30.002  1.00  0.00     0.074 A 
ATOM     29  C   UNL A   1      46.745  30.465  26.910  1.00  0.00     0.029 A 
ATOM     30  N   UNL A   1      44.761  30.035  27.812  1.00  0.00    -0.354 N 
ATOM     31  N   UNL A   1      42.330  30.688  29.345  1.00  0.00    -0.248 NA
ATOM     32  C   UNL A   1      41.086  32.184  30.642  1.00  0.00     0.031 C 
ATOM     33  C   UNL A   1      46.351  31.577  27.664  1.00  0.00     0.029 A 
ATOM     34  C   UNL A   1      45.097  31.325  28.198  1.00  0.00     0.049 A 
ATOM     35  H   UNL A   1      43.925  29.575  28.055  1.00  0.00     0.167 HD
ATOM     36  C   UNL A   1      43.039  31.877  29.473  1.00  0.00     0.074 A 
ATOM     37  C   UNL A   1      42.206  32.773  30.252  1.00  0.00     0.031 C 
ATOM     38  C   UNL A   1      44.264  32.202  28.986  1.00  0.00     0.034 A 
BRANCH  25  39
ATOM     39  C   UNL A   1      46.991  27.662  25.744  1.00  0.00     0.023 A 
ATOM     40  C   UNL A   1      47.225  27.988  24.396  1.00  0.00     0.031 A 
ATOM     41  C   UNL A   1      47.927  26.832  26.389  1.00  0.00     0.131 A 
ATOM     42  C   UNL A   1      48.320  27.429  23.718  1.00  0.00     0.055 A 
ATOM     43  C   UNL A   1      49.059  26.345  25.731  1.00  0.00     0.041 A 
ATOM     44  F   UNL A   1      47.750  26.469  27.669  1.00  0.00    -0.206 F 
ATOM     45  C   UNL A   1      49.253  26.629  24.383  1.00  0.00     0.022 A 
BRANCH  42  46
ATOM     46  S   UNL A   1      48.425  27.639  21.919  1.00  0.00     0.124 S 
ATOM     47  O   UNL A   1      48.653  26.265  21.474  1.00  0.00    -0.237 OA
ATOM     48  O   UNL A   1      47.123  28.208  21.592  1.00  0.00    -0.237 OA
ATOM     49  O   UNL A   1      49.564  28.538  21.745  1.00  0.00    -0.744 OA
ENDBRANCH  42  46
ENDBRANCH  25  39
BRANCH  26  50
ATOM     50  C   UNL A   1      38.850  30.317  30.967  1.00  0.00     0.023 A 
ATOM     51  C   UNL A   1      37.789  31.017  30.373  1.00  0.00     0.031 A 
ATOM     52  C   UNL A   1      38.756  30.008  32.336  1.00  0.00     0.131 A 
ATOM     53  C   UNL A   1      36.694  31.417  31.154  1.00  0.00     0.055 A 
ATOM     54  C   UNL A   1      37.642  30.362  33.097  1.00  0.00     0.041 A 
ATOM     55  F   UNL A   1      39.742  29.332  32.949  1.00  0.00    -0.206 F 
ATOM     56  C   UNL A   1      36.607  31.082  32.508  1.00  0.00     0.022 A 
BRANCH  53  57
ATOM     57  S   UNL A   1      35.412  32.445  30.388  1.00  0.00     0.124 S 
ATOM     58  O   UNL A   1      35.068  31.659  29.208  1.00  0.00    -0.237 OA
ATOM     59  O   UNL A   1      34.403  32.502  31.439  1.00  0.00    -0.237 OA
ATOM     60  O   UNL A   1      36.102  33.705  30.120  1.00  0.00    -0.744 OA
ENDBRANCH  53  57
ENDBRANCH  26  50
BRANCH  38  61
ATOM     61  C   UNL A   1      44.745  33.609  29.251  1.00  0.00     0.023 A 
ATOM     62  C   UNL A   1      44.666  34.615  28.273  1.00  0.00     0.031 A 
ATOM     63  C   UNL A   1      45.330  33.931  30.488  1.00  0.00     0.131 A 
ATOM     64  C   UNL A   1      45.228  35.877  28.523  1.00  0.00     0.055 A 
ATOM     65  C   UNL A   1      45.831  35.206  30.754  1.00  0.00     0.041 A 
ATOM     66  F   UNL A   1      45.435  33.007  31.457  1.00  0.00    -0.206 F 
ATOM     67  C   UNL A   1      45.795  36.183  29.763  1.00  0.00     0.022 A 
BRANCH  64  68
ATOM     68  S   UNL A   1      45.307  37.078  27.166  1.00  0.00     0.124 S 
ATOM     69  O   UNL A   1      43.895  37.354  26.923  1.00  0.00    -0.237 OA
ATOM     70  O   UNL A   1      46.077  38.167  27.760  1.00  0.00    -0.237 OA
ATOM     71  O   UNL A   1      45.989  36.347  26.100  1.00  0.00    -0.744 OA
ENDBRANCH  64  68
ENDBRANCH  38  61
ENDBRANCH  12  13
ENDBRANCH   5   7
ENDBRANCH   2   3
ENDBRANCH   1   2
BRANCH   1  72
ATOM     72  C   UNL A   1      35.123  22.295  26.520  1.00  0.00     0.023 C 
BRANCH  72  73
ATOM     73  C   UNL A   1      33.997  21.490  27.181  1.00  0.00     0.116 C 
BRANCH  73  74
ATOM     74  N   UNL A   1      33.413  20.536  26.252  1.00  0.00    -0.356 N 
ATOM     75  C   UNL A   1      32.382  20.596  25.373  1.00  0.00     0.225 C 
ATOM     76  H   UNL A   1      33.861  19.660  26.263  1.00  0.00     0.163 HD
ATOM     77  O   UNL A   1      32.105  19.541  24.789  1.00  0.00    -0.275 OA
BRANCH  75  78
ATOM     78  C   UNL A   1      31.616  21.859  24.999  1.00  0.00     0.107 C 
ATOM     79  C   UNL A   1      30.815  22.363  26.206  1.00  0.00     0.116 C 
ATOM     80  C   UNL A   1      32.380  23.074  24.549  1.00  0.00     0.139 C 
ATOM     81  C   UNL A   1      30.822  23.870  26.095  1.00  0.00     0.227 C 
ATOM     82  N   UNL A   1      31.704  24.226  25.079  1.00  0.00    -0.311 N 
ATOM     83  O   UNL A   1      30.165  24.607  26.810  1.00  0.00    -0.274 OA
BRANCH  82  84
ATOM     84  C   UNL A   1      32.267  25.507  24.857  1.00  0.00     0.047 A 
ATOM     85  C   UNL A   1      33.276  25.977  25.712  1.00  0.00     0.026 A 
ATOM     86  C   UNL A   1      31.729  26.376  23.899  1.00  0.00     0.073 A 
ATOM     87  C   UNL A   1      33.721  27.294  25.634  1.00  0.00     0.006 A 
ATOM     88  C   UNL A   1      32.129  27.717  23.859  1.00  0.00     0.131 A 
ATOM     89  C   UNL A   1      33.137  28.163  24.718  1.00  0.00     0.047 A 
BRANCH  88  90
ATOM     90  O   UNL A   1      31.606  28.690  23.056  1.00  0.00    -0.406 OA
BRANCH  90  91
ATOM     91  C   UNL A   1      30.418  29.328  23.497  1.00  0.00     0.573 C 
ATOM     92  F   UNL A   1      30.643  30.026  24.629  1.00  0.00    -0.132 F 
ATOM     93  F   UNL A   1      29.907  30.143  22.549  1.00  0.00    -0.132 F 
ATOM     94  F   UNL A   1      29.497  28.376  23.770  1.00  0.00    -0.132 F 
ENDBRANCH  90  91
ENDBRANCH  88  90
ENDBRANCH  82  84
ENDBRANCH  75  78
ENDBRANCH  73  74
ENDBRANCH  72  73
ENDBRANCH   1  72
TORSDOF 17
ENDMDL
MODEL 2
REMARK VINA RESULT:     -12.4      1.167      7.574
REMARK SMILES O=C(NCCCCNC(=O)[C@H]1CC(=O)N(c2cccc(OC(F)(F)F)c2)C1)c1ccc(-c2c3nc(c(-c4cc(S(=O)(=O)[O-])ccc4F)c4ccc([nH]4)c(-c4cc(S(=O)(=O)[O-])ccc4F)c4nc(c(-c5cc(S(=O)(=O)[O-])ccc5F)c5ccc2[nH]5)C=C4)C=C3)cc1
REMARK SMILES IDX 5 1 4 2 3 3 1 4 2 5 28 7 29 8 90 9 30 10 89 11 31 12 32 13
REMARK SMILES IDX 33 14 83 15 34 16 88 17 82 18 84 19 35 20 87 21 81 22 80 23
REMARK SMILES IDX 36 25 68 26 48 27 67 28 49 29 52 30 66 31 85 32 50 33 51 34
REMARK SMILES IDX 65 36 86 37 53 38 37 39 38 40 46 41 39 42 45 43 47 44 44 45
REMARK SMILES IDX 40 46 41 47 42 48 43 49 69 50 70 51 78 52 71 53 77 54 79 55
REMARK SMILES IDX 76 56 72 57 73 58 74 59 75 60 54 61 55 62 63 63 56 64 62 65
REMARK SMILES IDX 64 66 61 67 57 68 58 69 59 70 60 71 6 72 7 73 8 74 9 75
REMARK SMILES IDX 10 77 11 78 12 79 27 80 13 81 15 82 14 83 16 84 17 85 26 86
REMARK SMILES IDX 18 87 20 88 19 89 21 90 22 91 23 92 24 93 25 94
REMARK H PARENT 3 6 84 24 52 35 8 76
REMARK Flexibility Score: inf
ROOT
ATOM      1  C   UNL A   1      35.773  21.460  25.268  1.00  0.00     0.023 C 
ENDROOT
BRANCH   1   2
ATOM      2  C   UNL A   1      37.235  21.694  24.914  1.00  0.00     0.116 C 
BRANCH   2   3
ATOM      3  N   UNL A   1      38.122  20.597  25.283  1.00  0.00    -0.352 N 
ATOM      4  O   UNL A   1      39.981  19.686  26.208  1.00  0.00    -0.269 OA
ATOM      5  C   UNL A   1      39.284  20.677  26.021  1.00  0.00     0.251 C 
ATOM      6  H   UNL A   1      37.863  19.701  24.970  1.00  0.00     0.163 HD
BRANCH   5   7
ATOM      7  C   UNL A   1      39.692  22.000  26.536  1.00  0.00     0.039 A 
ATOM      8  C   UNL A   1      39.125  23.159  26.004  1.00  0.00     0.014 A 
ATOM      9  C   UNL A   1      40.730  22.079  27.467  1.00  0.00     0.014 A 
ATOM     10  C   UNL A   1      39.712  24.388  26.267  1.00  0.00     0.010 A 
ATOM     11  C   UNL A   1      41.259  23.329  27.802  1.00  0.00     0.010 A 
ATOM     12  C   UNL A   1      40.790  24.489  27.164  1.00  0.00    -0.014 A 
BRANCH  12  13
ATOM     13  C   UNL A   1      41.399  25.822  27.414  1.00  0.00     0.031 A 
ATOM     14  C   UNL A   1      40.697  26.848  28.264  1.00  0.00     0.074 A 
ATOM     15  C   UNL A   1      42.622  26.078  26.912  1.00  0.00     0.049 A 
ATOM     16  N   UNL A   1      41.095  28.048  28.607  1.00  0.00    -0.248 NA
ATOM     17  C   UNL A   1      39.371  26.486  28.786  1.00  0.00     0.031 C 
ATOM     18  C   UNL A   1      43.398  25.155  26.079  1.00  0.00     0.029 A 
ATOM     19  N   UNL A   1      43.440  27.170  27.047  1.00  0.00    -0.354 N 
ATOM     20  C   UNL A   1      40.060  28.596  29.358  1.00  0.00     0.074 A 
ATOM     21  C   UNL A   1      39.005  27.605  29.395  1.00  0.00     0.031 C 
ATOM     22  C   UNL A   1      44.600  25.694  25.828  1.00  0.00     0.029 A 
ATOM     23  C   UNL A   1      44.654  27.027  26.418  1.00  0.00     0.049 A 
ATOM     24  H   UNL A   1      43.182  27.978  27.546  1.00  0.00     0.167 HD
ATOM     25  C   UNL A   1      39.999  29.811  29.961  1.00  0.00     0.034 A 
ATOM     26  C   UNL A   1      45.693  27.877  26.313  1.00  0.00     0.034 A 
ATOM     27  C   UNL A   1      41.071  30.780  29.926  1.00  0.00     0.049 A 
ATOM     28  C   UNL A   1      45.594  29.222  26.978  1.00  0.00     0.074 A 
ATOM     29  C   UNL A   1      41.130  32.025  30.528  1.00  0.00     0.029 A 
ATOM     30  N   UNL A   1      42.272  30.616  29.245  1.00  0.00    -0.354 N 
ATOM     31  N   UNL A   1      44.611  29.722  27.690  1.00  0.00    -0.248 NA
ATOM     32  C   UNL A   1      46.748  30.115  26.827  1.00  0.00     0.031 C 
ATOM     33  C   UNL A   1      42.334  32.638  30.160  1.00  0.00     0.029 A 
ATOM     34  C   UNL A   1      43.065  31.747  29.390  1.00  0.00     0.049 A 
ATOM     35  H   UNL A   1      42.525  29.813  28.734  1.00  0.00     0.167 HD
ATOM     36  C   UNL A   1      45.040  30.981  28.095  1.00  0.00     0.074 A 
ATOM     37  C   UNL A   1      46.378  31.152  27.562  1.00  0.00     0.031 C 
ATOM     38  C   UNL A   1      44.391  31.910  28.842  1.00  0.00     0.034 A 
BRANCH  25  39
ATOM     39  C   UNL A   1      38.712  30.179  30.663  1.00  0.00     0.023 A 
ATOM     40  C   UNL A   1      37.727  30.975  30.051  1.00  0.00     0.031 A 
ATOM     41  C   UNL A   1      38.478  29.747  31.982  1.00  0.00     0.131 A 
ATOM     42  C   UNL A   1      36.595  31.375  30.779  1.00  0.00     0.055 A 
ATOM     43  C   UNL A   1      37.310  30.081  32.673  1.00  0.00     0.041 A 
ATOM     44  F   UNL A   1      39.388  29.001  32.628  1.00  0.00    -0.206 F 
ATOM     45  C   UNL A   1      36.368  30.913  32.078  1.00  0.00     0.022 A 
BRANCH  42  46
ATOM     46  S   UNL A   1      35.499  32.629  30.058  1.00  0.00     0.124 S 
ATOM     47  O   UNL A   1      35.253  32.077  28.728  1.00  0.00    -0.237 OA
ATOM     48  O   UNL A   1      34.364  32.618  30.974  1.00  0.00    -0.237 OA
ATOM     49  O   UNL A   1      36.309  33.845  30.079  1.00  0.00    -0.744 OA
ENDBRANCH  42  46
ENDBRANCH  25  39
BRANCH  26  50
ATOM     50  C   UNL A   1      46.902  27.487  25.537  1.00  0.00     0.023 A 
ATOM     51  C   UNL A   1      47.048  27.856  24.192  1.00  0.00     0.031 A 
ATOM     52  C   UNL A   1      47.924  26.725  26.130  1.00  0.00     0.131 A 
ATOM     53  C   UNL A   1      48.174  27.431  23.471  1.00  0.00     0.055 A 
ATOM     54  C   UNL A   1      49.068  26.349  25.424  1.00  0.00     0.041 A 
ATOM     55  F   UNL A   1      47.836  26.353  27.417  1.00  0.00    -0.206 F 
ATOM     56  C   UNL A   1      49.191  26.693  24.081  1.00  0.00     0.022 A 
BRANCH  53  57
ATOM     57  S   UNL A   1      48.259  27.802  21.698  1.00  0.00     0.124 S 
ATOM     58  O   UNL A   1      49.301  28.822  21.657  1.00  0.00    -0.237 OA
ATOM     59  O   UNL A   1      48.609  26.503  21.134  1.00  0.00    -0.237 OA
ATOM     60  O   UNL A   1      46.912  28.273  21.385  1.00  0.00    -0.744 OA
ENDBRANCH  53  57
ENDBRANCH  26  50
BRANCH  38  61
ATOM     61  C   UNL A   1      45.152  33.174  29.161  1.00  0.00     0.023 A 
ATOM     62  C   UNL A   1      45.039  34.327  28.365  1.00  0.00     0.031 A 
ATOM     63  C   UNL A   1      46.036  33.206  30.254  1.00  0.00     0.131 A 
ATOM     64  C   UNL A   1      45.850  35.441  28.632  1.00  0.00     0.055 A 
ATOM     65  C   UNL A   1      46.794  34.339  30.552  1.00  0.00     0.041 A 
ATOM     66  F   UNL A   1      46.186  32.131  31.044  1.00  0.00    -0.206 F 
ATOM     67  C   UNL A   1      46.715  35.460  29.730  1.00  0.00     0.022 A 
BRANCH  64  68
ATOM     68  S   UNL A   1      45.841  36.825  27.459  1.00  0.00     0.124 S 
ATOM     69  O   UNL A   1      44.488  36.755  26.919  1.00  0.00    -0.237 OA
ATOM     70  O   UNL A   1      46.125  37.966  28.323  1.00  0.00    -0.237 OA
ATOM     71  O   UNL A   1      46.904  36.482  26.516  1.00  0.00    -0.744 OA
ENDBRANCH  64  68
ENDBRANCH  38  61
ENDBRANCH  12  13
ENDBRANCH   5   7
ENDBRANCH   2   3
ENDBRANCH   1   2
BRANCH   1  72
ATOM     72  C   UNL A   1      35.298  22.187  26.526  1.00  0.00     0.023 C 
BRANCH  72  73
ATOM     73  C   UNL A   1      34.037  21.594  27.170  1.00  0.00     0.116 C 
BRANCH  73  74
ATOM     74  N   UNL A   1      33.421  20.598  26.309  1.00  0.00    -0.356 N 
ATOM     75  C   UNL A   1      32.365  20.622  25.457  1.00  0.00     0.225 C 
ATOM     76  H   UNL A   1      33.864  19.721  26.352  1.00  0.00     0.163 HD
ATOM     77  O   UNL A   1      32.065  19.540  24.937  1.00  0.00    -0.275 OA
BRANCH  75  78
ATOM     78  C   UNL A   1      31.597  21.870  25.040  1.00  0.00     0.107 C 
ATOM     79  C   UNL A   1      30.739  22.370  26.208  1.00  0.00     0.116 C 
ATOM     80  C   UNL A   1      32.361  23.093  24.612  1.00  0.00     0.139 C 
ATOM     81  C   UNL A   1      30.728  23.877  26.085  1.00  0.00     0.227 C 
ATOM     82  N   UNL A   1      31.647  24.238  25.103  1.00  0.00    -0.311 N 
ATOM     83  O   UNL A   1      30.030  24.609  26.765  1.00  0.00    -0.274 OA
BRANCH  82  84
ATOM     84  C   UNL A   1      32.199  25.527  24.894  1.00  0.00     0.047 A 
ATOM     85  C   UNL A   1      32.086  26.131  23.633  1.00  0.00     0.026 A 
ATOM     86  C   UNL A   1      32.992  26.140  25.873  1.00  0.00     0.073 A 
ATOM     87  C   UNL A   1      32.768  27.309  23.342  1.00  0.00     0.006 A 
ATOM     88  C   UNL A   1      33.730  27.288  25.565  1.00  0.00     0.131 A 
ATOM     89  C   UNL A   1      33.599  27.876  24.303  1.00  0.00     0.047 A 
BRANCH  88  90
ATOM     90  O   UNL A   1      34.622  27.917  26.386  1.00  0.00    -0.406 OA
BRANCH  90  91
ATOM     91  C   UNL A   1      34.122  28.951  27.218  1.00  0.00     0.573 C 
ATOM     92  F   UNL A   1      34.945  29.163  28.266  1.00  0.00    -0.132 F 
ATOM     93  F   UNL A   1      33.946  30.102  26.533  1.00  0.00    -0.132 F 
ATOM     94  F   UNL A   1      32.920  28.567  27.703  1.00  0.00    -0.132 F 
ENDBRANCH  90  91
ENDBRANCH  88  90
ENDBRANCH  82  84
ENDBRANCH  75  78
ENDBRANCH  73  74
ENDBRANCH  72  73
ENDBRANCH   1  72
TORSDOF 17
ENDMDL
MODEL 3
REMARK VINA RESULT:     -12.4      5.523     10.612
REMARK SMILES O=C(NCCCCNC(=O)[C@H]1CC(=O)N(c2cccc(OC(F)(F)F)c2)C1)c1ccc(-c2c3nc(c(-c4cc(S(=O)(=O)[O-])ccc4F)c4ccc([nH]4)c(-c4cc(S(=O)(=O)[O-])ccc4F)c4nc(c(-c5cc(S(=O)(=O)[O-])ccc5F)c5ccc2[nH]5)C=C4)C=C3)cc1
REMARK SMILES IDX 5 1 4 2 3 3 1 4 2 5 28 7 29 8 90 9 30 10 89 11 31 12 32 13
REMARK SMILES IDX 33 14 83 15 34 16 88 17 82 18 84 19 35 20 87 21 81 22 80 23
REMARK SMILES IDX 36 25 68 26 48 27 67 28 49 29 52 30 66 31 85 32 50 33 51 34
REMARK SMILES IDX 65 36 86 37 53 38 37 39 38 40 46 41 39 42 45 43 47 44 44 45
REMARK SMILES IDX 40 46 41 47 42 48 43 49 69 50 70 51 78 52 71 53 77 54 79 55
REMARK SMILES IDX 76 56 72 57 73 58 74 59 75 60 54 61 55 62 63 63 56 64 62 65
REMARK SMILES IDX 64 66 61 67 57 68 58 69 59 70 60 71 6 72 7 73 8 74 9 75
REMARK SMILES IDX 10 77 11 78 12 79 27 80 13 81 15 82 14 83 16 84 17 85 26 86
REMARK SMILES IDX 18 87 20 88 19 89 21 90 22 91 23 92 24 93 25 94
REMARK H PARENT 3 6 84 24 52 35 8 76
REMARK Flexibility Score: inf
ROOT
ATOM      1  C   UNL A   1      31.791  29.076  26.575  1.00  0.00     0.023 C 
ENDROOT
BRANCH   1   2
ATOM      2  C   UNL A   1      33.043  29.939  26.517  1.00  0.00     0.116 C 
BRANCH   2   3
ATOM      3  N   UNL A   1      32.840  31.317  26.947  1.00  0.00    -0.352 N 
ATOM      4  O   UNL A   1      33.401  33.235  28.018  1.00  0.00    -0.269 OA
ATOM      5  C   UNL A   1      33.718  32.107  27.657  1.00  0.00     0.251 C 
ATOM      6  H   UNL A   1      31.980  31.730  26.703  1.00  0.00     0.163 HD
BRANCH   5   7
ATOM      7  C   UNL A   1      35.033  31.537  28.017  1.00  0.00     0.039 A 
ATOM      8  C   UNL A   1      35.119  30.221  28.472  1.00  0.00     0.014 A 
ATOM      9  C   UNL A   1      36.160  32.363  28.011  1.00  0.00     0.014 A 
ATOM     10  C   UNL A   1      36.286  29.787  29.085  1.00  0.00     0.010 A 
ATOM     11  C   UNL A   1      37.361  31.889  28.545  1.00  0.00     0.010 A 
ATOM     12  C   UNL A   1      37.419  30.616  29.135  1.00  0.00    -0.014 A 
BRANCH  12  13
ATOM     13  C   UNL A   1      38.649  30.120  29.808  1.00  0.00     0.031 A 
ATOM     14  C   UNL A   1      39.000  30.561  31.204  1.00  0.00     0.074 A 
ATOM     15  C   UNL A   1      39.419  29.221  29.166  1.00  0.00     0.049 A 
ATOM     16  N   UNL A   1      40.018  30.208  31.950  1.00  0.00    -0.248 NA
ATOM     17  C   UNL A   1      38.102  31.535  31.841  1.00  0.00     0.031 C 
ATOM     18  C   UNL A   1      39.172  28.718  27.812  1.00  0.00     0.029 A 
ATOM     19  N   UNL A   1      40.545  28.550  29.568  1.00  0.00    -0.354 N 
ATOM     20  C   UNL A   1      39.900  30.936  33.130  1.00  0.00     0.074 A 
ATOM     21  C   UNL A   1      38.725  31.770  32.986  1.00  0.00     0.031 C 
ATOM     22  C   UNL A   1      40.080  27.776  27.520  1.00  0.00     0.029 A 
ATOM     23  C   UNL A   1      41.016  27.659  28.632  1.00  0.00     0.049 A 
ATOM     24  H   UNL A   1      40.973  28.691  30.442  1.00  0.00     0.167 HD
ATOM     25  C   UNL A   1      40.696  30.905  34.230  1.00  0.00     0.034 A 
ATOM     26  C   UNL A   1      42.090  26.848  28.657  1.00  0.00     0.034 A 
ATOM     27  C   UNL A   1      41.854  30.051  34.360  1.00  0.00     0.049 A 
ATOM     28  C   UNL A   1      42.963  26.844  29.881  1.00  0.00     0.074 A 
ATOM     29  C   UNL A   1      42.710  29.914  35.439  1.00  0.00     0.029 A 
ATOM     30  N   UNL A   1      42.324  29.190  33.375  1.00  0.00    -0.354 N 
ATOM     31  N   UNL A   1      42.834  27.533  30.991  1.00  0.00    -0.248 NA
ATOM     32  C   UNL A   1      44.125  25.949  29.855  1.00  0.00     0.031 C 
ATOM     33  C   UNL A   1      43.730  29.024  35.085  1.00  0.00     0.029 A 
ATOM     34  C   UNL A   1      43.472  28.542  33.811  1.00  0.00     0.049 A 
ATOM     35  H   UNL A   1      41.904  29.058  32.495  1.00  0.00     0.167 HD
ATOM     36  C   UNL A   1      43.886  27.135  31.808  1.00  0.00     0.074 A 
ATOM     37  C   UNL A   1      44.626  26.132  31.067  1.00  0.00     0.031 C 
ATOM     38  C   UNL A   1      44.209  27.555  33.058  1.00  0.00     0.034 A 
BRANCH  25  39
ATOM     39  C   UNL A   1      40.369  31.861  35.355  1.00  0.00     0.023 A 
ATOM     40  C   UNL A   1      39.329  31.614  36.269  1.00  0.00     0.031 A 
ATOM     41  C   UNL A   1      41.095  33.059  35.498  1.00  0.00     0.131 A 
ATOM     42  C   UNL A   1      38.996  32.579  37.232  1.00  0.00     0.055 A 
ATOM     43  C   UNL A   1      40.811  33.978  36.511  1.00  0.00     0.041 A 
ATOM     44  F   UNL A   1      42.087  33.362  34.646  1.00  0.00    -0.206 F 
ATOM     45  C   UNL A   1      39.746  33.748  37.376  1.00  0.00     0.022 A 
BRANCH  42  46
ATOM     46  S   UNL A   1      37.476  32.353  38.197  1.00  0.00     0.124 S 
ATOM     47  O   UNL A   1      37.334  30.898  38.189  1.00  0.00    -0.237 OA
ATOM     48  O   UNL A   1      37.825  32.953  39.479  1.00  0.00    -0.237 OA
ATOM     49  O   UNL A   1      36.468  33.073  37.422  1.00  0.00    -0.744 OA
ENDBRANCH  42  46
ENDBRANCH  25  39
BRANCH  26  50
ATOM     50  C   UNL A   1      42.405  25.989  27.482  1.00  0.00     0.023 A 
ATOM     51  C   UNL A   1      41.981  24.653  27.430  1.00  0.00     0.031 A 
ATOM     52  C   UNL A   1      43.150  26.490  26.400  1.00  0.00     0.131 A 
ATOM     53  C   UNL A   1      42.336  23.851  26.335  1.00  0.00     0.055 A 
ATOM     54  C   UNL A   1      43.456  25.704  25.289  1.00  0.00     0.041 A 
ATOM     55  F   UNL A   1      43.573  27.765  26.398  1.00  0.00    -0.206 F 
ATOM     56  C   UNL A   1      43.057  24.371  25.258  1.00  0.00     0.022 A 
BRANCH  53  57
ATOM     57  S   UNL A   1      41.896  22.092  26.369  1.00  0.00     0.124 S 
ATOM     58  O   UNL A   1      40.456  22.141  26.140  1.00  0.00    -0.237 OA
ATOM     59  O   UNL A   1      42.702  21.558  25.278  1.00  0.00    -0.237 OA
ATOM     60  O   UNL A   1      42.301  21.667  27.707  1.00  0.00    -0.744 OA
ENDBRANCH  53  57
ENDBRANCH  26  50
BRANCH  38  61
ATOM     61  C   UNL A   1      45.393  26.885  33.711  1.00  0.00     0.023 A 
ATOM     62  C   UNL A   1      45.257  25.699  34.454  1.00  0.00     0.031 A 
ATOM     63  C   UNL A   1      46.669  27.468  33.622  1.00  0.00     0.131 A 
ATOM     64  C   UNL A   1      46.363  25.173  35.138  1.00  0.00     0.055 A 
ATOM     65  C   UNL A   1      47.779  26.906  34.253  1.00  0.00     0.041 A 
ATOM     66  F   UNL A   1      46.855  28.603  32.929  1.00  0.00    -0.206 F 
ATOM     67  C   UNL A   1      47.627  25.760  35.029  1.00  0.00     0.022 A 
BRANCH  64  68
ATOM     68  S   UNL A   1      46.106  23.773  36.263  1.00  0.00     0.124 S 
ATOM     69  O   UNL A   1      44.671  23.541  36.134  1.00  0.00    -0.237 OA
ATOM     70  O   UNL A   1      46.972  22.749  35.688  1.00  0.00    -0.237 OA
ATOM     71  O   UNL A   1      46.537  24.292  37.560  1.00  0.00    -0.744 OA
ENDBRANCH  64  68
ENDBRANCH  38  61
ENDBRANCH  12  13
ENDBRANCH   5   7
ENDBRANCH   2   3
ENDBRANCH   1   2
BRANCH   1  72
ATOM     72  C   UNL A   1      32.047  27.574  26.442  1.00  0.00     0.023 C 
BRANCH  72  73
ATOM     73  C   UNL A   1      30.962  26.805  25.676  1.00  0.00     0.116 C 
BRANCH  73  74
ATOM     74  N   UNL A   1      30.442  25.699  26.463  1.00  0.00    -0.356 N 
ATOM     75  C   UNL A   1      30.730  24.375  26.523  1.00  0.00     0.225 C 
ATOM     76  H   UNL A   1      29.728  25.969  27.085  1.00  0.00     0.163 HD
ATOM     77  O   UNL A   1      30.013  23.698  27.270  1.00  0.00    -0.275 OA
BRANCH  75  78
ATOM     78  C   UNL A   1      31.900  23.696  25.821  1.00  0.00     0.107 C 
ATOM     79  C   UNL A   1      32.918  23.206  26.857  1.00  0.00     0.116 C 
ATOM     80  C   UNL A   1      31.641  22.480  24.975  1.00  0.00     0.139 C 
ATOM     81  C   UNL A   1      33.493  21.930  26.286  1.00  0.00     0.227 C 
ATOM     82  N   UNL A   1      32.750  21.585  25.161  1.00  0.00    -0.311 N 
ATOM     83  O   UNL A   1      34.436  21.331  26.775  1.00  0.00    -0.274 OA
BRANCH  82  84
ATOM     84  C   UNL A   1      32.718  20.320  24.522  1.00  0.00     0.047 A 
ATOM     85  C   UNL A   1      32.483  20.249  23.141  1.00  0.00     0.026 A 
ATOM     86  C   UNL A   1      32.760  19.134  25.267  1.00  0.00     0.073 A 
ATOM     87  C   UNL A   1      32.267  19.024  22.516  1.00  0.00     0.006 A 
ATOM     88  C   UNL A   1      32.481  17.907  24.654  1.00  0.00     0.131 A 
ATOM     89  C   UNL A   1      32.252  17.859  23.276  1.00  0.00     0.047 A 
BRANCH  88  90
ATOM     90  O   UNL A   1      32.378  16.698  25.282  1.00  0.00    -0.406 OA
BRANCH  90  91
ATOM     91  C   UNL A   1      33.480  15.811  25.167  1.00  0.00     0.573 C 
ATOM     92  F   UNL A   1      34.530  16.259  25.885  1.00  0.00    -0.132 F 
ATOM     93  F   UNL A   1      33.156  14.560  25.560  1.00  0.00    -0.132 F 
ATOM     94  F   UNL A   1      33.853  15.758  23.869  1.00  0.00    -0.132 F 
ENDBRANCH  90  91
ENDBRANCH  88  90
ENDBRANCH  82  84
ENDBRANCH  75  78
ENDBRANCH  73  74
ENDBRANCH  72  73
ENDBRANCH   1  72
TORSDOF 17
ENDMDL
