MODEL 1
REMARK VINA RESULT:     -10.9      0.000      0.000
REMARK SMILES CC(C)(C)OC(=O)N1C[C@@H](COCc2ccccc2)O[C@@H](C(=O)NCCCCNC(=O)c2ccc(-c3c4nc(c(-c5cc(S(=O)(=O)[O-])ccc5F)c5ccc([nH]5)c(-c5cc(S(=O)(=O)[O-])ccc5F)c5nc(c(-c6cc(S(=O)(=O)[O-])ccc6F)c6ccc3[nH]6)C=C5)C=C4)cc2)C1
REMARK SMILES IDX 26 1 25 2 24 3 22 4 23 5 21 7 8 8 9 9 95 10 10 11 20 12 6 13
REMARK SMILES IDX 7 14 5 15 2 16 1 17 3 18 4 19 11 20 12 21 13 22 14 23 15 24
REMARK SMILES IDX 19 25 16 26 18 27 17 28 27 29 28 30 29 31 30 32 31 34 32 35
REMARK SMILES IDX 33 36 94 37 34 38 93 39 35 40 36 41 37 42 87 43 38 44 92 45
REMARK SMILES IDX 86 46 88 47 39 48 91 49 85 50 84 51 40 53 72 54 52 55 71 56
REMARK SMILES IDX 53 57 56 58 70 59 89 60 54 61 55 62 69 64 90 65 57 66 41 67
REMARK SMILES IDX 42 68 50 69 43 70 49 71 51 72 48 73 44 74 45 75 46 76 47 77
REMARK SMILES IDX 73 78 74 79 82 80 75 81 81 82 83 83 80 84 76 85 77 86 78 87
REMARK SMILES IDX 79 88 58 89 59 90 67 91 60 92 66 93 68 94 65 95 61 96 62 97
REMARK SMILES IDX 63 98 64 99
REMARK H PARENT 24 6 29 33 88 52 56 63
REMARK Flexibility Score: inf
ROOT
ATOM      1  C   UNL A   1      34.154  31.353  27.623  1.00  0.00     0.023 C 
ENDROOT
BRANCH   1   2
ATOM      2  C   UNL A   1      33.723  30.089  26.881  1.00  0.00     0.116 C 
BRANCH   2   3
ATOM      3  N   UNL A   1      32.650  29.403  27.573  1.00  0.00    -0.354 N 
ATOM      4  C   UNL A   1      32.026  28.234  27.260  1.00  0.00     0.251 C 
ATOM      5  O   UNL A   1      31.119  27.839  27.998  1.00  0.00    -0.272 OA
ATOM      6  H   UNL A   1      32.325  29.848  28.391  1.00  0.00     0.163 HD
BRANCH   4   7
ATOM      7  C   UNL A   1      32.417  27.438  26.011  1.00  0.00     0.227 C 
ATOM      8  N   UNL A   1      33.317  25.303  25.177  1.00  0.00    -0.302 N 
ATOM      9  C   UNL A   1      32.422  25.399  24.014  1.00  0.00     0.157 C 
ATOM     10  C   UNL A   1      32.934  26.054  26.371  1.00  0.00     0.165 C 
ATOM     11  C   UNL A   1      31.813  26.812  23.816  1.00  0.00     0.164 C 
ATOM     12  O   UNL A   1      31.342  27.308  25.077  1.00  0.00    -0.359 OA
BRANCH   8  13
ATOM     13  C   UNL A   1      34.238  24.289  25.350  1.00  0.00     0.410 C 
ATOM     14  O   UNL A   1      35.376  24.490  25.754  1.00  0.00    -0.224 OA
BRANCH  13  15
ATOM     15  O   UNL A   1      33.759  23.075  24.977  1.00  0.00    -0.444 OA
BRANCH  15  16
ATOM     16  C   UNL A   1      33.130  22.230  25.977  1.00  0.00     0.106 C 
ATOM     17  C   UNL A   1      33.706  20.829  25.726  1.00  0.00     0.056 C 
ATOM     18  C   UNL A   1      31.612  22.187  25.774  1.00  0.00     0.056 C 
ATOM     19  C   UNL A   1      33.506  22.644  27.409  1.00  0.00     0.056 C 
ENDBRANCH  15  16
ENDBRANCH  13  15
ENDBRANCH   8  13
BRANCH  11  20
ATOM     20  C   UNL A   1      30.642  26.749  22.813  1.00  0.00     0.194 C 
BRANCH  20  21
ATOM     21  O   UNL A   1      30.184  27.970  22.231  1.00  0.00    -0.374 OA
BRANCH  21  22
ATOM     22  C   UNL A   1      29.040  28.638  22.771  1.00  0.00     0.195 C 
BRANCH  22  23
ATOM     23  C   UNL A   1      28.820  30.112  22.465  1.00  0.00    -0.022 A 
ATOM     24  C   UNL A   1      28.320  30.601  21.253  1.00  0.00     0.006 A 
ATOM     25  C   UNL A   1      29.020  31.047  23.500  1.00  0.00     0.006 A 
ATOM     26  C   UNL A   1      28.078  31.966  21.056  1.00  0.00     0.000 A 
ATOM     27  C   UNL A   1      28.768  32.411  23.312  1.00  0.00     0.000 A 
ATOM     28  C   UNL A   1      28.303  32.871  22.085  1.00  0.00     0.000 A 
ENDBRANCH  22  23
ENDBRANCH  21  22
ENDBRANCH  20  21
ENDBRANCH  11  20
ENDBRANCH   4   7
ENDBRANCH   2   3
ENDBRANCH   1   2
BRANCH   1  29
ATOM     29  C   UNL A   1      33.046  32.388  27.808  1.00  0.00     0.023 C 
BRANCH  29  30
ATOM     30  C   UNL A   1      33.506  33.840  27.768  1.00  0.00     0.116 C 
BRANCH  30  31
ATOM     31  N   UNL A   1      33.209  34.565  28.996  1.00  0.00    -0.352 N 
ATOM     32  C   UNL A   1      33.780  34.424  30.238  1.00  0.00     0.251 C 
ATOM     33  H   UNL A   1      32.503  35.248  28.926  1.00  0.00     0.163 HD
ATOM     34  O   UNL A   1      33.320  35.035  31.199  1.00  0.00    -0.269 OA
BRANCH  32  35
ATOM     35  C   UNL A   1      34.924  33.504  30.407  1.00  0.00     0.039 A 
ATOM     36  C   UNL A   1      36.163  33.857  29.868  1.00  0.00     0.014 A 
ATOM     37  C   UNL A   1      34.783  32.326  31.145  1.00  0.00     0.014 A 
ATOM     38  C   UNL A   1      37.283  33.072  30.146  1.00  0.00     0.010 A 
ATOM     39  C   UNL A   1      35.912  31.582  31.476  1.00  0.00     0.010 A 
ATOM     40  C   UNL A   1      37.175  31.957  30.994  1.00  0.00    -0.014 A 
BRANCH  40  41
ATOM     41  C   UNL A   1      38.376  31.192  31.422  1.00  0.00     0.031 A 
ATOM     42  C   UNL A   1      39.087  31.551  32.696  1.00  0.00     0.074 A 
ATOM     43  C   UNL A   1      38.872  30.233  30.614  1.00  0.00     0.049 A 
ATOM     44  N   UNL A   1      40.204  31.073  33.182  1.00  0.00    -0.248 NA
ATOM     45  C   UNL A   1      38.476  32.609  33.514  1.00  0.00     0.031 C 
ATOM     46  C   UNL A   1      38.293  29.825  29.332  1.00  0.00     0.029 A 
ATOM     47  N   UNL A   1      39.983  29.437  30.741  1.00  0.00    -0.354 N 
ATOM     48  C   UNL A   1      40.436  31.777  34.359  1.00  0.00     0.074 A 
ATOM     49  C   UNL A   1      39.372  32.752  34.479  1.00  0.00     0.031 C 
ATOM     50  C   UNL A   1      39.044  28.848  28.800  1.00  0.00     0.029 A 
ATOM     51  C   UNL A   1      40.183  28.592  29.674  1.00  0.00     0.049 A 
ATOM     52  H   UNL A   1      40.581  29.469  31.523  1.00  0.00     0.167 HD
ATOM     53  C   UNL A   1      41.433  31.610  35.263  1.00  0.00     0.034 A 
ATOM     54  C   UNL A   1      41.181  27.724  29.419  1.00  0.00     0.034 A 
ATOM     55  C   UNL A   1      42.481  30.628  35.130  1.00  0.00     0.049 A 
ATOM     56  C   UNL A   1      42.299  27.582  30.420  1.00  0.00     0.074 A 
ATOM     57  C   UNL A   1      43.499  30.327  36.020  1.00  0.00     0.029 A 
ATOM     58  N   UNL A   1      42.658  29.794  34.033  1.00  0.00    -0.354 N 
ATOM     59  N   UNL A   1      42.473  28.216  31.557  1.00  0.00    -0.248 NA
ATOM     60  C   UNL A   1      43.351  26.608  30.105  1.00  0.00     0.031 C 
ATOM     61  C   UNL A   1      44.327  29.363  35.432  1.00  0.00     0.029 A 
ATOM     62  C   UNL A   1      43.787  29.008  34.206  1.00  0.00     0.049 A 
ATOM     63  H   UNL A   1      42.066  29.765  33.246  1.00  0.00     0.167 HD
ATOM     64  C   UNL A   1      43.645  27.699  32.102  1.00  0.00     0.074 A 
ATOM     65  C   UNL A   1      44.123  26.691  31.178  1.00  0.00     0.031 C 
ATOM     66  C   UNL A   1      44.267  28.024  33.264  1.00  0.00     0.034 A 
BRANCH  53  67
ATOM     67  C   UNL A   1      41.446  32.531  36.459  1.00  0.00     0.023 A 
ATOM     68  C   UNL A   1      40.602  32.318  37.564  1.00  0.00     0.031 A 
ATOM     69  C   UNL A   1      42.297  33.650  36.488  1.00  0.00     0.131 A 
ATOM     70  C   UNL A   1      40.572  33.249  38.612  1.00  0.00     0.055 A 
ATOM     71  C   UNL A   1      42.319  34.530  37.572  1.00  0.00     0.041 A 
ATOM     72  F   UNL A   1      43.111  33.917  35.454  1.00  0.00    -0.206 F 
ATOM     73  C   UNL A   1      41.443  34.341  38.636  1.00  0.00     0.022 A 
BRANCH  70  74
ATOM     74  S   UNL A   1      39.282  33.088  39.876  1.00  0.00     0.124 S 
ATOM     75  O   UNL A   1      38.495  31.973  39.355  1.00  0.00    -0.237 OA
ATOM     76  O   UNL A   1      40.054  32.817  41.083  1.00  0.00    -0.237 OA
ATOM     77  O   UNL A   1      38.607  34.384  39.845  1.00  0.00    -0.744 OA
ENDBRANCH  70  74
ENDBRANCH  53  67
BRANCH  54  78
ATOM     78  C   UNL A   1      41.191  26.936  28.153  1.00  0.00     0.023 A 
ATOM     79  C   UNL A   1      40.874  25.568  28.151  1.00  0.00     0.031 A 
ATOM     80  C   UNL A   1      41.553  27.533  26.932  1.00  0.00     0.131 A 
ATOM     81  C   UNL A   1      40.968  24.832  26.960  1.00  0.00     0.055 A 
ATOM     82  C   UNL A   1      41.596  26.806  25.740  1.00  0.00     0.041 A 
ATOM     83  F   UNL A   1      41.859  28.838  26.879  1.00  0.00    -0.206 F 
ATOM     84  C   UNL A   1      41.314  25.443  25.753  1.00  0.00     0.022 A 
BRANCH  81  85
ATOM     85  S   UNL A   1      40.703  23.039  27.026  1.00  0.00     0.124 S 
ATOM     86  O   UNL A   1      41.201  22.714  28.358  1.00  0.00    -0.237 OA
ATOM     87  O   UNL A   1      39.261  22.938  26.837  1.00  0.00    -0.237 OA
ATOM     88  O   UNL A   1      41.511  22.535  25.917  1.00  0.00    -0.744 OA
ENDBRANCH  81  85
ENDBRANCH  54  78
BRANCH  66  89
ATOM     89  C   UNL A   1      45.519  27.256  33.604  1.00  0.00     0.023 A 
ATOM     90  C   UNL A   1      45.468  26.013  34.257  1.00  0.00     0.031 A 
ATOM     91  C   UNL A   1      46.783  27.783  33.280  1.00  0.00     0.131 A 
ATOM     92  C   UNL A   1      46.658  25.359  34.612  1.00  0.00     0.055 A 
ATOM     93  C   UNL A   1      47.962  27.102  33.585  1.00  0.00     0.041 A 
ATOM     94  F   UNL A   1      46.890  28.968  32.658  1.00  0.00    -0.206 F 
ATOM     95  C   UNL A   1      47.905  25.889  34.265  1.00  0.00     0.022 A 
BRANCH  92  96
ATOM     96  S   UNL A   1      46.560  23.845  35.604  1.00  0.00     0.124 S 
ATOM     97  O   UNL A   1      46.979  24.318  36.920  1.00  0.00    -0.237 OA
ATOM     98  O   UNL A   1      45.154  23.478  35.477  1.00  0.00    -0.237 OA
ATOM     99  O   UNL A   1      47.498  22.940  34.943  1.00  0.00    -0.744 OA
ENDBRANCH  92  96
ENDBRANCH  66  89
ENDBRANCH  40  41
ENDBRANCH  32  35
ENDBRANCH  30  31
ENDBRANCH  29  30
ENDBRANCH   1  29
TORSDOF 21
ENDMDL
MODEL 2
REMARK VINA RESULT:     -10.8      2.232      4.753
REMARK SMILES CC(C)(C)OC(=O)N1C[C@@H](COCc2ccccc2)O[C@@H](C(=O)NCCCCNC(=O)c2ccc(-c3c4nc(c(-c5cc(S(=O)(=O)[O-])ccc5F)c5ccc([nH]5)c(-c5cc(S(=O)(=O)[O-])ccc5F)c5nc(c(-c6cc(S(=O)(=O)[O-])ccc6F)c6ccc3[nH]6)C=C5)C=C4)cc2)C1
REMARK SMILES IDX 26 1 25 2 24 3 22 4 23 5 21 7 8 8 9 9 95 10 10 11 20 12 6 13
REMARK SMILES IDX 7 14 5 15 2 16 1 17 3 18 4 19 11 20 12 21 13 22 14 23 15 24
REMARK SMILES IDX 19 25 16 26 18 27 17 28 27 29 28 30 29 31 30 32 31 34 32 35
REMARK SMILES IDX 33 36 94 37 34 38 93 39 35 40 36 41 37 42 87 43 38 44 92 45
REMARK SMILES IDX 86 46 88 47 39 48 91 49 85 50 84 51 40 53 72 54 52 55 71 56
REMARK SMILES IDX 53 57 56 58 70 59 89 60 54 61 55 62 69 64 90 65 57 66 41 67
REMARK SMILES IDX 42 68 50 69 43 70 49 71 51 72 48 73 44 74 45 75 46 76 47 77
REMARK SMILES IDX 73 78 74 79 82 80 75 81 81 82 83 83 80 84 76 85 77 86 78 87
REMARK SMILES IDX 79 88 58 89 59 90 67 91 60 92 66 93 68 94 65 95 61 96 62 97
REMARK SMILES IDX 63 98 64 99
REMARK H PARENT 24 6 29 33 88 52 56 63
REMARK Flexibility Score: inf
ROOT
ATOM      1  C   UNL A   1      34.699  30.768  27.484  1.00  0.00     0.023 C 
ENDROOT
BRANCH   1   2
ATOM      2  C   UNL A   1      33.928  29.647  26.791  1.00  0.00     0.116 C 
BRANCH   2   3
ATOM      3  N   UNL A   1      32.861  29.135  27.629  1.00  0.00    -0.354 N 
ATOM      4  C   UNL A   1      31.834  28.300  27.308  1.00  0.00     0.251 C 
ATOM      5  O   UNL A   1      31.026  28.001  28.192  1.00  0.00    -0.272 OA
ATOM      6  H   UNL A   1      32.884  29.433  28.568  1.00  0.00     0.163 HD
BRANCH   4   7
ATOM      7  C   UNL A   1      31.662  27.765  25.883  1.00  0.00     0.227 C 
ATOM      8  N   UNL A   1      31.098  28.353  23.560  1.00  0.00    -0.302 N 
ATOM      9  C   UNL A   1      32.087  27.372  23.089  1.00  0.00     0.157 C 
ATOM     10  C   UNL A   1      31.273  28.871  24.916  1.00  0.00     0.165 C 
ATOM     11  C   UNL A   1      32.547  26.380  24.189  1.00  0.00     0.164 C 
ATOM     12  O   UNL A   1      32.831  27.105  25.394  1.00  0.00    -0.359 OA
BRANCH   8  13
ATOM     13  C   UNL A   1      30.287  29.085  22.716  1.00  0.00     0.410 C 
ATOM     14  O   UNL A   1      30.330  28.977  21.497  1.00  0.00    -0.224 OA
BRANCH  13  15
ATOM     15  O   UNL A   1      29.489  29.959  23.381  1.00  0.00    -0.444 OA
BRANCH  15  16
ATOM     16  C   UNL A   1      28.140  30.191  22.894  1.00  0.00     0.106 C 
ATOM     17  C   UNL A   1      27.578  31.291  23.805  1.00  0.00     0.056 C 
ATOM     18  C   UNL A   1      27.284  28.931  23.047  1.00  0.00     0.056 C 
ATOM     19  C   UNL A   1      28.126  30.722  21.451  1.00  0.00     0.056 C 
ENDBRANCH  15  16
ENDBRANCH  13  15
ENDBRANCH   8  13
BRANCH  11  20
ATOM     20  C   UNL A   1      33.812  25.625  23.728  1.00  0.00     0.194 C 
BRANCH  20  21
ATOM     21  O   UNL A   1      33.776  24.953  22.469  1.00  0.00    -0.374 OA
BRANCH  21  22
ATOM     22  C   UNL A   1      33.822  23.523  22.417  1.00  0.00     0.195 C 
BRANCH  22  23
ATOM     23  C   UNL A   1      34.787  22.772  23.322  1.00  0.00    -0.022 A 
ATOM     24  C   UNL A   1      36.178  22.925  23.294  1.00  0.00     0.006 A 
ATOM     25  C   UNL A   1      34.251  21.952  24.335  1.00  0.00     0.006 A 
ATOM     26  C   UNL A   1      37.008  22.252  24.199  1.00  0.00     0.000 A 
ATOM     27  C   UNL A   1      35.076  21.287  25.249  1.00  0.00     0.000 A 
ATOM     28  C   UNL A   1      36.457  21.432  25.176  1.00  0.00     0.000 A 
ENDBRANCH  22  23
ENDBRANCH  21  22
ENDBRANCH  20  21
ENDBRANCH  11  20
ENDBRANCH   4   7
ENDBRANCH   2   3
ENDBRANCH   1   2
BRANCH   1  29
ATOM     29  C   UNL A   1      33.820  31.796  28.195  1.00  0.00     0.023 C 
BRANCH  29  30
ATOM     30  C   UNL A   1      34.050  33.243  27.775  1.00  0.00     0.116 C 
BRANCH  30  31
ATOM     31  N   UNL A   1      33.317  34.197  28.595  1.00  0.00    -0.352 N 
ATOM     32  C   UNL A   1      33.522  34.538  29.910  1.00  0.00     0.251 C 
ATOM     33  H   UNL A   1      32.573  34.659  28.146  1.00  0.00     0.163 HD
ATOM     34  O   UNL A   1      32.727  35.275  30.486  1.00  0.00    -0.269 OA
BRANCH  32  35
ATOM     35  C   UNL A   1      34.688  33.978  30.627  1.00  0.00     0.039 A 
ATOM     36  C   UNL A   1      34.479  32.984  31.586  1.00  0.00     0.014 A 
ATOM     37  C   UNL A   1      35.983  34.395  30.308  1.00  0.00     0.014 A 
ATOM     38  C   UNL A   1      35.578  32.343  32.162  1.00  0.00     0.010 A 
ATOM     39  C   UNL A   1      37.074  33.710  30.834  1.00  0.00     0.010 A 
ATOM     40  C   UNL A   1      36.883  32.666  31.753  1.00  0.00    -0.014 A 
BRANCH  40  41
ATOM     41  C   UNL A   1      38.059  31.900  32.242  1.00  0.00     0.031 A 
ATOM     42  C   UNL A   1      38.703  32.255  33.552  1.00  0.00     0.074 A 
ATOM     43  C   UNL A   1      38.596  30.942  31.459  1.00  0.00     0.049 A 
ATOM     44  N   UNL A   1      39.792  31.775  34.095  1.00  0.00    -0.248 NA
ATOM     45  C   UNL A   1      38.050  33.311  34.339  1.00  0.00     0.031 C 
ATOM     46  C   UNL A   1      38.084  30.538  30.147  1.00  0.00     0.029 A 
ATOM     47  N   UNL A   1      39.698  30.145  31.642  1.00  0.00    -0.354 N 
ATOM     48  C   UNL A   1      39.962  32.476  35.284  1.00  0.00     0.074 A 
ATOM     49  C   UNL A   1      38.894  33.452  35.350  1.00  0.00     0.031 C 
ATOM     50  C   UNL A   1      38.861  29.561  29.653  1.00  0.00     0.029 A 
ATOM     51  C   UNL A   1      39.952  29.302  30.585  1.00  0.00     0.049 A 
ATOM     52  H   UNL A   1      40.254  30.175  32.454  1.00  0.00     0.167 HD
ATOM     53  C   UNL A   1      40.911  32.306  36.238  1.00  0.00     0.034 A 
ATOM     54  C   UNL A   1      40.963  28.434  30.380  1.00  0.00     0.034 A 
ATOM     55  C   UNL A   1      41.964  31.323  36.158  1.00  0.00     0.049 A 
ATOM     56  C   UNL A   1      42.026  28.289  31.438  1.00  0.00     0.074 A 
ATOM     57  C   UNL A   1      42.934  31.020  37.099  1.00  0.00     0.029 A 
ATOM     58  N   UNL A   1      42.197  30.493  35.070  1.00  0.00    -0.354 N 
ATOM     59  N   UNL A   1      42.141  28.920  32.584  1.00  0.00    -0.248 NA
ATOM     60  C   UNL A   1      43.093  27.314  31.176  1.00  0.00     0.031 C 
ATOM     61  C   UNL A   1      43.791  30.056  36.553  1.00  0.00     0.029 A 
ATOM     62  C   UNL A   1      43.316  29.705  35.300  1.00  0.00     0.049 A 
ATOM     63  H   UNL A   1      41.647  30.466  34.253  1.00  0.00     0.167 HD
ATOM     64  C   UNL A   1      43.283  28.400  33.188  1.00  0.00     0.074 A 
ATOM     65  C   UNL A   1      43.808  27.395  32.288  1.00  0.00     0.031 C 
ATOM     66  C   UNL A   1      43.843  28.723  34.382  1.00  0.00     0.034 A 
BRANCH  53  67
ATOM     67  C   UNL A   1      40.862  33.225  37.436  1.00  0.00     0.023 A 
ATOM     68  C   UNL A   1      40.100  32.912  38.575  1.00  0.00     0.031 A 
ATOM     69  C   UNL A   1      41.569  34.440  37.431  1.00  0.00     0.131 A 
ATOM     70  C   UNL A   1      40.001  33.834  39.627  1.00  0.00     0.055 A 
ATOM     71  C   UNL A   1      41.530  35.318  38.516  1.00  0.00     0.041 A 
ATOM     72  F   UNL A   1      42.299  34.802  36.364  1.00  0.00    -0.206 F 
ATOM     73  C   UNL A   1      40.731  35.025  39.616  1.00  0.00     0.022 A 
BRANCH  70  74
ATOM     74  S   UNL A   1      38.795  33.518  40.945  1.00  0.00     0.124 S 
ATOM     75  O   UNL A   1      38.824  34.780  41.680  1.00  0.00    -0.237 OA
ATOM     76  O   UNL A   1      37.574  33.243  40.196  1.00  0.00    -0.237 OA
ATOM     77  O   UNL A   1      39.360  32.376  41.660  1.00  0.00    -0.744 OA
ENDBRANCH  70  74
ENDBRANCH  53  67
BRANCH  54  78
ATOM     78  C   UNL A   1      41.038  27.649  29.115  1.00  0.00     0.023 A 
ATOM     79  C   UNL A   1      42.026  27.918  28.154  1.00  0.00     0.031 A 
ATOM     80  C   UNL A   1      40.099  26.641  28.831  1.00  0.00     0.131 A 
ATOM     81  C   UNL A   1      42.026  27.220  26.937  1.00  0.00     0.055 A 
ATOM     82  C   UNL A   1      40.134  25.914  27.640  1.00  0.00     0.041 A 
ATOM     83  F   UNL A   1      39.137  26.340  29.719  1.00  0.00    -0.206 F 
ATOM     84  C   UNL A   1      41.095  26.211  26.679  1.00  0.00     0.022 A 
BRANCH  81  85
ATOM     85  S   UNL A   1      43.220  27.703  25.660  1.00  0.00     0.124 S 
ATOM     86  O   UNL A   1      44.018  26.490  25.525  1.00  0.00    -0.237 OA
ATOM     87  O   UNL A   1      42.347  28.027  24.537  1.00  0.00    -0.237 OA
ATOM     88  O   UNL A   1      43.912  28.843  26.256  1.00  0.00    -0.744 OA
ENDBRANCH  81  85
ENDBRANCH  54  78
BRANCH  66  89
ATOM     89  C   UNL A   1      45.076  27.953  34.785  1.00  0.00     0.023 A 
ATOM     90  C   UNL A   1      46.367  28.410  34.470  1.00  0.00     0.031 A 
ATOM     91  C   UNL A   1      44.955  26.738  35.485  1.00  0.00     0.131 A 
ATOM     92  C   UNL A   1      47.485  27.633  34.808  1.00  0.00     0.055 A 
ATOM     93  C   UNL A   1      46.073  25.997  35.868  1.00  0.00     0.041 A 
ATOM     94  F   UNL A   1      43.745  26.254  35.808  1.00  0.00    -0.206 F 
ATOM     95  C   UNL A   1      47.347  26.438  35.520  1.00  0.00     0.022 A 
BRANCH  92  96
ATOM     96  S   UNL A   1      49.122  28.165  34.237  1.00  0.00     0.124 S 
ATOM     97  O   UNL A   1      50.003  27.232  34.930  1.00  0.00    -0.237 OA
ATOM     98  O   UNL A   1      49.021  27.991  32.791  1.00  0.00    -0.237 OA
ATOM     99  O   UNL A   1      49.209  29.552  34.688  1.00  0.00    -0.744 OA
ENDBRANCH  92  96
ENDBRANCH  66  89
ENDBRANCH  40  41
ENDBRANCH  32  35
ENDBRANCH  30  31
ENDBRANCH  29  30
ENDBRANCH   1  29
TORSDOF 21
ENDMDL
MODEL 3
REMARK VINA RESULT:     -10.8      1.530      8.423
REMARK SMILES CC(C)(C)OC(=O)N1C[C@@H](COCc2ccccc2)O[C@@H](C(=O)NCCCCNC(=O)c2ccc(-c3c4nc(c(-c5cc(S(=O)(=O)[O-])ccc5F)c5ccc([nH]5)c(-c5cc(S(=O)(=O)[O-])ccc5F)c5nc(c(-c6cc(S(=O)(=O)[O-])ccc6F)c6ccc3[nH]6)C=C5)C=C4)cc2)C1
REMARK SMILES IDX 26 1 25 2 24 3 22 4 23 5 21 7 8 8 9 9 95 10 10 11 20 12 6 13
REMARK SMILES IDX 7 14 5 15 2 16 1 17 3 18 4 19 11 20 12 21 13 22 14 23 15 24
REMARK SMILES IDX 19 25 16 26 18 27 17 28 27 29 28 30 29 31 30 32 31 34 32 35
REMARK SMILES IDX 33 36 94 37 34 38 93 39 35 40 36 41 37 42 87 43 38 44 92 45
REMARK SMILES IDX 86 46 88 47 39 48 91 49 85 50 84 51 40 53 72 54 52 55 71 56
REMARK SMILES IDX 53 57 56 58 70 59 89 60 54 61 55 62 69 64 90 65 57 66 41 67
REMARK SMILES IDX 42 68 50 69 43 70 49 71 51 72 48 73 44 74 45 75 46 76 47 77
REMARK SMILES IDX 73 78 74 79 82 80 75 81 81 82 83 83 80 84 76 85 77 86 78 87
REMARK SMILES IDX 79 88 58 89 59 90 67 91 60 92 66 93 68 94 65 95 61 96 62 97
REMARK SMILES IDX 63 98 64 99
REMARK H PARENT 24 6 29 33 88 52 56 63
REMARK Flexibility Score: inf
ROOT
ATOM      1  C   UNL A   1      34.659  30.566  27.532  1.00  0.00     0.023 C 
ENDROOT
BRANCH   1   2
ATOM      2  C   UNL A   1      33.981  29.382  26.845  1.00  0.00     0.116 C 
BRANCH   2   3
ATOM      3  N   UNL A   1      32.865  28.881  27.623  1.00  0.00    -0.354 N 
ATOM      4  C   UNL A   1      31.788  28.152  27.219  1.00  0.00     0.251 C 
ATOM      5  O   UNL A   1      30.944  27.840  28.064  1.00  0.00    -0.272 OA
ATOM      6  H   UNL A   1      32.890  29.100  28.583  1.00  0.00     0.163 HD
BRANCH   4   7
ATOM      7  C   UNL A   1      31.608  27.748  25.753  1.00  0.00     0.227 C 
ATOM      8  N   UNL A   1      31.128  28.561  23.479  1.00  0.00    -0.302 N 
ATOM      9  C   UNL A   1      32.058  27.557  22.942  1.00  0.00     0.157 C 
ATOM     10  C   UNL A   1      31.312  28.953  24.875  1.00  0.00     0.165 C 
ATOM     11  C   UNL A   1      32.431  26.449  23.962  1.00  0.00     0.164 C 
ATOM     12  O   UNL A   1      32.739  27.051  25.227  1.00  0.00    -0.359 OA
BRANCH   8  13
ATOM     13  C   UNL A   1      30.383  29.413  22.688  1.00  0.00     0.410 C 
ATOM     14  O   UNL A   1      30.578  29.540  21.486  1.00  0.00    -0.224 OA
BRANCH  13  15
ATOM     15  O   UNL A   1      29.464  30.118  23.395  1.00  0.00    -0.444 OA
BRANCH  15  16
ATOM     16  C   UNL A   1      28.110  30.223  22.880  1.00  0.00     0.106 C 
ATOM     17  C   UNL A   1      27.442  31.299  23.749  1.00  0.00     0.056 C 
ATOM     18  C   UNL A   1      27.357  28.901  23.058  1.00  0.00     0.056 C 
ATOM     19  C   UNL A   1      28.078  30.710  21.422  1.00  0.00     0.056 C 
ENDBRANCH  15  16
ENDBRANCH  13  15
ENDBRANCH   8  13
BRANCH  11  20
ATOM     20  C   UNL A   1      33.650  25.650  23.456  1.00  0.00     0.194 C 
BRANCH  20  21
ATOM     21  O   UNL A   1      33.430  24.609  22.504  1.00  0.00    -0.374 OA
BRANCH  21  22
ATOM     22  C   UNL A   1      32.513  23.551  22.798  1.00  0.00     0.195 C 
BRANCH  22  23
ATOM     23  C   UNL A   1      33.027  22.272  23.441  1.00  0.00    -0.022 A 
ATOM     24  C   UNL A   1      34.125  22.210  24.307  1.00  0.00     0.006 A 
ATOM     25  C   UNL A   1      32.291  21.085  23.253  1.00  0.00     0.006 A 
ATOM     26  C   UNL A   1      34.510  21.011  24.920  1.00  0.00     0.000 A 
ATOM     27  C   UNL A   1      32.663  19.887  23.873  1.00  0.00     0.000 A 
ATOM     28  C   UNL A   1      33.780  19.849  24.702  1.00  0.00     0.000 A 
ENDBRANCH  22  23
ENDBRANCH  21  22
ENDBRANCH  20  21
ENDBRANCH  11  20
ENDBRANCH   4   7
ENDBRANCH   2   3
ENDBRANCH   1   2
BRANCH   1  29
ATOM     29  C   UNL A   1      33.699  31.650  28.020  1.00  0.00     0.023 C 
BRANCH  29  30
ATOM     30  C   UNL A   1      33.571  32.859  27.101  1.00  0.00     0.116 C 
BRANCH  30  31
ATOM     31  N   UNL A   1      32.938  34.000  27.748  1.00  0.00    -0.352 N 
ATOM     32  C   UNL A   1      33.279  34.620  28.926  1.00  0.00     0.251 C 
ATOM     33  H   UNL A   1      32.160  34.377  27.278  1.00  0.00     0.163 HD
ATOM     34  O   UNL A   1      32.556  35.497  29.391  1.00  0.00    -0.269 OA
BRANCH  32  35
ATOM     35  C   UNL A   1      34.501  34.192  29.640  1.00  0.00     0.039 A 
ATOM     36  C   UNL A   1      34.373  33.455  30.820  1.00  0.00     0.014 A 
ATOM     37  C   UNL A   1      35.764  34.469  29.111  1.00  0.00     0.014 A 
ATOM     38  C   UNL A   1      35.513  32.919  31.423  1.00  0.00     0.010 A 
ATOM     39  C   UNL A   1      36.891  33.879  29.675  1.00  0.00     0.010 A 
ATOM     40  C   UNL A   1      36.775  33.084  30.827  1.00  0.00    -0.014 A 
BRANCH  40  41
ATOM     41  C   UNL A   1      37.980  32.402  31.367  1.00  0.00     0.031 A 
ATOM     42  C   UNL A   1      38.669  31.335  30.565  1.00  0.00     0.074 A 
ATOM     43  C   UNL A   1      38.396  32.687  32.618  1.00  0.00     0.049 A 
ATOM     44  N   UNL A   1      39.665  30.558  30.906  1.00  0.00    -0.248 NA
ATOM     45  C   UNL A   1      38.148  31.090  29.212  1.00  0.00     0.031 C 
ATOM     46  C   UNL A   1      37.781  33.674  33.509  1.00  0.00     0.029 A 
ATOM     47  N   UNL A   1      39.423  32.165  33.364  1.00  0.00    -0.354 N 
ATOM     48  C   UNL A   1      39.886  29.725  29.814  1.00  0.00     0.074 A 
ATOM     49  C   UNL A   1      38.881  30.057  28.826  1.00  0.00     0.031 C 
ATOM     50  C   UNL A   1      38.451  33.696  34.672  1.00  0.00     0.029 A 
ATOM     51  C   UNL A   1      39.510  32.693  34.631  1.00  0.00     0.049 A 
ATOM     52  H   UNL A   1      40.039  31.476  33.023  1.00  0.00     0.167 HD
ATOM     53  C   UNL A   1      40.849  28.785  29.648  1.00  0.00     0.034 A 
ATOM     54  C   UNL A   1      40.335  32.390  35.652  1.00  0.00     0.034 A 
ATOM     55  C   UNL A   1      41.847  28.473  30.642  1.00  0.00     0.049 A 
ATOM     56  C   UNL A   1      41.374  31.316  35.457  1.00  0.00     0.074 A 
ATOM     57  C   UNL A   1      42.910  27.590  30.549  1.00  0.00     0.029 A 
ATOM     58  N   UNL A   1      41.900  29.021  31.917  1.00  0.00    -0.354 N 
ATOM     59  N   UNL A   1      41.606  30.576  34.397  1.00  0.00    -0.248 NA
ATOM     60  C   UNL A   1      42.262  31.039  36.592  1.00  0.00     0.031 C 
ATOM     61  C   UNL A   1      43.562  27.554  31.787  1.00  0.00     0.029 A 
ATOM     62  C   UNL A   1      42.952  28.468  32.632  1.00  0.00     0.049 A 
ATOM     63  H   UNL A   1      41.281  29.704  32.263  1.00  0.00     0.167 HD
ATOM     64  C   UNL A   1      42.683  29.761  34.734  1.00  0.00     0.074 A 
ATOM     65  C   UNL A   1      43.063  30.113  36.086  1.00  0.00     0.031 C 
ATOM     66  C   UNL A   1      43.304  28.811  33.990  1.00  0.00     0.034 A 
BRANCH  53  67
ATOM     67  C   UNL A   1      40.848  28.013  28.350  1.00  0.00     0.023 A 
ATOM     68  C   UNL A   1      40.175  26.784  28.223  1.00  0.00     0.031 A 
ATOM     69  C   UNL A   1      41.547  28.498  27.231  1.00  0.00     0.131 A 
ATOM     70  C   UNL A   1      40.278  26.048  27.034  1.00  0.00     0.055 A 
ATOM     71  C   UNL A   1      41.579  27.798  26.023  1.00  0.00     0.041 A 
ATOM     72  F   UNL A   1      42.224  29.655  27.297  1.00  0.00    -0.206 F 
ATOM     73  C   UNL A   1      40.955  26.559  25.924  1.00  0.00     0.022 A 
BRANCH  70  74
ATOM     74  S   UNL A   1      39.632  24.354  27.006  1.00  0.00     0.124 S 
ATOM     75  O   UNL A   1      40.815  23.594  26.609  1.00  0.00    -0.237 OA
ATOM     76  O   UNL A   1      39.181  24.165  28.380  1.00  0.00    -0.237 OA
ATOM     77  O   UNL A   1      38.571  24.407  26.002  1.00  0.00    -0.744 OA
ENDBRANCH  70  74
ENDBRANCH  53  67
BRANCH  54  78
ATOM     78  C   UNL A   1      40.204  33.090  36.962  1.00  0.00     0.023 A 
ATOM     79  C   UNL A   1      39.309  32.630  37.941  1.00  0.00     0.031 A 
ATOM     80  C   UNL A   1      40.945  34.253  37.239  1.00  0.00     0.131 A 
ATOM     81  C   UNL A   1      39.146  33.352  39.133  1.00  0.00     0.055 A 
ATOM     82  C   UNL A   1      40.816  34.940  38.448  1.00  0.00     0.041 A 
ATOM     83  F   UNL A   1      41.818  34.731  36.338  1.00  0.00    -0.206 F 
ATOM     84  C   UNL A   1      39.902  34.496  39.399  1.00  0.00     0.022 A 
BRANCH  81  85
ATOM     85  S   UNL A   1      37.870  32.815  40.305  1.00  0.00     0.124 S 
ATOM     86  O   UNL A   1      37.881  33.903  41.276  1.00  0.00    -0.237 OA
ATOM     87  O   UNL A   1      36.691  32.728  39.450  1.00  0.00    -0.237 OA
ATOM     88  O   UNL A   1      38.377  31.535  40.796  1.00  0.00    -0.744 OA
ENDBRANCH  81  85
ENDBRANCH  54  78
BRANCH  66  89
ATOM     89  C   UNL A   1      44.478  28.108  34.625  1.00  0.00     0.023 A 
ATOM     90  C   UNL A   1      44.341  26.852  35.240  1.00  0.00     0.031 A 
ATOM     91  C   UNL A   1      45.749  28.712  34.626  1.00  0.00     0.131 A 
ATOM     92  C   UNL A   1      45.444  26.260  35.875  1.00  0.00     0.055 A 
ATOM     93  C   UNL A   1      46.855  28.093  35.211  1.00  0.00     0.041 A 
ATOM     94  F   UNL A   1      45.935  29.913  34.056  1.00  0.00    -0.206 F 
ATOM     95  C   UNL A   1      46.704  26.866  35.849  1.00  0.00     0.022 A 
BRANCH  92  96
ATOM     96  S   UNL A   1      45.195  24.724  36.805  1.00  0.00     0.124 S 
ATOM     97  O   UNL A   1      46.465  24.036  36.600  1.00  0.00    -0.237 OA
ATOM     98  O   UNL A   1      44.946  25.213  38.157  1.00  0.00    -0.237 OA
ATOM     99  O   UNL A   1      44.043  24.108  36.149  1.00  0.00    -0.744 OA
ENDBRANCH  92  96
ENDBRANCH  66  89
ENDBRANCH  40  41
ENDBRANCH  32  35
ENDBRANCH  30  31
ENDBRANCH  29  30
ENDBRANCH   1  29
TORSDOF 21
ENDMDL
