MODEL 1
REMARK VINA RESULT:     -10.6      0.000      0.000
REMARK SMILES Cc1nc([C@H](C)[NH2+]CC(=O)NCCCCNC(=O)c2ccc(-c3c4nc(c(-c5cc(S(=O)(=O)[O-])ccc5F)c5ccc([nH]5)c(-c5cc(S(=O)(=O)[O-])ccc5F)c5nc(c(-c6cc(S(=O)(=O)[O-])ccc6F)c6ccc3[nH]6)C=C5)C=C4)cc2)cs1
REMARK SMILES IDX 13 1 12 2 11 3 9 4 10 5 8 7 7 8 5 11 6 12 4 13 1 14 2 15
REMARK SMILES IDX 3 16 83 17 82 18 14 19 15 20 16 21 17 22 18 24 19 25 20 26
REMARK SMILES IDX 81 27 21 28 80 29 22 30 23 31 24 32 74 33 25 34 79 35 73 36
REMARK SMILES IDX 75 37 26 38 78 39 72 40 71 41 27 43 59 44 39 45 58 46 40 47
REMARK SMILES IDX 43 48 57 49 76 50 41 51 42 52 56 54 77 55 44 56 28 57 29 58
REMARK SMILES IDX 37 59 30 60 36 61 38 62 35 63 31 64 32 65 33 66 34 67 60 68
REMARK SMILES IDX 61 69 69 70 62 71 68 72 70 73 67 74 63 75 64 76 65 77 66 78
REMARK SMILES IDX 45 79 46 80 54 81 47 82 53 83 55 84 52 85 48 86 49 87 50 88
REMARK SMILES IDX 51 89
REMARK H PARENT 11 6 7 9 7 10 16 23 75 42 43 53
REMARK Flexibility Score: inf
ROOT
ATOM      1  C   UNL A   1      36.430  19.967  24.993  1.00  0.00     0.023 C 
ENDROOT
BRANCH   1   2
ATOM      2  C   UNL A   1      36.382  21.473  25.274  1.00  0.00     0.116 C 
BRANCH   2   3
ATOM      3  N   UNL A   1      35.736  21.897  26.505  1.00  0.00    -0.351 N 
ATOM      4  C   UNL A   1      34.421  21.873  26.875  1.00  0.00     0.275 C 
ATOM      5  O   UNL A   1      34.153  21.981  28.075  1.00  0.00    -0.269 OA
ATOM      6  H   UNL A   1      36.347  22.262  27.185  1.00  0.00     0.163 HD
BRANCH   4   7
ATOM      7  C   UNL A   1      33.301  21.841  25.830  1.00  0.00     0.362 C 
BRANCH   7   8
ATOM      8  N   UNL A   1      32.506  20.592  25.946  1.00  0.00    -0.331 N 
ATOM      9  H   UNL A   1      33.048  19.900  26.463  1.00  0.00     0.347 HD
ATOM     10  H   UNL A   1      31.637  20.808  26.434  1.00  0.00     0.347 HD
BRANCH   8  11
ATOM     11  C   UNL A   1      32.170  20.045  24.621  1.00  0.00     0.230 C 
ATOM     12  C   UNL A   1      32.629  21.009  23.531  1.00  0.00     0.082 C 
BRANCH  11  13
ATOM     13  C   UNL A   1      32.616  18.613  24.415  1.00  0.00     0.108 A 
ATOM     14  C   UNL A   1      32.473  15.248  25.856  1.00  0.00     0.079 C 
ATOM     15  C   UNL A   1      32.732  16.486  25.076  1.00  0.00     0.090 A 
ATOM     16  N   UNL A   1      32.129  17.638  25.283  1.00  0.00    -0.240 NA
ATOM     17  S   UNL A   1      33.917  16.488  23.839  1.00  0.00    -0.127 S 
ATOM     18  C   UNL A   1      33.593  18.143  23.554  1.00  0.00     0.096 A 
ENDBRANCH  11  13
ENDBRANCH   8  11
ENDBRANCH   7   8
ENDBRANCH   4   7
ENDBRANCH   2   3
ENDBRANCH   1   2
BRANCH   1  19
ATOM     19  C   UNL A   1      37.818  19.316  24.954  1.00  0.00     0.023 C 
BRANCH  19  20
ATOM     20  C   UNL A   1      38.912  20.082  25.691  1.00  0.00     0.116 C 
BRANCH  20  21
ATOM     21  N   UNL A   1      40.080  19.253  25.936  1.00  0.00    -0.352 N 
ATOM     22  C   UNL A   1      41.382  19.596  26.199  1.00  0.00     0.251 C 
ATOM     23  H   UNL A   1      39.908  18.284  25.910  1.00  0.00     0.163 HD
ATOM     24  O   UNL A   1      42.241  18.719  26.144  1.00  0.00    -0.269 OA
BRANCH  22  25
ATOM     25  C   UNL A   1      41.765  20.987  26.541  1.00  0.00     0.039 A 
ATOM     26  C   UNL A   1      41.767  21.949  25.524  1.00  0.00     0.014 A 
ATOM     27  C   UNL A   1      42.202  21.338  27.821  1.00  0.00     0.014 A 
ATOM     28  C   UNL A   1      42.179  23.257  25.793  1.00  0.00     0.010 A 
ATOM     29  C   UNL A   1      42.544  22.659  28.107  1.00  0.00     0.010 A 
ATOM     30  C   UNL A   1      42.559  23.627  27.092  1.00  0.00    -0.014 A 
BRANCH  30  31
ATOM     31  C   UNL A   1      43.026  25.006  27.395  1.00  0.00     0.031 A 
ATOM     32  C   UNL A   1      42.088  25.987  28.051  1.00  0.00     0.074 A 
ATOM     33  C   UNL A   1      44.267  25.388  27.036  1.00  0.00     0.049 A 
ATOM     34  N   UNL A   1      42.269  27.254  28.323  1.00  0.00    -0.248 NA
ATOM     35  C   UNL A   1      40.758  25.479  28.419  1.00  0.00     0.031 C 
ATOM     36  C   UNL A   1      45.252  24.537  26.366  1.00  0.00     0.029 A 
ATOM     37  N   UNL A   1      44.909  26.593  27.172  1.00  0.00    -0.354 N 
ATOM     38  C   UNL A   1      41.070  27.699  28.871  1.00  0.00     0.074 A 
ATOM     39  C   UNL A   1      40.154  26.580  28.839  1.00  0.00     0.031 C 
ATOM     40  C   UNL A   1      46.378  25.241  26.168  1.00  0.00     0.029 A 
ATOM     41  C   UNL A   1      46.185  26.602  26.655  1.00  0.00     0.049 A 
ATOM     42  H   UNL A   1      44.497  27.379  27.599  1.00  0.00     0.167 HD
ATOM     43  C   UNL A   1      40.769  28.923  29.375  1.00  0.00     0.034 A 
ATOM     44  C   UNL A   1      47.089  27.599  26.572  1.00  0.00     0.034 A 
ATOM     45  C   UNL A   1      41.705  30.019  29.422  1.00  0.00     0.049 A 
ATOM     46  C   UNL A   1      46.730  28.953  27.133  1.00  0.00     0.074 A 
ATOM     47  C   UNL A   1      41.533  31.280  29.968  1.00  0.00     0.029 A 
ATOM     48  N   UNL A   1      42.994  29.987  28.899  1.00  0.00    -0.354 N 
ATOM     49  N   UNL A   1      45.609  29.344  27.695  1.00  0.00    -0.248 NA
ATOM     50  C   UNL A   1      47.761  29.995  27.059  1.00  0.00     0.031 C 
ATOM     51  C   UNL A   1      42.689  32.028  29.717  1.00  0.00     0.029 A 
ATOM     52  C   UNL A   1      43.613  31.214  29.083  1.00  0.00     0.049 A 
ATOM     53  H   UNL A   1      43.405  29.207  28.463  1.00  0.00     0.167 HD
ATOM     54  C   UNL A   1      45.815  30.668  28.070  1.00  0.00     0.074 A 
ATOM     55  C   UNL A   1      47.171  31.002  27.684  1.00  0.00     0.031 C 
ATOM     56  C   UNL A   1      44.963  31.531  28.682  1.00  0.00     0.034 A 
BRANCH  43  57
ATOM     57  C   UNL A   1      39.363  29.142  29.884  1.00  0.00     0.023 A 
ATOM     58  C   UNL A   1      38.404  29.849  29.136  1.00  0.00     0.031 A 
ATOM     59  C   UNL A   1      38.981  28.661  31.150  1.00  0.00     0.131 A 
ATOM     60  C   UNL A   1      37.145  30.125  29.690  1.00  0.00     0.055 A 
ATOM     61  C   UNL A   1      37.697  28.865  31.660  1.00  0.00     0.041 A 
ATOM     62  F   UNL A   1      39.855  27.995  31.921  1.00  0.00    -0.206 F 
ATOM     63  C   UNL A   1      36.775  29.616  30.937  1.00  0.00     0.022 A 
BRANCH  60  64
ATOM     64  S   UNL A   1      36.051  31.282  28.821  1.00  0.00     0.124 S 
ATOM     65  O   UNL A   1      35.508  30.434  27.762  1.00  0.00    -0.237 OA
ATOM     66  O   UNL A   1      35.115  31.678  29.866  1.00  0.00    -0.237 OA
ATOM     67  O   UNL A   1      36.958  32.332  28.363  1.00  0.00    -0.744 OA
ENDBRANCH  60  64
ENDBRANCH  43  57
BRANCH  44  68
ATOM     68  C   UNL A   1      48.416  27.367  25.932  1.00  0.00     0.023 A 
ATOM     69  C   UNL A   1      48.601  27.573  24.556  1.00  0.00     0.031 A 
ATOM     70  C   UNL A   1      49.509  26.894  26.682  1.00  0.00     0.131 A 
ATOM     71  C   UNL A   1      49.834  27.262  23.962  1.00  0.00     0.055 A 
ATOM     72  C   UNL A   1      50.749  26.636  26.093  1.00  0.00     0.041 A 
ATOM     73  F   UNL A   1      49.389  26.686  28.002  1.00  0.00    -0.206 F 
ATOM     74  C   UNL A   1      50.912  26.807  24.723  1.00  0.00     0.022 A 
BRANCH  71  75
ATOM     75  S   UNL A   1      49.979  27.377  22.157  1.00  0.00     0.124 S 
ATOM     76  O   UNL A   1      51.279  26.760  21.923  1.00  0.00    -0.237 OA
ATOM     77  O   UNL A   1      48.817  26.614  21.712  1.00  0.00    -0.237 OA
ATOM     78  O   UNL A   1      49.915  28.814  21.903  1.00  0.00    -0.744 OA
ENDBRANCH  71  75
ENDBRANCH  44  68
BRANCH  56  79
ATOM     79  C   UNL A   1      45.500  32.903  29.011  1.00  0.00     0.023 A 
ATOM     80  C   UNL A   1      45.522  33.935  28.058  1.00  0.00     0.031 A 
ATOM     81  C   UNL A   1      46.006  33.174  30.295  1.00  0.00     0.131 A 
ATOM     82  C   UNL A   1      46.092  35.176  28.386  1.00  0.00     0.055 A 
ATOM     83  C   UNL A   1      46.516  34.427  30.633  1.00  0.00     0.041 A 
ATOM     84  F   UNL A   1      46.010  32.223  31.243  1.00  0.00    -0.206 F 
ATOM     85  C   UNL A   1      46.574  35.433  29.672  1.00  0.00     0.022 A 
BRANCH  82  86
ATOM     86  S   UNL A   1      46.279  36.420  27.080  1.00  0.00     0.124 S 
ATOM     87  O   UNL A   1      45.150  37.306  27.340  1.00  0.00    -0.237 OA
ATOM     88  O   UNL A   1      47.600  36.971  27.361  1.00  0.00    -0.237 OA
ATOM     89  O   UNL A   1      46.185  35.639  25.847  1.00  0.00    -0.744 OA
ENDBRANCH  82  86
ENDBRANCH  56  79
ENDBRANCH  30  31
ENDBRANCH  22  25
ENDBRANCH  20  21
ENDBRANCH  19  20
ENDBRANCH   1  19
TORSDOF 17
ENDMDL
MODEL 2
REMARK VINA RESULT:     -10.5      5.954      9.346
REMARK SMILES Cc1nc([C@H](C)[NH2+]CC(=O)NCCCCNC(=O)c2ccc(-c3c4nc(c(-c5cc(S(=O)(=O)[O-])ccc5F)c5ccc([nH]5)c(-c5cc(S(=O)(=O)[O-])ccc5F)c5nc(c(-c6cc(S(=O)(=O)[O-])ccc6F)c6ccc3[nH]6)C=C5)C=C4)cc2)cs1
REMARK SMILES IDX 13 1 12 2 11 3 9 4 10 5 8 7 7 8 5 11 6 12 4 13 1 14 2 15
REMARK SMILES IDX 3 16 83 17 82 18 14 19 15 20 16 21 17 22 18 24 19 25 20 26
REMARK SMILES IDX 81 27 21 28 80 29 22 30 23 31 24 32 74 33 25 34 79 35 73 36
REMARK SMILES IDX 75 37 26 38 78 39 72 40 71 41 27 43 59 44 39 45 58 46 40 47
REMARK SMILES IDX 43 48 57 49 76 50 41 51 42 52 56 54 77 55 44 56 28 57 29 58
REMARK SMILES IDX 37 59 30 60 36 61 38 62 35 63 31 64 32 65 33 66 34 67 60 68
REMARK SMILES IDX 61 69 69 70 62 71 68 72 70 73 67 74 63 75 64 76 65 77 66 78
REMARK SMILES IDX 45 79 46 80 54 81 47 82 53 83 55 84 52 85 48 86 49 87 50 88
REMARK SMILES IDX 51 89
REMARK H PARENT 11 6 7 9 7 10 16 23 75 42 43 53
REMARK Flexibility Score: inf
ROOT
ATOM      1  C   UNL A   1      32.759  26.585  26.010  1.00  0.00     0.023 C 
ENDROOT
BRANCH   1   2
ATOM      2  C   UNL A   1      33.874  26.152  25.050  1.00  0.00     0.116 C 
BRANCH   2   3
ATOM      3  N   UNL A   1      33.531  25.166  24.039  1.00  0.00    -0.351 N 
ATOM      4  C   UNL A   1      33.460  25.273  22.679  1.00  0.00     0.275 C 
ATOM      5  O   UNL A   1      33.467  24.233  22.013  1.00  0.00    -0.269 OA
ATOM      6  H   UNL A   1      33.315  24.273  24.392  1.00  0.00     0.163 HD
BRANCH   4   7
ATOM      7  C   UNL A   1      33.253  26.629  21.997  1.00  0.00     0.362 C 
BRANCH   7   8
ATOM      8  N   UNL A   1      31.806  26.936  21.861  1.00  0.00    -0.331 N 
ATOM      9  H   UNL A   1      31.625  27.265  20.913  1.00  0.00     0.347 HD
ATOM     10  H   UNL A   1      31.277  26.086  22.055  1.00  0.00     0.347 HD
BRANCH   8  11
ATOM     11  C   UNL A   1      31.386  27.972  22.818  1.00  0.00     0.230 C 
ATOM     12  C   UNL A   1      32.460  29.052  22.919  1.00  0.00     0.082 C 
BRANCH  11  13
ATOM     13  C   UNL A   1      29.989  28.504  22.575  1.00  0.00     0.108 A 
ATOM     14  C   UNL A   1      28.100  31.179  20.932  1.00  0.00     0.079 C 
ATOM     15  C   UNL A   1      28.595  30.021  21.722  1.00  0.00     0.090 A 
ATOM     16  N   UNL A   1      29.832  29.576  21.699  1.00  0.00    -0.240 NA
ATOM     17  S   UNL A   1      27.536  29.196  22.788  1.00  0.00    -0.127 S 
ATOM     18  C   UNL A   1      28.823  28.165  23.241  1.00  0.00     0.096 A 
ENDBRANCH  11  13
ENDBRANCH   8  11
ENDBRANCH   7   8
ENDBRANCH   4   7
ENDBRANCH   2   3
ENDBRANCH   1   2
BRANCH   1  19
ATOM     19  C   UNL A   1      32.947  27.929  26.723  1.00  0.00     0.023 C 
BRANCH  19  20
ATOM     20  C   UNL A   1      34.006  28.842  26.114  1.00  0.00     0.116 C 
BRANCH  20  21
ATOM     21  N   UNL A   1      33.865  30.214  26.573  1.00  0.00    -0.352 N 
ATOM     22  C   UNL A   1      34.543  30.907  27.545  1.00  0.00     0.251 C 
ATOM     23  H   UNL A   1      33.167  30.733  26.111  1.00  0.00     0.163 HD
ATOM     24  O   UNL A   1      34.092  31.988  27.915  1.00  0.00    -0.269 OA
BRANCH  22  25
ATOM     25  C   UNL A   1      35.790  30.379  28.148  1.00  0.00     0.039 A 
ATOM     26  C   UNL A   1      36.995  30.562  27.459  1.00  0.00     0.014 A 
ATOM     27  C   UNL A   1      35.780  29.637  29.331  1.00  0.00     0.014 A 
ATOM     28  C   UNL A   1      38.183  30.027  27.964  1.00  0.00     0.010 A 
ATOM     29  C   UNL A   1      36.976  29.165  29.872  1.00  0.00     0.010 A 
ATOM     30  C   UNL A   1      38.186  29.335  29.184  1.00  0.00    -0.014 A 
BRANCH  30  31
ATOM     31  C   UNL A   1      39.434  28.734  29.727  1.00  0.00     0.031 A 
ATOM     32  C   UNL A   1      40.063  29.312  30.969  1.00  0.00     0.074 A 
ATOM     33  C   UNL A   1      40.024  27.712  29.078  1.00  0.00     0.049 A 
ATOM     34  N   UNL A   1      41.188  28.992  31.555  1.00  0.00    -0.248 NA
ATOM     35  C   UNL A   1      39.342  30.418  31.617  1.00  0.00     0.031 C 
ATOM     36  C   UNL A   1      39.526  27.092  27.849  1.00  0.00     0.029 A 
ATOM     37  N   UNL A   1      41.177  27.022  29.354  1.00  0.00    -0.354 N 
ATOM     38  C   UNL A   1      41.322  29.872  32.625  1.00  0.00     0.074 A 
ATOM     39  C   UNL A   1      40.191  30.773  32.570  1.00  0.00     0.031 C 
ATOM     40  C   UNL A   1      40.357  26.101  27.489  1.00  0.00     0.029 A 
ATOM     41  C   UNL A   1      41.469  26.041  28.432  1.00  0.00     0.049 A 
ATOM     42  H   UNL A   1      41.744  27.209  30.137  1.00  0.00     0.167 HD
ATOM     43  C   UNL A   1      42.288  29.910  33.577  1.00  0.00     0.034 A 
ATOM     44  C   UNL A   1      42.520  25.201  28.351  1.00  0.00     0.034 A 
ATOM     45  C   UNL A   1      43.394  28.986  33.630  1.00  0.00     0.049 A 
ATOM     46  C   UNL A   1      43.585  25.266  29.418  1.00  0.00     0.074 A 
ATOM     47  C   UNL A   1      44.393  28.888  34.583  1.00  0.00     0.029 A 
ATOM     48  N   UNL A   1      43.650  27.999  32.686  1.00  0.00    -0.354 N 
ATOM     49  N   UNL A   1      43.670  26.070  30.453  1.00  0.00    -0.248 NA
ATOM     50  C   UNL A   1      44.688  24.302  29.312  1.00  0.00     0.031 C 
ATOM     51  C   UNL A   1      45.287  27.888  34.181  1.00  0.00     0.029 A 
ATOM     52  C   UNL A   1      44.807  27.310  33.018  1.00  0.00     0.049 A 
ATOM     53  H   UNL A   1      43.092  27.816  31.896  1.00  0.00     0.167 HD
ATOM     54  C   UNL A   1      44.819  25.686  31.138  1.00  0.00     0.074 A 
ATOM     55  C   UNL A   1      45.384  24.569  30.407  1.00  0.00     0.031 C 
ATOM     56  C   UNL A   1      45.359  26.204  32.271  1.00  0.00     0.034 A 
BRANCH  43  57
ATOM     57  C   UNL A   1      42.202  31.005  34.617  1.00  0.00     0.023 A 
ATOM     58  C   UNL A   1      42.914  32.211  34.485  1.00  0.00     0.031 A 
ATOM     59  C   UNL A   1      41.416  30.831  35.771  1.00  0.00     0.131 A 
ATOM     60  C   UNL A   1      42.893  33.156  35.523  1.00  0.00     0.055 A 
ATOM     61  C   UNL A   1      41.332  31.813  36.760  1.00  0.00     0.041 A 
ATOM     62  F   UNL A   1      40.728  29.695  35.964  1.00  0.00    -0.206 F 
ATOM     63  C   UNL A   1      42.086  32.976  36.648  1.00  0.00     0.022 A 
BRANCH  60  64
ATOM     64  S   UNL A   1      44.049  34.552  35.446  1.00  0.00     0.124 S 
ATOM     65  O   UNL A   1      43.501  35.325  34.333  1.00  0.00    -0.237 OA
ATOM     66  O   UNL A   1      43.911  35.149  36.768  1.00  0.00    -0.237 OA
ATOM     67  O   UNL A   1      45.337  33.916  35.178  1.00  0.00    -0.744 OA
ENDBRANCH  60  64
ENDBRANCH  43  57
BRANCH  44  68
ATOM     68  C   UNL A   1      42.628  24.230  27.225  1.00  0.00     0.023 A 
ATOM     69  C   UNL A   1      42.027  22.963  27.302  1.00  0.00     0.031 A 
ATOM     70  C   UNL A   1      43.370  24.538  26.070  1.00  0.00     0.131 A 
ATOM     71  C   UNL A   1      42.219  22.034  26.268  1.00  0.00     0.055 A 
ATOM     72  C   UNL A   1      43.513  23.628  25.021  1.00  0.00     0.041 A 
ATOM     73  F   UNL A   1      43.959  25.737  25.941  1.00  0.00    -0.206 F 
ATOM     74  C   UNL A   1      42.947  22.362  25.122  1.00  0.00     0.022 A 
BRANCH  71  75
ATOM     75  S   UNL A   1      41.573  20.352  26.484  1.00  0.00     0.124 S 
ATOM     76  O   UNL A   1      42.210  19.644  25.380  1.00  0.00    -0.237 OA
ATOM     77  O   UNL A   1      42.048  20.016  27.822  1.00  0.00    -0.237 OA
ATOM     78  O   UNL A   1      40.127  20.526  26.363  1.00  0.00    -0.744 OA
ENDBRANCH  71  75
ENDBRANCH  44  68
BRANCH  56  79
ATOM     79  C   UNL A   1      46.599  25.531  32.807  1.00  0.00     0.023 A 
ATOM     80  C   UNL A   1      46.525  24.482  33.740  1.00  0.00     0.031 A 
ATOM     81  C   UNL A   1      47.871  25.954  32.383  1.00  0.00     0.131 A 
ATOM     82  C   UNL A   1      47.704  23.929  34.263  1.00  0.00     0.055 A 
ATOM     83  C   UNL A   1      49.039  25.359  32.861  1.00  0.00     0.041 A 
ATOM     84  F   UNL A   1      47.999  26.952  31.495  1.00  0.00    -0.206 F 
ATOM     85  C   UNL A   1      48.960  24.350  33.818  1.00  0.00     0.022 A 
BRANCH  82  86
ATOM     86  S   UNL A   1      47.575  22.715  35.604  1.00  0.00     0.124 S 
ATOM     87  O   UNL A   1      46.653  21.735  35.039  1.00  0.00    -0.237 OA
ATOM     88  O   UNL A   1      48.958  22.274  35.759  1.00  0.00    -0.237 OA
ATOM     89  O   UNL A   1      47.046  23.494  36.722  1.00  0.00    -0.744 OA
ENDBRANCH  82  86
ENDBRANCH  56  79
ENDBRANCH  30  31
ENDBRANCH  22  25
ENDBRANCH  20  21
ENDBRANCH  19  20
ENDBRANCH   1  19
TORSDOF 17
ENDMDL
MODEL 3
REMARK VINA RESULT:     -10.2      3.538      4.749
REMARK SMILES Cc1nc([C@H](C)[NH2+]CC(=O)NCCCCNC(=O)c2ccc(-c3c4nc(c(-c5cc(S(=O)(=O)[O-])ccc5F)c5ccc([nH]5)c(-c5cc(S(=O)(=O)[O-])ccc5F)c5nc(c(-c6cc(S(=O)(=O)[O-])ccc6F)c6ccc3[nH]6)C=C5)C=C4)cc2)cs1
REMARK SMILES IDX 13 1 12 2 11 3 9 4 10 5 8 7 7 8 5 11 6 12 4 13 1 14 2 15
REMARK SMILES IDX 3 16 83 17 82 18 14 19 15 20 16 21 17 22 18 24 19 25 20 26
REMARK SMILES IDX 81 27 21 28 80 29 22 30 23 31 24 32 74 33 25 34 79 35 73 36
REMARK SMILES IDX 75 37 26 38 78 39 72 40 71 41 27 43 59 44 39 45 58 46 40 47
REMARK SMILES IDX 43 48 57 49 76 50 41 51 42 52 56 54 77 55 44 56 28 57 29 58
REMARK SMILES IDX 37 59 30 60 36 61 38 62 35 63 31 64 32 65 33 66 34 67 60 68
REMARK SMILES IDX 61 69 69 70 62 71 68 72 70 73 67 74 63 75 64 76 65 77 66 78
REMARK SMILES IDX 45 79 46 80 54 81 47 82 53 83 55 84 52 85 48 86 49 87 50 88
REMARK SMILES IDX 51 89
REMARK H PARENT 11 6 7 9 7 10 16 23 75 42 43 53
REMARK Flexibility Score: inf
ROOT
ATOM      1  C   UNL A   1      34.661  22.551  23.836  1.00  0.00     0.023 C 
ENDROOT
BRANCH   1   2
ATOM      2  C   UNL A   1      33.338  23.132  23.323  1.00  0.00     0.116 C 
BRANCH   2   3
ATOM      3  N   UNL A   1      33.345  23.724  21.995  1.00  0.00    -0.351 N 
ATOM      4  C   UNL A   1      32.866  24.925  21.554  1.00  0.00     0.275 C 
ATOM      5  O   UNL A   1      33.270  25.347  20.466  1.00  0.00    -0.269 OA
ATOM      6  H   UNL A   1      33.764  23.168  21.300  1.00  0.00     0.163 HD
BRANCH   4   7
ATOM      7  C   UNL A   1      31.768  25.672  22.316  1.00  0.00     0.362 C 
BRANCH   7   8
ATOM      8  N   UNL A   1      31.566  27.032  21.754  1.00  0.00    -0.331 N 
ATOM      9  H   UNL A   1      32.249  27.189  21.013  1.00  0.00     0.347 HD
ATOM     10  H   UNL A   1      30.616  27.091  21.388  1.00  0.00     0.347 HD
BRANCH   8  11
ATOM     11  C   UNL A   1      31.730  28.069  22.786  1.00  0.00     0.230 C 
ATOM     12  C   UNL A   1      33.094  28.737  22.638  1.00  0.00     0.082 C 
BRANCH  11  13
ATOM     13  C   UNL A   1      30.568  29.035  22.878  1.00  0.00     0.108 A 
ATOM     14  C   UNL A   1      28.079  30.846  20.891  1.00  0.00     0.079 C 
ATOM     15  C   UNL A   1      28.983  30.283  21.928  1.00  0.00     0.090 A 
ATOM     16  N   UNL A   1      29.845  29.311  21.720  1.00  0.00    -0.240 NA
ATOM     17  S   UNL A   1      28.977  30.935  23.514  1.00  0.00    -0.127 S 
ATOM     18  C   UNL A   1      30.208  29.830  23.953  1.00  0.00     0.096 A 
ENDBRANCH  11  13
ENDBRANCH   8  11
ENDBRANCH   7   8
ENDBRANCH   4   7
ENDBRANCH   2   3
ENDBRANCH   1   2
BRANCH   1  19
ATOM     19  C   UNL A   1      35.420  23.381  24.878  1.00  0.00     0.023 C 
BRANCH  19  20
ATOM     20  C   UNL A   1      35.756  22.646  26.171  1.00  0.00     0.116 C 
BRANCH  20  21
ATOM     21  N   UNL A   1      36.656  21.528  25.938  1.00  0.00    -0.352 N 
ATOM     22  C   UNL A   1      38.023  21.489  25.825  1.00  0.00     0.251 C 
ATOM     23  H   UNL A   1      36.212  20.655  25.846  1.00  0.00     0.163 HD
ATOM     24  O   UNL A   1      38.545  20.462  25.399  1.00  0.00    -0.269 OA
BRANCH  22  25
ATOM     25  C   UNL A   1      38.867  22.648  26.201  1.00  0.00     0.039 A 
ATOM     26  C   UNL A   1      39.915  22.445  27.108  1.00  0.00     0.014 A 
ATOM     27  C   UNL A   1      38.592  23.939  25.744  1.00  0.00     0.014 A 
ATOM     28  C   UNL A   1      40.695  23.524  27.534  1.00  0.00     0.010 A 
ATOM     29  C   UNL A   1      39.416  25.003  26.113  1.00  0.00     0.010 A 
ATOM     30  C   UNL A   1      40.461  24.811  27.029  1.00  0.00    -0.014 A 
BRANCH  30  31
ATOM     31  C   UNL A   1      41.262  25.978  27.488  1.00  0.00     0.031 A 
ATOM     32  C   UNL A   1      40.618  27.035  28.348  1.00  0.00     0.074 A 
ATOM     33  C   UNL A   1      42.542  26.111  27.091  1.00  0.00     0.049 A 
ATOM     34  N   UNL A   1      41.113  28.166  28.782  1.00  0.00    -0.248 NA
ATOM     35  C   UNL A   1      39.220  26.802  28.742  1.00  0.00     0.031 C 
ATOM     36  C   UNL A   1      43.262  25.168  26.232  1.00  0.00     0.029 A 
ATOM     37  N   UNL A   1      43.463  27.095  27.347  1.00  0.00    -0.354 N 
ATOM     38  C   UNL A   1      40.082  28.788  29.480  1.00  0.00     0.074 A 
ATOM     39  C   UNL A   1      38.920  27.933  29.360  1.00  0.00     0.031 C 
ATOM     40  C   UNL A   1      44.516  25.611  26.050  1.00  0.00     0.029 A 
ATOM     41  C   UNL A   1      44.680  26.886  26.739  1.00  0.00     0.049 A 
ATOM     42  H   UNL A   1      43.272  27.878  27.912  1.00  0.00     0.167 HD
ATOM     43  C   UNL A   1      40.108  29.954  30.174  1.00  0.00     0.034 A 
ATOM     44  C   UNL A   1      45.794  27.644  26.728  1.00  0.00     0.034 A 
ATOM     45  C   UNL A   1      41.284  30.779  30.304  1.00  0.00     0.049 A 
ATOM     46  C   UNL A   1      45.799  28.939  27.502  1.00  0.00     0.074 A 
ATOM     47  C   UNL A   1      41.447  31.943  31.035  1.00  0.00     0.029 A 
ATOM     48  N   UNL A   1      42.503  30.529  29.683  1.00  0.00    -0.354 N 
ATOM     49  N   UNL A   1      44.831  29.488  28.200  1.00  0.00    -0.248 NA
ATOM     50  C   UNL A   1      47.049  29.710  27.497  1.00  0.00     0.031 C 
ATOM     51  C   UNL A   1      42.738  32.431  30.804  1.00  0.00     0.029 A 
ATOM     52  C   UNL A   1      43.409  31.533  29.990  1.00  0.00     0.049 A 
ATOM     53  H   UNL A   1      42.694  29.753  29.110  1.00  0.00     0.167 HD
ATOM     54  C   UNL A   1      45.368  30.652  28.742  1.00  0.00     0.074 A 
ATOM     55  C   UNL A   1      46.748  30.716  28.303  1.00  0.00     0.031 C 
ATOM     56  C   UNL A   1      44.778  31.584  29.535  1.00  0.00     0.034 A 
BRANCH  43  57
ATOM     57  C   UNL A   1      38.820  30.414  30.818  1.00  0.00     0.023 A 
ATOM     58  C   UNL A   1      37.899  31.228  30.135  1.00  0.00     0.031 A 
ATOM     59  C   UNL A   1      38.520  30.055  32.145  1.00  0.00     0.131 A 
ATOM     60  C   UNL A   1      36.768  31.722  30.803  1.00  0.00     0.055 A 
ATOM     61  C   UNL A   1      37.349  30.481  32.776  1.00  0.00     0.041 A 
ATOM     62  F   UNL A   1      39.367  29.296  32.856  1.00  0.00    -0.206 F 
ATOM     63  C   UNL A   1      36.473  31.333  32.112  1.00  0.00     0.022 A 
BRANCH  60  64
ATOM     64  S   UNL A   1      35.768  32.996  29.987  1.00  0.00     0.124 S 
ATOM     65  O   UNL A   1      34.522  32.275  29.734  1.00  0.00    -0.237 OA
ATOM     66  O   UNL A   1      35.705  34.045  30.997  1.00  0.00    -0.237 OA
ATOM     67  O   UNL A   1      36.541  33.325  28.791  1.00  0.00    -0.744 OA
ENDBRANCH  60  64
ENDBRANCH  43  57
BRANCH  44  68
ATOM     68  C   UNL A   1      46.997  27.211  25.961  1.00  0.00     0.023 A 
ATOM     69  C   UNL A   1      47.212  27.649  24.644  1.00  0.00     0.031 A 
ATOM     70  C   UNL A   1      47.931  26.318  26.519  1.00  0.00     0.131 A 
ATOM     71  C   UNL A   1      48.303  27.157  23.911  1.00  0.00     0.055 A 
ATOM     72  C   UNL A   1      49.044  25.873  25.802  1.00  0.00     0.041 A 
ATOM     73  F   UNL A   1      47.778  25.873  27.775  1.00  0.00    -0.206 F 
ATOM     74  C   UNL A   1      49.227  26.282  24.486  1.00  0.00     0.022 A 
BRANCH  71  75
ATOM     75  S   UNL A   1      48.447  27.610  22.161  1.00  0.00     0.124 S 
ATOM     76  O   UNL A   1      48.652  26.311  21.532  1.00  0.00    -0.237 OA
ATOM     77  O   UNL A   1      47.160  28.251  21.908  1.00  0.00    -0.237 OA
ATOM     78  O   UNL A   1      49.602  28.505  22.137  1.00  0.00    -0.744 OA
ENDBRANCH  71  75
ENDBRANCH  44  68
BRANCH  56  79
ATOM     79  C   UNL A   1      45.646  32.723  30.013  1.00  0.00     0.023 A 
ATOM     80  C   UNL A   1      45.762  33.919  29.284  1.00  0.00     0.031 A 
ATOM     81  C   UNL A   1      46.374  32.602  31.210  1.00  0.00     0.131 A 
ATOM     82  C   UNL A   1      46.631  34.926  29.730  1.00  0.00     0.055 A 
ATOM     83  C   UNL A   1      47.190  33.630  31.680  1.00  0.00     0.041 A 
ATOM     84  F   UNL A   1      46.300  31.480  31.944  1.00  0.00    -0.206 F 
ATOM     85  C   UNL A   1      47.334  34.795  30.931  1.00  0.00     0.022 A 
BRANCH  82  86
ATOM     86  S   UNL A   1      46.904  36.372  28.671  1.00  0.00     0.124 S 
ATOM     87  O   UNL A   1      48.272  36.746  29.011  1.00  0.00    -0.237 OA
ATOM     88  O   UNL A   1      46.707  35.821  27.334  1.00  0.00    -0.237 OA
ATOM     89  O   UNL A   1      45.875  37.315  29.107  1.00  0.00    -0.744 OA
ENDBRANCH  82  86
ENDBRANCH  56  79
ENDBRANCH  30  31
ENDBRANCH  22  25
ENDBRANCH  20  21
ENDBRANCH  19  20
ENDBRANCH   1  19
TORSDOF 17
ENDMDL
