MODEL 1
REMARK VINA RESULT:     -11.4      0.000      0.000
REMARK SMILES O=C(COC1(Cc2ccccc2)CCCCC1)NCCCCNC(=O)c1ccc(-c2c3nc(c(-c4cc(S(=O)(=O)[O-])ccc4F)c4ccc([nH]4)c(-c4cc(S(=O)(=O)[O-])ccc4F)c4nc(c(-c5cc(S(=O)(=O)[O-])ccc5F)c5ccc2[nH]5)C=C4)C=C3)cc1
REMARK SMILES IDX 20 1 19 2 18 3 1 4 2 5 3 7 4 8 5 9 13 10 17 11 14 12 16 13
REMARK SMILES IDX 15 14 6 15 7 16 8 17 12 18 9 19 11 20 10 21 21 22 22 23
REMARK SMILES IDX 23 24 24 25 25 27 26 28 27 29 88 30 28 31 87 32 29 33 30 34
REMARK SMILES IDX 31 35 81 36 32 37 86 38 80 39 82 40 33 41 85 42 79 43 78 44
REMARK SMILES IDX 34 46 66 47 46 48 65 49 47 50 50 51 64 52 83 53 48 54 49 55
REMARK SMILES IDX 63 57 84 58 51 59 35 60 36 61 44 62 37 63 43 64 45 65 42 66
REMARK SMILES IDX 38 67 39 68 40 69 41 70 67 71 68 72 76 73 69 74 75 75 77 76
REMARK SMILES IDX 74 77 70 78 71 79 72 80 73 81 52 82 53 83 61 84 54 85 60 86
REMARK SMILES IDX 62 87 59 88 55 89 56 90 57 91 58 92
REMARK H PARENT 18 6 23 26 82 45 50 56
REMARK Flexibility Score: inf
ROOT
ATOM      1  C   UNL A   1      33.769  28.712  23.367  1.00  0.00     0.023 C 
ENDROOT
BRANCH   1   2
ATOM      2  C   UNL A   1      33.653  27.774  22.174  1.00  0.00     0.116 C 
BRANCH   2   3
ATOM      3  N   UNL A   1      33.231  26.441  22.547  1.00  0.00    -0.354 N 
ATOM      4  O   UNL A   1      33.224  25.569  20.415  1.00  0.00    -0.272 OA
ATOM      5  C   UNL A   1      33.134  25.416  21.629  1.00  0.00     0.246 C 
ATOM      6  H   UNL A   1      33.006  26.260  23.488  1.00  0.00     0.163 HD
BRANCH   5   7
ATOM      7  C   UNL A   1      32.904  24.043  22.270  1.00  0.00     0.260 C 
BRANCH   7   8
ATOM      8  O   UNL A   1      32.974  23.954  23.682  1.00  0.00    -0.365 OA
BRANCH   8   9
ATOM      9  C   UNL A   1      34.132  23.373  24.329  1.00  0.00     0.073 C 
ATOM     10  C   UNL A   1      35.128  22.717  23.332  1.00  0.00     0.036 C 
ATOM     11  C   UNL A   1      34.860  24.463  25.151  1.00  0.00     0.036 C 
ATOM     12  C   UNL A   1      36.455  22.287  23.961  1.00  0.00     0.003 C 
ATOM     13  C   UNL A   1      36.163  23.994  25.789  1.00  0.00     0.003 C 
ATOM     14  C   UNL A   1      37.106  23.429  24.734  1.00  0.00     0.000 C 
BRANCH   9  15
ATOM     15  C   UNL A   1      33.563  22.249  25.265  1.00  0.00     0.071 C 
BRANCH  15  16
ATOM     16  C   UNL A   1      33.349  20.880  24.644  1.00  0.00    -0.045 A 
ATOM     17  C   UNL A   1      34.166  19.798  25.002  1.00  0.00     0.004 A 
ATOM     18  C   UNL A   1      32.347  20.676  23.684  1.00  0.00     0.004 A 
ATOM     19  C   UNL A   1      33.975  18.541  24.423  1.00  0.00     0.000 A 
ATOM     20  C   UNL A   1      32.152  19.418  23.111  1.00  0.00     0.000 A 
ATOM     21  C   UNL A   1      32.966  18.350  23.481  1.00  0.00     0.000 A 
ENDBRANCH  15  16
ENDBRANCH   9  15
ENDBRANCH   8   9
ENDBRANCH   7   8
ENDBRANCH   5   7
ENDBRANCH   2   3
ENDBRANCH   1   2
BRANCH   1  22
ATOM     22  C   UNL A   1      32.492  28.847  24.201  1.00  0.00     0.023 C 
BRANCH  22  23
ATOM     23  C   UNL A   1      32.706  29.116  25.688  1.00  0.00     0.116 C 
BRANCH  23  24
ATOM     24  N   UNL A   1      32.358  30.476  26.070  1.00  0.00    -0.352 N 
ATOM     25  C   UNL A   1      32.981  31.321  26.958  1.00  0.00     0.251 C 
ATOM     26  H   UNL A   1      31.561  30.845  25.626  1.00  0.00     0.163 HD
ATOM     27  O   UNL A   1      32.435  32.377  27.271  1.00  0.00    -0.269 OA
BRANCH  25  28
ATOM     28  C   UNL A   1      34.282  30.949  27.559  1.00  0.00     0.039 A 
ATOM     29  C   UNL A   1      35.263  31.933  27.708  1.00  0.00     0.014 A 
ATOM     30  C   UNL A   1      34.539  29.640  27.976  1.00  0.00     0.014 A 
ATOM     31  C   UNL A   1      36.469  31.621  28.342  1.00  0.00     0.010 A 
ATOM     32  C   UNL A   1      35.708  29.351  28.677  1.00  0.00     0.010 A 
ATOM     33  C   UNL A   1      36.687  30.338  28.872  1.00  0.00    -0.014 A 
BRANCH  33  34
ATOM     34  C   UNL A   1      37.922  30.018  29.638  1.00  0.00     0.031 A 
ATOM     35  C   UNL A   1      38.938  29.060  29.075  1.00  0.00     0.074 A 
ATOM     36  C   UNL A   1      38.104  30.545  30.866  1.00  0.00     0.049 A 
ATOM     37  N   UNL A   1      40.038  28.605  29.618  1.00  0.00    -0.248 NA
ATOM     38  C   UNL A   1      38.666  28.523  27.733  1.00  0.00     0.031 C 
ATOM     39  C   UNL A   1      37.178  31.462  31.536  1.00  0.00     0.029 A 
ATOM     40  N   UNL A   1      39.122  30.385  31.774  1.00  0.00    -0.354 N 
ATOM     41  C   UNL A   1      40.583  27.720  28.693  1.00  0.00     0.074 A 
ATOM     42  C   UNL A   1      39.659  27.659  27.580  1.00  0.00     0.031 C 
ATOM     43  C   UNL A   1      37.686  31.806  32.731  1.00  0.00     0.029 A 
ATOM     44  C   UNL A   1      38.943  31.095  32.940  1.00  0.00     0.049 A 
ATOM     45  H   UNL A   1      39.908  29.816  31.607  1.00  0.00     0.167 HD
ATOM     46  C   UNL A   1      41.754  27.037  28.757  1.00  0.00     0.034 A 
ATOM     47  C   UNL A   1      39.695  31.155  34.058  1.00  0.00     0.034 A 
ATOM     48  C   UNL A   1      42.670  27.116  29.870  1.00  0.00     0.049 A 
ATOM     49  C   UNL A   1      40.971  30.351  34.122  1.00  0.00     0.074 A 
ATOM     50  C   UNL A   1      43.907  26.512  30.010  1.00  0.00     0.029 A 
ATOM     51  N   UNL A   1      42.445  27.830  31.040  1.00  0.00    -0.354 N 
ATOM     52  N   UNL A   1      41.497  29.560  33.215  1.00  0.00    -0.248 NA
ATOM     53  C   UNL A   1      41.759  30.457  35.357  1.00  0.00     0.031 C 
ATOM     54  C   UNL A   1      44.391  26.792  31.291  1.00  0.00     0.029 A 
ATOM     55  C   UNL A   1      43.502  27.648  31.921  1.00  0.00     0.049 A 
ATOM     56  H   UNL A   1      41.652  28.386  31.219  1.00  0.00     0.167 HD
ATOM     57  C   UNL A   1      42.696  29.105  33.759  1.00  0.00     0.074 A 
ATOM     58  C   UNL A   1      42.820  29.721  35.063  1.00  0.00     0.031 C 
ATOM     59  C   UNL A   1      43.614  28.259  33.225  1.00  0.00     0.034 A 
BRANCH  46  60
ATOM     60  C   UNL A   1      42.093  26.122  27.604  1.00  0.00     0.023 A 
ATOM     61  C   UNL A   1      41.622  24.798  27.542  1.00  0.00     0.031 A 
ATOM     62  C   UNL A   1      42.911  26.576  26.553  1.00  0.00     0.131 A 
ATOM     63  C   UNL A   1      42.031  23.956  26.497  1.00  0.00     0.055 A 
ATOM     64  C   UNL A   1      43.243  25.759  25.470  1.00  0.00     0.041 A 
ATOM     65  F   UNL A   1      43.411  27.821  26.564  1.00  0.00    -0.206 F 
ATOM     66  C   UNL A   1      42.815  24.435  25.446  1.00  0.00     0.022 A 
BRANCH  63  67
ATOM     67  S   UNL A   1      41.646  22.187  26.608  1.00  0.00     0.124 S 
ATOM     68  O   UNL A   1      40.214  22.178  26.320  1.00  0.00    -0.237 OA
ATOM     69  O   UNL A   1      42.508  21.611  25.583  1.00  0.00    -0.237 OA
ATOM     70  O   UNL A   1      41.998  21.846  27.985  1.00  0.00    -0.744 OA
ENDBRANCH  63  67
ENDBRANCH  46  60
BRANCH  47  71
ATOM     71  C   UNL A   1      39.267  31.991  35.218  1.00  0.00     0.023 A 
ATOM     72  C   UNL A   1      38.648  31.411  36.337  1.00  0.00     0.031 A 
ATOM     73  C   UNL A   1      39.417  33.389  35.202  1.00  0.00     0.131 A 
ATOM     74  C   UNL A   1      38.152  32.227  37.366  1.00  0.00     0.055 A 
ATOM     75  C   UNL A   1      38.979  34.192  36.257  1.00  0.00     0.041 A 
ATOM     76  F   UNL A   1      40.002  33.998  34.158  1.00  0.00    -0.206 F 
ATOM     77  C   UNL A   1      38.327  33.612  37.341  1.00  0.00     0.022 A 
BRANCH  74  78
ATOM     78  S   UNL A   1      37.177  31.459  38.690  1.00  0.00     0.124 S 
ATOM     79  O   UNL A   1      37.012  30.101  38.185  1.00  0.00    -0.237 OA
ATOM     80  O   UNL A   1      38.057  31.614  39.842  1.00  0.00    -0.237 OA
ATOM     81  O   UNL A   1      35.959  32.265  38.725  1.00  0.00    -0.744 OA
ENDBRANCH  74  78
ENDBRANCH  47  71
BRANCH  59  82
ATOM     82  C   UNL A   1      44.862  27.995  34.033  1.00  0.00     0.023 A 
ATOM     83  C   UNL A   1      46.010  28.798  33.915  1.00  0.00     0.031 A 
ATOM     84  C   UNL A   1      44.906  26.911  34.930  1.00  0.00     0.131 A 
ATOM     85  C   UNL A   1      47.170  28.471  34.635  1.00  0.00     0.055 A 
ATOM     86  C   UNL A   1      46.039  26.632  35.694  1.00  0.00     0.041 A 
ATOM     87  F   UNL A   1      43.843  26.106  35.081  1.00  0.00    -0.206 F 
ATOM     88  C   UNL A   1      47.186  27.405  35.538  1.00  0.00     0.022 A 
BRANCH  85  89
ATOM     89  S   UNL A   1      48.694  29.395  34.298  1.00  0.00     0.124 S 
ATOM     90  O   UNL A   1      48.252  30.352  33.288  1.00  0.00    -0.237 OA
ATOM     91  O   UNL A   1      49.016  29.955  35.607  1.00  0.00    -0.237 OA
ATOM     92  O   UNL A   1      49.619  28.370  33.818  1.00  0.00    -0.744 OA
ENDBRANCH  85  89
ENDBRANCH  59  82
ENDBRANCH  33  34
ENDBRANCH  25  28
ENDBRANCH  23  24
ENDBRANCH  22  23
ENDBRANCH   1  22
TORSDOF 18
ENDMDL
MODEL 2
REMARK VINA RESULT:     -11.4      1.756      2.485
REMARK SMILES O=C(COC1(Cc2ccccc2)CCCCC1)NCCCCNC(=O)c1ccc(-c2c3nc(c(-c4cc(S(=O)(=O)[O-])ccc4F)c4ccc([nH]4)c(-c4cc(S(=O)(=O)[O-])ccc4F)c4nc(c(-c5cc(S(=O)(=O)[O-])ccc5F)c5ccc2[nH]5)C=C4)C=C3)cc1
REMARK SMILES IDX 20 1 19 2 18 3 1 4 2 5 3 7 4 8 5 9 13 10 17 11 14 12 16 13
REMARK SMILES IDX 15 14 6 15 7 16 8 17 12 18 9 19 11 20 10 21 21 22 22 23
REMARK SMILES IDX 23 24 24 25 25 27 26 28 27 29 88 30 28 31 87 32 29 33 30 34
REMARK SMILES IDX 31 35 81 36 32 37 86 38 80 39 82 40 33 41 85 42 79 43 78 44
REMARK SMILES IDX 34 46 66 47 46 48 65 49 47 50 50 51 64 52 83 53 48 54 49 55
REMARK SMILES IDX 63 57 84 58 51 59 35 60 36 61 44 62 37 63 43 64 45 65 42 66
REMARK SMILES IDX 38 67 39 68 40 69 41 70 67 71 68 72 76 73 69 74 75 75 77 76
REMARK SMILES IDX 74 77 70 78 71 79 72 80 73 81 52 82 53 83 61 84 54 85 60 86
REMARK SMILES IDX 62 87 59 88 55 89 56 90 57 91 58 92
REMARK H PARENT 18 6 23 26 82 45 50 56
REMARK Flexibility Score: inf
ROOT
ATOM      1  C   UNL A   1      30.682  29.326  23.898  1.00  0.00     0.023 C 
ENDROOT
BRANCH   1   2
ATOM      2  C   UNL A   1      30.563  28.252  22.825  1.00  0.00     0.116 C 
BRANCH   2   3
ATOM      3  N   UNL A   1      31.465  27.141  23.041  1.00  0.00    -0.354 N 
ATOM      4  O   UNL A   1      31.400  26.336  20.885  1.00  0.00    -0.272 OA
ATOM      5  C   UNL A   1      31.876  26.317  22.015  1.00  0.00     0.246 C 
ATOM      6  H   UNL A   1      31.795  26.968  23.953  1.00  0.00     0.163 HD
BRANCH   5   7
ATOM      7  C   UNL A   1      33.006  25.362  22.415  1.00  0.00     0.260 C 
BRANCH   7   8
ATOM      8  O   UNL A   1      32.672  24.005  22.647  1.00  0.00    -0.365 OA
BRANCH   8   9
ATOM      9  C   UNL A   1      32.513  23.503  23.996  1.00  0.00     0.073 C 
ATOM     10  C   UNL A   1      33.270  24.349  25.059  1.00  0.00     0.036 C 
ATOM     11  C   UNL A   1      31.008  23.450  24.349  1.00  0.00     0.036 C 
ATOM     12  C   UNL A   1      32.950  23.971  26.506  1.00  0.00     0.003 C 
ATOM     13  C   UNL A   1      30.722  23.042  25.791  1.00  0.00     0.003 C 
ATOM     14  C   UNL A   1      31.447  23.963  26.765  1.00  0.00     0.000 C 
BRANCH   9  15
ATOM     15  C   UNL A   1      33.139  22.064  23.979  1.00  0.00     0.071 C 
BRANCH  15  16
ATOM     16  C   UNL A   1      34.635  21.962  24.210  1.00  0.00    -0.045 A 
ATOM     17  C   UNL A   1      35.531  22.712  23.434  1.00  0.00     0.004 A 
ATOM     18  C   UNL A   1      35.153  21.099  25.187  1.00  0.00     0.004 A 
ATOM     19  C   UNL A   1      36.909  22.611  23.641  1.00  0.00     0.000 A 
ATOM     20  C   UNL A   1      36.530  21.004  25.399  1.00  0.00     0.000 A 
ATOM     21  C   UNL A   1      37.407  21.760  24.626  1.00  0.00     0.000 A 
ENDBRANCH  15  16
ENDBRANCH   9  15
ENDBRANCH   8   9
ENDBRANCH   7   8
ENDBRANCH   5   7
ENDBRANCH   2   3
ENDBRANCH   1   2
BRANCH   1  22
ATOM     22  C   UNL A   1      31.409  28.882  25.169  1.00  0.00     0.023 C 
BRANCH  22  23
ATOM     23  C   UNL A   1      32.611  29.733  25.568  1.00  0.00     0.116 C 
BRANCH  23  24
ATOM     24  N   UNL A   1      32.232  31.049  26.058  1.00  0.00    -0.352 N 
ATOM     25  C   UNL A   1      32.803  31.810  27.050  1.00  0.00     0.251 C 
ATOM     26  H   UNL A   1      31.452  31.453  25.613  1.00  0.00     0.163 HD
ATOM     27  O   UNL A   1      32.231  32.829  27.435  1.00  0.00    -0.269 OA
BRANCH  25  28
ATOM     28  C   UNL A   1      34.078  31.391  27.675  1.00  0.00     0.039 A 
ATOM     29  C   UNL A   1      35.040  32.364  27.964  1.00  0.00     0.014 A 
ATOM     30  C   UNL A   1      34.330  30.051  27.978  1.00  0.00     0.014 A 
ATOM     31  C   UNL A   1      36.218  32.001  28.624  1.00  0.00     0.010 A 
ATOM     32  C   UNL A   1      35.468  29.704  28.705  1.00  0.00     0.010 A 
ATOM     33  C   UNL A   1      36.425  30.675  29.040  1.00  0.00    -0.014 A 
BRANCH  33  34
ATOM     34  C   UNL A   1      37.626  30.291  29.831  1.00  0.00     0.031 A 
ATOM     35  C   UNL A   1      38.655  29.360  29.246  1.00  0.00     0.074 A 
ATOM     36  C   UNL A   1      37.764  30.736  31.096  1.00  0.00     0.049 A 
ATOM     37  N   UNL A   1      39.729  28.859  29.801  1.00  0.00    -0.248 NA
ATOM     38  C   UNL A   1      38.432  28.915  27.862  1.00  0.00     0.031 C 
ATOM     39  C   UNL A   1      36.820  31.617  31.788  1.00  0.00     0.029 A 
ATOM     40  N   UNL A   1      38.743  30.506  32.031  1.00  0.00    -0.354 N 
ATOM     41  C   UNL A   1      40.302  28.029  28.842  1.00  0.00     0.074 A 
ATOM     42  C   UNL A   1      39.422  28.052  27.692  1.00  0.00     0.031 C 
ATOM     43  C   UNL A   1      37.283  31.877  33.022  1.00  0.00     0.029 A 
ATOM     44  C   UNL A   1      38.524  31.140  33.233  1.00  0.00     0.049 A 
ATOM     45  H   UNL A   1      39.530  29.939  31.857  1.00  0.00     0.167 HD
ATOM     46  C   UNL A   1      41.463  27.331  28.907  1.00  0.00     0.034 A 
ATOM     47  C   UNL A   1      39.233  31.119  34.381  1.00  0.00     0.034 A 
ATOM     48  C   UNL A   1      42.335  27.327  30.057  1.00  0.00     0.049 A 
ATOM     49  C   UNL A   1      40.498  30.298  34.442  1.00  0.00     0.074 A 
ATOM     50  C   UNL A   1      43.561  26.701  30.205  1.00  0.00     0.029 A 
ATOM     51  N   UNL A   1      42.070  27.965  31.262  1.00  0.00    -0.354 N 
ATOM     52  N   UNL A   1      41.052  29.562  33.506  1.00  0.00    -0.248 NA
ATOM     53  C   UNL A   1      41.237  30.315  35.711  1.00  0.00     0.031 C 
ATOM     54  C   UNL A   1      43.996  26.892  31.520  1.00  0.00     0.029 A 
ATOM     55  C   UNL A   1      43.090  27.715  32.169  1.00  0.00     0.049 A 
ATOM     56  H   UNL A   1      41.276  28.518  31.445  1.00  0.00     0.167 HD
ATOM     57  C   UNL A   1      42.225  29.059  34.065  1.00  0.00     0.074 A 
ATOM     58  C   UNL A   1      42.303  29.587  35.411  1.00  0.00     0.031 C 
ATOM     59  C   UNL A   1      43.156  28.239  33.514  1.00  0.00     0.034 A 
BRANCH  46  60
ATOM     60  C   UNL A   1      41.840  26.488  27.710  1.00  0.00     0.023 A 
ATOM     61  C   UNL A   1      41.493  25.129  27.619  1.00  0.00     0.031 A 
ATOM     62  C   UNL A   1      42.568  27.051  26.645  1.00  0.00     0.131 A 
ATOM     63  C   UNL A   1      41.936  24.362  26.531  1.00  0.00     0.055 A 
ATOM     64  C   UNL A   1      42.931  26.304  25.523  1.00  0.00     0.041 A 
ATOM     65  F   UNL A   1      42.948  28.338  26.682  1.00  0.00    -0.206 F 
ATOM     66  C   UNL A   1      42.628  24.947  25.468  1.00  0.00     0.022 A 
BRANCH  63  67
ATOM     67  S   UNL A   1      41.724  22.562  26.595  1.00  0.00     0.124 S 
ATOM     68  O   UNL A   1      42.438  22.225  27.824  1.00  0.00    -0.237 OA
ATOM     69  O   UNL A   1      40.273  22.417  26.637  1.00  0.00    -0.237 OA
ATOM     70  O   UNL A   1      42.363  22.098  25.365  1.00  0.00    -0.744 OA
ENDBRANCH  63  67
ENDBRANCH  46  60
BRANCH  47  71
ATOM     71  C   UNL A   1      38.766  31.882  35.576  1.00  0.00     0.023 A 
ATOM     72  C   UNL A   1      38.202  31.223  36.679  1.00  0.00     0.031 A 
ATOM     73  C   UNL A   1      38.822  33.287  35.609  1.00  0.00     0.131 A 
ATOM     74  C   UNL A   1      37.668  31.967  37.743  1.00  0.00     0.055 A 
ATOM     75  C   UNL A   1      38.348  34.021  36.697  1.00  0.00     0.041 A 
ATOM     76  F   UNL A   1      39.351  33.970  34.581  1.00  0.00    -0.206 F 
ATOM     77  C   UNL A   1      37.751  33.361  37.767  1.00  0.00     0.022 A 
BRANCH  74  78
ATOM     78  S   UNL A   1      36.764  31.089  39.049  1.00  0.00     0.124 S 
ATOM     79  O   UNL A   1      37.685  31.205  40.174  1.00  0.00    -0.237 OA
ATOM     80  O   UNL A   1      35.535  31.868  39.143  1.00  0.00    -0.237 OA
ATOM     81  O   UNL A   1      36.608  29.742  38.506  1.00  0.00    -0.744 OA
ENDBRANCH  74  78
ENDBRANCH  47  71
BRANCH  59  82
ATOM     82  C   UNL A   1      44.368  27.908  34.351  1.00  0.00     0.023 A 
ATOM     83  C   UNL A   1      44.373  26.839  35.264  1.00  0.00     0.031 A 
ATOM     84  C   UNL A   1      45.537  28.685  34.239  1.00  0.00     0.131 A 
ATOM     85  C   UNL A   1      45.500  26.613  36.071  1.00  0.00     0.055 A 
ATOM     86  C   UNL A   1      46.677  28.413  34.995  1.00  0.00     0.041 A 
ATOM     87  F   UNL A   1      45.589  29.722  33.389  1.00  0.00    -0.206 F 
ATOM     88  C   UNL A   1      46.659  27.380  35.929  1.00  0.00     0.022 A 
BRANCH  85  89
ATOM     89  S   UNL A   1      45.395  25.367  37.385  1.00  0.00     0.124 S 
ATOM     90  O   UNL A   1      46.768  25.333  37.881  1.00  0.00    -0.237 OA
ATOM     91  O   UNL A   1      44.405  25.946  38.287  1.00  0.00    -0.237 OA
ATOM     92  O   UNL A   1      44.961  24.161  36.681  1.00  0.00    -0.744 OA
ENDBRANCH  85  89
ENDBRANCH  59  82
ENDBRANCH  33  34
ENDBRANCH  25  28
ENDBRANCH  23  24
ENDBRANCH  22  23
ENDBRANCH   1  22
TORSDOF 18
ENDMDL
MODEL 3
REMARK VINA RESULT:     -11.2      4.602      7.527
REMARK SMILES O=C(COC1(Cc2ccccc2)CCCCC1)NCCCCNC(=O)c1ccc(-c2c3nc(c(-c4cc(S(=O)(=O)[O-])ccc4F)c4ccc([nH]4)c(-c4cc(S(=O)(=O)[O-])ccc4F)c4nc(c(-c5cc(S(=O)(=O)[O-])ccc5F)c5ccc2[nH]5)C=C4)C=C3)cc1
REMARK SMILES IDX 20 1 19 2 18 3 1 4 2 5 3 7 4 8 5 9 13 10 17 11 14 12 16 13
REMARK SMILES IDX 15 14 6 15 7 16 8 17 12 18 9 19 11 20 10 21 21 22 22 23
REMARK SMILES IDX 23 24 24 25 25 27 26 28 27 29 88 30 28 31 87 32 29 33 30 34
REMARK SMILES IDX 31 35 81 36 32 37 86 38 80 39 82 40 33 41 85 42 79 43 78 44
REMARK SMILES IDX 34 46 66 47 46 48 65 49 47 50 50 51 64 52 83 53 48 54 49 55
REMARK SMILES IDX 63 57 84 58 51 59 35 60 36 61 44 62 37 63 43 64 45 65 42 66
REMARK SMILES IDX 38 67 39 68 40 69 41 70 67 71 68 72 76 73 69 74 75 75 77 76
REMARK SMILES IDX 74 77 70 78 71 79 72 80 73 81 52 82 53 83 61 84 54 85 60 86
REMARK SMILES IDX 62 87 59 88 55 89 56 90 57 91 58 92
REMARK H PARENT 18 6 23 26 82 45 50 56
REMARK Flexibility Score: inf
ROOT
ATOM      1  C   UNL A   1      34.374  22.067  26.109  1.00  0.00     0.023 C 
ENDROOT
BRANCH   1   2
ATOM      2  C   UNL A   1      32.921  21.629  25.983  1.00  0.00     0.116 C 
BRANCH   2   3
ATOM      3  N   UNL A   1      32.073  22.657  25.418  1.00  0.00    -0.354 N 
ATOM      4  O   UNL A   1      31.202  23.397  27.417  1.00  0.00    -0.272 OA
ATOM      5  C   UNL A   1      31.340  23.520  26.204  1.00  0.00     0.246 C 
ATOM      6  H   UNL A   1      32.018  22.741  24.438  1.00  0.00     0.163 HD
BRANCH   5   7
ATOM      7  C   UNL A   1      30.705  24.672  25.417  1.00  0.00     0.260 C 
BRANCH   7   8
ATOM      8  O   UNL A   1      31.553  25.458  24.598  1.00  0.00    -0.365 OA
BRANCH   8   9
ATOM      9  C   UNL A   1      31.988  26.770  25.029  1.00  0.00     0.073 C 
ATOM     10  C   UNL A   1      31.123  27.356  26.180  1.00  0.00     0.036 C 
ATOM     11  C   UNL A   1      33.468  26.699  25.472  1.00  0.00     0.036 C 
ATOM     12  C   UNL A   1      31.684  28.639  26.796  1.00  0.00     0.003 C 
ATOM     13  C   UNL A   1      34.005  28.002  26.055  1.00  0.00     0.003 C 
ATOM     14  C   UNL A   1      33.139  28.468  27.219  1.00  0.00     0.000 C 
BRANCH   9  15
ATOM     15  C   UNL A   1      31.821  27.694  23.771  1.00  0.00     0.071 C 
BRANCH  15  16
ATOM     16  C   UNL A   1      30.453  28.313  23.549  1.00  0.00    -0.045 A 
ATOM     17  C   UNL A   1      29.329  27.502  23.334  1.00  0.00     0.004 A 
ATOM     18  C   UNL A   1      30.289  29.705  23.530  1.00  0.00     0.004 A 
ATOM     19  C   UNL A   1      28.071  28.072  23.121  1.00  0.00     0.000 A 
ATOM     20  C   UNL A   1      29.031  30.275  23.324  1.00  0.00     0.000 A 
ATOM     21  C   UNL A   1      27.922  29.458  23.120  1.00  0.00     0.000 A 
ENDBRANCH  15  16
ENDBRANCH   9  15
ENDBRANCH   8   9
ENDBRANCH   7   8
ENDBRANCH   5   7
ENDBRANCH   2   3
ENDBRANCH   1   2
BRANCH   1  22
ATOM     22  C   UNL A   1      35.367  21.225  25.303  1.00  0.00     0.023 C 
BRANCH  22  23
ATOM     23  C   UNL A   1      36.797  21.758  25.263  1.00  0.00     0.116 C 
BRANCH  23  24
ATOM     24  N   UNL A   1      37.789  20.730  25.536  1.00  0.00    -0.352 N 
ATOM     25  C   UNL A   1      39.076  20.858  26.002  1.00  0.00     0.251 C 
ATOM     26  H   UNL A   1      37.494  19.807  25.362  1.00  0.00     0.163 HD
ATOM     27  O   UNL A   1      39.817  19.878  26.007  1.00  0.00    -0.269 OA
BRANCH  25  28
ATOM     28  C   UNL A   1      39.578  22.173  26.462  1.00  0.00     0.039 A 
ATOM     29  C   UNL A   1      40.639  22.211  27.371  1.00  0.00     0.014 A 
ATOM     30  C   UNL A   1      39.011  23.365  26.003  1.00  0.00     0.014 A 
ATOM     31  C   UNL A   1      41.178  23.441  27.758  1.00  0.00     0.010 A 
ATOM     32  C   UNL A   1      39.600  24.586  26.329  1.00  0.00     0.010 A 
ATOM     33  C   UNL A   1      40.693  24.639  27.208  1.00  0.00    -0.014 A 
BRANCH  33  34
ATOM     34  C   UNL A   1      41.321  25.949  27.533  1.00  0.00     0.031 A 
ATOM     35  C   UNL A   1      42.741  26.234  27.119  1.00  0.00     0.074 A 
ATOM     36  C   UNL A   1      40.634  26.861  28.250  1.00  0.00     0.049 A 
ATOM     37  N   UNL A   1      43.482  27.284  27.368  1.00  0.00    -0.248 NA
ATOM     38  C   UNL A   1      43.425  25.187  26.345  1.00  0.00     0.031 C 
ATOM     39  C   UNL A   1      39.263  26.693  28.737  1.00  0.00     0.029 A 
ATOM     40  N   UNL A   1      40.991  28.108  28.700  1.00  0.00    -0.354 N 
ATOM     41  C   UNL A   1      44.721  27.020  26.794  1.00  0.00     0.074 A 
ATOM     42  C   UNL A   1      44.648  25.686  26.237  1.00  0.00     0.031 C 
ATOM     43  C   UNL A   1      38.886  27.805  29.389  1.00  0.00     0.029 A 
ATOM     44  C   UNL A   1      40.003  28.745  29.417  1.00  0.00     0.049 A 
ATOM     45  H   UNL A   1      41.873  28.511  28.527  1.00  0.00     0.167 HD
ATOM     46  C   UNL A   1      45.812  27.824  26.722  1.00  0.00     0.034 A 
ATOM     47  C   UNL A   1      39.999  29.941  30.041  1.00  0.00     0.034 A 
ATOM     48  C   UNL A   1      45.867  29.156  27.274  1.00  0.00     0.049 A 
ATOM     49  C   UNL A   1      41.240  30.797  29.983  1.00  0.00     0.074 A 
ATOM     50  C   UNL A   1      46.900  30.074  27.205  1.00  0.00     0.029 A 
ATOM     51  N   UNL A   1      44.853  29.758  28.009  1.00  0.00    -0.354 N 
ATOM     52  N   UNL A   1      42.386  30.553  29.390  1.00  0.00    -0.248 NA
ATOM     53  C   UNL A   1      41.183  32.094  30.670  1.00  0.00     0.031 C 
ATOM     54  C   UNL A   1      46.546  31.193  27.965  1.00  0.00     0.029 A 
ATOM     55  C   UNL A   1      45.254  31.017  28.432  1.00  0.00     0.049 A 
ATOM     56  H   UNL A   1      43.977  29.352  28.200  1.00  0.00     0.167 HD
ATOM     57  C   UNL A   1      43.171  31.684  29.603  1.00  0.00     0.074 A 
ATOM     58  C   UNL A   1      42.363  32.612  30.365  1.00  0.00     0.031 C 
ATOM     59  C   UNL A   1      44.443  31.935  29.200  1.00  0.00     0.034 A 
BRANCH  46  60
ATOM     60  C   UNL A   1      47.045  27.269  26.047  1.00  0.00     0.023 A 
ATOM     61  C   UNL A   1      48.008  26.527  26.753  1.00  0.00     0.031 A 
ATOM     62  C   UNL A   1      47.268  27.495  24.676  1.00  0.00     0.131 A 
ATOM     63  C   UNL A   1      49.180  26.103  26.108  1.00  0.00     0.055 A 
ATOM     64  C   UNL A   1      48.395  26.995  24.019  1.00  0.00     0.041 A 
ATOM     65  F   UNL A   1      46.397  28.214  23.951  1.00  0.00    -0.206 F 
ATOM     66  C   UNL A   1      49.367  26.308  24.739  1.00  0.00     0.022 A 
BRANCH  63  67
ATOM     67  S   UNL A   1      50.523  25.413  27.113  1.00  0.00     0.124 S 
ATOM     68  O   UNL A   1      51.038  26.608  27.777  1.00  0.00    -0.237 OA
ATOM     69  O   UNL A   1      49.820  24.460  27.965  1.00  0.00    -0.237 OA
ATOM     70  O   UNL A   1      51.422  24.822  26.125  1.00  0.00    -0.744 OA
ENDBRANCH  63  67
ENDBRANCH  46  60
BRANCH  47  71
ATOM     71  C   UNL A   1      38.793  30.405  30.787  1.00  0.00     0.023 A 
ATOM     72  C   UNL A   1      37.733  31.042  30.123  1.00  0.00     0.031 A 
ATOM     73  C   UNL A   1      38.707  30.272  32.185  1.00  0.00     0.131 A 
ATOM     74  C   UNL A   1      36.660  31.571  30.859  1.00  0.00     0.055 A 
ATOM     75  C   UNL A   1      37.607  30.743  32.906  1.00  0.00     0.041 A 
ATOM     76  F   UNL A   1      39.691  29.672  32.873  1.00  0.00    -0.206 F 
ATOM     77  C   UNL A   1      36.583  31.412  32.244  1.00  0.00     0.022 A 
BRANCH  74  78
ATOM     78  S   UNL A   1      35.417  32.565  29.988  1.00  0.00     0.124 S 
ATOM     79  O   UNL A   1      35.075  31.696  28.868  1.00  0.00    -0.237 OA
ATOM     80  O   UNL A   1      34.390  32.730  31.011  1.00  0.00    -0.237 OA
ATOM     81  O   UNL A   1      36.143  33.782  29.634  1.00  0.00    -0.744 OA
ENDBRANCH  74  78
ENDBRANCH  47  71
BRANCH  59  82
ATOM     82  C   UNL A   1      45.019  33.291  29.531  1.00  0.00     0.023 A 
ATOM     83  C   UNL A   1      44.858  34.397  28.677  1.00  0.00     0.031 A 
ATOM     84  C   UNL A   1      45.751  33.477  30.718  1.00  0.00     0.131 A 
ATOM     85  C   UNL A   1      45.470  35.619  28.993  1.00  0.00     0.055 A 
ATOM     86  C   UNL A   1      46.300  34.713  31.060  1.00  0.00     0.041 A 
ATOM     87  F   UNL A   1      45.943  32.457  31.569  1.00  0.00    -0.206 F 
ATOM     88  C   UNL A   1      46.173  35.791  30.188  1.00  0.00     0.022 A 
BRANCH  85  89
ATOM     89  S   UNL A   1      45.423  36.959  27.770  1.00  0.00     0.124 S 
ATOM     90  O   UNL A   1      44.169  37.629  28.101  1.00  0.00    -0.237 OA
ATOM     91  O   UNL A   1      46.642  37.702  28.074  1.00  0.00    -0.237 OA
ATOM     92  O   UNL A   1      45.430  36.255  26.489  1.00  0.00    -0.744 OA
ENDBRANCH  85  89
ENDBRANCH  59  82
ENDBRANCH  33  34
ENDBRANCH  25  28
ENDBRANCH  23  24
ENDBRANCH  22  23
ENDBRANCH   1  22
TORSDOF 18
ENDMDL
