MODEL 1
REMARK VINA RESULT:     -12.6      0.000      0.000
REMARK SMILES Cc1ncc(CO)c([C@H]2[NH2+][C@@H](C(=O)NCCCCNC(=O)c3ccc(-c4c5nc(c(-c6cc(S(=O)(=O)[O-])ccc6F)c6ccc([nH]6)c(-c6cc(S(=O)(=O)[O-])ccc6F)c6nc(c(-c7cc(S(=O)(=O)[O-])ccc7F)c7ccc4[nH]7)C=C6)C=C5)cc3)Cc3[nH]cnc32)c1O
REMARK SMILES IDX 16 1 15 2 14 3 12 4 13 5 11 7 9 8 10 9 90 10 86 13 89 14
REMARK SMILES IDX 85 15 87 16 88 17 8 19 1 20 2 21 3 22 91 23 4 24 5 25 92 26
REMARK SMILES IDX 6 28 7 29 17 31 18 32 19 33 20 34 21 36 22 37 23 38 84 39
REMARK SMILES IDX 24 40 83 41 25 42 26 43 27 44 77 45 28 46 82 47 76 48 78 49
REMARK SMILES IDX 29 50 81 51 75 52 74 53 30 55 62 56 42 57 61 58 43 59 46 60
REMARK SMILES IDX 60 61 79 62 44 63 45 64 59 66 80 67 47 68 31 69 32 70 40 71
REMARK SMILES IDX 33 72 39 73 41 74 38 75 34 76 35 77 36 78 37 79 63 80 64 81
REMARK SMILES IDX 72 82 65 83 71 84 73 85 70 86 66 87 67 88 68 89 69 90 48 91
REMARK SMILES IDX 49 92 57 93 50 94 56 95 58 96 55 97 51 98 52 99 53 100
REMARK SMILES IDX 54 101
REMARK H PARENT 14 6 10 11 10 12 87 18 92 27 7 30 19 35 78 54 46 65
REMARK Flexibility Score: inf
ROOT
ATOM      1  C   UNL A   1      32.930  29.690  25.641  1.00  0.00     0.023 C 
ENDROOT
BRANCH   1   2
ATOM      2  C   UNL A   1      33.857  28.484  25.455  1.00  0.00     0.116 C 
BRANCH   2   3
ATOM      3  N   UNL A   1      33.828  27.943  24.103  1.00  0.00    -0.351 N 
ATOM      4  C   UNL A   1      33.311  26.764  23.628  1.00  0.00     0.278 C 
ATOM      5  O   UNL A   1      33.366  26.548  22.417  1.00  0.00    -0.268 OA
ATOM      6  H   UNL A   1      34.246  28.516  23.421  1.00  0.00     0.163 HD
BRANCH   4   7
ATOM      7  C   UNL A   1      32.777  25.738  24.631  1.00  0.00     0.279 C 
ATOM      8  C   UNL A   1      33.161  23.542  25.493  1.00  0.00     0.270 C 
ATOM      9  N   UNL A   1      33.259  24.375  24.271  1.00  0.00    -0.324 N 
ATOM     10  C   UNL A   1      31.711  23.445  25.873  1.00  0.00     0.124 A 
ATOM     11  H   UNL A   1      32.679  23.981  23.532  1.00  0.00     0.347 HD
ATOM     12  H   UNL A   1      34.222  24.409  23.932  1.00  0.00     0.347 HD
ATOM     13  C   UNL A   1      30.866  24.520  25.603  1.00  0.00     0.051 A 
ATOM     14  N   UNL A   1      31.126  22.623  26.805  1.00  0.00    -0.235 NA
ATOM     15  C   UNL A   1      31.237  25.737  24.796  1.00  0.00     0.131 C 
ATOM     16  N   UNL A   1      29.733  24.309  26.325  1.00  0.00    -0.348 N 
ATOM     17  C   UNL A   1      29.938  23.152  27.034  1.00  0.00     0.197 A 
ATOM     18  H   UNL A   1      28.927  24.874  26.336  1.00  0.00     0.167 HD
BRANCH   8  19
ATOM     19  C   UNL A   1      34.117  22.380  25.409  1.00  0.00     0.066 A 
ATOM     20  C   UNL A   1      37.957  22.296  25.710  1.00  0.00     0.071 C 
ATOM     21  C   UNL A   1      36.532  21.860  25.517  1.00  0.00     0.079 A 
ATOM     22  N   UNL A   1      36.325  20.599  25.099  1.00  0.00    -0.257 NA
ATOM     23  C   UNL A   1      35.470  22.737  25.716  1.00  0.00     0.146 A 
ATOM     24  C   UNL A   1      35.044  20.253  24.816  1.00  0.00     0.118 A 
ATOM     25  C   UNL A   1      33.913  21.086  24.914  1.00  0.00     0.009 A 
BRANCH  23  26
ATOM     26  O   UNL A   1      35.790  24.016  26.123  1.00  0.00    -0.505 OA
ATOM     27  H   UNL A   1      36.087  24.647  25.497  1.00  0.00     0.293 HD
ENDBRANCH  23  26
BRANCH  25  28
ATOM     28  C   UNL A   1      32.610  20.504  24.449  1.00  0.00     0.194 C 
BRANCH  28  29
ATOM     29  O   UNL A   1      31.899  19.980  25.571  1.00  0.00    -0.392 OA
ATOM     30  H   UNL A   1      32.483  19.969  26.346  1.00  0.00     0.211 HD
ENDBRANCH  28  29
ENDBRANCH  25  28
ENDBRANCH   8  19
ENDBRANCH   4   7
ENDBRANCH   2   3
ENDBRANCH   1   2
BRANCH   1  31
ATOM     31  C   UNL A   1      33.032  30.405  26.996  1.00  0.00     0.023 C 
BRANCH  31  32
ATOM     32  C   UNL A   1      34.454  30.619  27.503  1.00  0.00     0.116 C 
BRANCH  32  33
ATOM     33  N   UNL A   1      34.545  31.634  28.550  1.00  0.00    -0.352 N 
ATOM     34  C   UNL A   1      35.426  31.655  29.624  1.00  0.00     0.251 C 
ATOM     35  H   UNL A   1      33.911  32.385  28.488  1.00  0.00     0.163 HD
ATOM     36  O   UNL A   1      35.156  32.273  30.638  1.00  0.00    -0.269 OA
BRANCH  34  37
ATOM     37  C   UNL A   1      36.702  30.925  29.490  1.00  0.00     0.039 A 
ATOM     38  C   UNL A   1      37.909  31.579  29.230  1.00  0.00     0.014 A 
ATOM     39  C   UNL A   1      36.667  29.545  29.675  1.00  0.00     0.014 A 
ATOM     40  C   UNL A   1      39.091  30.836  29.245  1.00  0.00     0.010 A 
ATOM     41  C   UNL A   1      37.835  28.846  29.837  1.00  0.00     0.010 A 
ATOM     42  C   UNL A   1      39.047  29.470  29.572  1.00  0.00    -0.014 A 
BRANCH  42  43
ATOM     43  C   UNL A   1      40.268  28.696  29.798  1.00  0.00     0.031 A 
ATOM     44  C   UNL A   1      40.593  28.496  31.238  1.00  0.00     0.074 A 
ATOM     45  C   UNL A   1      40.892  28.005  28.816  1.00  0.00     0.049 A 
ATOM     46  N   UNL A   1      41.575  29.006  31.902  1.00  0.00    -0.248 NA
ATOM     47  C   UNL A   1      39.614  27.794  32.088  1.00  0.00     0.031 C 
ATOM     48  C   UNL A   1      40.489  27.870  27.410  1.00  0.00     0.029 A 
ATOM     49  N   UNL A   1      41.964  27.168  28.888  1.00  0.00    -0.354 N 
ATOM     50  C   UNL A   1      41.494  28.466  33.182  1.00  0.00     0.074 A 
ATOM     51  C   UNL A   1      40.161  27.942  33.297  1.00  0.00     0.031 C 
ATOM     52  C   UNL A   1      41.145  26.833  26.842  1.00  0.00     0.029 A 
ATOM     53  C   UNL A   1      42.136  26.336  27.780  1.00  0.00     0.049 A 
ATOM     54  H   UNL A   1      42.572  27.152  29.662  1.00  0.00     0.167 HD
ATOM     55  C   UNL A   1      42.618  28.254  33.925  1.00  0.00     0.034 A 
ATOM     56  C   UNL A   1      43.011  25.299  27.643  1.00  0.00     0.034 A 
ATOM     57  C   UNL A   1      43.741  28.975  33.360  1.00  0.00     0.049 A 
ATOM     58  C   UNL A   1      44.084  25.526  28.645  1.00  0.00     0.074 A 
ATOM     59  C   UNL A   1      43.988  30.303  33.068  1.00  0.00     0.029 A 
ATOM     60  N   UNL A   1      44.660  28.260  32.623  1.00  0.00    -0.354 N 
ATOM     61  N   UNL A   1      44.896  26.548  28.595  1.00  0.00    -0.248 NA
ATOM     62  C   UNL A   1      43.918  24.932  29.963  1.00  0.00     0.031 C 
ATOM     63  C   UNL A   1      44.654  30.279  31.807  1.00  0.00     0.029 A 
ATOM     64  C   UNL A   1      44.877  28.947  31.453  1.00  0.00     0.049 A 
ATOM     65  H   UNL A   1      45.084  27.411  32.886  1.00  0.00     0.167 HD
ATOM     66  C   UNL A   1      44.982  27.000  29.904  1.00  0.00     0.074 A 
ATOM     67  C   UNL A   1      44.434  25.910  30.715  1.00  0.00     0.031 C 
ATOM     68  C   UNL A   1      45.210  28.318  30.187  1.00  0.00     0.034 A 
BRANCH  55  69
ATOM     69  C   UNL A   1      42.821  27.110  34.900  1.00  0.00     0.023 A 
ATOM     70  C   UNL A   1      43.609  26.029  34.456  1.00  0.00     0.031 A 
ATOM     71  C   UNL A   1      42.076  26.875  36.078  1.00  0.00     0.131 A 
ATOM     72  C   UNL A   1      43.532  24.771  35.075  1.00  0.00     0.055 A 
ATOM     73  C   UNL A   1      42.057  25.638  36.733  1.00  0.00     0.041 A 
ATOM     74  F   UNL A   1      41.258  27.783  36.617  1.00  0.00    -0.206 F 
ATOM     75  C   UNL A   1      42.756  24.565  36.211  1.00  0.00     0.022 A 
BRANCH  72  76
ATOM     76  S   UNL A   1      44.309  23.362  34.246  1.00  0.00     0.124 S 
ATOM     77  O   UNL A   1      43.435  23.187  33.091  1.00  0.00    -0.237 OA
ATOM     78  O   UNL A   1      45.646  23.877  33.971  1.00  0.00    -0.237 OA
ATOM     79  O   UNL A   1      44.242  22.301  35.248  1.00  0.00    -0.744 OA
ENDBRANCH  72  76
ENDBRANCH  55  69
BRANCH  56  80
ATOM     80  C   UNL A   1      42.781  23.991  26.956  1.00  0.00     0.023 A 
ATOM     81  C   UNL A   1      43.717  23.381  26.086  1.00  0.00     0.031 A 
ATOM     82  C   UNL A   1      41.690  23.188  27.362  1.00  0.00     0.131 A 
ATOM     83  C   UNL A   1      43.536  22.037  25.664  1.00  0.00     0.055 A 
ATOM     84  C   UNL A   1      41.521  21.863  26.947  1.00  0.00     0.041 A 
ATOM     85  F   UNL A   1      40.787  23.640  28.247  1.00  0.00    -0.206 F 
ATOM     86  C   UNL A   1      42.449  21.280  26.102  1.00  0.00     0.022 A 
BRANCH  83  87
ATOM     87  S   UNL A   1      44.757  21.215  24.580  1.00  0.00     0.124 S 
ATOM     88  O   UNL A   1      44.215  19.867  24.464  1.00  0.00    -0.237 OA
ATOM     89  O   UNL A   1      44.716  22.040  23.378  1.00  0.00    -0.237 OA
ATOM     90  O   UNL A   1      46.006  21.307  25.339  1.00  0.00    -0.744 OA
ENDBRANCH  83  87
ENDBRANCH  56  80
BRANCH  68  91
ATOM     91  C   UNL A   1      45.665  29.238  29.070  1.00  0.00     0.023 A 
ATOM     92  C   UNL A   1      44.827  30.085  28.308  1.00  0.00     0.031 A 
ATOM     93  C   UNL A   1      47.054  29.347  28.871  1.00  0.00     0.131 A 
ATOM     94  C   UNL A   1      45.393  30.993  27.387  1.00  0.00     0.055 A 
ATOM     95  C   UNL A   1      47.609  30.261  27.979  1.00  0.00     0.041 A 
ATOM     96  F   UNL A   1      47.904  28.586  29.580  1.00  0.00    -0.206 F 
ATOM     97  C   UNL A   1      46.781  31.085  27.230  1.00  0.00     0.022 A 
BRANCH  94  98
ATOM     98  S   UNL A   1      44.338  32.065  26.355  1.00  0.00     0.124 S 
ATOM     99  O   UNL A   1      43.270  31.175  25.917  1.00  0.00    -0.237 OA
ATOM    100  O   UNL A   1      43.948  33.120  27.287  1.00  0.00    -0.237 OA
ATOM    101  O   UNL A   1      45.240  32.503  25.287  1.00  0.00    -0.744 OA
ENDBRANCH  94  98
ENDBRANCH  68  91
ENDBRANCH  42  43
ENDBRANCH  34  37
ENDBRANCH  32  33
ENDBRANCH  31  32
ENDBRANCH   1  31
TORSDOF 18
ENDMDL
MODEL 2
REMARK VINA RESULT:     -12.4      2.431      7.054
REMARK SMILES Cc1ncc(CO)c([C@H]2[NH2+][C@@H](C(=O)NCCCCNC(=O)c3ccc(-c4c5nc(c(-c6cc(S(=O)(=O)[O-])ccc6F)c6ccc([nH]6)c(-c6cc(S(=O)(=O)[O-])ccc6F)c6nc(c(-c7cc(S(=O)(=O)[O-])ccc7F)c7ccc4[nH]7)C=C6)C=C5)cc3)Cc3[nH]cnc32)c1O
REMARK SMILES IDX 16 1 15 2 14 3 12 4 13 5 11 7 9 8 10 9 90 10 86 13 89 14
REMARK SMILES IDX 85 15 87 16 88 17 8 19 1 20 2 21 3 22 91 23 4 24 5 25 92 26
REMARK SMILES IDX 6 28 7 29 17 31 18 32 19 33 20 34 21 36 22 37 23 38 84 39
REMARK SMILES IDX 24 40 83 41 25 42 26 43 27 44 77 45 28 46 82 47 76 48 78 49
REMARK SMILES IDX 29 50 81 51 75 52 74 53 30 55 62 56 42 57 61 58 43 59 46 60
REMARK SMILES IDX 60 61 79 62 44 63 45 64 59 66 80 67 47 68 31 69 32 70 40 71
REMARK SMILES IDX 33 72 39 73 41 74 38 75 34 76 35 77 36 78 37 79 63 80 64 81
REMARK SMILES IDX 72 82 65 83 71 84 73 85 70 86 66 87 67 88 68 89 69 90 48 91
REMARK SMILES IDX 49 92 57 93 50 94 56 95 58 96 55 97 51 98 52 99 53 100
REMARK SMILES IDX 54 101
REMARK H PARENT 14 6 10 11 10 12 87 18 92 27 7 30 19 35 78 54 46 65
REMARK Flexibility Score: inf
ROOT
ATOM      1  C   UNL A   1      32.731  28.563  27.319  1.00  0.00     0.023 C 
ENDROOT
BRANCH   1   2
ATOM      2  C   UNL A   1      32.411  27.395  26.381  1.00  0.00     0.116 C 
BRANCH   2   3
ATOM      3  N   UNL A   1      31.166  26.717  26.715  1.00  0.00    -0.351 N 
ATOM      4  C   UNL A   1      30.574  25.615  26.150  1.00  0.00     0.278 C 
ATOM      5  O   UNL A   1      29.528  25.196  26.646  1.00  0.00    -0.268 OA
ATOM      6  H   UNL A   1      30.670  27.114  27.467  1.00  0.00     0.163 HD
BRANCH   4   7
ATOM      7  C   UNL A   1      31.189  25.019  24.881  1.00  0.00     0.279 C 
ATOM      8  C   UNL A   1      32.866  23.498  24.113  1.00  0.00     0.270 C 
ATOM      9  N   UNL A   1      32.545  24.478  25.178  1.00  0.00    -0.324 N 
ATOM     10  C   UNL A   1      32.926  24.236  22.806  1.00  0.00     0.124 A 
ATOM     11  H   UNL A   1      33.231  25.232  25.177  1.00  0.00     0.347 HD
ATOM     12  H   UNL A   1      32.566  24.034  26.097  1.00  0.00     0.347 HD
ATOM     13  C   UNL A   1      32.100  25.342  22.613  1.00  0.00     0.051 A 
ATOM     14  N   UNL A   1      33.383  23.785  21.591  1.00  0.00    -0.235 NA
ATOM     15  C   UNL A   1      31.248  25.988  23.675  1.00  0.00     0.131 C 
ATOM     16  N   UNL A   1      32.112  25.603  21.279  1.00  0.00    -0.348 N 
ATOM     17  C   UNL A   1      32.900  24.637  20.705  1.00  0.00     0.197 A 
ATOM     18  H   UNL A   1      31.650  26.339  20.817  1.00  0.00     0.167 HD
BRANCH   8  19
ATOM     19  C   UNL A   1      33.896  22.515  24.604  1.00  0.00     0.066 A 
ATOM     20  C   UNL A   1      37.635  23.014  25.384  1.00  0.00     0.071 C 
ATOM     21  C   UNL A   1      36.291  22.369  25.200  1.00  0.00     0.079 A 
ATOM     22  N   UNL A   1      36.236  21.028  25.282  1.00  0.00    -0.257 NA
ATOM     23  C   UNL A   1      35.156  23.121  24.912  1.00  0.00     0.146 A 
ATOM     24  C   UNL A   1      35.041  20.449  25.000  1.00  0.00     0.118 A 
ATOM     25  C   UNL A   1      33.858  21.115  24.628  1.00  0.00     0.009 A 
BRANCH  23  26
ATOM     26  O   UNL A   1      35.324  24.488  24.828  1.00  0.00    -0.505 OA
ATOM     27  H   UNL A   1      35.239  24.921  24.002  1.00  0.00     0.293 HD
ENDBRANCH  23  26
BRANCH  25  28
ATOM     28  C   UNL A   1      32.687  20.248  24.268  1.00  0.00     0.194 C 
BRANCH  28  29
ATOM     29  O   UNL A   1      31.779  20.200  25.370  1.00  0.00    -0.392 OA
ATOM     30  H   UNL A   1      31.095  19.535  25.195  1.00  0.00     0.211 HD
ENDBRANCH  28  29
ENDBRANCH  25  28
ENDBRANCH   8  19
ENDBRANCH   4   7
ENDBRANCH   2   3
ENDBRANCH   1   2
BRANCH   1  31
ATOM     31  C   UNL A   1      33.821  29.529  26.831  1.00  0.00     0.023 C 
BRANCH  31  32
ATOM     32  C   UNL A   1      35.198  29.302  27.441  1.00  0.00     0.116 C 
BRANCH  32  33
ATOM     33  N   UNL A   1      35.364  29.942  28.744  1.00  0.00    -0.352 N 
ATOM     34  C   UNL A   1      36.346  29.677  29.690  1.00  0.00     0.251 C 
ATOM     35  H   UNL A   1      34.707  30.637  28.977  1.00  0.00     0.163 HD
ATOM     36  O   UNL A   1      36.161  29.930  30.867  1.00  0.00    -0.269 OA
BRANCH  34  37
ATOM     37  C   UNL A   1      37.623  29.100  29.225  1.00  0.00     0.039 A 
ATOM     38  C   UNL A   1      38.281  29.573  28.086  1.00  0.00     0.014 A 
ATOM     39  C   UNL A   1      38.178  28.081  29.994  1.00  0.00     0.014 A 
ATOM     40  C   UNL A   1      39.545  29.064  27.782  1.00  0.00     0.010 A 
ATOM     41  C   UNL A   1      39.474  27.691  29.783  1.00  0.00     0.010 A 
ATOM     42  C   UNL A   1      40.145  28.137  28.650  1.00  0.00    -0.014 A 
BRANCH  42  43
ATOM     43  C   UNL A   1      41.541  27.727  28.488  1.00  0.00     0.031 A 
ATOM     44  C   UNL A   1      41.710  26.457  27.731  1.00  0.00     0.074 A 
ATOM     45  C   UNL A   1      42.583  28.548  28.759  1.00  0.00     0.049 A 
ATOM     46  N   UNL A   1      42.112  25.317  28.186  1.00  0.00    -0.248 NA
ATOM     47  C   UNL A   1      41.201  26.388  26.350  1.00  0.00     0.031 C 
ATOM     48  C   UNL A   1      42.539  29.943  29.218  1.00  0.00     0.029 A 
ATOM     49  N   UNL A   1      43.916  28.352  28.568  1.00  0.00    -0.354 N 
ATOM     50  C   UNL A   1      42.172  24.466  27.086  1.00  0.00     0.074 A 
ATOM     51  C   UNL A   1      41.381  25.096  26.065  1.00  0.00     0.031 C 
ATOM     52  C   UNL A   1      43.744  30.526  29.032  1.00  0.00     0.029 A 
ATOM     53  C   UNL A   1      44.693  29.512  28.605  1.00  0.00     0.049 A 
ATOM     54  H   UNL A   1      44.304  27.460  28.415  1.00  0.00     0.167 HD
ATOM     55  C   UNL A   1      43.092  23.461  27.028  1.00  0.00     0.034 A 
ATOM     56  C   UNL A   1      46.013  29.643  28.290  1.00  0.00     0.034 A 
ATOM     57  C   UNL A   1      43.665  23.223  28.338  1.00  0.00     0.049 A 
ATOM     58  C   UNL A   1      46.603  28.284  28.399  1.00  0.00     0.074 A 
ATOM     59  C   UNL A   1      43.144  22.895  29.575  1.00  0.00     0.029 A 
ATOM     60  N   UNL A   1      44.923  23.727  28.591  1.00  0.00    -0.354 N 
ATOM     61  N   UNL A   1      46.679  27.632  29.527  1.00  0.00    -0.248 NA
ATOM     62  C   UNL A   1      46.620  27.455  27.203  1.00  0.00     0.031 C 
ATOM     63  C   UNL A   1      43.877  23.694  30.501  1.00  0.00     0.029 A 
ATOM     64  C   UNL A   1      44.873  24.378  29.800  1.00  0.00     0.049 A 
ATOM     65  H   UNL A   1      45.714  23.637  28.011  1.00  0.00     0.167 HD
ATOM     66  C   UNL A   1      46.299  26.334  29.216  1.00  0.00     0.074 A 
ATOM     67  C   UNL A   1      46.366  26.264  27.755  1.00  0.00     0.031 C 
ATOM     68  C   UNL A   1      45.686  25.533  30.138  1.00  0.00     0.034 A 
BRANCH  55  69
ATOM     69  C   UNL A   1      43.772  22.966  25.765  1.00  0.00     0.023 A 
ATOM     70  C   UNL A   1      43.800  21.571  25.564  1.00  0.00     0.031 A 
ATOM     71  C   UNL A   1      44.628  23.717  24.928  1.00  0.00     0.131 A 
ATOM     72  C   UNL A   1      44.725  20.981  24.689  1.00  0.00     0.055 A 
ATOM     73  C   UNL A   1      45.500  23.129  24.006  1.00  0.00     0.041 A 
ATOM     74  F   UNL A   1      44.744  25.046  25.007  1.00  0.00    -0.206 F 
ATOM     75  C   UNL A   1      45.581  21.751  23.908  1.00  0.00     0.022 A 
BRANCH  72  76
ATOM     76  S   UNL A   1      44.924  19.183  24.739  1.00  0.00     0.124 S 
ATOM     77  O   UNL A   1      46.303  19.056  25.200  1.00  0.00    -0.237 OA
ATOM     78  O   UNL A   1      43.887  18.794  25.690  1.00  0.00    -0.237 OA
ATOM     79  O   UNL A   1      44.687  18.777  23.357  1.00  0.00    -0.744 OA
ENDBRANCH  72  76
ENDBRANCH  55  69
BRANCH  56  80
ATOM     80  C   UNL A   1      46.678  30.782  27.584  1.00  0.00     0.023 A 
ATOM     81  C   UNL A   1      45.976  31.828  26.939  1.00  0.00     0.031 A 
ATOM     82  C   UNL A   1      48.068  30.975  27.757  1.00  0.00     0.131 A 
ATOM     83  C   UNL A   1      46.663  32.992  26.503  1.00  0.00     0.055 A 
ATOM     84  C   UNL A   1      48.737  32.127  27.330  1.00  0.00     0.041 A 
ATOM     85  F   UNL A   1      48.815  30.082  28.425  1.00  0.00    -0.206 F 
ATOM     86  C   UNL A   1      48.036  33.144  26.709  1.00  0.00     0.022 A 
BRANCH  83  87
ATOM     87  S   UNL A   1      45.769  34.377  25.713  1.00  0.00     0.124 S 
ATOM     88  O   UNL A   1      45.031  34.952  26.831  1.00  0.00    -0.237 OA
ATOM     89  O   UNL A   1      46.856  35.181  25.166  1.00  0.00    -0.237 OA
ATOM     90  O   UNL A   1      44.935  33.716  24.707  1.00  0.00    -0.744 OA
ENDBRANCH  83  87
ENDBRANCH  56  80
BRANCH  68  91
ATOM     91  C   UNL A   1      45.686  25.960  31.594  1.00  0.00     0.023 A 
ATOM     92  C   UNL A   1      44.573  26.470  32.303  1.00  0.00     0.031 A 
ATOM     93  C   UNL A   1      46.860  25.701  32.326  1.00  0.00     0.131 A 
ATOM     94  C   UNL A   1      44.670  26.704  33.692  1.00  0.00     0.055 A 
ATOM     95  C   UNL A   1      46.943  25.910  33.700  1.00  0.00     0.041 A 
ATOM     96  F   UNL A   1      47.944  25.195  31.714  1.00  0.00    -0.206 F 
ATOM     97  C   UNL A   1      45.849  26.417  34.388  1.00  0.00     0.022 A 
BRANCH  94  98
ATOM     98  S   UNL A   1      43.269  27.406  34.626  1.00  0.00     0.124 S 
ATOM     99  O   UNL A   1      43.894  28.409  35.479  1.00  0.00    -0.237 OA
ATOM    100  O   UNL A   1      42.404  27.918  33.566  1.00  0.00    -0.237 OA
ATOM    101  O   UNL A   1      42.726  26.251  35.344  1.00  0.00    -0.744 OA
ENDBRANCH  94  98
ENDBRANCH  68  91
ENDBRANCH  42  43
ENDBRANCH  34  37
ENDBRANCH  32  33
ENDBRANCH  31  32
ENDBRANCH   1  31
TORSDOF 18
ENDMDL
MODEL 3
REMARK VINA RESULT:     -12.4      2.069      7.089
REMARK SMILES Cc1ncc(CO)c([C@H]2[NH2+][C@@H](C(=O)NCCCCNC(=O)c3ccc(-c4c5nc(c(-c6cc(S(=O)(=O)[O-])ccc6F)c6ccc([nH]6)c(-c6cc(S(=O)(=O)[O-])ccc6F)c6nc(c(-c7cc(S(=O)(=O)[O-])ccc7F)c7ccc4[nH]7)C=C6)C=C5)cc3)Cc3[nH]cnc32)c1O
REMARK SMILES IDX 16 1 15 2 14 3 12 4 13 5 11 7 9 8 10 9 90 10 86 13 89 14
REMARK SMILES IDX 85 15 87 16 88 17 8 19 1 20 2 21 3 22 91 23 4 24 5 25 92 26
REMARK SMILES IDX 6 28 7 29 17 31 18 32 19 33 20 34 21 36 22 37 23 38 84 39
REMARK SMILES IDX 24 40 83 41 25 42 26 43 27 44 77 45 28 46 82 47 76 48 78 49
REMARK SMILES IDX 29 50 81 51 75 52 74 53 30 55 62 56 42 57 61 58 43 59 46 60
REMARK SMILES IDX 60 61 79 62 44 63 45 64 59 66 80 67 47 68 31 69 32 70 40 71
REMARK SMILES IDX 33 72 39 73 41 74 38 75 34 76 35 77 36 78 37 79 63 80 64 81
REMARK SMILES IDX 72 82 65 83 71 84 73 85 70 86 66 87 67 88 68 89 69 90 48 91
REMARK SMILES IDX 49 92 57 93 50 94 56 95 58 96 55 97 51 98 52 99 53 100
REMARK SMILES IDX 54 101
REMARK H PARENT 14 6 10 11 10 12 87 18 92 27 7 30 19 35 78 54 46 65
REMARK Flexibility Score: inf
ROOT
ATOM      1  C   UNL A   1      33.687  28.010  25.474  1.00  0.00     0.023 C 
ENDROOT
BRANCH   1   2
ATOM      2  C   UNL A   1      33.176  28.575  24.145  1.00  0.00     0.116 C 
BRANCH   2   3
ATOM      3  N   UNL A   1      33.506  27.735  23.002  1.00  0.00    -0.351 N 
ATOM      4  C   UNL A   1      33.340  26.386  22.812  1.00  0.00     0.278 C 
ATOM      5  O   UNL A   1      33.658  25.906  21.724  1.00  0.00    -0.268 OA
ATOM      6  H   UNL A   1      33.914  28.212  22.243  1.00  0.00     0.163 HD
BRANCH   4   7
ATOM      7  C   UNL A   1      32.856  25.532  23.987  1.00  0.00     0.279 C 
ATOM      8  C   UNL A   1      33.320  23.525  25.198  1.00  0.00     0.270 C 
ATOM      9  N   UNL A   1      33.370  24.140  23.851  1.00  0.00    -0.324 N 
ATOM     10  C   UNL A   1      31.882  23.458  25.626  1.00  0.00     0.124 A 
ATOM     11  H   UNL A   1      32.786  23.613  23.204  1.00  0.00     0.347 HD
ATOM     12  H   UNL A   1      34.323  24.140  23.487  1.00  0.00     0.347 HD
ATOM     13  C   UNL A   1      31.001  24.450  25.199  1.00  0.00     0.051 A 
ATOM     14  N   UNL A   1      31.340  22.792  26.698  1.00  0.00    -0.235 NA
ATOM     15  C   UNL A   1      31.320  25.522  24.189  1.00  0.00     0.131 C 
ATOM     16  N   UNL A   1      29.890  24.338  25.974  1.00  0.00    -0.348 N 
ATOM     17  C   UNL A   1      30.142  23.323  26.864  1.00  0.00     0.197 A 
ATOM     18  H   UNL A   1      29.068  24.876  25.910  1.00  0.00     0.167 HD
BRANCH   8  19
ATOM     19  C   UNL A   1      34.307  22.389  25.288  1.00  0.00     0.066 A 
ATOM     20  C   UNL A   1      38.139  22.454  25.681  1.00  0.00     0.071 C 
ATOM     21  C   UNL A   1      36.731  21.957  25.515  1.00  0.00     0.079 A 
ATOM     22  N   UNL A   1      36.567  20.646  25.262  1.00  0.00    -0.257 NA
ATOM     23  C   UNL A   1      35.642  22.821  25.575  1.00  0.00     0.146 A 
ATOM     24  C   UNL A   1      35.302  20.230  24.999  1.00  0.00     0.118 A 
ATOM     25  C   UNL A   1      34.148  21.037  24.963  1.00  0.00     0.009 A 
BRANCH  23  26
ATOM     26  O   UNL A   1      35.920  24.151  25.818  1.00  0.00    -0.505 OA
ATOM     27  H   UNL A   1      35.364  24.650  26.384  1.00  0.00     0.293 HD
ENDBRANCH  23  26
BRANCH  25  28
ATOM     28  C   UNL A   1      32.873  20.362  24.549  1.00  0.00     0.194 C 
BRANCH  28  29
ATOM     29  O   UNL A   1      32.150  19.965  25.714  1.00  0.00    -0.392 OA
ATOM     30  H   UNL A   1      31.792  20.751  26.155  1.00  0.00     0.211 HD
ENDBRANCH  28  29
ENDBRANCH  25  28
ENDBRANCH   8  19
ENDBRANCH   4   7
ENDBRANCH   2   3
ENDBRANCH   1   2
BRANCH   1  31
ATOM     31  C   UNL A   1      33.949  29.043  26.579  1.00  0.00     0.023 C 
BRANCH  31  32
ATOM     32  C   UNL A   1      35.357  29.016  27.162  1.00  0.00     0.116 C 
BRANCH  32  33
ATOM     33  N   UNL A   1      35.495  29.824  28.372  1.00  0.00    -0.352 N 
ATOM     34  C   UNL A   1      36.466  29.699  29.358  1.00  0.00     0.251 C 
ATOM     35  H   UNL A   1      34.827  30.534  28.502  1.00  0.00     0.163 HD
ATOM     36  O   UNL A   1      36.259  30.102  30.489  1.00  0.00    -0.269 OA
BRANCH  34  37
ATOM     37  C   UNL A   1      37.756  29.083  28.990  1.00  0.00     0.039 A 
ATOM     38  C   UNL A   1      38.517  29.540  27.911  1.00  0.00     0.014 A 
ATOM     39  C   UNL A   1      38.214  28.041  29.792  1.00  0.00     0.014 A 
ATOM     40  C   UNL A   1      39.784  28.991  27.704  1.00  0.00     0.010 A 
ATOM     41  C   UNL A   1      39.510  27.610  29.680  1.00  0.00     0.010 A 
ATOM     42  C   UNL A   1      40.283  28.039  28.608  1.00  0.00    -0.014 A 
BRANCH  42  43
ATOM     43  C   UNL A   1      41.673  27.585  28.554  1.00  0.00     0.031 A 
ATOM     44  C   UNL A   1      41.870  26.351  27.744  1.00  0.00     0.074 A 
ATOM     45  C   UNL A   1      42.712  28.349  28.967  1.00  0.00     0.049 A 
ATOM     46  N   UNL A   1      42.188  25.174  28.168  1.00  0.00    -0.248 NA
ATOM     47  C   UNL A   1      41.493  26.377  26.320  1.00  0.00     0.031 C 
ATOM     48  C   UNL A   1      42.671  29.717  29.500  1.00  0.00     0.029 A 
ATOM     49  N   UNL A   1      44.050  28.111  28.890  1.00  0.00    -0.354 N 
ATOM     50  C   UNL A   1      42.324  24.381  27.031  1.00  0.00     0.074 A 
ATOM     51  C   UNL A   1      41.656  25.097  25.979  1.00  0.00     0.031 C 
ATOM     52  C   UNL A   1      43.908  30.261  29.461  1.00  0.00     0.029 A 
ATOM     53  C   UNL A   1      44.858  29.236  29.066  1.00  0.00     0.049 A 
ATOM     54  H   UNL A   1      44.420  27.214  28.723  1.00  0.00     0.167 HD
ATOM     55  C   UNL A   1      43.211  23.346  27.002  1.00  0.00     0.034 A 
ATOM     56  C   UNL A   1      46.207  29.332  28.883  1.00  0.00     0.034 A 
ATOM     57  C   UNL A   1      43.648  23.016  28.344  1.00  0.00     0.049 A 
ATOM     58  C   UNL A   1      46.737  27.946  28.968  1.00  0.00     0.074 A 
ATOM     59  C   UNL A   1      43.001  22.641  29.506  1.00  0.00     0.029 A 
ATOM     60  N   UNL A   1      44.892  23.455  28.742  1.00  0.00    -0.354 N 
ATOM     61  N   UNL A   1      46.682  27.232  30.060  1.00  0.00    -0.248 NA
ATOM     62  C   UNL A   1      46.839  27.183  27.734  1.00  0.00     0.031 C 
ATOM     63  C   UNL A   1      43.669  23.361  30.540  1.00  0.00     0.029 A 
ATOM     64  C   UNL A   1      44.749  24.041  29.975  1.00  0.00     0.049 A 
ATOM     65  H   UNL A   1      45.731  23.366  28.234  1.00  0.00     0.167 HD
ATOM     66  C   UNL A   1      46.290  25.969  29.641  1.00  0.00     0.074 A 
ATOM     67  C   UNL A   1      46.493  25.975  28.191  1.00  0.00     0.031 C 
ATOM     68  C   UNL A   1      45.565  25.144  30.454  1.00  0.00     0.034 A 
BRANCH  55  69
ATOM     69  C   UNL A   1      43.990  22.894  25.782  1.00  0.00     0.023 A 
ATOM     70  C   UNL A   1      44.083  21.504  25.567  1.00  0.00     0.031 A 
ATOM     71  C   UNL A   1      44.871  23.687  25.012  1.00  0.00     0.131 A 
ATOM     72  C   UNL A   1      45.086  20.960  24.748  1.00  0.00     0.055 A 
ATOM     73  C   UNL A   1      45.823  23.143  24.143  1.00  0.00     0.041 A 
ATOM     74  F   UNL A   1      44.932  25.018  25.114  1.00  0.00    -0.206 F 
ATOM     75  C   UNL A   1      45.963  21.772  24.035  1.00  0.00     0.022 A 
BRANCH  72  76
ATOM     76  S   UNL A   1      45.348  19.169  24.792  1.00  0.00     0.124 S 
ATOM     77  O   UNL A   1      46.512  19.068  25.666  1.00  0.00    -0.237 OA
ATOM     78  O   UNL A   1      44.083  18.696  25.344  1.00  0.00    -0.237 OA
ATOM     79  O   UNL A   1      45.584  18.828  23.392  1.00  0.00    -0.744 OA
ENDBRANCH  72  76
ENDBRANCH  55  69
BRANCH  56  80
ATOM     80  C   UNL A   1      46.974  30.480  28.309  1.00  0.00     0.023 A 
ATOM     81  C   UNL A   1      46.408  31.462  27.460  1.00  0.00     0.031 A 
ATOM     82  C   UNL A   1      48.267  30.757  28.811  1.00  0.00     0.131 A 
ATOM     83  C   UNL A   1      47.128  32.646  27.152  1.00  0.00     0.055 A 
ATOM     84  C   UNL A   1      48.968  31.928  28.507  1.00  0.00     0.041 A 
ATOM     85  F   UNL A   1      48.863  29.932  29.686  1.00  0.00    -0.206 F 
ATOM     86  C   UNL A   1      48.398  32.882  27.682  1.00  0.00     0.022 A 
BRANCH  83  87
ATOM     87  S   UNL A   1      46.397  33.949  26.098  1.00  0.00     0.124 S 
ATOM     88  O   UNL A   1      47.544  34.401  25.319  1.00  0.00    -0.237 OA
ATOM     89  O   UNL A   1      45.362  33.221  25.372  1.00  0.00    -0.237 OA
ATOM     90  O   UNL A   1      45.891  34.926  27.063  1.00  0.00    -0.744 OA
ENDBRANCH  83  87
ENDBRANCH  56  80
BRANCH  68  91
ATOM     91  C   UNL A   1      45.441  25.491  31.926  1.00  0.00     0.023 A 
ATOM     92  C   UNL A   1      46.402  25.204  32.924  1.00  0.00     0.031 A 
ATOM     93  C   UNL A   1      44.335  26.280  32.296  1.00  0.00     0.131 A 
ATOM     94  C   UNL A   1      46.227  25.701  34.233  1.00  0.00     0.055 A 
ATOM     95  C   UNL A   1      44.180  26.788  33.582  1.00  0.00     0.041 A 
ATOM     96  F   UNL A   1      43.400  26.606  31.388  1.00  0.00    -0.206 F 
ATOM     97  C   UNL A   1      45.124  26.498  34.558  1.00  0.00     0.022 A 
BRANCH  94  98
ATOM     98  S   UNL A   1      47.423  25.309  35.555  1.00  0.00     0.124 S 
ATOM     99  O   UNL A   1      47.219  23.886  35.790  1.00  0.00    -0.237 OA
ATOM    100  O   UNL A   1      48.700  25.680  34.949  1.00  0.00    -0.237 OA
ATOM    101  O   UNL A   1      47.004  26.174  36.660  1.00  0.00    -0.744 OA
ENDBRANCH  94  98
ENDBRANCH  68  91
ENDBRANCH  42  43
ENDBRANCH  34  37
ENDBRANCH  32  33
ENDBRANCH  31  32
ENDBRANCH   1  31
TORSDOF 18
ENDMDL
