MODEL 1
REMARK VINA RESULT:     -12.6      0.000      0.000
REMARK SMILES O=C(NCCCCNC(=O)c1ccsc1NC(=O)c1cc2c(F)cccc2s1)c1ccc(-c2c3nc(c(-c4cc(S(=O)(=O)[O-])ccc4F)c4ccc([nH]4)c(-c4cc(S(=O)(=O)[O-])ccc4F)c4nc(c(-c5cc(S(=O)(=O)[O-])ccc5F)c5ccc2[nH]5)C=C4)C=C3)cc1
REMARK SMILES IDX 5 1 4 2 3 3 1 4 2 5 29 7 30 8 91 9 31 10 90 11 32 12 33 13
REMARK SMILES IDX 34 14 84 15 35 16 89 17 83 18 85 19 36 20 88 21 82 22 81 23
REMARK SMILES IDX 37 25 69 26 49 27 68 28 50 29 53 30 67 31 86 32 51 33 52 34
REMARK SMILES IDX 66 36 87 37 54 38 38 39 39 40 47 41 40 42 46 43 48 44 45 45
REMARK SMILES IDX 41 46 42 47 43 48 44 49 70 50 71 51 79 52 72 53 78 54 80 55
REMARK SMILES IDX 77 56 73 57 74 58 75 59 76 60 55 61 56 62 64 63 57 64 63 65
REMARK SMILES IDX 65 66 62 67 58 68 59 69 60 70 61 71 6 72 7 73 8 74 9 75
REMARK SMILES IDX 10 77 11 78 12 79 15 80 13 81 14 82 16 83 17 84 18 86 19 87
REMARK SMILES IDX 20 88 28 89 21 90 27 91 22 92 26 93 23 94 24 95 25 96
REMARK H PARENT 3 6 85 24 53 35 8 76 16 85
REMARK Flexibility Score: inf
ROOT
ATOM      1  C   UNL A   1      38.112  22.039  25.398  1.00  0.00     0.023 C 
ENDROOT
BRANCH   1   2
ATOM      2  C   UNL A   1      39.219  21.609  26.361  1.00  0.00     0.116 C 
BRANCH   2   3
ATOM      3  N   UNL A   1      40.567  21.795  25.863  1.00  0.00    -0.352 N 
ATOM      4  O   UNL A   1      42.662  22.479  25.650  1.00  0.00    -0.269 OA
ATOM      5  C   UNL A   1      41.542  22.729  26.104  1.00  0.00     0.251 C 
ATOM      6  H   UNL A   1      40.840  21.106  25.215  1.00  0.00     0.163 HD
BRANCH   5   7
ATOM      7  C   UNL A   1      41.303  24.032  26.779  1.00  0.00     0.039 A 
ATOM      8  C   UNL A   1      40.484  25.045  26.286  1.00  0.00     0.014 A 
ATOM      9  C   UNL A   1      42.004  24.256  27.980  1.00  0.00     0.014 A 
ATOM     10  C   UNL A   1      40.475  26.294  26.886  1.00  0.00     0.010 A 
ATOM     11  C   UNL A   1      41.972  25.497  28.610  1.00  0.00     0.010 A 
ATOM     12  C   UNL A   1      41.241  26.527  28.032  1.00  0.00    -0.014 A 
BRANCH  12  13
ATOM     13  C   UNL A   1      41.088  27.835  28.655  1.00  0.00     0.031 A 
ATOM     14  C   UNL A   1      42.049  28.858  28.154  1.00  0.00     0.074 A 
ATOM     15  C   UNL A   1      40.143  28.147  29.560  1.00  0.00     0.049 A 
ATOM     16  N   UNL A   1      43.043  29.399  28.780  1.00  0.00    -0.248 NA
ATOM     17  C   UNL A   1      41.977  29.196  26.725  1.00  0.00     0.031 C 
ATOM     18  C   UNL A   1      38.954  27.381  29.931  1.00  0.00     0.029 A 
ATOM     19  N   UNL A   1      40.012  29.295  30.281  1.00  0.00    -0.354 N 
ATOM     20  C   UNL A   1      43.611  30.298  27.879  1.00  0.00     0.074 A 
ATOM     21  C   UNL A   1      43.025  30.009  26.595  1.00  0.00     0.031 C 
ATOM     22  C   UNL A   1      38.115  28.179  30.632  1.00  0.00     0.029 A 
ATOM     23  C   UNL A   1      38.772  29.453  30.880  1.00  0.00     0.049 A 
ATOM     24  H   UNL A   1      40.737  29.955  30.372  1.00  0.00     0.167 HD
ATOM     25  C   UNL A   1      44.369  31.356  28.285  1.00  0.00     0.034 A 
ATOM     26  C   UNL A   1      38.297  30.584  31.460  1.00  0.00     0.034 A 
ATOM     27  C   UNL A   1      44.797  31.216  29.648  1.00  0.00     0.049 A 
ATOM     28  C   UNL A   1      39.448  31.463  31.774  1.00  0.00     0.074 A 
ATOM     29  C   UNL A   1      45.601  30.331  30.334  1.00  0.00     0.029 A 
ATOM     30  N   UNL A   1      44.090  31.905  30.602  1.00  0.00    -0.354 N 
ATOM     31  N   UNL A   1      40.332  31.214  32.697  1.00  0.00    -0.248 NA
ATOM     32  C   UNL A   1      39.845  32.441  30.773  1.00  0.00     0.031 C 
ATOM     33  C   UNL A   1      45.005  30.210  31.622  1.00  0.00     0.029 A 
ATOM     34  C   UNL A   1      43.897  31.060  31.662  1.00  0.00     0.049 A 
ATOM     35  H   UNL A   1      43.777  32.836  30.535  1.00  0.00     0.167 HD
ATOM     36  C   UNL A   1      41.530  31.647  32.153  1.00  0.00     0.074 A 
ATOM     37  C   UNL A   1      41.155  32.494  31.024  1.00  0.00     0.031 C 
ATOM     38  C   UNL A   1      42.713  31.055  32.493  1.00  0.00     0.034 A 
BRANCH  25  39
ATOM     39  C   UNL A   1      44.418  32.675  27.553  1.00  0.00     0.023 A 
ATOM     40  C   UNL A   1      43.597  33.761  27.910  1.00  0.00     0.031 A 
ATOM     41  C   UNL A   1      45.456  32.960  26.644  1.00  0.00     0.131 A 
ATOM     42  C   UNL A   1      43.785  35.037  27.369  1.00  0.00     0.055 A 
ATOM     43  C   UNL A   1      45.689  34.254  26.155  1.00  0.00     0.041 A 
ATOM     44  F   UNL A   1      46.312  32.004  26.252  1.00  0.00    -0.206 F 
ATOM     45  C   UNL A   1      44.850  35.301  26.515  1.00  0.00     0.022 A 
BRANCH  42  46
ATOM     46  S   UNL A   1      42.650  36.384  27.802  1.00  0.00     0.124 S 
ATOM     47  O   UNL A   1      43.159  36.796  29.106  1.00  0.00    -0.237 OA
ATOM     48  O   UNL A   1      42.876  37.322  26.706  1.00  0.00    -0.237 OA
ATOM     49  O   UNL A   1      41.342  35.738  27.804  1.00  0.00    -0.744 OA
ENDBRANCH  42  46
ENDBRANCH  25  39
BRANCH  26  50
ATOM     50  C   UNL A   1      36.926  31.132  31.344  1.00  0.00     0.023 A 
ATOM     51  C   UNL A   1      36.382  31.395  30.074  1.00  0.00     0.031 A 
ATOM     52  C   UNL A   1      36.279  31.704  32.454  1.00  0.00     0.131 A 
ATOM     53  C   UNL A   1      35.280  32.249  29.934  1.00  0.00     0.055 A 
ATOM     54  C   UNL A   1      35.171  32.548  32.314  1.00  0.00     0.041 A 
ATOM     55  F   UNL A   1      36.761  31.517  33.694  1.00  0.00    -0.206 F 
ATOM     56  C   UNL A   1      34.676  32.837  31.046  1.00  0.00     0.022 A 
BRANCH  53  57
ATOM     57  S   UNL A   1      34.658  32.659  28.281  1.00  0.00     0.124 S 
ATOM     58  O   UNL A   1      35.859  33.149  27.606  1.00  0.00    -0.237 OA
ATOM     59  O   UNL A   1      34.161  31.368  27.821  1.00  0.00    -0.237 OA
ATOM     60  O   UNL A   1      33.644  33.677  28.544  1.00  0.00    -0.744 OA
ENDBRANCH  53  57
ENDBRANCH  26  50
BRANCH  38  61
ATOM     61  C   UNL A   1      42.740  30.124  33.680  1.00  0.00     0.023 A 
ATOM     62  C   UNL A   1      43.341  30.609  34.853  1.00  0.00     0.031 A 
ATOM     63  C   UNL A   1      42.407  28.758  33.629  1.00  0.00     0.131 A 
ATOM     64  C   UNL A   1      43.629  29.739  35.909  1.00  0.00     0.055 A 
ATOM     65  C   UNL A   1      42.637  27.904  34.714  1.00  0.00     0.041 A 
ATOM     66  F   UNL A   1      41.934  28.193  32.510  1.00  0.00    -0.206 F 
ATOM     67  C   UNL A   1      43.266  28.391  35.856  1.00  0.00     0.022 A 
BRANCH  64  68
ATOM     68  S   UNL A   1      44.609  30.314  37.318  1.00  0.00     0.124 S 
ATOM     69  O   UNL A   1      45.256  31.507  36.779  1.00  0.00    -0.237 OA
ATOM     70  O   UNL A   1      43.580  30.561  38.327  1.00  0.00    -0.237 OA
ATOM     71  O   UNL A   1      45.504  29.197  37.608  1.00  0.00    -0.744 OA
ENDBRANCH  64  68
ENDBRANCH  38  61
ENDBRANCH  12  13
ENDBRANCH   5   7
ENDBRANCH   2   3
ENDBRANCH   1   2
BRANCH   1  72
ATOM     72  C   UNL A   1      37.424  23.354  25.762  1.00  0.00     0.023 C 
BRANCH  72  73
ATOM     73  C   UNL A   1      35.902  23.321  25.694  1.00  0.00     0.116 C 
BRANCH  73  74
ATOM     74  N   UNL A   1      35.284  22.988  26.974  1.00  0.00    -0.352 N 
ATOM     75  C   UNL A   1      34.168  22.213  27.212  1.00  0.00     0.254 C 
ATOM     76  H   UNL A   1      35.720  23.367  27.771  1.00  0.00     0.163 HD
ATOM     77  O   UNL A   1      33.652  22.176  28.314  1.00  0.00    -0.269 OA
BRANCH  75  78
ATOM     78  C   UNL A   1      33.636  21.488  26.073  1.00  0.00     0.074 A 
ATOM     79  C   UNL A   1      34.416  20.624  25.217  1.00  0.00     0.028 A 
ATOM     80  C   UNL A   1      32.303  21.527  25.685  1.00  0.00     0.108 A 
ATOM     81  C   UNL A   1      33.737  20.274  24.081  1.00  0.00     0.068 A 
ATOM     82  S   UNL A   1      32.178  20.918  24.108  1.00  0.00    -0.126 S 
BRANCH  80  83
ATOM     83  N   UNL A   1      31.233  22.113  26.358  1.00  0.00    -0.312 N 
ATOM     84  C   UNL A   1      30.831  23.435  26.537  1.00  0.00     0.266 C 
ATOM     85  H   UNL A   1      30.640  21.460  26.796  1.00  0.00     0.171 HD
ATOM     86  O   UNL A   1      29.863  23.649  27.270  1.00  0.00    -0.268 OA
BRANCH  84  87
ATOM     87  C   UNL A   1      31.469  24.497  25.796  1.00  0.00     0.094 A 
ATOM     88  C   UNL A   1      32.562  25.273  26.133  1.00  0.00     0.037 A 
ATOM     89  S   UNL A   1      30.874  24.972  24.261  1.00  0.00    -0.130 S 
ATOM     90  C   UNL A   1      32.451  26.568  25.511  1.00  0.00     0.029 A 
ATOM     91  C   UNL A   1      31.376  26.592  24.614  1.00  0.00     0.038 A 
ATOM     92  C   UNL A   1      33.060  27.795  25.838  1.00  0.00     0.131 A 
ATOM     93  C   UNL A   1      30.770  27.794  24.214  1.00  0.00     0.020 A 
ATOM     94  F   UNL A   1      34.162  27.828  26.600  1.00  0.00    -0.206 F 
ATOM     95  C   UNL A   1      32.407  28.990  25.538  1.00  0.00     0.040 A 
ATOM     96  C   UNL A   1      31.236  28.980  24.787  1.00  0.00     0.005 A 
ENDBRANCH  84  87
ENDBRANCH  80  83
ENDBRANCH  75  78
ENDBRANCH  73  74
ENDBRANCH  72  73
ENDBRANCH   1  72
TORSDOF 16
ENDMDL
MODEL 2
REMARK VINA RESULT:     -12.5      3.512      8.819
REMARK SMILES O=C(NCCCCNC(=O)c1ccsc1NC(=O)c1cc2c(F)cccc2s1)c1ccc(-c2c3nc(c(-c4cc(S(=O)(=O)[O-])ccc4F)c4ccc([nH]4)c(-c4cc(S(=O)(=O)[O-])ccc4F)c4nc(c(-c5cc(S(=O)(=O)[O-])ccc5F)c5ccc2[nH]5)C=C4)C=C3)cc1
REMARK SMILES IDX 5 1 4 2 3 3 1 4 2 5 29 7 30 8 91 9 31 10 90 11 32 12 33 13
REMARK SMILES IDX 34 14 84 15 35 16 89 17 83 18 85 19 36 20 88 21 82 22 81 23
REMARK SMILES IDX 37 25 69 26 49 27 68 28 50 29 53 30 67 31 86 32 51 33 52 34
REMARK SMILES IDX 66 36 87 37 54 38 38 39 39 40 47 41 40 42 46 43 48 44 45 45
REMARK SMILES IDX 41 46 42 47 43 48 44 49 70 50 71 51 79 52 72 53 78 54 80 55
REMARK SMILES IDX 77 56 73 57 74 58 75 59 76 60 55 61 56 62 64 63 57 64 63 65
REMARK SMILES IDX 65 66 62 67 58 68 59 69 60 70 61 71 6 72 7 73 8 74 9 75
REMARK SMILES IDX 10 77 11 78 12 79 15 80 13 81 14 82 16 83 17 84 18 86 19 87
REMARK SMILES IDX 20 88 28 89 21 90 27 91 22 92 26 93 23 94 24 95 25 96
REMARK H PARENT 3 6 85 24 53 35 8 76 16 85
REMARK Flexibility Score: inf
ROOT
ATOM      1  C   UNL A   1      33.697  30.318  27.246  1.00  0.00     0.023 C 
ENDROOT
BRANCH   1   2
ATOM      2  C   UNL A   1      34.155  31.734  27.593  1.00  0.00     0.116 C 
BRANCH   2   3
ATOM      3  N   UNL A   1      34.219  32.025  29.011  1.00  0.00    -0.352 N 
ATOM      4  O   UNL A   1      34.982  32.424  31.051  1.00  0.00    -0.269 OA
ATOM      5  C   UNL A   1      35.201  31.893  29.959  1.00  0.00     0.251 C 
ATOM      6  H   UNL A   1      33.380  32.396  29.369  1.00  0.00     0.163 HD
BRANCH   5   7
ATOM      7  C   UNL A   1      36.436  31.085  29.776  1.00  0.00     0.039 A 
ATOM      8  C   UNL A   1      36.488  29.693  29.808  1.00  0.00     0.014 A 
ATOM      9  C   UNL A   1      37.637  31.801  29.607  1.00  0.00     0.014 A 
ATOM     10  C   UNL A   1      37.709  29.038  29.820  1.00  0.00     0.010 A 
ATOM     11  C   UNL A   1      38.866  31.148  29.581  1.00  0.00     0.010 A 
ATOM     12  C   UNL A   1      38.898  29.767  29.735  1.00  0.00    -0.014 A 
BRANCH  12  13
ATOM     13  C   UNL A   1      40.127  28.990  29.648  1.00  0.00     0.031 A 
ATOM     14  C   UNL A   1      40.785  28.753  30.964  1.00  0.00     0.074 A 
ATOM     15  C   UNL A   1      40.625  28.468  28.513  1.00  0.00     0.049 A 
ATOM     16  N   UNL A   1      41.898  29.245  31.404  1.00  0.00    -0.248 NA
ATOM     17  C   UNL A   1      40.021  27.995  31.964  1.00  0.00     0.031 C 
ATOM     18  C   UNL A   1      39.971  28.338  27.211  1.00  0.00     0.029 A 
ATOM     19  N   UNL A   1      41.822  27.847  28.324  1.00  0.00    -0.354 N 
ATOM     20  C   UNL A   1      42.073  28.701  32.675  1.00  0.00     0.074 A 
ATOM     21  C   UNL A   1      40.820  28.082  33.027  1.00  0.00     0.031 C 
ATOM     22  C   UNL A   1      40.687  27.486  26.441  1.00  0.00     0.029 A 
ATOM     23  C   UNL A   1      41.913  27.133  27.139  1.00  0.00     0.049 A 
ATOM     24  H   UNL A   1      42.561  27.902  28.972  1.00  0.00     0.167 HD
ATOM     25  C   UNL A   1      43.297  28.614  33.268  1.00  0.00     0.034 A 
ATOM     26  C   UNL A   1      42.888  26.251  26.804  1.00  0.00     0.034 A 
ATOM     27  C   UNL A   1      44.268  29.448  32.618  1.00  0.00     0.049 A 
ATOM     28  C   UNL A   1      44.065  26.510  27.666  1.00  0.00     0.074 A 
ATOM     29  C   UNL A   1      44.418  30.806  32.425  1.00  0.00     0.029 A 
ATOM     30  N   UNL A   1      45.126  28.842  31.735  1.00  0.00    -0.354 N 
ATOM     31  N   UNL A   1      44.820  27.568  27.579  1.00  0.00    -0.248 NA
ATOM     32  C   UNL A   1      44.167  25.768  28.913  1.00  0.00     0.031 C 
ATOM     33  C   UNL A   1      45.006  30.933  31.135  1.00  0.00     0.029 A 
ATOM     34  C   UNL A   1      45.220  29.648  30.632  1.00  0.00     0.049 A 
ATOM     35  H   UNL A   1      45.589  27.983  31.870  1.00  0.00     0.167 HD
ATOM     36  C   UNL A   1      45.141  27.872  28.893  1.00  0.00     0.074 A 
ATOM     37  C   UNL A   1      44.812  26.671  29.655  1.00  0.00     0.031 C 
ATOM     38  C   UNL A   1      45.379  29.159  29.280  1.00  0.00     0.034 A 
BRANCH  25  39
ATOM     39  C   UNL A   1      43.689  27.504  34.213  1.00  0.00     0.023 A 
ATOM     40  C   UNL A   1      43.850  26.174  33.780  1.00  0.00     0.031 A 
ATOM     41  C   UNL A   1      44.148  27.788  35.514  1.00  0.00     0.131 A 
ATOM     42  C   UNL A   1      44.407  25.192  34.606  1.00  0.00     0.055 A 
ATOM     43  C   UNL A   1      44.769  26.821  36.318  1.00  0.00     0.041 A 
ATOM     44  F   UNL A   1      44.063  29.028  36.021  1.00  0.00    -0.206 F 
ATOM     45  C   UNL A   1      44.899  25.514  35.866  1.00  0.00     0.022 A 
BRANCH  42  46
ATOM     46  S   UNL A   1      44.521  23.477  34.028  1.00  0.00     0.124 S 
ATOM     47  O   UNL A   1      44.128  23.606  32.630  1.00  0.00    -0.237 OA
ATOM     48  O   UNL A   1      45.931  23.180  34.269  1.00  0.00    -0.237 OA
ATOM     49  O   UNL A   1      43.583  22.765  34.890  1.00  0.00    -0.744 OA
ENDBRANCH  42  46
ENDBRANCH  25  39
BRANCH  26  50
ATOM     50  C   UNL A   1      42.710  24.946  26.127  1.00  0.00     0.023 A 
ATOM     51  C   UNL A   1      41.702  24.065  26.559  1.00  0.00     0.031 A 
ATOM     52  C   UNL A   1      43.713  24.420  25.293  1.00  0.00     0.131 A 
ATOM     53  C   UNL A   1      41.750  22.707  26.218  1.00  0.00     0.055 A 
ATOM     54  C   UNL A   1      43.753  23.065  24.944  1.00  0.00     0.041 A 
ATOM     55  F   UNL A   1      44.721  25.199  24.866  1.00  0.00    -0.206 F 
ATOM     56  C   UNL A   1      42.775  22.198  25.421  1.00  0.00     0.022 A 
BRANCH  53  57
ATOM     57  S   UNL A   1      40.500  21.566  26.871  1.00  0.00     0.124 S 
ATOM     58  O   UNL A   1      40.807  21.549  28.300  1.00  0.00    -0.237 OA
ATOM     59  O   UNL A   1      39.261  22.239  26.502  1.00  0.00    -0.237 OA
ATOM     60  O   UNL A   1      40.782  20.318  26.168  1.00  0.00    -0.744 OA
ENDBRANCH  53  57
ENDBRANCH  26  50
BRANCH  38  61
ATOM     61  C   UNL A   1      45.575  30.210  28.215  1.00  0.00     0.023 A 
ATOM     62  C   UNL A   1      46.892  30.639  27.982  1.00  0.00     0.031 A 
ATOM     63  C   UNL A   1      44.532  30.930  27.604  1.00  0.00     0.131 A 
ATOM     64  C   UNL A   1      47.136  31.772  27.200  1.00  0.00     0.055 A 
ATOM     65  C   UNL A   1      44.785  32.023  26.768  1.00  0.00     0.041 A 
ATOM     66  F   UNL A   1      43.246  30.656  27.862  1.00  0.00    -0.206 F 
ATOM     67  C   UNL A   1      46.093  32.459  26.575  1.00  0.00     0.022 A 
BRANCH  64  68
ATOM     68  S   UNL A   1      48.808  32.457  27.091  1.00  0.00     0.124 S 
ATOM     69  O   UNL A   1      49.183  32.582  28.497  1.00  0.00    -0.237 OA
ATOM     70  O   UNL A   1      49.517  31.421  26.343  1.00  0.00    -0.237 OA
ATOM     71  O   UNL A   1      48.629  33.720  26.381  1.00  0.00    -0.744 OA
ENDBRANCH  64  68
ENDBRANCH  38  61
ENDBRANCH  12  13
ENDBRANCH   5   7
ENDBRANCH   2   3
ENDBRANCH   1   2
BRANCH   1  72
ATOM     72  C   UNL A   1      32.187  30.156  27.085  1.00  0.00     0.023 C 
BRANCH  72  73
ATOM     73  C   UNL A   1      31.692  28.714  27.085  1.00  0.00     0.116 C 
BRANCH  73  74
ATOM     74  N   UNL A   1      32.769  27.745  26.911  1.00  0.00    -0.352 N 
ATOM     75  C   UNL A   1      32.836  26.684  26.033  1.00  0.00     0.254 C 
ATOM     76  H   UNL A   1      33.551  27.863  27.499  1.00  0.00     0.163 HD
ATOM     77  O   UNL A   1      33.711  25.843  26.129  1.00  0.00    -0.269 OA
BRANCH  75  78
ATOM     78  C   UNL A   1      31.789  26.616  25.029  1.00  0.00     0.074 A 
ATOM     79  C   UNL A   1      31.868  27.231  23.724  1.00  0.00     0.028 A 
ATOM     80  C   UNL A   1      30.593  25.932  25.203  1.00  0.00     0.108 A 
ATOM     81  C   UNL A   1      30.658  27.234  23.082  1.00  0.00     0.068 A 
ATOM     82  S   UNL A   1      29.497  26.442  24.015  1.00  0.00    -0.126 S 
BRANCH  80  83
ATOM     83  N   UNL A   1      30.234  25.090  26.253  1.00  0.00    -0.312 N 
ATOM     84  C   UNL A   1      30.515  23.756  26.543  1.00  0.00     0.266 C 
ATOM     85  H   UNL A   1      29.665  25.526  26.928  1.00  0.00     0.171 HD
ATOM     86  O   UNL A   1      29.974  23.254  27.530  1.00  0.00    -0.268 OA
BRANCH  84  87
ATOM     87  C   UNL A   1      31.496  23.034  25.768  1.00  0.00     0.094 A 
ATOM     88  C   UNL A   1      31.535  22.787  24.408  1.00  0.00     0.037 A 
ATOM     89  S   UNL A   1      32.856  22.319  26.525  1.00  0.00    -0.130 S 
ATOM     90  C   UNL A   1      32.225  21.546  24.158  1.00  0.00     0.029 A 
ATOM     91  C   UNL A   1      32.803  21.060  25.336  1.00  0.00     0.038 A 
ATOM     92  C   UNL A   1      32.188  20.688  23.042  1.00  0.00     0.131 A 
ATOM     93  C   UNL A   1      33.141  19.705  25.493  1.00  0.00     0.020 A 
ATOM     94  F   UNL A   1      31.752  21.132  21.854  1.00  0.00    -0.206 F 
ATOM     95  C   UNL A   1      32.416  19.324  23.214  1.00  0.00     0.040 A 
ATOM     96  C   UNL A   1      32.826  18.832  24.449  1.00  0.00     0.005 A 
ENDBRANCH  84  87
ENDBRANCH  80  83
ENDBRANCH  75  78
ENDBRANCH  73  74
ENDBRANCH  72  73
ENDBRANCH   1  72
TORSDOF 16
ENDMDL
MODEL 3
REMARK VINA RESULT:     -12.5      3.610      8.908
REMARK SMILES O=C(NCCCCNC(=O)c1ccsc1NC(=O)c1cc2c(F)cccc2s1)c1ccc(-c2c3nc(c(-c4cc(S(=O)(=O)[O-])ccc4F)c4ccc([nH]4)c(-c4cc(S(=O)(=O)[O-])ccc4F)c4nc(c(-c5cc(S(=O)(=O)[O-])ccc5F)c5ccc2[nH]5)C=C4)C=C3)cc1
REMARK SMILES IDX 5 1 4 2 3 3 1 4 2 5 29 7 30 8 91 9 31 10 90 11 32 12 33 13
REMARK SMILES IDX 34 14 84 15 35 16 89 17 83 18 85 19 36 20 88 21 82 22 81 23
REMARK SMILES IDX 37 25 69 26 49 27 68 28 50 29 53 30 67 31 86 32 51 33 52 34
REMARK SMILES IDX 66 36 87 37 54 38 38 39 39 40 47 41 40 42 46 43 48 44 45 45
REMARK SMILES IDX 41 46 42 47 43 48 44 49 70 50 71 51 79 52 72 53 78 54 80 55
REMARK SMILES IDX 77 56 73 57 74 58 75 59 76 60 55 61 56 62 64 63 57 64 63 65
REMARK SMILES IDX 65 66 62 67 58 68 59 69 60 70 61 71 6 72 7 73 8 74 9 75
REMARK SMILES IDX 10 77 11 78 12 79 15 80 13 81 14 82 16 83 17 84 18 86 19 87
REMARK SMILES IDX 20 88 28 89 21 90 27 91 22 92 26 93 23 94 24 95 25 96
REMARK H PARENT 3 6 85 24 53 35 8 76 16 85
REMARK Flexibility Score: inf
ROOT
ATOM      1  C   UNL A   1      33.264  30.469  27.255  1.00  0.00     0.023 C 
ENDROOT
BRANCH   1   2
ATOM      2  C   UNL A   1      34.152  31.668  27.589  1.00  0.00     0.116 C 
BRANCH   2   3
ATOM      3  N   UNL A   1      34.233  31.994  28.998  1.00  0.00    -0.352 N 
ATOM      4  O   UNL A   1      35.021  32.439  31.020  1.00  0.00    -0.269 OA
ATOM      5  C   UNL A   1      35.225  31.880  29.939  1.00  0.00     0.251 C 
ATOM      6  H   UNL A   1      33.400  32.378  29.357  1.00  0.00     0.163 HD
BRANCH   5   7
ATOM      7  C   UNL A   1      36.454  31.061  29.763  1.00  0.00     0.039 A 
ATOM      8  C   UNL A   1      36.471  29.679  29.592  1.00  0.00     0.014 A 
ATOM      9  C   UNL A   1      37.682  31.748  29.824  1.00  0.00     0.014 A 
ATOM     10  C   UNL A   1      37.668  28.983  29.629  1.00  0.00     0.010 A 
ATOM     11  C   UNL A   1      38.892  31.059  29.825  1.00  0.00     0.010 A 
ATOM     12  C   UNL A   1      38.876  29.670  29.774  1.00  0.00    -0.014 A 
BRANCH  12  13
ATOM     13  C   UNL A   1      40.089  28.868  29.696  1.00  0.00     0.031 A 
ATOM     14  C   UNL A   1      40.717  28.594  31.019  1.00  0.00     0.074 A 
ATOM     15  C   UNL A   1      40.597  28.355  28.561  1.00  0.00     0.049 A 
ATOM     16  N   UNL A   1      41.831  29.054  31.488  1.00  0.00    -0.248 NA
ATOM     17  C   UNL A   1      39.917  27.835  31.991  1.00  0.00     0.031 C 
ATOM     18  C   UNL A   1      39.965  28.262  27.245  1.00  0.00     0.029 A 
ATOM     19  N   UNL A   1      41.784  27.711  28.383  1.00  0.00    -0.354 N 
ATOM     20  C   UNL A   1      41.970  28.484  32.753  1.00  0.00     0.074 A 
ATOM     21  C   UNL A   1      40.698  27.887  33.070  1.00  0.00     0.031 C 
ATOM     22  C   UNL A   1      40.677  27.408  26.473  1.00  0.00     0.029 A 
ATOM     23  C   UNL A   1      41.882  27.016  27.188  1.00  0.00     0.049 A 
ATOM     24  H   UNL A   1      42.512  27.739  29.046  1.00  0.00     0.167 HD
ATOM     25  C   UNL A   1      43.181  28.360  33.367  1.00  0.00     0.034 A 
ATOM     26  C   UNL A   1      42.843  26.119  26.856  1.00  0.00     0.034 A 
ATOM     27  C   UNL A   1      44.181  29.184  32.750  1.00  0.00     0.049 A 
ATOM     28  C   UNL A   1      44.009  26.337  27.744  1.00  0.00     0.074 A 
ATOM     29  C   UNL A   1      44.364  30.541  32.584  1.00  0.00     0.029 A 
ATOM     30  N   UNL A   1      45.043  28.574  31.873  1.00  0.00    -0.354 N 
ATOM     31  N   UNL A   1      44.789  27.379  27.690  1.00  0.00    -0.248 NA
ATOM     32  C   UNL A   1      44.071  25.571  28.979  1.00  0.00     0.031 C 
ATOM     33  C   UNL A   1      44.979  30.677  31.307  1.00  0.00     0.029 A 
ATOM     34  C   UNL A   1      45.176  29.396  30.786  1.00  0.00     0.049 A 
ATOM     35  H   UNL A   1      45.484  27.703  32.001  1.00  0.00     0.167 HD
ATOM     36  C   UNL A   1      45.091  27.653  29.014  1.00  0.00     0.074 A 
ATOM     37  C   UNL A   1      44.722  26.447  29.749  1.00  0.00     0.031 C 
ATOM     38  C   UNL A   1      45.349  28.928  29.428  1.00  0.00     0.034 A 
BRANCH  25  39
ATOM     39  C   UNL A   1      43.530  27.225  34.299  1.00  0.00     0.023 A 
ATOM     40  C   UNL A   1      43.935  25.964  33.824  1.00  0.00     0.031 A 
ATOM     41  C   UNL A   1      43.703  27.449  35.680  1.00  0.00     0.131 A 
ATOM     42  C   UNL A   1      44.451  24.985  34.680  1.00  0.00     0.055 A 
ATOM     43  C   UNL A   1      44.284  26.494  36.526  1.00  0.00     0.041 A 
ATOM     44  F   UNL A   1      43.371  28.624  36.236  1.00  0.00    -0.206 F 
ATOM     45  C   UNL A   1      44.659  25.252  36.028  1.00  0.00     0.022 A 
BRANCH  42  46
ATOM     46  S   UNL A   1      44.885  23.348  34.030  1.00  0.00     0.124 S 
ATOM     47  O   UNL A   1      46.337  23.345  34.174  1.00  0.00    -0.237 OA
ATOM     48  O   UNL A   1      44.154  22.468  34.938  1.00  0.00    -0.237 OA
ATOM     49  O   UNL A   1      44.381  23.381  32.661  1.00  0.00    -0.744 OA
ENDBRANCH  42  46
ENDBRANCH  25  39
BRANCH  26  50
ATOM     50  C   UNL A   1      42.650  24.829  26.152  1.00  0.00     0.023 A 
ATOM     51  C   UNL A   1      41.659  23.934  26.592  1.00  0.00     0.031 A 
ATOM     52  C   UNL A   1      43.631  24.329  25.277  1.00  0.00     0.131 A 
ATOM     53  C   UNL A   1      41.701  22.585  26.217  1.00  0.00     0.055 A 
ATOM     54  C   UNL A   1      43.665  22.983  24.894  1.00  0.00     0.041 A 
ATOM     55  F   UNL A   1      44.622  25.121  24.840  1.00  0.00    -0.206 F 
ATOM     56  C   UNL A   1      42.705  22.100  25.378  1.00  0.00     0.022 A 
BRANCH  53  57
ATOM     57  S   UNL A   1      40.475  21.424  26.878  1.00  0.00     0.124 S 
ATOM     58  O   UNL A   1      40.778  21.429  28.308  1.00  0.00    -0.237 OA
ATOM     59  O   UNL A   1      39.223  22.064  26.497  1.00  0.00    -0.237 OA
ATOM     60  O   UNL A   1      40.788  20.174  26.189  1.00  0.00    -0.744 OA
ENDBRANCH  53  57
ENDBRANCH  26  50
BRANCH  38  61
ATOM     61  C   UNL A   1      45.589  29.992  28.386  1.00  0.00     0.023 A 
ATOM     62  C   UNL A   1      46.921  30.378  28.167  1.00  0.00     0.031 A 
ATOM     63  C   UNL A   1      44.575  30.763  27.786  1.00  0.00     0.131 A 
ATOM     64  C   UNL A   1      47.210  31.517  27.409  1.00  0.00     0.055 A 
ATOM     65  C   UNL A   1      44.872  31.862  26.974  1.00  0.00     0.041 A 
ATOM     66  F   UNL A   1      43.279  30.530  28.034  1.00  0.00    -0.206 F 
ATOM     67  C   UNL A   1      46.195  32.254  26.795  1.00  0.00     0.022 A 
BRANCH  64  68
ATOM     68  S   UNL A   1      48.906  32.143  27.322  1.00  0.00     0.124 S 
ATOM     69  O   UNL A   1      49.572  31.123  26.516  1.00  0.00    -0.237 OA
ATOM     70  O   UNL A   1      48.722  33.437  26.668  1.00  0.00    -0.237 OA
ATOM     71  O   UNL A   1      49.332  32.210  28.717  1.00  0.00    -0.744 OA
ENDBRANCH  64  68
ENDBRANCH  38  61
ENDBRANCH  12  13
ENDBRANCH   5   7
ENDBRANCH   2   3
ENDBRANCH   1   2
BRANCH   1  72
ATOM     72  C   UNL A   1      34.013  29.151  27.067  1.00  0.00     0.023 C 
BRANCH  72  73
ATOM     73  C   UNL A   1      33.532  28.302  25.895  1.00  0.00     0.116 C 
BRANCH  73  74
ATOM     74  N   UNL A   1      34.142  28.689  24.627  1.00  0.00    -0.352 N 
ATOM     75  C   UNL A   1      33.565  28.734  23.376  1.00  0.00     0.254 C 
ATOM     76  H   UNL A   1      35.090  28.951  24.670  1.00  0.00     0.163 HD
ATOM     77  O   UNL A   1      34.242  28.890  22.376  1.00  0.00    -0.269 OA
BRANCH  75  78
ATOM     78  C   UNL A   1      32.126  28.547  23.326  1.00  0.00     0.074 A 
ATOM     79  C   UNL A   1      31.174  29.329  24.081  1.00  0.00     0.028 A 
ATOM     80  C   UNL A   1      31.495  27.601  22.528  1.00  0.00     0.108 A 
ATOM     81  C   UNL A   1      29.919  28.783  24.049  1.00  0.00     0.068 A 
ATOM     82  S   UNL A   1      29.900  27.412  23.067  1.00  0.00    -0.126 S 
BRANCH  80  83
ATOM     83  N   UNL A   1      32.067  26.788  21.552  1.00  0.00    -0.312 N 
ATOM     84  C   UNL A   1      32.842  25.630  21.612  1.00  0.00     0.266 C 
ATOM     85  H   UNL A   1      31.888  27.092  20.633  1.00  0.00     0.171 HD
ATOM     86  O   UNL A   1      33.279  25.174  20.554  1.00  0.00    -0.268 OA
BRANCH  84  87
ATOM     87  C   UNL A   1      33.024  24.940  22.867  1.00  0.00     0.094 A 
ATOM     88  C   UNL A   1      34.019  25.086  23.816  1.00  0.00     0.037 A 
ATOM     89  S   UNL A   1      31.919  23.730  23.369  1.00  0.00    -0.130 S 
ATOM     90  C   UNL A   1      34.219  23.837  24.508  1.00  0.00     0.029 A 
ATOM     91  C   UNL A   1      33.233  22.912  24.145  1.00  0.00     0.038 A 
ATOM     92  C   UNL A   1      35.324  23.366  25.243  1.00  0.00     0.131 A 
ATOM     93  C   UNL A   1      33.420  21.528  24.304  1.00  0.00     0.020 A 
ATOM     94  F   UNL A   1      36.243  24.219  25.716  1.00  0.00    -0.206 F 
ATOM     95  C   UNL A   1      35.573  21.996  25.310  1.00  0.00     0.040 A 
ATOM     96  C   UNL A   1      34.656  21.090  24.785  1.00  0.00     0.005 A 
ENDBRANCH  84  87
ENDBRANCH  80  83
ENDBRANCH  75  78
ENDBRANCH  73  74
ENDBRANCH  72  73
ENDBRANCH   1  72
TORSDOF 16
ENDMDL
