MODEL 1
REMARK VINA RESULT:     -12.0      0.000      0.000
REMARK SMILES COc1cc(C(=O)N[C@H]2CCCC[C@H]2C(=O)NCCCCNC(=O)c2ccc(-c3c4nc(c(-c5cc(S(=O)(=O)[O-])ccc5F)c5ccc([nH]5)c(-c5cc(S(=O)(=O)[O-])ccc5F)c5nc(c(-c6cc(S(=O)(=O)[O-])ccc6F)c6ccc3[nH]6)C=C5)C=C4)cc2)cc(Cl)c1OC
REMARK SMILES IDX 19 1 18 2 17 3 15 4 16 5 14 7 9 8 10 9 11 10 13 11 12 12
REMARK SMILES IDX 8 13 6 14 7 15 5 17 3 18 4 19 91 20 89 21 88 22 90 23 2 24
REMARK SMILES IDX 1 25 92 26 93 27 20 28 21 29 22 30 23 31 24 33 25 34 26 35
REMARK SMILES IDX 87 36 27 37 86 38 28 39 29 40 30 41 80 42 31 43 85 44 79 45
REMARK SMILES IDX 81 46 32 47 84 48 78 49 77 50 33 52 65 53 45 54 64 55 46 56
REMARK SMILES IDX 49 57 63 58 82 59 47 60 48 61 62 63 83 64 50 65 34 66 35 67
REMARK SMILES IDX 43 68 36 69 42 70 44 71 41 72 37 73 38 74 39 75 40 76 66 77
REMARK SMILES IDX 67 78 75 79 68 80 74 81 76 82 73 83 69 84 70 85 71 86 72 87
REMARK SMILES IDX 51 88 52 89 60 90 53 91 59 92 61 93 58 94 54 95 55 96 56 97
REMARK SMILES IDX 57 98
REMARK H PARENT 17 6 8 16 22 32 81 51 49 62
REMARK Flexibility Score: inf
ROOT
ATOM      1  C   UNL A   1      32.201  27.205  26.563  1.00  0.00     0.023 C 
ENDROOT
BRANCH   1   2
ATOM      2  C   UNL A   1      30.954  26.347  26.757  1.00  0.00     0.116 C 
BRANCH   2   3
ATOM      3  N   UNL A   1      30.673  25.549  25.581  1.00  0.00    -0.356 N 
ATOM      4  C   UNL A   1      30.394  25.879  24.297  1.00  0.00     0.225 C 
ATOM      5  O   UNL A   1      30.043  24.956  23.554  1.00  0.00    -0.275 OA
ATOM      6  H   UNL A   1      30.688  24.579  25.747  1.00  0.00     0.163 HD
BRANCH   4   7
ATOM      7  C   UNL A   1      30.480  27.294  23.725  1.00  0.00     0.101 C 
ATOM      8  C   UNL A   1      31.851  27.673  23.115  1.00  0.00     0.094 C 
ATOM      9  C   UNL A   1      31.882  29.185  22.828  1.00  0.00     0.026 C 
ATOM     10  C   UNL A   1      30.691  29.630  21.976  1.00  0.00     0.002 C 
ATOM     11  C   UNL A   1      29.263  27.790  22.940  1.00  0.00     0.015 C 
ATOM     12  C   UNL A   1      29.367  29.287  22.651  1.00  0.00     0.001 C 
BRANCH   8  13
ATOM     13  N   UNL A   1      32.204  26.957  21.895  1.00  0.00    -0.349 N 
ATOM     14  C   UNL A   1      32.777  25.741  21.619  1.00  0.00     0.251 C 
ATOM     15  O   UNL A   1      32.942  25.491  20.421  1.00  0.00    -0.269 OA
ATOM     16  H   UNL A   1      31.981  27.463  21.081  1.00  0.00     0.164 HD
BRANCH  14  17
ATOM     17  C   UNL A   1      33.267  24.743  22.621  1.00  0.00     0.045 A 
ATOM     18  C   UNL A   1      33.194  22.398  23.329  1.00  0.00     0.163 A 
ATOM     19  C   UNL A   1      32.749  23.442  22.506  1.00  0.00     0.064 A 
ATOM     20  C   UNL A   1      34.164  22.636  24.327  1.00  0.00     0.179 A 
ATOM     21  C   UNL A   1      34.646  23.942  24.476  1.00  0.00     0.087 A 
ATOM     22  C   UNL A   1      34.195  24.975  23.630  1.00  0.00     0.038 A 
ATOM     23  Cl  UNL A   1      35.779  24.452  25.684  1.00  0.00    -0.080 Cl
BRANCH  18  24
ATOM     24  O   UNL A   1      32.718  21.110  23.234  1.00  0.00    -0.493 OA
ATOM     25  C   UNL A   1      31.902  20.808  22.107  1.00  0.00     0.278 C 
ENDBRANCH  18  24
BRANCH  20  26
ATOM     26  O   UNL A   1      34.476  21.527  25.070  1.00  0.00    -0.491 OA
ATOM     27  C   UNL A   1      35.737  20.901  24.918  1.00  0.00     0.278 C 
ENDBRANCH  20  26
ENDBRANCH  14  17
ENDBRANCH   8  13
ENDBRANCH   4   7
ENDBRANCH   2   3
ENDBRANCH   1   2
BRANCH   1  28
ATOM     28  C   UNL A   1      32.089  28.637  27.068  1.00  0.00     0.023 C 
BRANCH  28  29
ATOM     29  C   UNL A   1      33.063  29.618  26.433  1.00  0.00     0.116 C 
BRANCH  29  30
ATOM     30  N   UNL A   1      32.905  30.996  26.879  1.00  0.00    -0.352 N 
ATOM     31  C   UNL A   1      33.809  31.754  27.593  1.00  0.00     0.251 C 
ATOM     32  H   UNL A   1      32.057  31.437  26.643  1.00  0.00     0.163 HD
ATOM     33  O   UNL A   1      33.536  32.889  27.955  1.00  0.00    -0.269 OA
BRANCH  31  34
ATOM     34  C   UNL A   1      35.096  31.126  27.958  1.00  0.00     0.039 A 
ATOM     35  C   UNL A   1      36.249  31.913  27.983  1.00  0.00     0.014 A 
ATOM     36  C   UNL A   1      35.121  29.804  28.408  1.00  0.00     0.014 A 
ATOM     37  C   UNL A   1      37.417  31.395  28.545  1.00  0.00     0.010 A 
ATOM     38  C   UNL A   1      36.257  29.325  29.044  1.00  0.00     0.010 A 
ATOM     39  C   UNL A   1      37.416  30.116  29.122  1.00  0.00    -0.014 A 
BRANCH  39  40
ATOM     40  C   UNL A   1      38.616  29.553  29.791  1.00  0.00     0.031 A 
ATOM     41  C   UNL A   1      39.008  30.075  31.146  1.00  0.00     0.074 A 
ATOM     42  C   UNL A   1      39.400  28.667  29.147  1.00  0.00     0.049 A 
ATOM     43  N   UNL A   1      40.103  29.875  31.831  1.00  0.00    -0.248 NA
ATOM     44  C   UNL A   1      38.054  30.993  31.789  1.00  0.00     0.031 C 
ATOM     45  C   UNL A   1      39.151  28.124  27.810  1.00  0.00     0.029 A 
ATOM     46  N   UNL A   1      40.581  28.078  29.527  1.00  0.00    -0.354 N 
ATOM     47  C   UNL A   1      39.990  30.676  32.962  1.00  0.00     0.074 A 
ATOM     48  C   UNL A   1      38.748  31.408  32.837  1.00  0.00     0.031 C 
ATOM     49  C   UNL A   1      40.137  27.269  27.491  1.00  0.00     0.029 A 
ATOM     50  C   UNL A   1      41.110  27.235  28.577  1.00  0.00     0.049 A 
ATOM     51  H   UNL A   1      41.009  28.245  30.397  1.00  0.00     0.167 HD
ATOM     52  C   UNL A   1      40.833  30.772  34.021  1.00  0.00     0.034 A 
ATOM     53  C   UNL A   1      42.257  26.527  28.581  1.00  0.00     0.034 A 
ATOM     54  C   UNL A   1      42.041  29.998  34.147  1.00  0.00     0.049 A 
ATOM     55  C   UNL A   1      43.161  26.617  29.785  1.00  0.00     0.074 A 
ATOM     56  C   UNL A   1      42.943  29.966  35.196  1.00  0.00     0.029 A 
ATOM     57  N   UNL A   1      42.514  29.106  33.190  1.00  0.00    -0.354 N 
ATOM     58  N   UNL A   1      43.028  27.357  30.862  1.00  0.00    -0.248 NA
ATOM     59  C   UNL A   1      44.361  25.771  29.778  1.00  0.00     0.031 C 
ATOM     60  C   UNL A   1      43.980  29.088  34.856  1.00  0.00     0.029 A 
ATOM     61  C   UNL A   1      43.696  28.527  33.621  1.00  0.00     0.049 A 
ATOM     62  H   UNL A   1      42.071  28.916  32.332  1.00  0.00     0.167 HD
ATOM     63  C   UNL A   1      44.113  27.040  31.675  1.00  0.00     0.074 A 
ATOM     64  C   UNL A   1      44.883  26.037  30.966  1.00  0.00     0.031 C 
ATOM     65  C   UNL A   1      44.443  27.527  32.897  1.00  0.00     0.034 A 
BRANCH  52  66
ATOM     66  C   UNL A   1      40.472  31.766  35.098  1.00  0.00     0.023 A 
ATOM     67  C   UNL A   1      39.571  31.443  36.127  1.00  0.00     0.031 A 
ATOM     68  C   UNL A   1      40.985  33.076  35.060  1.00  0.00     0.131 A 
ATOM     69  C   UNL A   1      39.131  32.439  37.011  1.00  0.00     0.055 A 
ATOM     70  C   UNL A   1      40.613  34.037  36.002  1.00  0.00     0.041 A 
ATOM     71  F   UNL A   1      41.835  33.450  34.091  1.00  0.00    -0.206 F 
ATOM     72  C   UNL A   1      39.665  33.727  36.973  1.00  0.00     0.022 A 
BRANCH  69  73
ATOM     73  S   UNL A   1      37.727  32.066  38.098  1.00  0.00     0.124 S 
ATOM     74  O   UNL A   1      37.415  30.692  37.712  1.00  0.00    -0.237 OA
ATOM     75  O   UNL A   1      38.302  32.241  39.427  1.00  0.00    -0.237 OA
ATOM     76  O   UNL A   1      36.725  33.058  37.715  1.00  0.00    -0.744 OA
ENDBRANCH  69  73
ENDBRANCH  52  66
BRANCH  53  77
ATOM     77  C   UNL A   1      42.625  25.673  27.417  1.00  0.00     0.023 A 
ATOM     78  C   UNL A   1      42.199  24.337  27.342  1.00  0.00     0.031 A 
ATOM     79  C   UNL A   1      43.438  26.166  26.382  1.00  0.00     0.131 A 
ATOM     80  C   UNL A   1      42.624  23.526  26.279  1.00  0.00     0.055 A 
ATOM     81  C   UNL A   1      43.821  25.367  25.303  1.00  0.00     0.041 A 
ATOM     82  F   UNL A   1      43.863  27.440  26.400  1.00  0.00    -0.206 F 
ATOM     83  C   UNL A   1      43.423  24.034  25.254  1.00  0.00     0.022 A 
BRANCH  80  84
ATOM     84  S   UNL A   1      42.173  21.768  26.296  1.00  0.00     0.124 S 
ATOM     85  O   UNL A   1      43.100  21.215  25.315  1.00  0.00    -0.237 OA
ATOM     86  O   UNL A   1      42.421  21.405  27.687  1.00  0.00    -0.237 OA
ATOM     87  O   UNL A   1      40.768  21.773  25.895  1.00  0.00    -0.744 OA
ENDBRANCH  80  84
ENDBRANCH  53  77
BRANCH  65  88
ATOM     88  C   UNL A   1      45.657  26.935  33.563  1.00  0.00     0.023 A 
ATOM     89  C   UNL A   1      45.574  25.780  34.359  1.00  0.00     0.031 A 
ATOM     90  C   UNL A   1      46.914  27.542  33.397  1.00  0.00     0.131 A 
ATOM     91  C   UNL A   1      46.724  25.292  34.998  1.00  0.00     0.055 A 
ATOM     92  C   UNL A   1      48.062  27.025  33.995  1.00  0.00     0.041 A 
ATOM     93  F   UNL A   1      47.044  28.648  32.646  1.00  0.00    -0.206 F 
ATOM     94  C   UNL A   1      47.969  25.899  34.809  1.00  0.00     0.022 A 
BRANCH  91  95
ATOM     95  S   UNL A   1      46.560  23.891  36.137  1.00  0.00     0.124 S 
ATOM     96  O   UNL A   1      45.288  23.309  35.724  1.00  0.00    -0.237 OA
ATOM     97  O   UNL A   1      47.750  23.103  35.835  1.00  0.00    -0.237 OA
ATOM     98  O   UNL A   1      46.554  24.521  37.457  1.00  0.00    -0.744 OA
ENDBRANCH  91  95
ENDBRANCH  65  88
ENDBRANCH  39  40
ENDBRANCH  31  34
ENDBRANCH  29  30
ENDBRANCH  28  29
ENDBRANCH   1  28
TORSDOF 18
ENDMDL
MODEL 2
REMARK VINA RESULT:     -11.7      1.777      7.593
REMARK SMILES COc1cc(C(=O)N[C@H]2CCCC[C@H]2C(=O)NCCCCNC(=O)c2ccc(-c3c4nc(c(-c5cc(S(=O)(=O)[O-])ccc5F)c5ccc([nH]5)c(-c5cc(S(=O)(=O)[O-])ccc5F)c5nc(c(-c6cc(S(=O)(=O)[O-])ccc6F)c6ccc3[nH]6)C=C5)C=C4)cc2)cc(Cl)c1OC
REMARK SMILES IDX 19 1 18 2 17 3 15 4 16 5 14 7 9 8 10 9 11 10 13 11 12 12
REMARK SMILES IDX 8 13 6 14 7 15 5 17 3 18 4 19 91 20 89 21 88 22 90 23 2 24
REMARK SMILES IDX 1 25 92 26 93 27 20 28 21 29 22 30 23 31 24 33 25 34 26 35
REMARK SMILES IDX 87 36 27 37 86 38 28 39 29 40 30 41 80 42 31 43 85 44 79 45
REMARK SMILES IDX 81 46 32 47 84 48 78 49 77 50 33 52 65 53 45 54 64 55 46 56
REMARK SMILES IDX 49 57 63 58 82 59 47 60 48 61 62 63 83 64 50 65 34 66 35 67
REMARK SMILES IDX 43 68 36 69 42 70 44 71 41 72 37 73 38 74 39 75 40 76 66 77
REMARK SMILES IDX 67 78 75 79 68 80 74 81 76 82 73 83 69 84 70 85 71 86 72 87
REMARK SMILES IDX 51 88 52 89 60 90 53 91 59 92 61 93 58 94 54 95 55 96 56 97
REMARK SMILES IDX 57 98
REMARK H PARENT 17 6 8 16 22 32 81 51 49 62
REMARK Flexibility Score: inf
ROOT
ATOM      1  C   UNL A   1      32.199  26.865  26.414  1.00  0.00     0.023 C 
ENDROOT
BRANCH   1   2
ATOM      2  C   UNL A   1      31.030  25.904  26.610  1.00  0.00     0.116 C 
BRANCH   2   3
ATOM      3  N   UNL A   1      30.713  25.201  25.384  1.00  0.00    -0.356 N 
ATOM      4  C   UNL A   1      30.480  25.627  24.119  1.00  0.00     0.225 C 
ATOM      5  O   UNL A   1      30.077  24.778  23.316  1.00  0.00    -0.275 OA
ATOM      6  H   UNL A   1      30.655  24.224  25.491  1.00  0.00     0.163 HD
BRANCH   4   7
ATOM      7  C   UNL A   1      30.678  27.064  23.636  1.00  0.00     0.101 C 
ATOM      8  C   UNL A   1      32.074  27.370  23.043  1.00  0.00     0.094 C 
ATOM      9  C   UNL A   1      32.224  28.890  22.850  1.00  0.00     0.026 C 
ATOM     10  C   UNL A   1      31.072  29.481  22.035  1.00  0.00     0.002 C 
ATOM     11  C   UNL A   1      29.503  27.702  22.891  1.00  0.00     0.015 C 
ATOM     12  C   UNL A   1      29.725  29.201  22.695  1.00  0.00     0.001 C 
BRANCH   8  13
ATOM     13  N   UNL A   1      32.368  26.706  21.779  1.00  0.00    -0.349 N 
ATOM     14  C   UNL A   1      32.825  25.462  21.423  1.00  0.00     0.251 C 
ATOM     15  O   UNL A   1      32.976  25.278  20.212  1.00  0.00    -0.269 OA
ATOM     16  H   UNL A   1      32.201  27.284  20.999  1.00  0.00     0.164 HD
BRANCH  14  17
ATOM     17  C   UNL A   1      33.210  24.358  22.357  1.00  0.00     0.045 A 
ATOM     18  C   UNL A   1      34.585  23.744  24.291  1.00  0.00     0.163 A 
ATOM     19  C   UNL A   1      34.200  24.665  23.306  1.00  0.00     0.064 A 
ATOM     20  C   UNL A   1      34.003  22.459  24.337  1.00  0.00     0.179 A 
ATOM     21  C   UNL A   1      33.052  22.134  23.363  1.00  0.00     0.087 A 
ATOM     22  C   UNL A   1      32.669  23.078  22.389  1.00  0.00     0.038 A 
ATOM     23  Cl  UNL A   1      32.279  20.591  23.204  1.00  0.00    -0.080 Cl
BRANCH  18  24
ATOM     24  O   UNL A   1      35.540  24.018  25.243  1.00  0.00    -0.493 OA
ATOM     25  C   UNL A   1      36.894  23.750  24.892  1.00  0.00     0.278 C 
ENDBRANCH  18  24
BRANCH  20  26
ATOM     26  O   UNL A   1      34.502  21.662  25.335  1.00  0.00    -0.491 OA
ATOM     27  C   UNL A   1      35.241  20.497  25.012  1.00  0.00     0.278 C 
ENDBRANCH  20  26
ENDBRANCH  14  17
ENDBRANCH   8  13
ENDBRANCH   4   7
ENDBRANCH   2   3
ENDBRANCH   1   2
BRANCH   1  28
ATOM     28  C   UNL A   1      31.981  28.271  26.957  1.00  0.00     0.023 C 
BRANCH  28  29
ATOM     29  C   UNL A   1      32.908  29.331  26.380  1.00  0.00     0.116 C 
BRANCH  29  30
ATOM     30  N   UNL A   1      32.519  30.701  26.686  1.00  0.00    -0.352 N 
ATOM     31  C   UNL A   1      33.270  31.661  27.331  1.00  0.00     0.251 C 
ATOM     32  H   UNL A   1      31.618  30.974  26.398  1.00  0.00     0.163 HD
ATOM     33  O   UNL A   1      32.809  32.765  27.577  1.00  0.00    -0.269 OA
BRANCH  31  34
ATOM     34  C   UNL A   1      34.631  31.288  27.771  1.00  0.00     0.039 A 
ATOM     35  C   UNL A   1      35.618  32.274  27.827  1.00  0.00     0.014 A 
ATOM     36  C   UNL A   1      34.876  30.001  28.257  1.00  0.00     0.014 A 
ATOM     37  C   UNL A   1      36.832  31.990  28.454  1.00  0.00     0.010 A 
ATOM     38  C   UNL A   1      36.047  29.752  28.956  1.00  0.00     0.010 A 
ATOM     39  C   UNL A   1      37.037  30.744  29.065  1.00  0.00    -0.014 A 
BRANCH  39  40
ATOM     40  C   UNL A   1      38.286  30.425  29.802  1.00  0.00     0.031 A 
ATOM     41  C   UNL A   1      39.257  29.446  29.203  1.00  0.00     0.074 A 
ATOM     42  C   UNL A   1      38.492  30.925  31.037  1.00  0.00     0.049 A 
ATOM     43  N   UNL A   1      40.306  28.879  29.740  1.00  0.00    -0.248 NA
ATOM     44  C   UNL A   1      38.971  29.007  27.828  1.00  0.00     0.031 C 
ATOM     45  C   UNL A   1      37.598  31.844  31.743  1.00  0.00     0.029 A 
ATOM     46  N   UNL A   1      39.516  30.712  31.926  1.00  0.00    -0.354 N 
ATOM     47  C   UNL A   1      40.778  27.984  28.786  1.00  0.00     0.074 A 
ATOM     48  C   UNL A   1      39.864  28.043  27.665  1.00  0.00     0.031 C 
ATOM     49  C   UNL A   1      38.122  32.131  32.946  1.00  0.00     0.029 A 
ATOM     50  C   UNL A   1      39.363  31.385  33.117  1.00  0.00     0.049 A 
ATOM     51  H   UNL A   1      40.287  30.133  31.730  1.00  0.00     0.167 HD
ATOM     52  C   UNL A   1      41.886  27.203  28.830  1.00  0.00     0.034 A 
ATOM     53  C   UNL A   1      40.134  31.386  34.223  1.00  0.00     0.034 A 
ATOM     54  C   UNL A   1      42.808  27.196  29.937  1.00  0.00     0.049 A 
ATOM     55  C   UNL A   1      41.384  30.542  34.237  1.00  0.00     0.074 A 
ATOM     56  C   UNL A   1      43.993  26.494  30.072  1.00  0.00     0.029 A 
ATOM     57  N   UNL A   1      42.652  27.938  31.103  1.00  0.00    -0.354 N 
ATOM     58  N   UNL A   1      41.835  29.721  33.316  1.00  0.00    -0.248 NA
ATOM     59  C   UNL A   1      42.232  30.633  35.432  1.00  0.00     0.031 C 
ATOM     60  C   UNL A   1      44.531  26.779  31.333  1.00  0.00     0.029 A 
ATOM     61  C   UNL A   1      43.713  27.705  31.962  1.00  0.00     0.049 A 
ATOM     62  H   UNL A   1      41.897  28.542  31.288  1.00  0.00     0.167 HD
ATOM     63  C   UNL A   1      43.037  29.222  33.810  1.00  0.00     0.074 A 
ATOM     64  C   UNL A   1      43.242  29.841  35.104  1.00  0.00     0.031 C 
ATOM     65  C   UNL A   1      43.897  28.337  33.246  1.00  0.00     0.034 A 
BRANCH  52  66
ATOM     66  C   UNL A   1      42.130  26.289  27.655  1.00  0.00     0.023 A 
ATOM     67  C   UNL A   1      41.660  24.964  27.642  1.00  0.00     0.031 A 
ATOM     68  C   UNL A   1      42.899  26.724  26.560  1.00  0.00     0.131 A 
ATOM     69  C   UNL A   1      42.046  24.093  26.613  1.00  0.00     0.055 A 
ATOM     70  C   UNL A   1      43.201  25.876  25.492  1.00  0.00     0.041 A 
ATOM     71  F   UNL A   1      43.392  27.971  26.524  1.00  0.00    -0.206 F 
ATOM     72  C   UNL A   1      42.792  24.546  25.524  1.00  0.00     0.022 A 
BRANCH  69  73
ATOM     73  S   UNL A   1      41.702  22.323  26.807  1.00  0.00     0.124 S 
ATOM     74  O   UNL A   1      42.103  21.802  25.503  1.00  0.00    -0.237 OA
ATOM     75  O   UNL A   1      42.554  21.957  27.932  1.00  0.00    -0.237 OA
ATOM     76  O   UNL A   1      40.265  22.281  27.073  1.00  0.00    -0.744 OA
ENDBRANCH  69  73
ENDBRANCH  52  66
BRANCH  53  77
ATOM     77  C   UNL A   1      39.757  32.205  35.410  1.00  0.00     0.023 A 
ATOM     78  C   UNL A   1      38.934  31.675  36.416  1.00  0.00     0.031 A 
ATOM     79  C   UNL A   1      40.182  33.538  35.537  1.00  0.00     0.131 A 
ATOM     80  C   UNL A   1      38.523  32.488  37.483  1.00  0.00     0.055 A 
ATOM     81  C   UNL A   1      39.807  34.329  36.624  1.00  0.00     0.041 A 
ATOM     82  F   UNL A   1      40.980  34.088  34.607  1.00  0.00    -0.206 F 
ATOM     83  C   UNL A   1      38.962  33.808  37.599  1.00  0.00     0.022 A 
BRANCH  80  84
ATOM     84  S   UNL A   1      37.341  31.813  38.683  1.00  0.00     0.124 S 
ATOM     85  O   UNL A   1      37.094  30.482  38.141  1.00  0.00    -0.237 OA
ATOM     86  O   UNL A   1      38.107  31.867  39.924  1.00  0.00    -0.237 OA
ATOM     87  O   UNL A   1      36.213  32.738  38.608  1.00  0.00    -0.744 OA
ENDBRANCH  80  84
ENDBRANCH  53  77
BRANCH  65  88
ATOM     88  C   UNL A   1      45.162  28.037  34.004  1.00  0.00     0.023 A 
ATOM     89  C   UNL A   1      46.331  28.796  33.823  1.00  0.00     0.031 A 
ATOM     90  C   UNL A   1      45.194  26.971  34.921  1.00  0.00     0.131 A 
ATOM     91  C   UNL A   1      47.500  28.449  34.518  1.00  0.00     0.055 A 
ATOM     92  C   UNL A   1      46.345  26.662  35.644  1.00  0.00     0.041 A 
ATOM     93  F   UNL A   1      44.103  26.217  35.128  1.00  0.00    -0.206 F 
ATOM     94  C   UNL A   1      47.510  27.396  35.437  1.00  0.00     0.022 A 
BRANCH  91  95
ATOM     95  S   UNL A   1      49.030  29.351  34.152  1.00  0.00     0.124 S 
ATOM     96  O   UNL A   1      48.567  30.372  33.219  1.00  0.00    -0.237 OA
ATOM     97  O   UNL A   1      49.433  29.827  35.471  1.00  0.00    -0.237 OA
ATOM     98  O   UNL A   1      49.900  28.329  33.572  1.00  0.00    -0.744 OA
ENDBRANCH  91  95
ENDBRANCH  65  88
ENDBRANCH  39  40
ENDBRANCH  31  34
ENDBRANCH  29  30
ENDBRANCH  28  29
ENDBRANCH   1  28
TORSDOF 18
ENDMDL
MODEL 3
REMARK VINA RESULT:     -11.6      4.925      7.040
REMARK SMILES COc1cc(C(=O)N[C@H]2CCCC[C@H]2C(=O)NCCCCNC(=O)c2ccc(-c3c4nc(c(-c5cc(S(=O)(=O)[O-])ccc5F)c5ccc([nH]5)c(-c5cc(S(=O)(=O)[O-])ccc5F)c5nc(c(-c6cc(S(=O)(=O)[O-])ccc6F)c6ccc3[nH]6)C=C5)C=C4)cc2)cc(Cl)c1OC
REMARK SMILES IDX 19 1 18 2 17 3 15 4 16 5 14 7 9 8 10 9 11 10 13 11 12 12
REMARK SMILES IDX 8 13 6 14 7 15 5 17 3 18 4 19 91 20 89 21 88 22 90 23 2 24
REMARK SMILES IDX 1 25 92 26 93 27 20 28 21 29 22 30 23 31 24 33 25 34 26 35
REMARK SMILES IDX 87 36 27 37 86 38 28 39 29 40 30 41 80 42 31 43 85 44 79 45
REMARK SMILES IDX 81 46 32 47 84 48 78 49 77 50 33 52 65 53 45 54 64 55 46 56
REMARK SMILES IDX 49 57 63 58 82 59 47 60 48 61 62 63 83 64 50 65 34 66 35 67
REMARK SMILES IDX 43 68 36 69 42 70 44 71 41 72 37 73 38 74 39 75 40 76 66 77
REMARK SMILES IDX 67 78 75 79 68 80 74 81 76 82 73 83 69 84 70 85 71 86 72 87
REMARK SMILES IDX 51 88 52 89 60 90 53 91 59 92 61 93 58 94 54 95 55 96 56 97
REMARK SMILES IDX 57 98
REMARK H PARENT 17 6 8 16 22 32 81 51 49 62
REMARK Flexibility Score: inf
ROOT
ATOM      1  C   UNL A   1      34.787  23.584  22.980  1.00  0.00     0.023 C 
ENDROOT
BRANCH   1   2
ATOM      2  C   UNL A   1      33.984  24.876  23.105  1.00  0.00     0.116 C 
BRANCH   2   3
ATOM      3  N   UNL A   1      34.158  25.483  24.408  1.00  0.00    -0.356 N 
ATOM      4  C   UNL A   1      33.599  26.569  24.995  1.00  0.00     0.225 C 
ATOM      5  O   UNL A   1      34.081  26.922  26.077  1.00  0.00    -0.275 OA
ATOM      6  H   UNL A   1      34.810  25.015  24.980  1.00  0.00     0.163 HD
BRANCH   4   7
ATOM      7  C   UNL A   1      32.437  27.371  24.408  1.00  0.00     0.101 C 
ATOM      8  C   UNL A   1      31.187  26.537  24.038  1.00  0.00     0.094 C 
ATOM      9  C   UNL A   1      30.214  27.409  23.223  1.00  0.00     0.026 C 
ATOM     10  C   UNL A   1      29.884  28.720  23.940  1.00  0.00     0.002 C 
ATOM     11  C   UNL A   1      32.143  28.725  25.059  1.00  0.00     0.015 C 
ATOM     12  C   UNL A   1      31.145  29.529  24.227  1.00  0.00     0.001 C 
BRANCH   8  13
ATOM     13  N   UNL A   1      30.467  25.965  25.170  1.00  0.00    -0.349 N 
ATOM     14  C   UNL A   1      30.447  24.737  25.782  1.00  0.00     0.251 C 
ATOM     15  O   UNL A   1      29.660  24.628  26.726  1.00  0.00    -0.269 OA
ATOM     16  H   UNL A   1      29.854  26.608  25.593  1.00  0.00     0.164 HD
BRANCH  14  17
ATOM     17  C   UNL A   1      31.227  23.528  25.371  1.00  0.00     0.045 A 
ATOM     18  C   UNL A   1      32.726  21.745  26.131  1.00  0.00     0.163 A 
ATOM     19  C   UNL A   1      32.017  22.931  26.367  1.00  0.00     0.064 A 
ATOM     20  C   UNL A   1      32.689  21.128  24.862  1.00  0.00     0.179 A 
ATOM     21  C   UNL A   1      31.940  21.746  23.853  1.00  0.00     0.087 A 
ATOM     22  C   UNL A   1      31.224  22.932  24.114  1.00  0.00     0.038 A 
ATOM     23  Cl  UNL A   1      31.826  21.190  22.216  1.00  0.00    -0.080 Cl
BRANCH  18  24
ATOM     24  O   UNL A   1      33.498  21.127  27.088  1.00  0.00    -0.493 OA
ATOM     25  C   UNL A   1      34.562  21.890  27.648  1.00  0.00     0.278 C 
ENDBRANCH  18  24
BRANCH  20  26
ATOM     26  O   UNL A   1      33.454  19.994  24.775  1.00  0.00    -0.491 OA
ATOM     27  C   UNL A   1      32.842  18.739  24.541  1.00  0.00     0.278 C 
ENDBRANCH  20  26
ENDBRANCH  14  17
ENDBRANCH   8  13
ENDBRANCH   4   7
ENDBRANCH   2   3
ENDBRANCH   1   2
BRANCH   1  28
ATOM     28  C   UNL A   1      35.502  23.141  24.249  1.00  0.00     0.023 C 
BRANCH  28  29
ATOM     29  C   UNL A   1      36.993  22.882  24.087  1.00  0.00     0.116 C 
BRANCH  29  30
ATOM     30  N   UNL A   1      37.420  21.551  24.495  1.00  0.00    -0.352 N 
ATOM     31  C   UNL A   1      38.363  21.229  25.448  1.00  0.00     0.251 C 
ATOM     32  H   UNL A   1      36.985  20.794  24.039  1.00  0.00     0.163 HD
ATOM     33  O   UNL A   1      38.673  20.067  25.664  1.00  0.00    -0.269 OA
BRANCH  31  34
ATOM     34  C   UNL A   1      39.031  22.340  26.157  1.00  0.00     0.039 A 
ATOM     35  C   UNL A   1      40.288  22.122  26.724  1.00  0.00     0.014 A 
ATOM     36  C   UNL A   1      38.469  23.619  26.130  1.00  0.00     0.014 A 
ATOM     37  C   UNL A   1      41.025  23.212  27.190  1.00  0.00     0.010 A 
ATOM     38  C   UNL A   1      39.240  24.707  26.512  1.00  0.00     0.010 A 
ATOM     39  C   UNL A   1      40.527  24.516  27.043  1.00  0.00    -0.014 A 
BRANCH  39  40
ATOM     40  C   UNL A   1      41.308  25.708  27.461  1.00  0.00     0.031 A 
ATOM     41  C   UNL A   1      40.652  26.740  28.336  1.00  0.00     0.074 A 
ATOM     42  C   UNL A   1      42.549  25.911  26.976  1.00  0.00     0.049 A 
ATOM     43  N   UNL A   1      41.066  27.935  28.668  1.00  0.00    -0.248 NA
ATOM     44  C   UNL A   1      39.322  26.395  28.861  1.00  0.00     0.031 C 
ATOM     45  C   UNL A   1      43.272  25.006  26.080  1.00  0.00     0.029 A 
ATOM     46  N   UNL A   1      43.417  26.960  27.155  1.00  0.00    -0.354 N 
ATOM     47  C   UNL A   1      40.029  28.500  29.402  1.00  0.00     0.074 A 
ATOM     48  C   UNL A   1      38.947  27.539  29.412  1.00  0.00     0.031 C 
ATOM     49  C   UNL A   1      44.478  25.529  25.805  1.00  0.00     0.029 A 
ATOM     50  C   UNL A   1      44.600  26.823  26.466  1.00  0.00     0.049 A 
ATOM     51  H   UNL A   1      43.211  27.736  27.724  1.00  0.00     0.167 HD
ATOM     52  C   UNL A   1      39.992  29.701  30.031  1.00  0.00     0.034 A 
ATOM     53  C   UNL A   1      45.655  27.657  26.371  1.00  0.00     0.034 A 
ATOM     54  C   UNL A   1      41.099  30.623  30.048  1.00  0.00     0.049 A 
ATOM     55  C   UNL A   1      45.610  28.970  27.111  1.00  0.00     0.074 A 
ATOM     56  C   UNL A   1      41.202  31.841  30.698  1.00  0.00     0.029 A 
ATOM     57  N   UNL A   1      42.306  30.422  29.388  1.00  0.00    -0.354 N 
ATOM     58  N   UNL A   1      44.635  29.481  27.826  1.00  0.00    -0.248 NA
ATOM     59  C   UNL A   1      46.812  29.812  27.040  1.00  0.00     0.031 C 
ATOM     60  C   UNL A   1      42.453  32.394  30.398  1.00  0.00     0.029 A 
ATOM     61  C   UNL A   1      43.154  31.496  29.609  1.00  0.00     0.049 A 
ATOM     62  H   UNL A   1      42.526  29.632  28.843  1.00  0.00     0.167 HD
ATOM     63  C   UNL A   1      45.118  30.691  28.316  1.00  0.00     0.074 A 
ATOM     64  C   UNL A   1      46.473  30.827  27.821  1.00  0.00     0.031 C 
ATOM     65  C   UNL A   1      44.502  31.606  29.107  1.00  0.00     0.034 A 
BRANCH  52  66
ATOM     66  C   UNL A   1      38.705  30.075  30.725  1.00  0.00     0.023 A 
ATOM     67  C   UNL A   1      37.684  30.774  30.057  1.00  0.00     0.031 A 
ATOM     68  C   UNL A   1      38.520  29.787  32.089  1.00  0.00     0.131 A 
ATOM     69  C   UNL A   1      36.577  31.251  30.773  1.00  0.00     0.055 A 
ATOM     70  C   UNL A   1      37.369  30.184  32.774  1.00  0.00     0.041 A 
ATOM     71  F   UNL A   1      39.466  29.139  32.786  1.00  0.00    -0.206 F 
ATOM     72  C   UNL A   1      36.398  30.938  32.121  1.00  0.00     0.022 A 
BRANCH  69  73
ATOM     73  S   UNL A   1      35.463  32.426  29.955  1.00  0.00     0.124 S 
ATOM     74  O   UNL A   1      35.040  31.661  28.784  1.00  0.00    -0.237 OA
ATOM     75  O   UNL A   1      34.443  32.654  30.972  1.00  0.00    -0.237 OA
ATOM     76  O   UNL A   1      36.325  33.570  29.666  1.00  0.00    -0.744 OA
ENDBRANCH  69  73
ENDBRANCH  52  66
BRANCH  53  77
ATOM     77  C   UNL A   1      46.841  27.288  25.548  1.00  0.00     0.023 A 
ATOM     78  C   UNL A   1      46.989  27.778  24.240  1.00  0.00     0.031 A 
ATOM     79  C   UNL A   1      47.824  26.413  26.041  1.00  0.00     0.131 A 
ATOM     80  C   UNL A   1      48.070  27.354  23.453  1.00  0.00     0.055 A 
ATOM     81  C   UNL A   1      48.922  26.029  25.269  1.00  0.00     0.041 A 
ATOM     82  F   UNL A   1      47.734  25.926  27.290  1.00  0.00    -0.206 F 
ATOM     83  C   UNL A   1      49.043  26.491  23.962  1.00  0.00     0.022 A 
BRANCH  80  84
ATOM     84  S   UNL A   1      48.147  27.892  21.722  1.00  0.00     0.124 S 
ATOM     85  O   UNL A   1      46.901  28.638  21.587  1.00  0.00    -0.237 OA
ATOM     86  O   UNL A   1      49.373  28.683  21.705  1.00  0.00    -0.237 OA
ATOM     87  O   UNL A   1      48.208  26.636  20.978  1.00  0.00    -0.744 OA
ENDBRANCH  80  84
ENDBRANCH  53  77
BRANCH  65  88
ATOM     88  C   UNL A   1      45.316  32.801  29.529  1.00  0.00     0.023 A 
ATOM     89  C   UNL A   1      45.318  33.994  28.787  1.00  0.00     0.031 A 
ATOM     90  C   UNL A   1      46.104  32.737  30.692  1.00  0.00     0.131 A 
ATOM     91  C   UNL A   1      46.128  35.064  29.193  1.00  0.00     0.055 A 
ATOM     92  C   UNL A   1      46.870  33.821  31.117  1.00  0.00     0.041 A 
ATOM     93  F   UNL A   1      46.136  31.618  31.434  1.00  0.00    -0.206 F 
ATOM     94  C   UNL A   1      46.894  34.990  30.361  1.00  0.00     0.022 A 
BRANCH  91  95
ATOM     95  S   UNL A   1      46.225  36.535  28.136  1.00  0.00     0.124 S 
ATOM     96  O   UNL A   1      47.637  36.890  28.239  1.00  0.00    -0.237 OA
ATOM     97  O   UNL A   1      45.790  36.017  26.843  1.00  0.00    -0.237 OA
ATOM     98  O   UNL A   1      45.302  37.474  28.769  1.00  0.00    -0.744 OA
ENDBRANCH  91  95
ENDBRANCH  65  88
ENDBRANCH  39  40
ENDBRANCH  31  34
ENDBRANCH  29  30
ENDBRANCH  28  29
ENDBRANCH   1  28
TORSDOF 18
ENDMDL
