MODEL 1
REMARK VINA RESULT:     -10.9      0.000      0.000
REMARK SMILES O=C(NCCCCNC(=O)c1conc1-c1ccc(Cl)cc1)c1ccc(-c2c3nc(c(-c4cc(S(=O)(=O)[O-])ccc4F)c4ccc([nH]4)c(-c4cc(S(=O)(=O)[O-])ccc4F)c4nc(c(-c5cc(S(=O)(=O)[O-])ccc5F)c5ccc2[nH]5)C=C4)C=C3)cc1
REMARK SMILES IDX 4 1 3 2 1 3 2 4 23 6 24 7 85 8 25 9 84 10 26 11 27 12 28 13
REMARK SMILES IDX 78 14 29 15 83 16 77 17 79 18 30 19 82 20 76 21 75 22 31 24
REMARK SMILES IDX 63 25 43 26 62 27 44 28 47 29 61 30 80 31 45 32 46 33 60 35
REMARK SMILES IDX 81 36 48 37 32 38 33 39 41 40 34 41 40 42 42 43 39 44 35 45
REMARK SMILES IDX 36 46 37 47 38 48 64 49 65 50 73 51 66 52 72 53 74 54 71 55
REMARK SMILES IDX 67 56 68 57 69 58 70 59 49 60 50 61 58 62 51 63 57 64 59 65
REMARK SMILES IDX 56 66 52 67 53 68 54 69 55 70 5 71 6 72 7 73 8 74 9 75 10 77
REMARK SMILES IDX 11 78 12 79 15 80 13 81 14 82 16 83 17 84 22 85 18 86 21 87
REMARK SMILES IDX 19 88 20 89
REMARK H PARENT 3 5 79 23 47 34 8 76
REMARK Flexibility Score: inf
ROOT
ATOM      1  C   UNL A   1      34.190  33.006  28.207  1.00  0.00     0.116 C 
ENDROOT
BRANCH   1   2
ATOM      2  N   UNL A   1      33.579  31.818  27.637  1.00  0.00    -0.352 N 
ATOM      3  O   UNL A   1      33.442  29.701  26.907  1.00  0.00    -0.269 OA
ATOM      4  C   UNL A   1      34.099  30.553  27.501  1.00  0.00     0.251 C 
ATOM      5  H   UNL A   1      32.663  31.936  27.299  1.00  0.00     0.163 HD
BRANCH   4   6
ATOM      6  C   UNL A   1      35.448  30.217  28.019  1.00  0.00     0.039 A 
ATOM      7  C   UNL A   1      36.609  30.445  27.277  1.00  0.00     0.014 A 
ATOM      8  C   UNL A   1      35.546  29.689  29.314  1.00  0.00     0.014 A 
ATOM      9  C   UNL A   1      37.850  30.054  27.783  1.00  0.00     0.010 A 
ATOM     10  C   UNL A   1      36.794  29.330  29.836  1.00  0.00     0.010 A 
ATOM     11  C   UNL A   1      37.951  29.480  29.060  1.00  0.00    -0.014 A 
BRANCH  11  12
ATOM     12  C   UNL A   1      39.273  29.031  29.557  1.00  0.00     0.031 A 
ATOM     13  C   UNL A   1      39.897  29.690  30.756  1.00  0.00     0.074 A 
ATOM     14  C   UNL A   1      39.900  28.007  28.950  1.00  0.00     0.049 A 
ATOM     15  N   UNL A   1      41.007  29.390  31.380  1.00  0.00    -0.248 NA
ATOM     16  C   UNL A   1      39.182  30.845  31.316  1.00  0.00     0.031 C 
ATOM     17  C   UNL A   1      39.418  27.306  27.759  1.00  0.00     0.029 A 
ATOM     18  N   UNL A   1      41.073  27.371  29.264  1.00  0.00    -0.354 N 
ATOM     19  C   UNL A   1      41.132  30.322  32.404  1.00  0.00     0.074 A 
ATOM     20  C   UNL A   1      39.992  31.210  32.300  1.00  0.00     0.031 C 
ATOM     21  C   UNL A   1      40.279  26.320  27.455  1.00  0.00     0.029 A 
ATOM     22  C   UNL A   1      41.370  26.325  28.427  1.00  0.00     0.049 A 
ATOM     23  H   UNL A   1      41.647  27.639  30.018  1.00  0.00     0.167 HD
ATOM     24  C   UNL A   1      42.101  30.426  33.346  1.00  0.00     0.034 A 
ATOM     25  C   UNL A   1      42.398  25.458  28.447  1.00  0.00     0.034 A 
ATOM     26  C   UNL A   1      43.236  29.543  33.450  1.00  0.00     0.049 A 
ATOM     27  C   UNL A   1      43.428  25.552  29.535  1.00  0.00     0.074 A 
ATOM     28  C   UNL A   1      44.270  29.564  34.371  1.00  0.00     0.029 A 
ATOM     29  N   UNL A   1      43.485  28.475  32.600  1.00  0.00    -0.354 N 
ATOM     30  N   UNL A   1      43.528  26.435  30.499  1.00  0.00    -0.248 NA
ATOM     31  C   UNL A   1      44.473  24.520  29.543  1.00  0.00     0.031 C 
ATOM     32  C   UNL A   1      45.158  28.523  34.061  1.00  0.00     0.029 A 
ATOM     33  C   UNL A   1      44.656  27.834  32.970  1.00  0.00     0.049 A 
ATOM     34  H   UNL A   1      42.911  28.212  31.843  1.00  0.00     0.167 HD
ATOM     35  C   UNL A   1      44.653  26.068  31.228  1.00  0.00     0.074 A 
ATOM     36  C   UNL A   1      45.191  24.877  30.600  1.00  0.00     0.031 C 
ATOM     37  C   UNL A   1      45.191  26.664  32.320  1.00  0.00     0.034 A 
BRANCH  24  38
ATOM     38  C   UNL A   1      41.981  31.570  34.314  1.00  0.00     0.023 A 
ATOM     39  C   UNL A   1      41.057  31.538  35.373  1.00  0.00     0.031 A 
ATOM     40  C   UNL A   1      42.758  32.728  34.142  1.00  0.00     0.131 A 
ATOM     41  C   UNL A   1      40.893  32.666  36.188  1.00  0.00     0.055 A 
ATOM     42  C   UNL A   1      42.628  33.828  34.991  1.00  0.00     0.041 A 
ATOM     43  F   UNL A   1      43.636  32.816  33.131  1.00  0.00    -0.206 F 
ATOM     44  C   UNL A   1      41.684  33.806  36.014  1.00  0.00     0.022 A 
BRANCH  41  45
ATOM     45  S   UNL A   1      39.549  32.669  37.406  1.00  0.00     0.124 S 
ATOM     46  O   UNL A   1      38.854  31.424  37.084  1.00  0.00    -0.237 OA
ATOM     47  O   UNL A   1      40.271  32.690  38.672  1.00  0.00    -0.237 OA
ATOM     48  O   UNL A   1      38.804  33.887  37.092  1.00  0.00    -0.744 OA
ENDBRANCH  41  45
ENDBRANCH  24  38
BRANCH  25  49
ATOM     49  C   UNL A   1      42.503  24.419  27.396  1.00  0.00     0.023 A 
ATOM     50  C   UNL A   1      41.722  23.254  27.453  1.00  0.00     0.031 A 
ATOM     51  C   UNL A   1      43.385  24.590  26.317  1.00  0.00     0.131 A 
ATOM     52  C   UNL A   1      41.846  22.288  26.445  1.00  0.00     0.055 A 
ATOM     53  C   UNL A   1      43.499  23.630  25.314  1.00  0.00     0.041 A 
ATOM     54  F   UNL A   1      44.135  25.698  26.225  1.00  0.00    -0.206 F 
ATOM     55  C   UNL A   1      42.730  22.469  25.375  1.00  0.00     0.022 A 
BRANCH  52  56
ATOM     56  S   UNL A   1      40.838  20.779  26.555  1.00  0.00     0.124 S 
ATOM     57  O   UNL A   1      41.586  19.851  25.713  1.00  0.00    -0.237 OA
ATOM     58  O   UNL A   1      40.861  20.503  27.988  1.00  0.00    -0.237 OA
ATOM     59  O   UNL A   1      39.542  21.196  26.025  1.00  0.00    -0.744 OA
ENDBRANCH  52  56
ENDBRANCH  25  49
BRANCH  37  60
ATOM     60  C   UNL A   1      46.418  26.022  32.898  1.00  0.00     0.023 A 
ATOM     61  C   UNL A   1      46.320  25.033  33.892  1.00  0.00     0.031 A 
ATOM     62  C   UNL A   1      47.694  26.419  32.468  1.00  0.00     0.131 A 
ATOM     63  C   UNL A   1      47.487  24.489  34.449  1.00  0.00     0.055 A 
ATOM     64  C   UNL A   1      48.852  25.860  33.010  1.00  0.00     0.041 A 
ATOM     65  F   UNL A   1      47.832  27.365  31.525  1.00  0.00    -0.206 F 
ATOM     66  C   UNL A   1      48.752  24.895  34.012  1.00  0.00     0.022 A 
BRANCH  63  67
ATOM     67  S   UNL A   1      47.333  23.285  35.799  1.00  0.00     0.124 S 
ATOM     68  O   UNL A   1      47.621  24.101  36.975  1.00  0.00    -0.237 OA
ATOM     69  O   UNL A   1      45.952  22.834  35.658  1.00  0.00    -0.237 OA
ATOM     70  O   UNL A   1      48.347  22.281  35.481  1.00  0.00    -0.744 OA
ENDBRANCH  63  67
ENDBRANCH  37  60
ENDBRANCH  11  12
ENDBRANCH   4   6
ENDBRANCH   1   2
BRANCH   1  71
ATOM     71  C   UNL A   1      33.258  34.219  28.226  1.00  0.00     0.023 C 
BRANCH  71  72
ATOM     72  C   UNL A   1      33.786  35.469  28.944  1.00  0.00     0.023 C 
BRANCH  72  73
ATOM     73  C   UNL A   1      32.962  35.944  30.139  1.00  0.00     0.116 C 
BRANCH  73  74
ATOM     74  N   UNL A   1      33.780  36.546  31.176  1.00  0.00    -0.352 N 
ATOM     75  C   UNL A   1      34.385  35.994  32.277  1.00  0.00     0.256 C 
ATOM     76  H   UNL A   1      33.926  37.514  31.071  1.00  0.00     0.163 HD
ATOM     77  O   UNL A   1      34.860  36.750  33.118  1.00  0.00    -0.269 OA
BRANCH  75  78
ATOM     78  C   UNL A   1      34.446  34.561  32.432  1.00  0.00     0.107 A 
ATOM     79  C   UNL A   1      33.462  33.740  32.928  1.00  0.00     0.245 A 
ATOM     80  C   UNL A   1      35.445  33.649  31.968  1.00  0.00     0.126 A 
ATOM     81  O   UNL A   1      33.845  32.448  32.833  1.00  0.00    -0.363 OA
ATOM     82  N   UNL A   1      35.083  32.381  32.234  1.00  0.00    -0.079 NA
BRANCH  80  83
ATOM     83  C   UNL A   1      36.710  33.930  31.290  1.00  0.00     0.005 A 
ATOM     84  C   UNL A   1      36.861  33.716  29.913  1.00  0.00     0.012 A 
ATOM     85  C   UNL A   1      37.798  34.433  32.022  1.00  0.00     0.012 A 
ATOM     86  C   UNL A   1      38.079  33.991  29.281  1.00  0.00     0.021 A 
ATOM     87  C   UNL A   1      39.015  34.705  31.392  1.00  0.00     0.021 A 
ATOM     88  C   UNL A   1      39.151  34.482  30.024  1.00  0.00     0.041 A 
ATOM     89  Cl  UNL A   1      40.648  34.823  29.249  1.00  0.00    -0.084 Cl
ENDBRANCH  80  83
ENDBRANCH  75  78
ENDBRANCH  73  74
ENDBRANCH  72  73
ENDBRANCH  71  72
ENDBRANCH   1  71
TORSDOF 15
ENDMDL
MODEL 2
REMARK VINA RESULT:     -10.7      5.745     11.062
REMARK SMILES O=C(NCCCCNC(=O)c1conc1-c1ccc(Cl)cc1)c1ccc(-c2c3nc(c(-c4cc(S(=O)(=O)[O-])ccc4F)c4ccc([nH]4)c(-c4cc(S(=O)(=O)[O-])ccc4F)c4nc(c(-c5cc(S(=O)(=O)[O-])ccc5F)c5ccc2[nH]5)C=C4)C=C3)cc1
REMARK SMILES IDX 4 1 3 2 1 3 2 4 23 6 24 7 85 8 25 9 84 10 26 11 27 12 28 13
REMARK SMILES IDX 78 14 29 15 83 16 77 17 79 18 30 19 82 20 76 21 75 22 31 24
REMARK SMILES IDX 63 25 43 26 62 27 44 28 47 29 61 30 80 31 45 32 46 33 60 35
REMARK SMILES IDX 81 36 48 37 32 38 33 39 41 40 34 41 40 42 42 43 39 44 35 45
REMARK SMILES IDX 36 46 37 47 38 48 64 49 65 50 73 51 66 52 72 53 74 54 71 55
REMARK SMILES IDX 67 56 68 57 69 58 70 59 49 60 50 61 58 62 51 63 57 64 59 65
REMARK SMILES IDX 56 66 52 67 53 68 54 69 55 70 5 71 6 72 7 73 8 74 9 75 10 77
REMARK SMILES IDX 11 78 12 79 15 80 13 81 14 82 16 83 17 84 22 85 18 86 21 87
REMARK SMILES IDX 19 88 20 89
REMARK H PARENT 3 5 79 23 47 34 8 76
REMARK Flexibility Score: inf
ROOT
ATOM      1  C   UNL A   1      36.665  22.186  25.672  1.00  0.00     0.116 C 
ENDROOT
BRANCH   1   2
ATOM      2  N   UNL A   1      37.726  21.196  25.710  1.00  0.00    -0.352 N 
ATOM      3  O   UNL A   1      39.807  20.390  25.951  1.00  0.00    -0.269 OA
ATOM      4  C   UNL A   1      39.044  21.347  26.072  1.00  0.00     0.251 C 
ATOM      5  H   UNL A   1      37.466  20.288  25.437  1.00  0.00     0.163 HD
BRANCH   4   6
ATOM      6  C   UNL A   1      39.562  22.648  26.561  1.00  0.00     0.039 A 
ATOM      7  C   UNL A   1      39.096  23.868  26.066  1.00  0.00     0.014 A 
ATOM      8  C   UNL A   1      40.524  22.635  27.581  1.00  0.00     0.014 A 
ATOM      9  C   UNL A   1      39.660  25.064  26.513  1.00  0.00     0.010 A 
ATOM     10  C   UNL A   1      41.063  23.835  28.055  1.00  0.00     0.010 A 
ATOM     11  C   UNL A   1      40.658  25.057  27.500  1.00  0.00    -0.014 A 
BRANCH  11  12
ATOM     12  C   UNL A   1      41.274  26.336  27.927  1.00  0.00     0.031 A 
ATOM     13  C   UNL A   1      42.685  26.669  27.528  1.00  0.00     0.074 A 
ATOM     14  C   UNL A   1      40.554  27.214  28.648  1.00  0.00     0.049 A 
ATOM     15  N   UNL A   1      43.368  27.765  27.743  1.00  0.00    -0.248 NA
ATOM     16  C   UNL A   1      43.426  25.628  26.803  1.00  0.00     0.031 C 
ATOM     17  C   UNL A   1      39.188  26.995  29.128  1.00  0.00     0.029 A 
ATOM     18  N   UNL A   1      40.869  28.473  29.089  1.00  0.00    -0.354 N 
ATOM     19  C   UNL A   1      44.623  27.546  27.187  1.00  0.00     0.074 A 
ATOM     20  C   UNL A   1      44.610  26.202  26.645  1.00  0.00     0.031 C 
ATOM     21  C   UNL A   1      38.775  28.096  29.779  1.00  0.00     0.029 A 
ATOM     22  C   UNL A   1      39.845  29.089  29.764  1.00  0.00     0.049 A 
ATOM     23  H   UNL A   1      41.746  28.894  28.936  1.00  0.00     0.167 HD
ATOM     24  C   UNL A   1      45.686  28.386  27.128  1.00  0.00     0.034 A 
ATOM     25  C   UNL A   1      39.772  30.321  30.298  1.00  0.00     0.034 A 
ATOM     26  C   UNL A   1      45.700  29.723  27.667  1.00  0.00     0.049 A 
ATOM     27  C   UNL A   1      40.938  31.258  30.168  1.00  0.00     0.074 A 
ATOM     28  C   UNL A   1      46.726  30.653  27.655  1.00  0.00     0.029 A 
ATOM     29  N   UNL A   1      44.630  30.322  28.317  1.00  0.00    -0.354 N 
ATOM     30  N   UNL A   1      42.114  31.038  29.635  1.00  0.00    -0.248 NA
ATOM     31  C   UNL A   1      40.755  32.615  30.701  1.00  0.00     0.031 C 
ATOM     32  C   UNL A   1      46.285  31.805  28.320  1.00  0.00     0.029 A 
ATOM     33  C   UNL A   1      44.972  31.605  28.714  1.00  0.00     0.049 A 
ATOM     34  H   UNL A   1      43.756  29.897  28.473  1.00  0.00     0.167 HD
ATOM     35  C   UNL A   1      42.817  32.229  29.771  1.00  0.00     0.074 A 
ATOM     36  C   UNL A   1      41.928  33.169  30.427  1.00  0.00     0.031 C 
ATOM     37  C   UNL A   1      44.085  32.519  29.387  1.00  0.00     0.034 A 
BRANCH  24  38
ATOM     38  C   UNL A   1      46.934  27.850  26.483  1.00  0.00     0.023 A 
ATOM     39  C   UNL A   1      47.182  28.026  25.111  1.00  0.00     0.031 A 
ATOM     40  C   UNL A   1      47.857  27.107  27.238  1.00  0.00     0.131 A 
ATOM     41  C   UNL A   1      48.299  27.418  24.522  1.00  0.00     0.055 A 
ATOM     42  C   UNL A   1      48.997  26.550  26.656  1.00  0.00     0.041 A 
ATOM     43  F   UNL A   1      47.652  26.891  28.547  1.00  0.00    -0.206 F 
ATOM     44  C   UNL A   1      49.217  26.694  25.288  1.00  0.00     0.022 A 
BRANCH  41  45
ATOM     45  S   UNL A   1      48.474  27.487  22.718  1.00  0.00     0.124 S 
ATOM     46  O   UNL A   1      49.776  28.133  22.571  1.00  0.00    -0.237 OA
ATOM     47  O   UNL A   1      48.412  26.080  22.341  1.00  0.00    -0.237 OA
ATOM     48  O   UNL A   1      47.334  28.298  22.294  1.00  0.00    -0.744 OA
ENDBRANCH  41  45
ENDBRANCH  24  38
BRANCH  25  49
ATOM     49  C   UNL A   1      38.542  30.741  31.009  1.00  0.00     0.023 A 
ATOM     50  C   UNL A   1      37.537  31.463  30.347  1.00  0.00     0.031 A 
ATOM     51  C   UNL A   1      38.359  30.413  32.362  1.00  0.00     0.131 A 
ATOM     52  C   UNL A   1      36.385  31.849  31.048  1.00  0.00     0.055 A 
ATOM     53  C   UNL A   1      37.209  30.792  33.052  1.00  0.00     0.041 A 
ATOM     54  F   UNL A   1      39.293  29.711  33.021  1.00  0.00    -0.206 F 
ATOM     55  C   UNL A   1      36.216  31.518  32.396  1.00  0.00     0.022 A 
BRANCH  52  56
ATOM     56  S   UNL A   1      35.111  32.802  30.171  1.00  0.00     0.124 S 
ATOM     57  O   UNL A   1      34.158  33.090  31.238  1.00  0.00    -0.237 OA
ATOM     58  O   UNL A   1      35.873  33.942  29.671  1.00  0.00    -0.237 OA
ATOM     59  O   UNL A   1      34.637  31.875  29.146  1.00  0.00    -0.744 OA
ENDBRANCH  52  56
ENDBRANCH  25  49
BRANCH  37  60
ATOM     60  C   UNL A   1      44.567  33.912  29.665  1.00  0.00     0.023 A 
ATOM     61  C   UNL A   1      44.337  34.956  28.753  1.00  0.00     0.031 A 
ATOM     62  C   UNL A   1      45.283  34.192  30.840  1.00  0.00     0.131 A 
ATOM     63  C   UNL A   1      44.846  36.236  29.018  1.00  0.00     0.055 A 
ATOM     64  C   UNL A   1      45.769  35.471  31.110  1.00  0.00     0.041 A 
ATOM     65  F   UNL A   1      45.530  33.222  31.735  1.00  0.00    -0.206 F 
ATOM     66  C   UNL A   1      45.559  36.500  30.192  1.00  0.00     0.022 A 
BRANCH  63  67
ATOM     67  S   UNL A   1      44.619  37.542  27.777  1.00  0.00     0.124 S 
ATOM     68  O   UNL A   1      44.274  38.696  28.603  1.00  0.00    -0.237 OA
ATOM     69  O   UNL A   1      45.925  37.588  27.130  1.00  0.00    -0.237 OA
ATOM     70  O   UNL A   1      43.532  37.035  26.942  1.00  0.00    -0.744 OA
ENDBRANCH  63  67
ENDBRANCH  37  60
ENDBRANCH  11  12
ENDBRANCH   4   6
ENDBRANCH   1   2
BRANCH   1  71
ATOM     71  C   UNL A   1      36.131  22.451  24.264  1.00  0.00     0.023 C 
BRANCH  71  72
ATOM     72  C   UNL A   1      34.656  22.102  24.019  1.00  0.00     0.023 C 
BRANCH  72  73
ATOM     73  C   UNL A   1      33.714  23.293  23.851  1.00  0.00     0.116 C 
BRANCH  73  74
ATOM     74  N   UNL A   1      34.176  24.473  24.559  1.00  0.00    -0.352 N 
ATOM     75  C   UNL A   1      33.526  25.307  25.434  1.00  0.00     0.256 C 
ATOM     76  H   UNL A   1      35.113  24.715  24.382  1.00  0.00     0.163 HD
ATOM     77  O   UNL A   1      34.075  26.360  25.747  1.00  0.00    -0.269 OA
BRANCH  75  78
ATOM     78  C   UNL A   1      32.231  24.949  25.956  1.00  0.00     0.107 A 
ATOM     79  C   UNL A   1      31.952  23.972  26.881  1.00  0.00     0.245 A 
ATOM     80  C   UNL A   1      30.976  25.611  25.776  1.00  0.00     0.126 A 
ATOM     81  O   UNL A   1      30.638  23.992  27.196  1.00  0.00    -0.363 OA
ATOM     82  N   UNL A   1      30.020  25.013  26.510  1.00  0.00    -0.079 NA
BRANCH  80  83
ATOM     83  C   UNL A   1      30.653  26.772  24.949  1.00  0.00     0.005 A 
ATOM     84  C   UNL A   1      31.239  28.023  25.189  1.00  0.00     0.012 A 
ATOM     85  C   UNL A   1      29.748  26.642  23.883  1.00  0.00     0.012 A 
ATOM     86  C   UNL A   1      30.918  29.124  24.386  1.00  0.00     0.021 A 
ATOM     87  C   UNL A   1      29.426  27.741  23.083  1.00  0.00     0.021 A 
ATOM     88  C   UNL A   1      30.013  28.978  23.338  1.00  0.00     0.041 A 
ATOM     89  Cl  UNL A   1      29.620  30.329  22.349  1.00  0.00    -0.084 Cl
ENDBRANCH  80  83
ENDBRANCH  75  78
ENDBRANCH  73  74
ENDBRANCH  72  73
ENDBRANCH  71  72
ENDBRANCH   1  71
TORSDOF 15
ENDMDL
MODEL 3
REMARK VINA RESULT:     -10.7      3.690      6.148
REMARK SMILES O=C(NCCCCNC(=O)c1conc1-c1ccc(Cl)cc1)c1ccc(-c2c3nc(c(-c4cc(S(=O)(=O)[O-])ccc4F)c4ccc([nH]4)c(-c4cc(S(=O)(=O)[O-])ccc4F)c4nc(c(-c5cc(S(=O)(=O)[O-])ccc5F)c5ccc2[nH]5)C=C4)C=C3)cc1
REMARK SMILES IDX 4 1 3 2 1 3 2 4 23 6 24 7 85 8 25 9 84 10 26 11 27 12 28 13
REMARK SMILES IDX 78 14 29 15 83 16 77 17 79 18 30 19 82 20 76 21 75 22 31 24
REMARK SMILES IDX 63 25 43 26 62 27 44 28 47 29 61 30 80 31 45 32 46 33 60 35
REMARK SMILES IDX 81 36 48 37 32 38 33 39 41 40 34 41 40 42 42 43 39 44 35 45
REMARK SMILES IDX 36 46 37 47 38 48 64 49 65 50 73 51 66 52 72 53 74 54 71 55
REMARK SMILES IDX 67 56 68 57 69 58 70 59 49 60 50 61 58 62 51 63 57 64 59 65
REMARK SMILES IDX 56 66 52 67 53 68 54 69 55 70 5 71 6 72 7 73 8 74 9 75 10 77
REMARK SMILES IDX 11 78 12 79 15 80 13 81 14 82 16 83 17 84 22 85 18 86 21 87
REMARK SMILES IDX 19 88 20 89
REMARK H PARENT 3 5 79 23 47 34 8 76
REMARK Flexibility Score: inf
ROOT
ATOM      1  C   UNL A   1      32.884  29.712  25.919  1.00  0.00     0.116 C 
ENDROOT
BRANCH   1   2
ATOM      2  N   UNL A   1      32.606  31.059  26.386  1.00  0.00    -0.352 N 
ATOM      3  O   UNL A   1      32.859  32.931  27.598  1.00  0.00    -0.269 OA
ATOM      4  C   UNL A   1      33.318  31.839  27.266  1.00  0.00     0.251 C 
ATOM      5  H   UNL A   1      31.791  31.471  26.022  1.00  0.00     0.163 HD
BRANCH   4   6
ATOM      6  C   UNL A   1      34.598  31.368  27.849  1.00  0.00     0.039 A 
ATOM      7  C   UNL A   1      34.780  30.051  28.279  1.00  0.00     0.014 A 
ATOM      8  C   UNL A   1      35.663  32.276  27.927  1.00  0.00     0.014 A 
ATOM      9  C   UNL A   1      35.983  29.673  28.878  1.00  0.00     0.010 A 
ATOM     10  C   UNL A   1      36.880  31.887  28.494  1.00  0.00     0.010 A 
ATOM     11  C   UNL A   1      37.037  30.591  29.004  1.00  0.00    -0.014 A 
BRANCH  11  12
ATOM     12  C   UNL A   1      38.288  30.179  29.684  1.00  0.00     0.031 A 
ATOM     13  C   UNL A   1      38.584  30.651  31.081  1.00  0.00     0.074 A 
ATOM     14  C   UNL A   1      39.146  29.354  29.058  1.00  0.00     0.049 A 
ATOM     15  N   UNL A   1      39.586  30.341  31.864  1.00  0.00    -0.248 NA
ATOM     16  C   UNL A   1      37.633  31.606  31.666  1.00  0.00     0.031 C 
ATOM     17  C   UNL A   1      38.992  28.853  27.691  1.00  0.00     0.029 A 
ATOM     18  N   UNL A   1      40.310  28.780  29.498  1.00  0.00    -0.354 N 
ATOM     19  C   UNL A   1      39.393  31.066  33.033  1.00  0.00     0.074 A 
ATOM     20  C   UNL A   1      38.188  31.849  32.845  1.00  0.00     0.031 C 
ATOM     21  C   UNL A   1      40.015  28.027  27.412  1.00  0.00     0.029 A 
ATOM     22  C   UNL A   1      40.893  27.946  28.576  1.00  0.00     0.049 A 
ATOM     23  H   UNL A   1      40.692  28.951  30.389  1.00  0.00     0.167 HD
ATOM     24  C   UNL A   1      40.145  31.077  34.162  1.00  0.00     0.034 A 
ATOM     25  C   UNL A   1      42.002  27.190  28.665  1.00  0.00     0.034 A 
ATOM     26  C   UNL A   1      41.344  30.300  34.350  1.00  0.00     0.049 A 
ATOM     27  C   UNL A   1      42.787  27.170  29.944  1.00  0.00     0.074 A 
ATOM     28  C   UNL A   1      42.174  30.239  35.457  1.00  0.00     0.029 A 
ATOM     29  N   UNL A   1      41.885  29.442  33.402  1.00  0.00    -0.354 N 
ATOM     30  N   UNL A   1      42.588  27.856  31.042  1.00  0.00    -0.248 NA
ATOM     31  C   UNL A   1      43.936  26.256  29.996  1.00  0.00     0.031 C 
ATOM     32  C   UNL A   1      43.231  29.364  35.168  1.00  0.00     0.029 A 
ATOM     33  C   UNL A   1      43.038  28.853  33.896  1.00  0.00     0.049 A 
ATOM     34  H   UNL A   1      41.504  29.277  32.509  1.00  0.00     0.167 HD
ATOM     35  C   UNL A   1      43.592  27.462  31.919  1.00  0.00     0.074 A 
ATOM     36  C   UNL A   1      44.389  26.468  31.225  1.00  0.00     0.031 C 
ATOM     37  C   UNL A   1      43.833  27.884  33.184  1.00  0.00     0.034 A 
BRANCH  24  38
ATOM     38  C   UNL A   1      39.697  31.999  35.262  1.00  0.00     0.023 A 
ATOM     39  C   UNL A   1      38.952  31.523  36.355  1.00  0.00     0.031 A 
ATOM     40  C   UNL A   1      39.970  33.375  35.188  1.00  0.00     0.131 A 
ATOM     41  C   UNL A   1      38.455  32.427  37.305  1.00  0.00     0.055 A 
ATOM     42  C   UNL A   1      39.518  34.263  36.166  1.00  0.00     0.041 A 
ATOM     43  F   UNL A   1      40.656  33.880  34.151  1.00  0.00    -0.206 F 
ATOM     44  C   UNL A   1      38.748  33.793  37.226  1.00  0.00     0.022 A 
BRANCH  41  45
ATOM     45  S   UNL A   1      37.324  31.811  38.581  1.00  0.00     0.124 S 
ATOM     46  O   UNL A   1      37.108  30.433  38.146  1.00  0.00    -0.237 OA
ATOM     47  O   UNL A   1      38.102  31.983  39.802  1.00  0.00    -0.237 OA
ATOM     48  O   UNL A   1      36.157  32.684  38.456  1.00  0.00    -0.744 OA
ENDBRANCH  41  45
ENDBRANCH  24  38
BRANCH  25  49
ATOM     49  C   UNL A   1      42.437  26.387  27.499  1.00  0.00     0.023 A 
ATOM     50  C   UNL A   1      42.146  25.016  27.419  1.00  0.00     0.031 A 
ATOM     51  C   UNL A   1      43.144  26.991  26.447  1.00  0.00     0.131 A 
ATOM     52  C   UNL A   1      42.575  24.282  26.303  1.00  0.00     0.055 A 
ATOM     53  C   UNL A   1      43.560  26.258  25.337  1.00  0.00     0.041 A 
ATOM     54  F   UNL A   1      43.425  28.302  26.485  1.00  0.00    -0.206 F 
ATOM     55  C   UNL A   1      43.280  24.894  25.262  1.00  0.00     0.022 A 
BRANCH  52  56
ATOM     56  S   UNL A   1      42.203  22.504  26.237  1.00  0.00     0.124 S 
ATOM     57  O   UNL A   1      42.797  22.117  24.961  1.00  0.00    -0.237 OA
ATOM     58  O   UNL A   1      42.877  22.007  27.432  1.00  0.00    -0.237 OA
ATOM     59  O   UNL A   1      40.743  22.459  26.284  1.00  0.00    -0.744 OA
ENDBRANCH  52  56
ENDBRANCH  25  49
BRANCH  37  60
ATOM     60  C   UNL A   1      45.001  27.260  33.889  1.00  0.00     0.023 A 
ATOM     61  C   UNL A   1      44.841  26.110  34.682  1.00  0.00     0.031 A 
ATOM     62  C   UNL A   1      46.279  27.832  33.786  1.00  0.00     0.131 A 
ATOM     63  C   UNL A   1      45.943  25.581  35.369  1.00  0.00     0.055 A 
ATOM     64  C   UNL A   1      47.376  27.289  34.454  1.00  0.00     0.041 A 
ATOM     65  F   UNL A   1      46.474  28.934  33.043  1.00  0.00    -0.206 F 
ATOM     66  C   UNL A   1      47.210  26.162  35.258  1.00  0.00     0.022 A 
BRANCH  63  67
ATOM     67  S   UNL A   1      45.688  24.154  36.463  1.00  0.00     0.124 S 
ATOM     68  O   UNL A   1      45.459  23.071  35.510  1.00  0.00    -0.237 OA
ATOM     69  O   UNL A   1      46.946  24.099  37.201  1.00  0.00    -0.237 OA
ATOM     70  O   UNL A   1      44.521  24.535  37.257  1.00  0.00    -0.744 OA
ENDBRANCH  63  67
ENDBRANCH  37  60
ENDBRANCH  11  12
ENDBRANCH   4   6
ENDBRANCH   1   2
BRANCH   1  71
ATOM     71  C   UNL A   1      31.738  28.733  26.170  1.00  0.00     0.023 C 
BRANCH  71  72
ATOM     72  C   UNL A   1      32.073  27.497  27.018  1.00  0.00     0.023 C 
BRANCH  72  73
ATOM     73  C   UNL A   1      32.930  26.436  26.330  1.00  0.00     0.116 C 
BRANCH  73  74
ATOM     74  N   UNL A   1      32.153  25.291  25.892  1.00  0.00    -0.352 N 
ATOM     75  C   UNL A   1      31.877  24.821  24.633  1.00  0.00     0.256 C 
ATOM     76  H   UNL A   1      31.757  24.762  26.622  1.00  0.00     0.163 HD
ATOM     77  O   UNL A   1      31.025  23.946  24.514  1.00  0.00    -0.269 OA
BRANCH  75  78
ATOM     78  C   UNL A   1      32.570  25.358  23.487  1.00  0.00     0.107 A 
ATOM     79  C   UNL A   1      33.664  24.819  22.855  1.00  0.00     0.245 A 
ATOM     80  C   UNL A   1      32.201  26.456  22.649  1.00  0.00     0.126 A 
ATOM     81  O   UNL A   1      33.976  25.551  21.763  1.00  0.00    -0.363 OA
ATOM     82  N   UNL A   1      33.067  26.577  21.627  1.00  0.00    -0.079 NA
BRANCH  80  83
ATOM     83  C   UNL A   1      31.076  27.380  22.777  1.00  0.00     0.005 A 
ATOM     84  C   UNL A   1      29.827  26.947  23.243  1.00  0.00     0.012 A 
ATOM     85  C   UNL A   1      31.240  28.733  22.438  1.00  0.00     0.012 A 
ATOM     86  C   UNL A   1      28.761  27.846  23.359  1.00  0.00     0.021 A 
ATOM     87  C   UNL A   1      30.176  29.631  22.551  1.00  0.00     0.021 A 
ATOM     88  C   UNL A   1      28.940  29.183  23.012  1.00  0.00     0.041 A 
ATOM     89  Cl  UNL A   1      27.632  30.291  23.156  1.00  0.00    -0.084 Cl
ENDBRANCH  80  83
ENDBRANCH  75  78
ENDBRANCH  73  74
ENDBRANCH  72  73
ENDBRANCH  71  72
ENDBRANCH   1  71
TORSDOF 15
ENDMDL
