MODEL 1
REMARK VINA RESULT:     -12.2      0.000      0.000
REMARK SMILES CC1=CC2=[NH+]C(=O)[C@](C)(CC(=O)NCCCCNC(=O)c3ccc(-c4c5nc(c(-c6cc(S(=O)(=O)[O-])ccc6F)c6ccc([nH]6)c(-c6cc(S(=O)(=O)[O-])ccc6F)c6nc(c(-c7cc(S(=O)(=O)[O-])ccc7F)c7ccc4[nH]7)C=C6)C=C5)cc3)N2C=C1
REMARK SMILES IDX 16 1 15 2 14 3 13 4 11 5 12 6 10 8 8 9 1 10 2 11 3 12 86 13
REMARK SMILES IDX 4 14 85 15 5 16 84 17 6 18 7 20 9 21 17 22 18 23 19 24 20 26
REMARK SMILES IDX 21 27 22 28 83 29 23 30 82 31 24 32 25 33 26 34 76 35 27 36
REMARK SMILES IDX 81 37 75 38 77 39 28 40 80 41 74 42 73 43 29 45 61 46 41 47
REMARK SMILES IDX 60 48 42 49 45 50 59 51 78 52 43 53 44 54 58 56 79 57 46 58
REMARK SMILES IDX 30 59 31 60 39 61 32 62 38 63 40 64 37 65 33 66 34 67 35 68
REMARK SMILES IDX 36 69 62 70 63 71 71 72 64 73 70 74 72 75 69 76 65 77 66 78
REMARK SMILES IDX 67 79 68 80 47 81 48 82 56 83 49 84 55 85 57 86 54 87 50 88
REMARK SMILES IDX 51 89 52 90 53 91
REMARK H PARENT 13 7 5 19 18 25 77 44 45 55
REMARK Flexibility Score: inf
ROOT
ATOM      1  C   UNL A   1      35.766  21.409  24.618  1.00  0.00     0.023 C 
ENDROOT
BRANCH   1   2
ATOM      2  C   UNL A   1      34.773  20.868  25.638  1.00  0.00     0.023 C 
BRANCH   2   3
ATOM      3  C   UNL A   1      33.474  20.328  25.035  1.00  0.00     0.116 C 
BRANCH   3   4
ATOM      4  N   UNL A   1      32.328  20.933  25.688  1.00  0.00    -0.356 N 
ATOM      5  C   UNL A   1      31.579  22.003  25.305  1.00  0.00     0.225 C 
ATOM      6  O   UNL A   1      30.726  22.428  26.085  1.00  0.00    -0.275 OA
ATOM      7  H   UNL A   1      32.052  20.507  26.530  1.00  0.00     0.163 HD
BRANCH   5   8
ATOM      8  C   UNL A   1      31.775  22.626  23.942  1.00  0.00     0.166 C 
BRANCH   8   9
ATOM      9  C   UNL A   1      32.448  23.997  23.939  1.00  0.00     0.217 C 
ATOM     10  C   UNL A   1      29.262  28.601  22.790  1.00  0.00     0.045 C 
ATOM     11  C   UNL A   1      30.110  27.401  23.076  1.00  0.00    -0.039 C 
ATOM     12  C   UNL A   1      31.188  27.094  22.326  1.00  0.00     0.102 C 
ATOM     13  C   UNL A   1      29.707  26.563  24.211  1.00  0.00     0.047 C 
ATOM     14  C   UNL A   1      31.893  25.838  22.673  1.00  0.00     0.283 C 
ATOM     15  C   UNL A   1      30.425  25.474  24.533  1.00  0.00     0.202 C 
ATOM     16  N   UNL A   1      32.878  25.347  21.976  1.00  0.00    -0.206 N 
ATOM     17  N   UNL A   1      31.513  25.104  23.779  1.00  0.00    -0.217 N 
ATOM     18  C   UNL A   1      33.234  24.162  22.607  1.00  0.00     0.356 C 
ATOM     19  H   UNL A   1      33.287  25.736  21.170  1.00  0.00     0.315 HD
ATOM     20  O   UNL A   1      34.061  23.364  22.190  1.00  0.00    -0.242 OA
ATOM     21  C   UNL A   1      33.439  24.321  25.051  1.00  0.00     0.076 C 
ENDBRANCH   8   9
ENDBRANCH   5   8
ENDBRANCH   3   4
ENDBRANCH   2   3
ENDBRANCH   1   2
BRANCH   1  22
ATOM     22  C   UNL A   1      37.050  21.956  25.221  1.00  0.00     0.116 C 
BRANCH  22  23
ATOM     23  N   UNL A   1      38.024  20.917  25.527  1.00  0.00    -0.352 N 
ATOM     24  C   UNL A   1      39.263  21.047  26.109  1.00  0.00     0.251 C 
ATOM     25  H   UNL A   1      37.760  20.000  25.285  1.00  0.00     0.163 HD
ATOM     26  O   UNL A   1      40.019  20.084  26.164  1.00  0.00    -0.269 OA
BRANCH  24  27
ATOM     27  C   UNL A   1      39.677  22.367  26.622  1.00  0.00     0.039 A 
ATOM     28  C   UNL A   1      40.727  22.439  27.536  1.00  0.00     0.014 A 
ATOM     29  C   UNL A   1      39.074  23.533  26.139  1.00  0.00     0.014 A 
ATOM     30  C   UNL A   1      41.229  23.688  27.905  1.00  0.00     0.010 A 
ATOM     31  C   UNL A   1      39.636  24.769  26.433  1.00  0.00     0.010 A 
ATOM     32  C   UNL A   1      40.721  24.859  27.318  1.00  0.00    -0.014 A 
BRANCH  32  33
ATOM     33  C   UNL A   1      41.315  26.188  27.613  1.00  0.00     0.031 A 
ATOM     34  C   UNL A   1      42.698  26.518  27.123  1.00  0.00     0.074 A 
ATOM     35  C   UNL A   1      40.632  27.069  28.371  1.00  0.00     0.049 A 
ATOM     36  N   UNL A   1      43.415  27.592  27.333  1.00  0.00    -0.248 NA
ATOM     37  C   UNL A   1      43.377  25.492  26.317  1.00  0.00     0.031 C 
ATOM     38  C   UNL A   1      39.300  26.841  28.940  1.00  0.00     0.029 A 
ATOM     39  N   UNL A   1      40.961  28.331  28.800  1.00  0.00    -0.354 N 
ATOM     40  C   UNL A   1      44.629  27.368  26.693  1.00  0.00     0.074 A 
ATOM     41  C   UNL A   1      44.576  26.027  26.151  1.00  0.00     0.031 C 
ATOM     42  C   UNL A   1      38.914  27.938  29.611  1.00  0.00     0.029 A 
ATOM     43  C   UNL A   1      39.987  28.926  29.570  1.00  0.00     0.049 A 
ATOM     44  H   UNL A   1      41.813  28.769  28.578  1.00  0.00     0.167 HD
ATOM     45  C   UNL A   1      45.679  28.212  26.547  1.00  0.00     0.034 A 
ATOM     46  C   UNL A   1      39.967  30.126  30.184  1.00  0.00     0.034 A 
ATOM     47  C   UNL A   1      45.708  29.549  27.088  1.00  0.00     0.049 A 
ATOM     48  C   UNL A   1      41.164  31.033  30.040  1.00  0.00     0.074 A 
ATOM     49  C   UNL A   1      46.697  30.508  26.956  1.00  0.00     0.029 A 
ATOM     50  N   UNL A   1      44.710  30.114  27.870  1.00  0.00    -0.354 N 
ATOM     51  N   UNL A   1      42.283  30.826  29.383  1.00  0.00    -0.248 NA
ATOM     52  C   UNL A   1      41.092  32.337  30.709  1.00  0.00     0.031 C 
ATOM     53  C   UNL A   1      46.335  31.619  27.723  1.00  0.00     0.029 A 
ATOM     54  C   UNL A   1      45.077  31.394  28.261  1.00  0.00     0.049 A 
ATOM     55  H   UNL A   1      43.864  29.672  28.113  1.00  0.00     0.167 HD
ATOM     56  C   UNL A   1      43.032  31.990  29.536  1.00  0.00     0.074 A 
ATOM     57  C   UNL A   1      42.229  32.898  30.329  1.00  0.00     0.031 C 
ATOM     58  C   UNL A   1      44.270  32.284  29.062  1.00  0.00     0.034 A 
BRANCH  45  59
ATOM     59  C   UNL A   1      46.884  27.703  25.794  1.00  0.00     0.023 A 
ATOM     60  C   UNL A   1      47.112  28.042  24.448  1.00  0.00     0.031 A 
ATOM     61  C   UNL A   1      47.812  26.855  26.423  1.00  0.00     0.131 A 
ATOM     62  C   UNL A   1      48.195  27.478  23.756  1.00  0.00     0.055 A 
ATOM     63  C   UNL A   1      48.935  26.366  25.753  1.00  0.00     0.041 A 
ATOM     64  F   UNL A   1      47.636  26.476  27.698  1.00  0.00    -0.206 F 
ATOM     65  C   UNL A   1      49.125  26.666  24.407  1.00  0.00     0.022 A 
BRANCH  62  66
ATOM     66  S   UNL A   1      48.287  27.708  21.960  1.00  0.00     0.124 S 
ATOM     67  O   UNL A   1      49.411  28.634  21.838  1.00  0.00    -0.237 OA
ATOM     68  O   UNL A   1      48.521  26.352  21.479  1.00  0.00    -0.237 OA
ATOM     69  O   UNL A   1      46.984  28.276  21.619  1.00  0.00    -0.744 OA
ENDBRANCH  62  66
ENDBRANCH  45  59
BRANCH  46  70
ATOM     70  C   UNL A   1      38.791  30.542  31.004  1.00  0.00     0.023 A 
ATOM     71  C   UNL A   1      37.676  31.157  30.412  1.00  0.00     0.031 A 
ATOM     72  C   UNL A   1      38.786  30.380  32.401  1.00  0.00     0.131 A 
ATOM     73  C   UNL A   1      36.631  31.638  31.216  1.00  0.00     0.055 A 
ATOM     74  C   UNL A   1      37.716  30.804  33.191  1.00  0.00     0.041 A 
ATOM     75  F   UNL A   1      39.825  29.797  33.021  1.00  0.00    -0.206 F 
ATOM     76  C   UNL A   1      36.637  31.452  32.600  1.00  0.00     0.022 A 
BRANCH  73  77
ATOM     77  S   UNL A   1      35.312  32.610  30.436  1.00  0.00     0.124 S 
ATOM     78  O   UNL A   1      36.001  33.861  30.142  1.00  0.00    -0.237 OA
ATOM     79  O   UNL A   1      34.967  31.781  29.286  1.00  0.00    -0.237 OA
ATOM     80  O   UNL A   1      34.289  32.689  31.476  1.00  0.00    -0.744 OA
ENDBRANCH  73  77
ENDBRANCH  46  70
BRANCH  58  81
ATOM     81  C   UNL A   1      44.808  33.665  29.354  1.00  0.00     0.023 A 
ATOM     82  C   UNL A   1      44.604  34.742  28.473  1.00  0.00     0.031 A 
ATOM     83  C   UNL A   1      45.546  33.903  30.528  1.00  0.00     0.131 A 
ATOM     84  C   UNL A   1      45.182  35.990  28.750  1.00  0.00     0.055 A 
ATOM     85  C   UNL A   1      46.059  35.163  30.832  1.00  0.00     0.041 A 
ATOM     86  F   UNL A   1      45.776  32.910  31.403  1.00  0.00    -0.206 F 
ATOM     87  C   UNL A   1      45.890  36.213  29.934  1.00  0.00     0.022 A 
BRANCH  84  88
ATOM     88  S   UNL A   1      45.084  37.292  27.492  1.00  0.00     0.124 S 
ATOM     89  O   UNL A   1      46.006  36.800  26.474  1.00  0.00    -0.237 OA
ATOM     90  O   UNL A   1      43.669  37.273  27.132  1.00  0.00    -0.237 OA
ATOM     91  O   UNL A   1      45.525  38.490  28.203  1.00  0.00    -0.744 OA
ENDBRANCH  84  88
ENDBRANCH  58  81
ENDBRANCH  32  33
ENDBRANCH  24  27
ENDBRANCH  22  23
ENDBRANCH   1  22
TORSDOF 15
ENDMDL
MODEL 2
REMARK VINA RESULT:     -12.1      4.936     10.361
REMARK SMILES CC1=CC2=[NH+]C(=O)[C@](C)(CC(=O)NCCCCNC(=O)c3ccc(-c4c5nc(c(-c6cc(S(=O)(=O)[O-])ccc6F)c6ccc([nH]6)c(-c6cc(S(=O)(=O)[O-])ccc6F)c6nc(c(-c7cc(S(=O)(=O)[O-])ccc7F)c7ccc4[nH]7)C=C6)C=C5)cc3)N2C=C1
REMARK SMILES IDX 16 1 15 2 14 3 13 4 11 5 12 6 10 8 8 9 1 10 2 11 3 12 86 13
REMARK SMILES IDX 4 14 85 15 5 16 84 17 6 18 7 20 9 21 17 22 18 23 19 24 20 26
REMARK SMILES IDX 21 27 22 28 83 29 23 30 82 31 24 32 25 33 26 34 76 35 27 36
REMARK SMILES IDX 81 37 75 38 77 39 28 40 80 41 74 42 73 43 29 45 61 46 41 47
REMARK SMILES IDX 60 48 42 49 45 50 59 51 78 52 43 53 44 54 58 56 79 57 46 58
REMARK SMILES IDX 30 59 31 60 39 61 32 62 38 63 40 64 37 65 33 66 34 67 35 68
REMARK SMILES IDX 36 69 62 70 63 71 71 72 64 73 70 74 72 75 69 76 65 77 66 78
REMARK SMILES IDX 67 79 68 80 47 81 48 82 56 83 49 84 55 85 57 86 54 87 50 88
REMARK SMILES IDX 51 89 52 90 53 91
REMARK H PARENT 13 7 5 19 18 25 77 44 45 55
REMARK Flexibility Score: inf
ROOT
ATOM      1  C   UNL A   1      31.311  30.553  25.302  1.00  0.00     0.023 C 
ENDROOT
BRANCH   1   2
ATOM      2  C   UNL A   1      31.594  29.153  24.772  1.00  0.00     0.023 C 
BRANCH   2   3
ATOM      3  C   UNL A   1      31.205  28.938  23.308  1.00  0.00     0.116 C 
BRANCH   3   4
ATOM      4  N   UNL A   1      32.283  28.284  22.592  1.00  0.00    -0.356 N 
ATOM      5  C   UNL A   1      32.553  26.957  22.457  1.00  0.00     0.225 C 
ATOM      6  O   UNL A   1      33.606  26.627  21.910  1.00  0.00    -0.275 OA
ATOM      7  H   UNL A   1      32.913  28.888  22.138  1.00  0.00     0.163 HD
BRANCH   5   8
ATOM      8  C   UNL A   1      31.563  25.922  22.941  1.00  0.00     0.166 C 
BRANCH   8   9
ATOM      9  C   UNL A   1      31.897  25.272  24.282  1.00  0.00     0.217 C 
ATOM     10  C   UNL A   1      32.756  19.624  24.441  1.00  0.00     0.045 C 
ATOM     11  C   UNL A   1      32.517  21.101  24.414  1.00  0.00    -0.039 C 
ATOM     12  C   UNL A   1      31.558  21.682  25.164  1.00  0.00     0.102 C 
ATOM     13  C   UNL A   1      33.373  21.893  23.524  1.00  0.00     0.047 C 
ATOM     14  C   UNL A   1      31.379  23.142  24.985  1.00  0.00     0.283 C 
ATOM     15  C   UNL A   1      33.222  23.226  23.454  1.00  0.00     0.202 C 
ATOM     16  N   UNL A   1      30.425  23.827  25.548  1.00  0.00    -0.206 N 
ATOM     17  N   UNL A   1      32.238  23.858  24.174  1.00  0.00    -0.217 N 
ATOM     18  C   UNL A   1      30.586  25.134  25.107  1.00  0.00     0.356 C 
ATOM     19  H   UNL A   1      29.734  23.488  26.161  1.00  0.00     0.315 HD
ATOM     20  O   UNL A   1      29.820  26.056  25.345  1.00  0.00    -0.242 OA
ATOM     21  C   UNL A   1      32.895  25.971  25.198  1.00  0.00     0.076 C 
ENDBRANCH   8   9
ENDBRANCH   5   8
ENDBRANCH   3   4
ENDBRANCH   2   3
ENDBRANCH   1   2
BRANCH   1  22
ATOM     22  C   UNL A   1      32.075  30.912  26.566  1.00  0.00     0.116 C 
BRANCH  22  23
ATOM     23  N   UNL A   1      32.041  32.336  26.868  1.00  0.00    -0.352 N 
ATOM     24  C   UNL A   1      32.952  33.086  27.574  1.00  0.00     0.251 C 
ATOM     25  H   UNL A   1      31.260  32.828  26.522  1.00  0.00     0.163 HD
ATOM     26  O   UNL A   1      32.698  34.251  27.862  1.00  0.00    -0.269 OA
BRANCH  24  27
ATOM     27  C   UNL A   1      34.212  32.454  28.011  1.00  0.00     0.039 A 
ATOM     28  C   UNL A   1      35.352  33.245  28.153  1.00  0.00     0.014 A 
ATOM     29  C   UNL A   1      34.240  31.098  28.353  1.00  0.00     0.014 A 
ATOM     30  C   UNL A   1      36.503  32.691  28.714  1.00  0.00     0.010 A 
ATOM     31  C   UNL A   1      35.354  30.576  28.998  1.00  0.00     0.010 A 
ATOM     32  C   UNL A   1      36.496  31.368  29.188  1.00  0.00    -0.014 A 
BRANCH  32  33
ATOM     33  C   UNL A   1      37.674  30.796  29.889  1.00  0.00     0.031 A 
ATOM     34  C   UNL A   1      37.983  31.212  31.301  1.00  0.00     0.074 A 
ATOM     35  C   UNL A   1      38.494  29.950  29.233  1.00  0.00     0.049 A 
ATOM     36  N   UNL A   1      38.997  30.880  32.058  1.00  0.00    -0.248 NA
ATOM     37  C   UNL A   1      37.045  32.151  31.934  1.00  0.00     0.031 C 
ATOM     38  C   UNL A   1      38.320  29.510  27.846  1.00  0.00     0.029 A 
ATOM     39  N   UNL A   1      39.640  29.313  29.638  1.00  0.00    -0.354 N 
ATOM     40  C   UNL A   1      38.822  31.573  33.250  1.00  0.00     0.074 A 
ATOM     41  C   UNL A   1      37.646  32.399  33.087  1.00  0.00     0.031 C 
ATOM     42  C   UNL A   1      39.301  28.649  27.530  1.00  0.00     0.029 A 
ATOM     43  C   UNL A   1      40.205  28.518  28.667  1.00  0.00     0.049 A 
ATOM     44  H   UNL A   1      40.022  29.415  30.539  1.00  0.00     0.167 HD
ATOM     45  C   UNL A   1      39.560  31.506  34.386  1.00  0.00     0.034 A 
ATOM     46  C   UNL A   1      41.332  27.777  28.687  1.00  0.00     0.034 A 
ATOM     47  C   UNL A   1      40.726  30.669  34.531  1.00  0.00     0.049 A 
ATOM     48  C   UNL A   1      42.157  27.748  29.950  1.00  0.00     0.074 A 
ATOM     49  C   UNL A   1      41.517  30.483  35.651  1.00  0.00     0.029 A 
ATOM     50  N   UNL A   1      41.275  29.885  33.524  1.00  0.00    -0.354 N 
ATOM     51  N   UNL A   1      41.946  28.368  31.088  1.00  0.00    -0.248 NA
ATOM     52  C   UNL A   1      43.364  26.915  29.933  1.00  0.00     0.031 C 
ATOM     53  C   UNL A   1      42.586  29.654  35.300  1.00  0.00     0.029 A 
ATOM     54  C   UNL A   1      42.416  29.246  33.987  1.00  0.00     0.049 A 
ATOM     55  H   UNL A   1      40.909  29.796  32.614  1.00  0.00     0.167 HD
ATOM     56  C   UNL A   1      42.980  27.970  31.933  1.00  0.00     0.074 A 
ATOM     57  C   UNL A   1      43.799  27.044  31.177  1.00  0.00     0.031 C 
ATOM     58  C   UNL A   1      43.229  28.333  33.217  1.00  0.00     0.034 A 
BRANCH  45  59
ATOM     59  C   UNL A   1      39.138  32.376  35.545  1.00  0.00     0.023 A 
ATOM     60  C   UNL A   1      39.570  33.709  35.663  1.00  0.00     0.031 A 
ATOM     61  C   UNL A   1      38.305  31.864  36.554  1.00  0.00     0.131 A 
ATOM     62  C   UNL A   1      39.228  34.459  36.799  1.00  0.00     0.055 A 
ATOM     63  C   UNL A   1      37.898  32.643  37.640  1.00  0.00     0.041 A 
ATOM     64  F   UNL A   1      37.880  30.592  36.510  1.00  0.00    -0.206 F 
ATOM     65  C   UNL A   1      38.371  33.945  37.773  1.00  0.00     0.022 A 
BRANCH  62  66
ATOM     66  S   UNL A   1      40.037  36.062  37.052  1.00  0.00     0.124 S 
ATOM     67  O   UNL A   1      41.417  35.659  37.311  1.00  0.00    -0.237 OA
ATOM     68  O   UNL A   1      39.796  36.742  35.785  1.00  0.00    -0.237 OA
ATOM     69  O   UNL A   1      39.335  36.622  38.206  1.00  0.00    -0.744 OA
ENDBRANCH  62  66
ENDBRANCH  45  59
BRANCH  46  70
ATOM     70  C   UNL A   1      41.762  27.014  27.478  1.00  0.00     0.023 A 
ATOM     71  C   UNL A   1      41.561  25.627  27.389  1.00  0.00     0.031 A 
ATOM     72  C   UNL A   1      42.429  27.650  26.417  1.00  0.00     0.131 A 
ATOM     73  C   UNL A   1      42.072  24.913  26.293  1.00  0.00     0.055 A 
ATOM     74  C   UNL A   1      42.881  26.946  25.299  1.00  0.00     0.041 A 
ATOM     75  F   UNL A   1      42.647  28.975  26.448  1.00  0.00    -0.206 F 
ATOM     76  C   UNL A   1      42.717  25.566  25.240  1.00  0.00     0.022 A 
BRANCH  73  77
ATOM     77  S   UNL A   1      41.977  23.102  26.315  1.00  0.00     0.124 S 
ATOM     78  O   UNL A   1      42.741  22.780  27.514  1.00  0.00    -0.237 OA
ATOM     79  O   UNL A   1      40.537  22.877  26.391  1.00  0.00    -0.237 OA
ATOM     80  O   UNL A   1      42.601  22.714  25.052  1.00  0.00    -0.744 OA
ENDBRANCH  73  77
ENDBRANCH  46  70
BRANCH  58  81
ATOM     81  C   UNL A   1      44.414  27.688  33.897  1.00  0.00     0.023 A 
ATOM     82  C   UNL A   1      44.287  26.497  34.633  1.00  0.00     0.031 A 
ATOM     83  C   UNL A   1      45.686  28.282  33.813  1.00  0.00     0.131 A 
ATOM     84  C   UNL A   1      45.401  25.971  35.307  1.00  0.00     0.055 A 
ATOM     85  C   UNL A   1      46.803  27.717  34.427  1.00  0.00     0.041 A 
ATOM     86  F   UNL A   1      45.865  29.422  33.126  1.00  0.00    -0.206 F 
ATOM     87  C   UNL A   1      46.662  26.562  35.191  1.00  0.00     0.022 A 
BRANCH  84  88
ATOM     88  S   UNL A   1      45.157  24.562  36.422  1.00  0.00     0.124 S 
ATOM     89  O   UNL A   1      44.497  23.596  35.548  1.00  0.00    -0.237 OA
ATOM     90  O   UNL A   1      46.524  24.235  36.816  1.00  0.00    -0.237 OA
ATOM     91  O   UNL A   1      44.319  25.109  37.487  1.00  0.00    -0.744 OA
ENDBRANCH  84  88
ENDBRANCH  58  81
ENDBRANCH  32  33
ENDBRANCH  24  27
ENDBRANCH  22  23
ENDBRANCH   1  22
TORSDOF 15
ENDMDL
MODEL 3
REMARK VINA RESULT:     -12.1      5.649      8.827
REMARK SMILES CC1=CC2=[NH+]C(=O)[C@](C)(CC(=O)NCCCCNC(=O)c3ccc(-c4c5nc(c(-c6cc(S(=O)(=O)[O-])ccc6F)c6ccc([nH]6)c(-c6cc(S(=O)(=O)[O-])ccc6F)c6nc(c(-c7cc(S(=O)(=O)[O-])ccc7F)c7ccc4[nH]7)C=C6)C=C5)cc3)N2C=C1
REMARK SMILES IDX 16 1 15 2 14 3 13 4 11 5 12 6 10 8 8 9 1 10 2 11 3 12 86 13
REMARK SMILES IDX 4 14 85 15 5 16 84 17 6 18 7 20 9 21 17 22 18 23 19 24 20 26
REMARK SMILES IDX 21 27 22 28 83 29 23 30 82 31 24 32 25 33 26 34 76 35 27 36
REMARK SMILES IDX 81 37 75 38 77 39 28 40 80 41 74 42 73 43 29 45 61 46 41 47
REMARK SMILES IDX 60 48 42 49 45 50 59 51 78 52 43 53 44 54 58 56 79 57 46 58
REMARK SMILES IDX 30 59 31 60 39 61 32 62 38 63 40 64 37 65 33 66 34 67 35 68
REMARK SMILES IDX 36 69 62 70 63 71 71 72 64 73 70 74 72 75 69 76 65 77 66 78
REMARK SMILES IDX 67 79 68 80 47 81 48 82 56 83 49 84 55 85 57 86 54 87 50 88
REMARK SMILES IDX 51 89 52 90 53 91
REMARK H PARENT 13 7 5 19 18 25 77 44 45 55
REMARK Flexibility Score: inf
ROOT
ATOM      1  C   UNL A   1      32.034  31.289  26.969  1.00  0.00     0.023 C 
ENDROOT
BRANCH   1   2
ATOM      2  C   UNL A   1      32.431  30.073  26.142  1.00  0.00     0.023 C 
BRANCH   2   3
ATOM      3  C   UNL A   1      31.441  29.709  25.034  1.00  0.00     0.116 C 
BRANCH   3   4
ATOM      4  N   UNL A   1      32.151  29.225  23.866  1.00  0.00    -0.356 N 
ATOM      5  C   UNL A   1      32.278  27.954  23.395  1.00  0.00     0.225 C 
ATOM      6  O   UNL A   1      33.044  27.754  22.450  1.00  0.00    -0.275 OA
ATOM      7  H   UNL A   1      32.609  29.916  23.335  1.00  0.00     0.163 HD
BRANCH   5   8
ATOM      8  C   UNL A   1      31.471  26.829  24.001  1.00  0.00     0.166 C 
BRANCH   8   9
ATOM      9  C   UNL A   1      32.214  25.962  25.014  1.00  0.00     0.217 C 
ATOM     10  C   UNL A   1      32.414  20.315  24.151  1.00  0.00     0.045 C 
ATOM     11  C   UNL A   1      32.354  21.791  24.396  1.00  0.00    -0.039 C 
ATOM     12  C   UNL A   1      31.827  22.306  25.526  1.00  0.00     0.102 C 
ATOM     13  C   UNL A   1      32.891  22.658  23.341  1.00  0.00     0.047 C 
ATOM     14  C   UNL A   1      31.763  23.783  25.607  1.00  0.00     0.283 C 
ATOM     15  C   UNL A   1      32.879  23.992  23.495  1.00  0.00     0.202 C 
ATOM     16  N   UNL A   1      31.182  24.429  26.577  1.00  0.00    -0.206 N 
ATOM     17  N   UNL A   1      32.323  24.564  24.615  1.00  0.00    -0.217 N 
ATOM     18  C   UNL A   1      31.311  25.776  26.267  1.00  0.00     0.356 C 
ATOM     19  H   UNL A   1      30.742  24.042  27.368  1.00  0.00     0.315 HD
ATOM     20  O   UNL A   1      30.805  26.695  26.895  1.00  0.00    -0.242 OA
ATOM     21  C   UNL A   1      33.560  26.450  25.539  1.00  0.00     0.076 C 
ENDBRANCH   8   9
ENDBRANCH   5   8
ENDBRANCH   3   4
ENDBRANCH   2   3
ENDBRANCH   1   2
BRANCH   1  22
ATOM     22  C   UNL A   1      33.183  32.231  27.291  1.00  0.00     0.116 C 
BRANCH  22  23
ATOM     23  N   UNL A   1      32.745  33.596  27.550  1.00  0.00    -0.352 N 
ATOM     24  C   UNL A   1      33.176  34.465  28.525  1.00  0.00     0.251 C 
ATOM     25  H   UNL A   1      32.047  33.943  26.948  1.00  0.00     0.163 HD
ATOM     26  O   UNL A   1      32.597  35.532  28.696  1.00  0.00    -0.269 OA
BRANCH  24  27
ATOM     27  C   UNL A   1      34.311  34.071  29.383  1.00  0.00     0.039 A 
ATOM     28  C   UNL A   1      34.072  33.254  30.487  1.00  0.00     0.014 A 
ATOM     29  C   UNL A   1      35.614  34.450  29.047  1.00  0.00     0.014 A 
ATOM     30  C   UNL A   1      35.153  32.748  31.210  1.00  0.00     0.010 A 
ATOM     31  C   UNL A   1      36.689  33.869  29.708  1.00  0.00     0.010 A 
ATOM     32  C   UNL A   1      36.470  33.010  30.796  1.00  0.00    -0.014 A 
BRANCH  32  33
ATOM     33  C   UNL A   1      37.631  32.392  31.484  1.00  0.00     0.031 A 
ATOM     34  C   UNL A   1      38.371  31.255  30.835  1.00  0.00     0.074 A 
ATOM     35  C   UNL A   1      37.978  32.815  32.717  1.00  0.00     0.049 A 
ATOM     36  N   UNL A   1      39.363  30.540  31.300  1.00  0.00    -0.248 NA
ATOM     37  C   UNL A   1      37.914  30.846  29.497  1.00  0.00     0.031 C 
ATOM     38  C   UNL A   1      37.305  33.881  33.465  1.00  0.00     0.029 A 
ATOM     39  N   UNL A   1      38.978  32.402  33.561  1.00  0.00    -0.354 N 
ATOM     40  C   UNL A   1      39.643  29.596  30.319  1.00  0.00     0.074 A 
ATOM     41  C   UNL A   1      38.668  29.783  29.266  1.00  0.00     0.031 C 
ATOM     42  C   UNL A   1      37.933  34.059  34.638  1.00  0.00     0.029 A 
ATOM     43  C   UNL A   1      39.015  33.087  34.754  1.00  0.00     0.049 A 
ATOM     44  H   UNL A   1      39.609  31.682  33.335  1.00  0.00     0.167 HD
ATOM     45  C   UNL A   1      40.638  28.675  30.288  1.00  0.00     0.034 A 
ATOM     46  C   UNL A   1      39.821  32.941  35.825  1.00  0.00     0.034 A 
ATOM     47  C   UNL A   1      41.605  28.510  31.345  1.00  0.00     0.049 A 
ATOM     48  C   UNL A   1      40.897  31.883  35.782  1.00  0.00     0.074 A 
ATOM     49  C   UNL A   1      42.685  27.647  31.394  1.00  0.00     0.029 A 
ATOM     50  N   UNL A   1      41.606  29.215  32.542  1.00  0.00    -0.354 N 
ATOM     51  N   UNL A   1      41.182  31.035  34.821  1.00  0.00    -0.248 NA
ATOM     52  C   UNL A   1      41.763  31.771  36.961  1.00  0.00     0.031 C 
ATOM     53  C   UNL A   1      43.289  27.771  32.649  1.00  0.00     0.029 A 
ATOM     54  C   UNL A   1      42.644  28.777  33.351  1.00  0.00     0.049 A 
ATOM     55  H   UNL A   1      40.964  29.921  32.782  1.00  0.00     0.167 HD
ATOM     56  C   UNL A   1      42.284  30.311  35.270  1.00  0.00     0.074 A 
ATOM     57  C   UNL A   1      42.619  30.837  36.578  1.00  0.00     0.031 C 
ATOM     58  C   UNL A   1      42.959  29.305  34.658  1.00  0.00     0.034 A 
BRANCH  45  59
ATOM     59  C   UNL A   1      40.710  27.768  29.083  1.00  0.00     0.023 A 
ATOM     60  C   UNL A   1      41.642  27.982  28.052  1.00  0.00     0.031 A 
ATOM     61  C   UNL A   1      39.827  26.682  28.955  1.00  0.00     0.131 A 
ATOM     62  C   UNL A   1      41.620  27.170  26.907  1.00  0.00     0.055 A 
ATOM     63  C   UNL A   1      39.867  25.825  27.853  1.00  0.00     0.041 A 
ATOM     64  F   UNL A   1      38.899  26.441  29.895  1.00  0.00    -0.206 F 
ATOM     65  C   UNL A   1      40.759  26.075  26.814  1.00  0.00     0.022 A 
BRANCH  62  66
ATOM     66  S   UNL A   1      42.633  27.655  25.484  1.00  0.00     0.124 S 
ATOM     67  O   UNL A   1      42.552  26.462  24.644  1.00  0.00    -0.237 OA
ATOM     68  O   UNL A   1      41.937  28.836  24.987  1.00  0.00    -0.237 OA
ATOM     69  O   UNL A   1      43.949  27.905  26.070  1.00  0.00    -0.744 OA
ENDBRANCH  62  66
ENDBRANCH  45  59
BRANCH  46  70
ATOM     70  C   UNL A   1      39.642  33.796  37.035  1.00  0.00     0.023 A 
ATOM     71  C   UNL A   1      38.997  33.303  38.181  1.00  0.00     0.031 A 
ATOM     72  C   UNL A   1      40.065  35.137  37.045  1.00  0.00     0.131 A 
ATOM     73  C   UNL A   1      38.742  34.159  39.264  1.00  0.00     0.055 A 
ATOM     74  C   UNL A   1      39.865  35.968  38.149  1.00  0.00     0.041 A 
ATOM     75  F   UNL A   1      40.688  35.662  35.977  1.00  0.00    -0.206 F 
ATOM     76  C   UNL A   1      39.185  35.484  39.262  1.00  0.00     0.022 A 
BRANCH  73  77
ATOM     77  S   UNL A   1      37.725  33.544  40.635  1.00  0.00     0.124 S 
ATOM     78  O   UNL A   1      38.598  32.535  41.222  1.00  0.00    -0.237 OA
ATOM     79  O   UNL A   1      37.521  34.755  41.424  1.00  0.00    -0.237 OA
ATOM     80  O   UNL A   1      36.532  33.029  39.968  1.00  0.00    -0.744 OA
ENDBRANCH  73  77
ENDBRANCH  46  70
BRANCH  58  81
ATOM     81  C   UNL A   1      44.159  28.741  35.383  1.00  0.00     0.023 A 
ATOM     82  C   UNL A   1      44.040  27.681  36.300  1.00  0.00     0.031 A 
ATOM     83  C   UNL A   1      45.438  29.279  35.159  1.00  0.00     0.131 A 
ATOM     84  C   UNL A   1      45.170  27.236  37.003  1.00  0.00     0.055 A 
ATOM     85  C   UNL A   1      46.569  28.786  35.808  1.00  0.00     0.041 A 
ATOM     86  F   UNL A   1      45.611  30.295  34.297  1.00  0.00    -0.206 F 
ATOM     87  C   UNL A   1      46.437  27.767  36.748  1.00  0.00     0.022 A 
BRANCH  84  88
ATOM     88  S   UNL A   1      44.945  26.023  38.332  1.00  0.00     0.124 S 
ATOM     89  O   UNL A   1      43.671  26.440  38.910  1.00  0.00    -0.237 OA
ATOM     90  O   UNL A   1      44.929  24.759  37.602  1.00  0.00    -0.237 OA
ATOM     91  O   UNL A   1      46.112  26.230  39.186  1.00  0.00    -0.744 OA
ENDBRANCH  84  88
ENDBRANCH  58  81
ENDBRANCH  32  33
ENDBRANCH  24  27
ENDBRANCH  22  23
ENDBRANCH   1  22
TORSDOF 15
ENDMDL
