MODEL 1
REMARK VINA RESULT:     -10.3      0.000      0.000
REMARK SMILES CCc1nsc(NC[C@H](CC(C)C)C(=O)NCCCCNC(=O)c2ccc(-c3c4nc(c(-c5cc(S(=O)(=O)[O-])ccc5F)c5ccc([nH]5)c(-c5cc(S(=O)(=O)[O-])ccc5F)c5nc(c(-c6cc(S(=O)(=O)[O-])ccc6F)c6ccc3[nH]6)C=C5)C=C4)cc2)n1
REMARK SMILES IDX 18 1 17 2 16 3 14 4 15 5 9 7 8 8 7 9 6 11 3 12 4 13 87 14
REMARK SMILES IDX 5 15 2 16 1 17 10 18 11 19 12 20 13 21 19 22 20 23 21 24
REMARK SMILES IDX 22 25 23 27 24 28 25 29 86 30 26 31 85 32 27 33 28 34 29 35
REMARK SMILES IDX 79 36 30 37 84 38 78 39 80 40 31 41 83 42 77 43 76 44 32 46
REMARK SMILES IDX 64 47 44 48 63 49 45 50 48 51 62 52 81 53 46 54 47 55 61 57
REMARK SMILES IDX 82 58 49 59 33 60 34 61 42 62 35 63 41 64 43 65 40 66 36 67
REMARK SMILES IDX 37 68 38 69 39 70 65 71 66 72 74 73 67 74 73 75 75 76 72 77
REMARK SMILES IDX 68 78 69 79 70 80 71 81 50 82 51 83 59 84 52 85 58 86 60 87
REMARK SMILES IDX 57 88 53 89 54 90 55 91 56 92
REMARK H PARENT 16 6 7 10 21 26 80 45 48 56
REMARK Flexibility Score: inf
ROOT
ATOM      1  C   UNL A   1      33.627  28.973  25.548  1.00  0.00     0.023 C 
ENDROOT
BRANCH   1   2
ATOM      2  C   UNL A   1      33.181  27.579  25.977  1.00  0.00     0.116 C 
BRANCH   2   3
ATOM      3  N   UNL A   1      33.775  26.528  25.164  1.00  0.00    -0.356 N 
ATOM      4  C   UNL A   1      33.249  25.363  24.688  1.00  0.00     0.224 C 
ATOM      5  O   UNL A   1      33.971  24.648  23.988  1.00  0.00    -0.275 OA
ATOM      6  H   UNL A   1      34.715  26.684  24.918  1.00  0.00     0.163 HD
BRANCH   4   7
ATOM      7  C   UNL A   1      31.805  24.959  24.966  1.00  0.00     0.098 C 
BRANCH   7   8
ATOM      8  C   UNL A   1      31.795  23.473  25.357  1.00  0.00     0.128 C 
BRANCH   8   9
ATOM      9  N   UNL A   1      32.026  22.606  24.219  1.00  0.00    -0.359 N 
ATOM     10  H   UNL A   1      31.722  22.923  23.338  1.00  0.00     0.162 HD
BRANCH   9  11
ATOM     11  C   UNL A   1      32.628  21.397  24.272  1.00  0.00     0.202 A 
ATOM     12  C   UNL A   1      32.977  19.257  23.869  1.00  0.00     0.144 A 
ATOM     13  N   UNL A   1      34.065  19.400  24.626  1.00  0.00    -0.174 NA
ATOM     14  N   UNL A   1      32.153  20.351  23.632  1.00  0.00    -0.204 NA
ATOM     15  S   UNL A   1      34.076  20.986  25.129  1.00  0.00     0.004 S 
BRANCH  12  16
ATOM     16  C   UNL A   1      32.633  17.930  23.290  1.00  0.00     0.075 C 
ATOM     17  C   UNL A   1      33.801  16.958  23.351  1.00  0.00     0.012 C 
ENDBRANCH  12  16
ENDBRANCH   9  11
ENDBRANCH   8   9
ENDBRANCH   7   8
BRANCH   7  18
ATOM     18  C   UNL A   1      30.864  25.383  23.818  1.00  0.00     0.018 C 
BRANCH  18  19
ATOM     19  C   UNL A   1      30.080  26.686  24.084  1.00  0.00    -0.017 C 
ATOM     20  C   UNL A   1      30.521  27.840  23.181  1.00  0.00     0.007 C 
ATOM     21  C   UNL A   1      28.583  26.426  23.879  1.00  0.00     0.007 C 
ENDBRANCH  18  19
ENDBRANCH   7  18
ENDBRANCH   4   7
ENDBRANCH   2   3
ENDBRANCH   1   2
BRANCH   1  22
ATOM     22  C   UNL A   1      32.518  30.022  25.501  1.00  0.00     0.023 C 
BRANCH  22  23
ATOM     23  C   UNL A   1      32.069  30.564  26.854  1.00  0.00     0.116 C 
BRANCH  23  24
ATOM     24  N   UNL A   1      32.165  32.013  26.953  1.00  0.00    -0.352 N 
ATOM     25  C   UNL A   1      33.168  32.777  27.502  1.00  0.00     0.251 C 
ATOM     26  H   UNL A   1      31.407  32.516  26.576  1.00  0.00     0.163 HD
ATOM     27  O   UNL A   1      33.023  33.992  27.602  1.00  0.00    -0.269 OA
BRANCH  25  28
ATOM     28  C   UNL A   1      34.393  32.122  28.008  1.00  0.00     0.039 A 
ATOM     29  C   UNL A   1      35.569  32.871  28.099  1.00  0.00     0.014 A 
ATOM     30  C   UNL A   1      34.372  30.790  28.429  1.00  0.00     0.014 A 
ATOM     31  C   UNL A   1      36.702  32.309  28.693  1.00  0.00     0.010 A 
ATOM     32  C   UNL A   1      35.478  30.256  29.083  1.00  0.00     0.010 A 
ATOM     33  C   UNL A   1      36.652  31.012  29.231  1.00  0.00    -0.014 A 
BRANCH  33  34
ATOM     34  C   UNL A   1      37.806  30.433  29.965  1.00  0.00     0.031 A 
ATOM     35  C   UNL A   1      38.083  30.852  31.382  1.00  0.00     0.074 A 
ATOM     36  C   UNL A   1      38.649  29.596  29.329  1.00  0.00     0.049 A 
ATOM     37  N   UNL A   1      39.096  30.549  32.154  1.00  0.00    -0.248 NA
ATOM     38  C   UNL A   1      37.105  31.759  32.001  1.00  0.00     0.031 C 
ATOM     39  C   UNL A   1      38.510  29.149  27.940  1.00  0.00     0.029 A 
ATOM     40  N   UNL A   1      39.799  28.981  29.759  1.00  0.00    -0.354 N 
ATOM     41  C   UNL A   1      38.887  31.241  33.341  1.00  0.00     0.074 A 
ATOM     42  C   UNL A   1      37.681  32.023  33.164  1.00  0.00     0.031 C 
ATOM     43  C   UNL A   1      39.524  28.320  27.640  1.00  0.00     0.029 A 
ATOM     44  C   UNL A   1      40.410  28.212  28.795  1.00  0.00     0.049 A 
ATOM     45  H   UNL A   1      40.154  29.083  30.672  1.00  0.00     0.167 HD
ATOM     46  C   UNL A   1      39.622  31.211  34.482  1.00  0.00     0.034 A 
ATOM     47  C   UNL A   1      41.562  27.513  28.831  1.00  0.00     0.034 A 
ATOM     48  C   UNL A   1      40.814  30.415  34.647  1.00  0.00     0.049 A 
ATOM     49  C   UNL A   1      42.369  27.504  30.104  1.00  0.00     0.074 A 
ATOM     50  C   UNL A   1      41.602  30.265  35.775  1.00  0.00     0.029 A 
ATOM     51  N   UNL A   1      41.394  29.636  33.653  1.00  0.00    -0.354 N 
ATOM     52  N   UNL A   1      42.134  28.128  31.235  1.00  0.00    -0.248 NA
ATOM     53  C   UNL A   1      43.590  26.688  30.108  1.00  0.00     0.031 C 
ATOM     54  C   UNL A   1      42.690  29.447  35.447  1.00  0.00     0.029 A 
ATOM     55  C   UNL A   1      42.544  29.026  34.135  1.00  0.00     0.049 A 
ATOM     56  H   UNL A   1      41.041  29.531  32.740  1.00  0.00     0.167 HD
ATOM     57  C   UNL A   1      43.164  27.754  32.095  1.00  0.00     0.074 A 
ATOM     58  C   UNL A   1      44.012  26.843  31.354  1.00  0.00     0.031 C 
ATOM     59  C   UNL A   1      43.385  28.128  33.380  1.00  0.00     0.034 A 
BRANCH  46  60
ATOM     60  C   UNL A   1      39.166  32.087  35.623  1.00  0.00     0.023 A 
ATOM     61  C   UNL A   1      39.571  33.430  35.731  1.00  0.00     0.031 A 
ATOM     62  C   UNL A   1      38.340  31.567  36.636  1.00  0.00     0.131 A 
ATOM     63  C   UNL A   1      39.218  34.180  36.863  1.00  0.00     0.055 A 
ATOM     64  C   UNL A   1      37.923  32.345  37.718  1.00  0.00     0.041 A 
ATOM     65  F   UNL A   1      37.937  30.287  36.600  1.00  0.00    -0.206 F 
ATOM     66  C   UNL A   1      38.376  33.655  37.845  1.00  0.00     0.022 A 
BRANCH  63  67
ATOM     67  S   UNL A   1      39.997  35.800  37.103  1.00  0.00     0.124 S 
ATOM     68  O   UNL A   1      39.660  36.478  35.853  1.00  0.00    -0.237 OA
ATOM     69  O   UNL A   1      39.326  36.298  38.300  1.00  0.00    -0.237 OA
ATOM     70  O   UNL A   1      41.413  35.480  37.269  1.00  0.00    -0.744 OA
ENDBRANCH  63  67
ENDBRANCH  46  60
BRANCH  47  71
ATOM     71  C   UNL A   1      42.032  26.769  27.628  1.00  0.00     0.023 A 
ATOM     72  C   UNL A   1      41.802  25.391  27.495  1.00  0.00     0.031 A 
ATOM     73  C   UNL A   1      42.753  27.420  26.611  1.00  0.00     0.131 A 
ATOM     74  C   UNL A   1      42.329  24.697  26.395  1.00  0.00     0.055 A 
ATOM     75  C   UNL A   1      43.231  26.735  25.493  1.00  0.00     0.041 A 
ATOM     76  F   UNL A   1      42.992  28.738  26.685  1.00  0.00    -0.206 F 
ATOM     77  C   UNL A   1      43.031  25.361  25.387  1.00  0.00     0.022 A 
BRANCH  74  78
ATOM     78  S   UNL A   1      42.149  22.892  26.339  1.00  0.00     0.124 S 
ATOM     79  O   UNL A   1      42.651  22.585  25.005  1.00  0.00    -0.237 OA
ATOM     80  O   UNL A   1      42.990  22.472  27.456  1.00  0.00    -0.237 OA
ATOM     81  O   UNL A   1      40.715  22.688  26.530  1.00  0.00    -0.744 OA
ENDBRANCH  74  78
ENDBRANCH  47  71
BRANCH  59  82
ATOM     82  C   UNL A   1      44.569  27.505  34.077  1.00  0.00     0.023 A 
ATOM     83  C   UNL A   1      44.459  26.298  34.788  1.00  0.00     0.031 A 
ATOM     84  C   UNL A   1      45.825  28.139  34.039  1.00  0.00     0.131 A 
ATOM     85  C   UNL A   1      45.570  25.789  35.477  1.00  0.00     0.055 A 
ATOM     86  C   UNL A   1      46.940  27.600  34.679  1.00  0.00     0.041 A 
ATOM     87  F   UNL A   1      45.984  29.295  33.375  1.00  0.00    -0.206 F 
ATOM     88  C   UNL A   1      46.814  26.425  35.414  1.00  0.00     0.022 A 
BRANCH  85  89
ATOM     89  S   UNL A   1      45.351  24.329  36.531  1.00  0.00     0.124 S 
ATOM     90  O   UNL A   1      44.952  24.928  37.801  1.00  0.00    -0.237 OA
ATOM     91  O   UNL A   1      44.313  23.586  35.822  1.00  0.00    -0.237 OA
ATOM     92  O   UNL A   1      46.671  23.702  36.529  1.00  0.00    -0.744 OA
ENDBRANCH  85  89
ENDBRANCH  59  82
ENDBRANCH  33  34
ENDBRANCH  25  28
ENDBRANCH  23  24
ENDBRANCH  22  23
ENDBRANCH   1  22
TORSDOF 20
ENDMDL
MODEL 2
REMARK VINA RESULT:     -10.3      2.969      8.795
REMARK SMILES CCc1nsc(NC[C@H](CC(C)C)C(=O)NCCCCNC(=O)c2ccc(-c3c4nc(c(-c5cc(S(=O)(=O)[O-])ccc5F)c5ccc([nH]5)c(-c5cc(S(=O)(=O)[O-])ccc5F)c5nc(c(-c6cc(S(=O)(=O)[O-])ccc6F)c6ccc3[nH]6)C=C5)C=C4)cc2)n1
REMARK SMILES IDX 18 1 17 2 16 3 14 4 15 5 9 7 8 8 7 9 6 11 3 12 4 13 87 14
REMARK SMILES IDX 5 15 2 16 1 17 10 18 11 19 12 20 13 21 19 22 20 23 21 24
REMARK SMILES IDX 22 25 23 27 24 28 25 29 86 30 26 31 85 32 27 33 28 34 29 35
REMARK SMILES IDX 79 36 30 37 84 38 78 39 80 40 31 41 83 42 77 43 76 44 32 46
REMARK SMILES IDX 64 47 44 48 63 49 45 50 48 51 62 52 81 53 46 54 47 55 61 57
REMARK SMILES IDX 82 58 49 59 33 60 34 61 42 62 35 63 41 64 43 65 40 66 36 67
REMARK SMILES IDX 37 68 38 69 39 70 65 71 66 72 74 73 67 74 73 75 75 76 72 77
REMARK SMILES IDX 68 78 69 79 70 80 71 81 50 82 51 83 59 84 52 85 58 86 60 87
REMARK SMILES IDX 57 88 53 89 54 90 55 91 56 92
REMARK H PARENT 16 6 7 10 21 26 80 45 48 56
REMARK Flexibility Score: inf
ROOT
ATOM      1  C   UNL A   1      31.908  30.339  26.212  1.00  0.00     0.023 C 
ENDROOT
BRANCH   1   2
ATOM      2  C   UNL A   1      32.726  29.151  25.717  1.00  0.00     0.116 C 
BRANCH   2   3
ATOM      3  N   UNL A   1      33.328  29.391  24.414  1.00  0.00    -0.356 N 
ATOM      4  C   UNL A   1      33.532  28.554  23.357  1.00  0.00     0.224 C 
ATOM      5  O   UNL A   1      34.049  29.024  22.340  1.00  0.00    -0.275 OA
ATOM      6  H   UNL A   1      33.641  30.313  24.272  1.00  0.00     0.163 HD
BRANCH   4   7
ATOM      7  C   UNL A   1      33.106  27.090  23.396  1.00  0.00     0.098 C 
BRANCH   7   8
ATOM      8  C   UNL A   1      31.578  27.037  23.236  1.00  0.00     0.128 C 
BRANCH   8   9
ATOM      9  N   UNL A   1      31.098  27.976  22.243  1.00  0.00    -0.359 N 
ATOM     10  H   UNL A   1      31.641  28.093  21.430  1.00  0.00     0.162 HD
BRANCH   9  11
ATOM     11  C   UNL A   1      29.963  28.703  22.343  1.00  0.00     0.202 A 
ATOM     12  C   UNL A   1      28.587  30.407  22.092  1.00  0.00     0.144 A 
ATOM     13  N   UNL A   1      27.698  29.648  22.734  1.00  0.00    -0.174 NA
ATOM     14  N   UNL A   1      29.860  29.913  21.839  1.00  0.00    -0.204 NA
ATOM     15  S   UNL A   1      28.479  28.225  23.099  1.00  0.00     0.004 S 
BRANCH  12  16
ATOM     16  C   UNL A   1      28.226  31.784  21.659  1.00  0.00     0.075 C 
ATOM     17  C   UNL A   1      28.035  31.880  20.153  1.00  0.00     0.012 C 
ENDBRANCH  12  16
ENDBRANCH   9  11
ENDBRANCH   8   9
ENDBRANCH   7   8
BRANCH   7  18
ATOM     18  C   UNL A   1      33.703  26.356  24.615  1.00  0.00     0.018 C 
BRANCH  18  19
ATOM     19  C   UNL A   1      33.837  24.827  24.435  1.00  0.00    -0.017 C 
ATOM     20  C   UNL A   1      34.131  24.423  22.989  1.00  0.00     0.007 C 
ATOM     21  C   UNL A   1      34.957  24.308  25.344  1.00  0.00     0.007 C 
ENDBRANCH  18  19
ENDBRANCH   7  18
ENDBRANCH   4   7
ENDBRANCH   2   3
ENDBRANCH   1   2
BRANCH   1  22
ATOM     22  C   UNL A   1      32.486  31.063  27.427  1.00  0.00     0.023 C 
BRANCH  22  23
ATOM     23  C   UNL A   1      33.459  32.194  27.115  1.00  0.00     0.116 C 
BRANCH  23  24
ATOM     24  N   UNL A   1      32.954  33.506  27.492  1.00  0.00    -0.352 N 
ATOM     25  C   UNL A   1      33.347  34.318  28.530  1.00  0.00     0.251 C 
ATOM     26  H   UNL A   1      32.230  33.861  26.926  1.00  0.00     0.163 HD
ATOM     27  O   UNL A   1      32.723  35.350  28.767  1.00  0.00    -0.269 OA
BRANCH  25  28
ATOM     28  C   UNL A   1      34.490  33.921  29.378  1.00  0.00     0.039 A 
ATOM     29  C   UNL A   1      34.263  33.066  30.459  1.00  0.00     0.014 A 
ATOM     30  C   UNL A   1      35.785  34.354  29.083  1.00  0.00     0.014 A 
ATOM     31  C   UNL A   1      35.346  32.577  31.193  1.00  0.00     0.010 A 
ATOM     32  C   UNL A   1      36.868  33.811  29.770  1.00  0.00     0.010 A 
ATOM     33  C   UNL A   1      36.661  32.910  30.826  1.00  0.00    -0.014 A 
BRANCH  33  34
ATOM     34  C   UNL A   1      37.833  32.316  31.519  1.00  0.00     0.031 A 
ATOM     35  C   UNL A   1      38.613  31.210  30.864  1.00  0.00     0.074 A 
ATOM     36  C   UNL A   1      38.142  32.716  32.768  1.00  0.00     0.049 A 
ATOM     37  N   UNL A   1      39.593  30.489  31.346  1.00  0.00    -0.248 NA
ATOM     38  C   UNL A   1      38.214  30.846  29.497  1.00  0.00     0.031 C 
ATOM     39  C   UNL A   1      37.433  33.751  33.526  1.00  0.00     0.029 A 
ATOM     40  N   UNL A   1      39.123  32.291  33.631  1.00  0.00    -0.354 N 
ATOM     41  C   UNL A   1      39.916  29.575  30.350  1.00  0.00     0.074 A 
ATOM     42  C   UNL A   1      38.988  29.797  29.261  1.00  0.00     0.031 C 
ATOM     43  C   UNL A   1      38.012  33.891  34.729  1.00  0.00     0.029 A 
ATOM     44  C   UNL A   1      39.102  32.928  34.851  1.00  0.00     0.049 A 
ATOM     45  H   UNL A   1      39.779  31.595  33.398  1.00  0.00     0.167 HD
ATOM     46  C   UNL A   1      40.908  28.649  30.336  1.00  0.00     0.034 A 
ATOM     47  C   UNL A   1      39.863  32.746  35.948  1.00  0.00     0.034 A 
ATOM     48  C   UNL A   1      41.834  28.450  31.424  1.00  0.00     0.049 A 
ATOM     49  C   UNL A   1      40.950  31.703  35.915  1.00  0.00     0.074 A 
ATOM     50  C   UNL A   1      42.911  27.582  31.494  1.00  0.00     0.029 A 
ATOM     51  N   UNL A   1      41.792  29.124  32.638  1.00  0.00    -0.354 N 
ATOM     52  N   UNL A   1      41.274  30.877  34.946  1.00  0.00    -0.248 NA
ATOM     53  C   UNL A   1      41.783  31.576  37.118  1.00  0.00     0.031 C 
ATOM     54  C   UNL A   1      43.480  27.687  32.768  1.00  0.00     0.029 A 
ATOM     55  C   UNL A   1      42.806  28.673  33.471  1.00  0.00     0.049 A 
ATOM     56  H   UNL A   1      41.138  29.822  32.873  1.00  0.00     0.167 HD
ATOM     57  C   UNL A   1      42.367  30.153  35.415  1.00  0.00     0.074 A 
ATOM     58  C   UNL A   1      42.654  30.649  36.745  1.00  0.00     0.031 C 
ATOM     59  C   UNL A   1      43.072  29.171  34.800  1.00  0.00     0.034 A 
BRANCH  46  60
ATOM     60  C   UNL A   1      41.018  27.770  29.114  1.00  0.00     0.023 A 
ATOM     61  C   UNL A   1      42.001  27.991  28.131  1.00  0.00     0.031 A 
ATOM     62  C   UNL A   1      40.112  26.715  28.909  1.00  0.00     0.131 A 
ATOM     63  C   UNL A   1      42.003  27.225  26.956  1.00  0.00     0.055 A 
ATOM     64  C   UNL A   1      40.172  25.901  27.776  1.00  0.00     0.041 A 
ATOM     65  F   UNL A   1      39.139  26.466  29.801  1.00  0.00    -0.206 F 
ATOM     66  C   UNL A   1      41.111  26.165  26.783  1.00  0.00     0.022 A 
BRANCH  63  67
ATOM     67  S   UNL A   1      43.091  27.729  25.597  1.00  0.00     0.124 S 
ATOM     68  O   UNL A   1      44.005  28.646  26.275  1.00  0.00    -0.237 OA
ATOM     69  O   UNL A   1      43.665  26.459  25.165  1.00  0.00    -0.237 OA
ATOM     70  O   UNL A   1      42.181  28.359  24.643  1.00  0.00    -0.744 OA
ENDBRANCH  63  67
ENDBRANCH  46  60
BRANCH  47  71
ATOM     71  C   UNL A   1      39.624  33.556  37.176  1.00  0.00     0.023 A 
ATOM     72  C   UNL A   1      40.375  34.713  37.436  1.00  0.00     0.031 A 
ATOM     73  C   UNL A   1      38.666  33.162  38.128  1.00  0.00     0.131 A 
ATOM     74  C   UNL A   1      40.191  35.410  38.639  1.00  0.00     0.055 A 
ATOM     75  C   UNL A   1      38.451  33.888  39.300  1.00  0.00     0.041 A 
ATOM     76  F   UNL A   1      37.916  32.068  37.924  1.00  0.00    -0.206 F 
ATOM     77  C   UNL A   1      39.226  35.013  39.568  1.00  0.00     0.022 A 
BRANCH  74  78
ATOM     78  S   UNL A   1      41.290  36.805  39.011  1.00  0.00     0.124 S 
ATOM     79  O   UNL A   1      40.334  37.870  39.291  1.00  0.00    -0.237 OA
ATOM     80  O   UNL A   1      42.043  36.299  40.154  1.00  0.00    -0.237 OA
ATOM     81  O   UNL A   1      42.062  36.967  37.781  1.00  0.00    -0.744 OA
ENDBRANCH  74  78
ENDBRANCH  47  71
BRANCH  59  82
ATOM     82  C   UNL A   1      44.254  28.608  35.549  1.00  0.00     0.023 A 
ATOM     83  C   UNL A   1      44.112  27.566  36.482  1.00  0.00     0.031 A 
ATOM     84  C   UNL A   1      45.541  29.133  35.334  1.00  0.00     0.131 A 
ATOM     85  C   UNL A   1      45.228  27.119  37.205  1.00  0.00     0.055 A 
ATOM     86  C   UNL A   1      46.657  28.646  36.014  1.00  0.00     0.041 A 
ATOM     87  F   UNL A   1      45.733  30.130  34.454  1.00  0.00    -0.206 F 
ATOM     88  C   UNL A   1      46.502  27.642  36.966  1.00  0.00     0.022 A 
BRANCH  85  89
ATOM     89  S   UNL A   1      44.981  25.902  38.527  1.00  0.00     0.124 S 
ATOM     90  O   UNL A   1      46.353  25.529  38.857  1.00  0.00    -0.237 OA
ATOM     91  O   UNL A   1      44.271  26.679  39.538  1.00  0.00    -0.237 OA
ATOM     92  O   UNL A   1      44.191  24.853  37.886  1.00  0.00    -0.744 OA
ENDBRANCH  85  89
ENDBRANCH  59  82
ENDBRANCH  33  34
ENDBRANCH  25  28
ENDBRANCH  23  24
ENDBRANCH  22  23
ENDBRANCH   1  22
TORSDOF 20
ENDMDL
MODEL 3
REMARK VINA RESULT:     -10.3      2.570      4.131
REMARK SMILES CCc1nsc(NC[C@H](CC(C)C)C(=O)NCCCCNC(=O)c2ccc(-c3c4nc(c(-c5cc(S(=O)(=O)[O-])ccc5F)c5ccc([nH]5)c(-c5cc(S(=O)(=O)[O-])ccc5F)c5nc(c(-c6cc(S(=O)(=O)[O-])ccc6F)c6ccc3[nH]6)C=C5)C=C4)cc2)n1
REMARK SMILES IDX 18 1 17 2 16 3 14 4 15 5 9 7 8 8 7 9 6 11 3 12 4 13 87 14
REMARK SMILES IDX 5 15 2 16 1 17 10 18 11 19 12 20 13 21 19 22 20 23 21 24
REMARK SMILES IDX 22 25 23 27 24 28 25 29 86 30 26 31 85 32 27 33 28 34 29 35
REMARK SMILES IDX 79 36 30 37 84 38 78 39 80 40 31 41 83 42 77 43 76 44 32 46
REMARK SMILES IDX 64 47 44 48 63 49 45 50 48 51 62 52 81 53 46 54 47 55 61 57
REMARK SMILES IDX 82 58 49 59 33 60 34 61 42 62 35 63 41 64 43 65 40 66 36 67
REMARK SMILES IDX 37 68 38 69 39 70 65 71 66 72 74 73 67 74 73 75 75 76 72 77
REMARK SMILES IDX 68 78 69 79 70 80 71 81 50 82 51 83 59 84 52 85 58 86 60 87
REMARK SMILES IDX 57 88 53 89 54 90 55 91 56 92
REMARK H PARENT 16 6 7 10 21 26 80 45 48 56
REMARK Flexibility Score: inf
ROOT
ATOM      1  C   UNL A   1      32.081  29.813  25.297  1.00  0.00     0.023 C 
ENDROOT
BRANCH   1   2
ATOM      2  C   UNL A   1      32.601  28.462  25.779  1.00  0.00     0.116 C 
BRANCH   2   3
ATOM      3  N   UNL A   1      31.576  27.429  25.759  1.00  0.00    -0.356 N 
ATOM      4  C   UNL A   1      31.340  26.422  24.870  1.00  0.00     0.224 C 
ATOM      5  O   UNL A   1      30.405  25.653  25.104  1.00  0.00    -0.275 OA
ATOM      6  H   UNL A   1      30.947  27.463  26.516  1.00  0.00     0.163 HD
BRANCH   4   7
ATOM      7  C   UNL A   1      32.218  26.214  23.640  1.00  0.00     0.098 C 
BRANCH   7   8
ATOM      8  C   UNL A   1      31.392  26.586  22.399  1.00  0.00     0.128 C 
BRANCH   8   9
ATOM      9  N   UNL A   1      31.225  28.019  22.262  1.00  0.00    -0.359 N 
ATOM     10  H   UNL A   1      32.039  28.562  22.150  1.00  0.00     0.162 HD
BRANCH   9  11
ATOM     11  C   UNL A   1      30.040  28.670  22.273  1.00  0.00     0.202 A 
ATOM     12  C   UNL A   1      28.527  30.190  21.762  1.00  0.00     0.144 A 
ATOM     13  N   UNL A   1      27.722  29.511  22.581  1.00  0.00    -0.174 NA
ATOM     14  N   UNL A   1      29.826  29.746  21.549  1.00  0.00    -0.204 NA
ATOM     15  S   UNL A   1      28.625  28.248  23.179  1.00  0.00     0.004 S 
BRANCH  12  16
ATOM     16  C   UNL A   1      28.045  31.425  21.088  1.00  0.00     0.075 C 
ATOM     17  C   UNL A   1      28.423  32.682  21.857  1.00  0.00     0.012 C 
ENDBRANCH  12  16
ENDBRANCH   9  11
ENDBRANCH   8   9
ENDBRANCH   7   8
BRANCH   7  18
ATOM     18  C   UNL A   1      32.878  24.819  23.643  1.00  0.00     0.018 C 
BRANCH  18  19
ATOM     19  C   UNL A   1      34.285  24.781  24.280  1.00  0.00    -0.017 C 
ATOM     20  C   UNL A   1      34.256  24.399  25.761  1.00  0.00     0.007 C 
ATOM     21  C   UNL A   1      35.159  23.779  23.515  1.00  0.00     0.007 C 
ENDBRANCH  18  19
ENDBRANCH   7  18
ENDBRANCH   4   7
ENDBRANCH   2   3
ENDBRANCH   1   2
BRANCH   1  22
ATOM     22  C   UNL A   1      31.686  30.788  26.403  1.00  0.00     0.023 C 
BRANCH  22  23
ATOM     23  C   UNL A   1      32.846  31.407  27.176  1.00  0.00     0.116 C 
BRANCH  23  24
ATOM     24  N   UNL A   1      32.749  32.854  27.297  1.00  0.00    -0.352 N 
ATOM     25  C   UNL A   1      33.519  33.713  28.045  1.00  0.00     0.251 C 
ATOM     26  H   UNL A   1      32.032  33.277  26.769  1.00  0.00     0.163 HD
ATOM     27  O   UNL A   1      33.215  34.901  28.114  1.00  0.00    -0.269 OA
BRANCH  25  28
ATOM     28  C   UNL A   1      34.680  33.190  28.795  1.00  0.00     0.039 A 
ATOM     29  C   UNL A   1      34.461  32.548  30.017  1.00  0.00     0.014 A 
ATOM     30  C   UNL A   1      35.973  33.294  28.276  1.00  0.00     0.014 A 
ATOM     31  C   UNL A   1      35.529  31.936  30.677  1.00  0.00     0.010 A 
ATOM     32  C   UNL A   1      37.023  32.622  28.898  1.00  0.00     0.010 A 
ATOM     33  C   UNL A   1      36.810  31.928  30.100  1.00  0.00    -0.014 A 
BRANCH  33  34
ATOM     34  C   UNL A   1      37.937  31.190  30.725  1.00  0.00     0.031 A 
ATOM     35  C   UNL A   1      38.350  31.502  32.137  1.00  0.00     0.074 A 
ATOM     36  C   UNL A   1      38.639  30.301  29.995  1.00  0.00     0.049 A 
ATOM     37  N   UNL A   1      39.370  31.051  32.822  1.00  0.00    -0.248 NA
ATOM     38  C   UNL A   1      37.521  32.476  32.863  1.00  0.00     0.031 C 
ATOM     39  C   UNL A   1      38.362  29.945  28.601  1.00  0.00     0.029 A 
ATOM     40  N   UNL A   1      39.739  29.544  30.316  1.00  0.00    -0.354 N 
ATOM     41  C   UNL A   1      39.317  31.699  34.051  1.00  0.00     0.074 A 
ATOM     42  C   UNL A   1      38.197  32.615  33.993  1.00  0.00     0.031 C 
ATOM     43  C   UNL A   1      39.256  29.028  28.194  1.00  0.00     0.029 A 
ATOM     44  C   UNL A   1      40.197  28.765  29.278  1.00  0.00     0.049 A 
ATOM     45  H   UNL A   1      40.161  29.559  31.205  1.00  0.00     0.167 HD
ATOM     46  C   UNL A   1      40.117  31.530  35.134  1.00  0.00     0.034 A 
ATOM     47  C   UNL A   1      41.263  27.944  29.202  1.00  0.00     0.034 A 
ATOM     48  C   UNL A   1      41.220  30.602  35.180  1.00  0.00     0.049 A 
ATOM     49  C   UNL A   1      42.145  27.782  30.414  1.00  0.00     0.074 A 
ATOM     50  C   UNL A   1      42.058  30.309  36.242  1.00  0.00     0.029 A 
ATOM     51  N   UNL A   1      41.645  29.818  34.115  1.00  0.00    -0.354 N 
ATOM     52  N   UNL A   1      42.054  28.367  31.586  1.00  0.00    -0.248 NA
ATOM     53  C   UNL A   1      43.265  26.839  30.296  1.00  0.00     0.031 C 
ATOM     54  C   UNL A   1      43.024  29.397  35.803  1.00  0.00     0.029 A 
ATOM     55  C   UNL A   1      42.748  29.063  34.487  1.00  0.00     0.049 A 
ATOM     56  H   UNL A   1      41.223  29.800  33.225  1.00  0.00     0.167 HD
ATOM     57  C   UNL A   1      43.089  27.840  32.353  1.00  0.00     0.074 A 
ATOM     58  C   UNL A   1      43.781  26.882  31.515  1.00  0.00     0.031 C 
ATOM     59  C   UNL A   1      43.434  28.119  33.635  1.00  0.00     0.034 A 
BRANCH  46  60
ATOM     60  C   UNL A   1      39.835  32.389  36.343  1.00  0.00     0.023 A 
ATOM     61  C   UNL A   1      38.915  31.994  37.332  1.00  0.00     0.031 A 
ATOM     62  C   UNL A   1      40.469  33.634  36.498  1.00  0.00     0.131 A 
ATOM     63  C   UNL A   1      38.596  32.867  38.382  1.00  0.00     0.055 A 
ATOM     64  C   UNL A   1      40.209  34.463  37.592  1.00  0.00     0.041 A 
ATOM     65  F   UNL A   1      41.342  34.076  35.578  1.00  0.00    -0.206 F 
ATOM     66  C   UNL A   1      39.256  34.088  38.533  1.00  0.00     0.022 A 
BRANCH  63  67
ATOM     67  S   UNL A   1      37.202  32.447  39.463  1.00  0.00     0.124 S 
ATOM     68  O   UNL A   1      37.444  31.028  39.717  1.00  0.00    -0.237 OA
ATOM     69  O   UNL A   1      37.402  33.341  40.598  1.00  0.00    -0.237 OA
ATOM     70  O   UNL A   1      36.030  32.735  38.640  1.00  0.00    -0.744 OA
ENDBRANCH  63  67
ENDBRANCH  46  60
BRANCH  47  71
ATOM     71  C   UNL A   1      41.568  27.217  27.937  1.00  0.00     0.023 A 
ATOM     72  C   UNL A   1      41.354  25.835  27.828  1.00  0.00     0.031 A 
ATOM     73  C   UNL A   1      42.118  27.891  26.831  1.00  0.00     0.131 A 
ATOM     74  C   UNL A   1      41.729  25.160  26.656  1.00  0.00     0.055 A 
ATOM     75  C   UNL A   1      42.443  27.222  25.649  1.00  0.00     0.041 A 
ATOM     76  F   UNL A   1      42.335  29.214  26.880  1.00  0.00    -0.206 F 
ATOM     77  C   UNL A   1      42.261  25.845  25.562  1.00  0.00     0.022 A 
BRANCH  74  78
ATOM     78  S   UNL A   1      41.585  23.351  26.613  1.00  0.00     0.124 S 
ATOM     79  O   UNL A   1      42.378  23.018  25.435  1.00  0.00    -0.237 OA
ATOM     80  O   UNL A   1      42.156  22.972  27.901  1.00  0.00    -0.237 OA
ATOM     81  O   UNL A   1      40.147  23.128  26.481  1.00  0.00    -0.744 OA
ENDBRANCH  74  78
ENDBRANCH  47  71
BRANCH  59  82
ATOM     82  C   UNL A   1      44.583  27.336  34.219  1.00  0.00     0.023 A 
ATOM     83  C   UNL A   1      44.395  26.078  34.815  1.00  0.00     0.031 A 
ATOM     84  C   UNL A   1      45.886  27.868  34.190  1.00  0.00     0.131 A 
ATOM     85  C   UNL A   1      45.482  25.415  35.406  1.00  0.00     0.055 A 
ATOM     86  C   UNL A   1      46.972  27.179  34.728  1.00  0.00     0.041 A 
ATOM     87  F   UNL A   1      46.121  29.067  33.633  1.00  0.00    -0.206 F 
ATOM     88  C   UNL A   1      46.772  25.951  35.352  1.00  0.00     0.022 A 
BRANCH  85  89
ATOM     89  S   UNL A   1      45.175  23.881  36.323  1.00  0.00     0.124 S 
ATOM     90  O   UNL A   1      43.920  23.422  35.735  1.00  0.00    -0.237 OA
ATOM     91  O   UNL A   1      46.356  23.085  36.005  1.00  0.00    -0.237 OA
ATOM     92  O   UNL A   1      45.083  24.323  37.713  1.00  0.00    -0.744 OA
ENDBRANCH  85  89
ENDBRANCH  59  82
ENDBRANCH  33  34
ENDBRANCH  25  28
ENDBRANCH  23  24
ENDBRANCH  22  23
ENDBRANCH   1  22
TORSDOF 20
ENDMDL
