MODEL 1
REMARK VINA RESULT:     -12.1      0.000      0.000
REMARK SMILES Cc1cc(C)n(CC(=O)N[C@H]2C=C[C@@H](C(=O)NCCCCNC(=O)c3ccc(-c4c5nc(c(-c6cc(S(=O)(=O)[O-])ccc6F)c6ccc([nH]6)c(-c6cc(S(=O)(=O)[O-])ccc6F)c6nc(c(-c7cc(S(=O)(=O)[O-])ccc7F)c7ccc4[nH]7)C=C6)C=C5)cc3)C2)n1
REMARK SMILES IDX 19 1 18 2 17 3 15 4 16 5 14 7 11 8 12 9 88 10 13 11 10 12
REMARK SMILES IDX 8 13 9 14 7 16 6 17 1 18 2 19 3 20 89 21 4 22 5 23 20 24
REMARK SMILES IDX 21 25 22 26 23 27 24 29 25 30 26 31 87 32 27 33 86 34 28 35
REMARK SMILES IDX 29 36 30 37 80 38 31 39 85 40 79 41 81 42 32 43 84 44 78 45
REMARK SMILES IDX 77 46 33 48 65 49 45 50 64 51 46 52 49 53 63 54 82 55 47 56
REMARK SMILES IDX 48 57 62 59 83 60 50 61 34 62 35 63 43 64 36 65 42 66 44 67
REMARK SMILES IDX 41 68 37 69 38 70 39 71 40 72 66 73 67 74 75 75 68 76 74 77
REMARK SMILES IDX 76 78 73 79 69 80 70 81 71 82 72 83 51 84 52 85 60 86 53 87
REMARK SMILES IDX 59 88 61 89 58 90 54 91 55 92 56 93 57 94
REMARK H PARENT 17 6 10 15 22 28 81 47 49 58
REMARK Flexibility Score: inf
ROOT
ATOM      1  C   UNL A   1      37.297  23.459  25.742  1.00  0.00     0.023 C 
ENDROOT
BRANCH   1   2
ATOM      2  C   UNL A   1      35.837  23.512  26.212  1.00  0.00     0.116 C 
BRANCH   2   3
ATOM      3  N   UNL A   1      35.058  22.309  25.978  1.00  0.00    -0.356 N 
ATOM      4  C   UNL A   1      33.913  22.160  25.250  1.00  0.00     0.227 C 
ATOM      5  O   UNL A   1      33.810  21.097  24.621  1.00  0.00    -0.274 OA
ATOM      6  H   UNL A   1      35.404  21.491  26.401  1.00  0.00     0.163 HD
BRANCH   4   7
ATOM      7  C   UNL A   1      32.734  23.157  25.222  1.00  0.00     0.103 C 
ATOM      8  C   UNL A   1      31.681  24.651  23.558  1.00  0.00     0.106 C 
ATOM      9  C   UNL A   1      30.858  23.459  23.830  1.00  0.00    -0.006 C 
ATOM     10  C   UNL A   1      32.875  24.514  24.529  1.00  0.00     0.047 C 
ATOM     11  C   UNL A   1      31.432  22.637  24.714  1.00  0.00    -0.016 C 
BRANCH   8  12
ATOM     12  N   UNL A   1      32.128  24.813  22.186  1.00  0.00    -0.348 N 
ATOM     13  C   UNL A   1      32.787  25.746  21.460  1.00  0.00     0.242 C 
ATOM     14  O   UNL A   1      33.131  25.365  20.331  1.00  0.00    -0.273 OA
ATOM     15  H   UNL A   1      31.888  24.032  21.634  1.00  0.00     0.164 HD
BRANCH  13  16
ATOM     16  C   UNL A   1      33.142  27.142  21.930  1.00  0.00     0.244 C 
BRANCH  16  17
ATOM     17  N   UNL A   1      32.072  27.809  22.650  1.00  0.00    -0.260 N 
ATOM     18  C   UNL A   1      28.741  29.033  22.620  1.00  0.00     0.069 C 
ATOM     19  C   UNL A   1      30.115  28.583  22.956  1.00  0.00     0.060 A 
ATOM     20  C   UNL A   1      30.870  28.930  24.089  1.00  0.00     0.048 A 
ATOM     21  N   UNL A   1      30.822  27.797  22.139  1.00  0.00    -0.178 NA
ATOM     22  C   UNL A   1      32.145  28.447  23.863  1.00  0.00     0.036 A 
ATOM     23  C   UNL A   1      33.401  28.604  24.642  1.00  0.00     0.066 C 
ENDBRANCH  16  17
ENDBRANCH  13  16
ENDBRANCH   8  12
ENDBRANCH   4   7
ENDBRANCH   2   3
ENDBRANCH   1   2
BRANCH   1  24
ATOM     24  C   UNL A   1      38.096  22.184  26.092  1.00  0.00     0.023 C 
BRANCH  24  25
ATOM     25  C   UNL A   1      38.272  21.133  24.983  1.00  0.00     0.116 C 
BRANCH  25  26
ATOM     26  N   UNL A   1      39.030  19.943  25.370  1.00  0.00    -0.352 N 
ATOM     27  C   UNL A   1      40.338  19.853  25.841  1.00  0.00     0.251 C 
ATOM     28  H   UNL A   1      38.549  19.088  25.285  1.00  0.00     0.163 HD
ATOM     29  O   UNL A   1      40.925  18.782  25.783  1.00  0.00    -0.269 OA
BRANCH  27  30
ATOM     30  C   UNL A   1      41.014  21.034  26.440  1.00  0.00     0.039 A 
ATOM     31  C   UNL A   1      41.761  21.939  25.682  1.00  0.00     0.014 A 
ATOM     32  C   UNL A   1      40.954  21.210  27.815  1.00  0.00     0.014 A 
ATOM     33  C   UNL A   1      42.344  23.048  26.314  1.00  0.00     0.010 A 
ATOM     34  C   UNL A   1      41.502  22.304  28.448  1.00  0.00     0.010 A 
ATOM     35  C   UNL A   1      42.193  23.241  27.701  1.00  0.00    -0.014 A 
BRANCH  35  36
ATOM     36  C   UNL A   1      42.408  24.555  28.325  1.00  0.00     0.031 A 
ATOM     37  C   UNL A   1      41.287  25.487  28.010  1.00  0.00     0.074 A 
ATOM     38  C   UNL A   1      43.292  24.817  29.318  1.00  0.00     0.049 A 
ATOM     39  N   UNL A   1      41.322  26.541  27.265  1.00  0.00    -0.248 NA
ATOM     40  C   UNL A   1      39.915  25.077  28.378  1.00  0.00     0.031 C 
ATOM     41  C   UNL A   1      44.223  23.875  29.950  1.00  0.00     0.029 A 
ATOM     42  N   UNL A   1      43.476  25.950  30.068  1.00  0.00    -0.354 N 
ATOM     43  C   UNL A   1      40.046  27.089  27.344  1.00  0.00     0.074 A 
ATOM     44  C   UNL A   1      39.191  26.022  27.777  1.00  0.00     0.031 C 
ATOM     45  C   UNL A   1      44.700  24.400  31.102  1.00  0.00     0.029 A 
ATOM     46  C   UNL A   1      44.223  25.768  31.239  1.00  0.00     0.049 A 
ATOM     47  H   UNL A   1      43.110  26.825  29.803  1.00  0.00     0.167 HD
ATOM     48  C   UNL A   1      39.882  28.440  27.397  1.00  0.00     0.034 A 
ATOM     49  C   UNL A   1      44.426  26.653  32.262  1.00  0.00     0.034 A 
ATOM     50  C   UNL A   1      41.074  29.113  26.913  1.00  0.00     0.049 A 
ATOM     51  C   UNL A   1      44.151  28.002  31.715  1.00  0.00     0.074 A 
ATOM     52  C   UNL A   1      41.833  29.032  25.758  1.00  0.00     0.029 A 
ATOM     53  N   UNL A   1      41.888  29.732  27.837  1.00  0.00    -0.354 N 
ATOM     54  N   UNL A   1      44.871  28.555  30.781  1.00  0.00    -0.248 NA
ATOM     55  C   UNL A   1      42.803  28.526  31.852  1.00  0.00     0.031 C 
ATOM     56  C   UNL A   1      43.188  29.132  26.199  1.00  0.00     0.029 A 
ATOM     57  C   UNL A   1      43.185  29.378  27.573  1.00  0.00     0.049 A 
ATOM     58  H   UNL A   1      41.588  30.327  28.562  1.00  0.00     0.167 HD
ATOM     59  C   UNL A   1      43.951  29.143  29.928  1.00  0.00     0.074 A 
ATOM     60  C   UNL A   1      42.705  29.183  30.693  1.00  0.00     0.031 C 
ATOM     61  C   UNL A   1      44.213  29.269  28.592  1.00  0.00     0.034 A 
BRANCH  48  62
ATOM     62  C   UNL A   1      38.884  29.134  28.317  1.00  0.00     0.023 A 
ATOM     63  C   UNL A   1      39.082  28.957  29.699  1.00  0.00     0.031 A 
ATOM     64  C   UNL A   1      37.618  29.654  27.952  1.00  0.00     0.131 A 
ATOM     65  C   UNL A   1      38.021  29.104  30.608  1.00  0.00     0.055 A 
ATOM     66  C   UNL A   1      36.587  29.865  28.871  1.00  0.00     0.041 A 
ATOM     67  F   UNL A   1      37.267  29.925  26.692  1.00  0.00    -0.206 F 
ATOM     68  C   UNL A   1      36.768  29.545  30.203  1.00  0.00     0.022 A 
BRANCH  65  69
ATOM     69  S   UNL A   1      38.263  28.494  32.294  1.00  0.00     0.124 S 
ATOM     70  O   UNL A   1      39.412  29.288  32.716  1.00  0.00    -0.237 OA
ATOM     71  O   UNL A   1      36.985  28.826  32.915  1.00  0.00    -0.237 OA
ATOM     72  O   UNL A   1      38.516  27.069  32.105  1.00  0.00    -0.744 OA
ENDBRANCH  65  69
ENDBRANCH  48  62
BRANCH  49  73
ATOM     73  C   UNL A   1      44.545  26.392  33.735  1.00  0.00     0.023 A 
ATOM     74  C   UNL A   1      43.465  26.516  34.649  1.00  0.00     0.031 A 
ATOM     75  C   UNL A   1      45.701  25.746  34.226  1.00  0.00     0.131 A 
ATOM     76  C   UNL A   1      43.575  26.007  35.972  1.00  0.00     0.055 A 
ATOM     77  C   UNL A   1      45.802  25.243  35.527  1.00  0.00     0.041 A 
ATOM     78  F   UNL A   1      46.749  25.496  33.426  1.00  0.00    -0.206 F 
ATOM     79  C   UNL A   1      44.736  25.362  36.403  1.00  0.00     0.022 A 
BRANCH  76  80
ATOM     80  S   UNL A   1      42.176  26.091  37.149  1.00  0.00     0.124 S 
ATOM     81  O   UNL A   1      42.849  26.324  38.421  1.00  0.00    -0.237 OA
ATOM     82  O   UNL A   1      41.383  27.195  36.620  1.00  0.00    -0.237 OA
ATOM     83  O   UNL A   1      41.543  24.776  37.026  1.00  0.00    -0.744 OA
ENDBRANCH  76  80
ENDBRANCH  49  73
BRANCH  61  84
ATOM     84  C   UNL A   1      45.646  29.119  28.118  1.00  0.00     0.023 A 
ATOM     85  C   UNL A   1      46.274  27.908  27.744  1.00  0.00     0.031 A 
ATOM     86  C   UNL A   1      46.382  30.309  27.959  1.00  0.00     0.131 A 
ATOM     87  C   UNL A   1      47.595  27.925  27.247  1.00  0.00     0.055 A 
ATOM     88  C   UNL A   1      47.676  30.322  27.447  1.00  0.00     0.041 A 
ATOM     89  F   UNL A   1      45.836  31.494  28.278  1.00  0.00    -0.206 F 
ATOM     90  C   UNL A   1      48.291  29.129  27.095  1.00  0.00     0.022 A 
BRANCH  87  91
ATOM     91  S   UNL A   1      48.455  26.376  26.812  1.00  0.00     0.124 S 
ATOM     92  O   UNL A   1      47.679  25.349  27.495  1.00  0.00    -0.237 OA
ATOM     93  O   UNL A   1      48.380  26.372  25.353  1.00  0.00    -0.237 OA
ATOM     94  O   UNL A   1      49.804  26.575  27.347  1.00  0.00    -0.744 OA
ENDBRANCH  87  91
ENDBRANCH  61  84
ENDBRANCH  35  36
ENDBRANCH  27  30
ENDBRANCH  25  26
ENDBRANCH  24  25
ENDBRANCH   1  24
TORSDOF 17
ENDMDL
MODEL 2
REMARK VINA RESULT:     -11.9      3.087      8.325
REMARK SMILES Cc1cc(C)n(CC(=O)N[C@H]2C=C[C@@H](C(=O)NCCCCNC(=O)c3ccc(-c4c5nc(c(-c6cc(S(=O)(=O)[O-])ccc6F)c6ccc([nH]6)c(-c6cc(S(=O)(=O)[O-])ccc6F)c6nc(c(-c7cc(S(=O)(=O)[O-])ccc7F)c7ccc4[nH]7)C=C6)C=C5)cc3)C2)n1
REMARK SMILES IDX 19 1 18 2 17 3 15 4 16 5 14 7 11 8 12 9 88 10 13 11 10 12
REMARK SMILES IDX 8 13 9 14 7 16 6 17 1 18 2 19 3 20 89 21 4 22 5 23 20 24
REMARK SMILES IDX 21 25 22 26 23 27 24 29 25 30 26 31 87 32 27 33 86 34 28 35
REMARK SMILES IDX 29 36 30 37 80 38 31 39 85 40 79 41 81 42 32 43 84 44 78 45
REMARK SMILES IDX 77 46 33 48 65 49 45 50 64 51 46 52 49 53 63 54 82 55 47 56
REMARK SMILES IDX 48 57 62 59 83 60 50 61 34 62 35 63 43 64 36 65 42 66 44 67
REMARK SMILES IDX 41 68 37 69 38 70 39 71 40 72 66 73 67 74 75 75 68 76 74 77
REMARK SMILES IDX 76 78 73 79 69 80 70 81 71 82 72 83 51 84 52 85 60 86 53 87
REMARK SMILES IDX 59 88 61 89 58 90 54 91 55 92 56 93 57 94
REMARK H PARENT 17 6 10 15 22 28 81 47 49 58
REMARK Flexibility Score: inf
ROOT
ATOM      1  C   UNL A   1      33.448  27.531  26.181  1.00  0.00     0.023 C 
ENDROOT
BRANCH   1   2
ATOM      2  C   UNL A   1      33.344  28.001  24.723  1.00  0.00     0.116 C 
BRANCH   2   3
ATOM      3  N   UNL A   1      33.813  27.057  23.725  1.00  0.00    -0.356 N 
ATOM      4  C   UNL A   1      33.159  26.580  22.626  1.00  0.00     0.227 C 
ATOM      5  O   UNL A   1      33.861  26.395  21.621  1.00  0.00    -0.274 OA
ATOM      6  H   UNL A   1      34.725  26.715  23.860  1.00  0.00     0.163 HD
BRANCH   4   7
ATOM      7  C   UNL A   1      31.666  26.187  22.572  1.00  0.00     0.103 C 
ATOM      8  C   UNL A   1      30.005  25.219  24.126  1.00  0.00     0.106 C 
ATOM      9  C   UNL A   1      29.785  26.659  23.908  1.00  0.00    -0.006 C 
ATOM     10  C   UNL A   1      31.183  24.872  23.188  1.00  0.00     0.047 C 
ATOM     11  C   UNL A   1      30.692  27.194  23.085  1.00  0.00    -0.016 C 
BRANCH   8  12
ATOM     12  N   UNL A   1      30.282  24.819  25.494  1.00  0.00    -0.348 N 
ATOM     13  C   UNL A   1      30.805  23.743  26.128  1.00  0.00     0.242 C 
ATOM     14  O   UNL A   1      31.033  23.923  27.334  1.00  0.00    -0.273 OA
ATOM     15  H   UNL A   1      30.018  25.520  26.134  1.00  0.00     0.164 HD
BRANCH  13  16
ATOM     16  C   UNL A   1      31.143  22.415  25.482  1.00  0.00     0.244 C 
BRANCH  16  17
ATOM     17  N   UNL A   1      32.557  22.241  25.201  1.00  0.00    -0.260 N 
ATOM     18  C   UNL A   1      35.636  23.734  24.261  1.00  0.00     0.069 C 
ATOM     19  C   UNL A   1      34.537  22.848  24.720  1.00  0.00     0.060 A 
ATOM     20  C   UNL A   1      34.546  21.444  24.779  1.00  0.00     0.048 A 
ATOM     21  N   UNL A   1      33.350  23.330  25.096  1.00  0.00    -0.178 NA
ATOM     22  C   UNL A   1      33.248  21.064  25.063  1.00  0.00     0.036 A 
ATOM     23  C   UNL A   1      32.618  19.721  25.135  1.00  0.00     0.066 C 
ENDBRANCH  16  17
ENDBRANCH  13  16
ENDBRANCH   8  12
ENDBRANCH   4   7
ENDBRANCH   2   3
ENDBRANCH   1   2
BRANCH   1  24
ATOM     24  C   UNL A   1      33.656  28.625  27.252  1.00  0.00     0.023 C 
BRANCH  24  25
ATOM     25  C   UNL A   1      35.048  29.272  27.341  1.00  0.00     0.116 C 
BRANCH  25  26
ATOM     26  N   UNL A   1      35.299  30.041  28.560  1.00  0.00    -0.352 N 
ATOM     27  C   UNL A   1      36.332  29.902  29.485  1.00  0.00     0.251 C 
ATOM     28  H   UNL A   1      34.648  30.754  28.754  1.00  0.00     0.163 HD
ATOM     29  O   UNL A   1      36.204  30.376  30.605  1.00  0.00    -0.269 OA
BRANCH  27  30
ATOM     30  C   UNL A   1      37.597  29.213  29.115  1.00  0.00     0.039 A 
ATOM     31  C   UNL A   1      38.239  29.424  27.893  1.00  0.00     0.014 A 
ATOM     32  C   UNL A   1      38.128  28.278  29.992  1.00  0.00     0.014 A 
ATOM     33  C   UNL A   1      39.448  28.762  27.628  1.00  0.00     0.010 A 
ATOM     34  C   UNL A   1      39.323  27.635  29.756  1.00  0.00     0.010 A 
ATOM     35  C   UNL A   1      40.002  27.880  28.576  1.00  0.00    -0.014 A 
BRANCH  35  36
ATOM     36  C   UNL A   1      41.422  27.502  28.540  1.00  0.00     0.031 A 
ATOM     37  C   UNL A   1      41.612  26.199  27.839  1.00  0.00     0.074 A 
ATOM     38  C   UNL A   1      42.463  28.334  28.785  1.00  0.00     0.049 A 
ATOM     39  N   UNL A   1      41.976  25.071  28.352  1.00  0.00    -0.248 NA
ATOM     40  C   UNL A   1      41.118  26.076  26.450  1.00  0.00     0.031 C 
ATOM     41  C   UNL A   1      42.398  29.752  29.158  1.00  0.00     0.029 A 
ATOM     42  N   UNL A   1      43.812  28.136  28.641  1.00  0.00    -0.354 N 
ATOM     43  C   UNL A   1      42.063  24.191  27.279  1.00  0.00     0.074 A 
ATOM     44  C   UNL A   1      41.264  24.768  26.236  1.00  0.00     0.031 C 
ATOM     45  C   UNL A   1      43.612  30.327  28.997  1.00  0.00     0.029 A 
ATOM     46  C   UNL A   1      44.584  29.306  28.639  1.00  0.00     0.049 A 
ATOM     47  H   UNL A   1      44.208  27.239  28.547  1.00  0.00     0.167 HD
ATOM     48  C   UNL A   1      43.064  23.269  27.228  1.00  0.00     0.034 A 
ATOM     49  C   UNL A   1      45.912  29.445  28.345  1.00  0.00     0.034 A 
ATOM     50  C   UNL A   1      43.634  23.067  28.548  1.00  0.00     0.049 A 
ATOM     51  C   UNL A   1      46.525  28.107  28.518  1.00  0.00     0.074 A 
ATOM     52  C   UNL A   1      43.114  22.754  29.792  1.00  0.00     0.029 A 
ATOM     53  N   UNL A   1      44.882  23.594  28.800  1.00  0.00    -0.354 N 
ATOM     54  N   UNL A   1      46.602  27.498  29.666  1.00  0.00    -0.248 NA
ATOM     55  C   UNL A   1      46.607  27.245  27.350  1.00  0.00     0.031 C 
ATOM     56  C   UNL A   1      43.845  23.566  30.713  1.00  0.00     0.029 A 
ATOM     57  C   UNL A   1      44.839  24.244  30.006  1.00  0.00     0.049 A 
ATOM     58  H   UNL A   1      45.670  23.515  28.215  1.00  0.00     0.167 HD
ATOM     59  C   UNL A   1      46.274  26.181  29.389  1.00  0.00     0.074 A 
ATOM     60  C   UNL A   1      46.391  26.064  27.936  1.00  0.00     0.031 C 
ATOM     61  C   UNL A   1      45.658  25.399  30.327  1.00  0.00     0.034 A 
BRANCH  48  62
ATOM     62  C   UNL A   1      43.837  22.931  25.958  1.00  0.00     0.023 A 
ATOM     63  C   UNL A   1      44.040  21.563  25.697  1.00  0.00     0.031 A 
ATOM     64  C   UNL A   1      44.640  23.815  25.197  1.00  0.00     0.131 A 
ATOM     65  C   UNL A   1      45.102  21.130  24.885  1.00  0.00     0.055 A 
ATOM     66  C   UNL A   1      45.650  23.378  24.336  1.00  0.00     0.041 A 
ATOM     67  F   UNL A   1      44.556  25.146  25.281  1.00  0.00    -0.206 F 
ATOM     68  C   UNL A   1      45.919  22.029  24.211  1.00  0.00     0.022 A 
BRANCH  65  69
ATOM     69  S   UNL A   1      45.520  19.370  24.909  1.00  0.00     0.124 S 
ATOM     70  O   UNL A   1      46.698  19.375  25.770  1.00  0.00    -0.237 OA
ATOM     71  O   UNL A   1      44.308  18.786  25.474  1.00  0.00    -0.237 OA
ATOM     72  O   UNL A   1      45.766  19.063  23.503  1.00  0.00    -0.744 OA
ENDBRANCH  65  69
ENDBRANCH  48  62
BRANCH  49  73
ATOM     73  C   UNL A   1      46.618  30.569  27.646  1.00  0.00     0.023 A 
ATOM     74  C   UNL A   1      45.949  31.627  26.974  1.00  0.00     0.031 A 
ATOM     75  C   UNL A   1      48.001  30.752  27.865  1.00  0.00     0.131 A 
ATOM     76  C   UNL A   1      46.660  32.787  26.563  1.00  0.00     0.055 A 
ATOM     77  C   UNL A   1      48.695  31.898  27.462  1.00  0.00     0.041 A 
ATOM     78  F   UNL A   1      48.717  29.858  28.565  1.00  0.00    -0.206 F 
ATOM     79  C   UNL A   1      48.026  32.925  26.818  1.00  0.00     0.022 A 
BRANCH  76  80
ATOM     80  S   UNL A   1      45.810  34.194  25.758  1.00  0.00     0.124 S 
ATOM     81  O   UNL A   1      44.842  33.525  24.897  1.00  0.00    -0.237 OA
ATOM     82  O   UNL A   1      45.269  34.931  26.894  1.00  0.00    -0.237 OA
ATOM     83  O   UNL A   1      46.887  34.884  25.045  1.00  0.00    -0.744 OA
ENDBRANCH  76  80
ENDBRANCH  49  73
BRANCH  61  84
ATOM     84  C   UNL A   1      45.684  25.849  31.775  1.00  0.00     0.023 A 
ATOM     85  C   UNL A   1      44.564  26.250  32.540  1.00  0.00     0.031 A 
ATOM     86  C   UNL A   1      46.928  25.777  32.431  1.00  0.00     0.131 A 
ATOM     87  C   UNL A   1      44.723  26.573  33.905  1.00  0.00     0.055 A 
ATOM     88  C   UNL A   1      47.075  26.074  33.784  1.00  0.00     0.041 A 
ATOM     89  F   UNL A   1      48.027  25.386  31.766  1.00  0.00    -0.206 F 
ATOM     90  C   UNL A   1      45.974  26.479  34.525  1.00  0.00     0.022 A 
BRANCH  87  91
ATOM     91  S   UNL A   1      43.311  27.149  34.905  1.00  0.00     0.124 S 
ATOM     92  O   UNL A   1      42.325  26.087  34.753  1.00  0.00    -0.237 OA
ATOM     93  O   UNL A   1      43.901  27.290  36.234  1.00  0.00    -0.237 OA
ATOM     94  O   UNL A   1      42.940  28.417  34.271  1.00  0.00    -0.744 OA
ENDBRANCH  87  91
ENDBRANCH  61  84
ENDBRANCH  35  36
ENDBRANCH  27  30
ENDBRANCH  25  26
ENDBRANCH  24  25
ENDBRANCH   1  24
TORSDOF 17
ENDMDL
MODEL 3
REMARK VINA RESULT:     -11.8      3.494      8.351
REMARK SMILES Cc1cc(C)n(CC(=O)N[C@H]2C=C[C@@H](C(=O)NCCCCNC(=O)c3ccc(-c4c5nc(c(-c6cc(S(=O)(=O)[O-])ccc6F)c6ccc([nH]6)c(-c6cc(S(=O)(=O)[O-])ccc6F)c6nc(c(-c7cc(S(=O)(=O)[O-])ccc7F)c7ccc4[nH]7)C=C6)C=C5)cc3)C2)n1
REMARK SMILES IDX 19 1 18 2 17 3 15 4 16 5 14 7 11 8 12 9 88 10 13 11 10 12
REMARK SMILES IDX 8 13 9 14 7 16 6 17 1 18 2 19 3 20 89 21 4 22 5 23 20 24
REMARK SMILES IDX 21 25 22 26 23 27 24 29 25 30 26 31 87 32 27 33 86 34 28 35
REMARK SMILES IDX 29 36 30 37 80 38 31 39 85 40 79 41 81 42 32 43 84 44 78 45
REMARK SMILES IDX 77 46 33 48 65 49 45 50 64 51 46 52 49 53 63 54 82 55 47 56
REMARK SMILES IDX 48 57 62 59 83 60 50 61 34 62 35 63 43 64 36 65 42 66 44 67
REMARK SMILES IDX 41 68 37 69 38 70 39 71 40 72 66 73 67 74 75 75 68 76 74 77
REMARK SMILES IDX 76 78 73 79 69 80 70 81 71 82 72 83 51 84 52 85 60 86 53 87
REMARK SMILES IDX 59 88 61 89 58 90 54 91 55 92 56 93 57 94
REMARK H PARENT 17 6 10 15 22 28 81 47 49 58
REMARK Flexibility Score: inf
ROOT
ATOM      1  C   UNL A   1      34.321  29.116  25.935  1.00  0.00     0.023 C 
ENDROOT
BRANCH   1   2
ATOM      2  C   UNL A   1      32.969  29.809  25.719  1.00  0.00     0.116 C 
BRANCH   2   3
ATOM      3  N   UNL A   1      31.830  29.177  26.360  1.00  0.00    -0.356 N 
ATOM      4  C   UNL A   1      31.455  27.864  26.335  1.00  0.00     0.227 C 
ATOM      5  O   UNL A   1      30.969  27.424  27.386  1.00  0.00    -0.274 OA
ATOM      6  H   UNL A   1      31.251  29.776  26.883  1.00  0.00     0.163 HD
BRANCH   4   7
ATOM      7  C   UNL A   1      31.515  26.939  25.100  1.00  0.00     0.103 C 
ATOM      8  C   UNL A   1      30.811  24.637  24.541  1.00  0.00     0.106 C 
ATOM      9  C   UNL A   1      29.934  25.648  23.925  1.00  0.00    -0.006 C 
ATOM     10  C   UNL A   1      31.907  25.468  25.244  1.00  0.00     0.047 C 
ATOM     11  C   UNL A   1      30.297  26.895  24.240  1.00  0.00    -0.016 C 
BRANCH   8  12
ATOM     12  N   UNL A   1      30.169  23.717  25.464  1.00  0.00    -0.348 N 
ATOM     13  C   UNL A   1      30.545  22.908  26.482  1.00  0.00     0.242 C 
ATOM     14  O   UNL A   1      29.601  22.436  27.133  1.00  0.00    -0.273 OA
ATOM     15  H   UNL A   1      29.197  23.671  25.308  1.00  0.00     0.164 HD
BRANCH  13  16
ATOM     16  C   UNL A   1      31.972  22.588  26.875  1.00  0.00     0.244 C 
BRANCH  16  17
ATOM     17  N   UNL A   1      32.638  21.667  25.971  1.00  0.00    -0.260 N 
ATOM     18  C   UNL A   1      32.407  18.776  23.925  1.00  0.00     0.069 C 
ATOM     19  C   UNL A   1      32.795  20.022  24.632  1.00  0.00     0.060 A 
ATOM     20  C   UNL A   1      34.092  20.536  24.797  1.00  0.00     0.048 A 
ATOM     21  N   UNL A   1      31.899  20.791  25.256  1.00  0.00    -0.178 NA
ATOM     22  C   UNL A   1      33.979  21.584  25.691  1.00  0.00     0.036 A 
ATOM     23  C   UNL A   1      35.013  22.432  26.338  1.00  0.00     0.066 C 
ENDBRANCH  16  17
ENDBRANCH  13  16
ENDBRANCH   8  12
ENDBRANCH   4   7
ENDBRANCH   2   3
ENDBRANCH   1   2
BRANCH   1  24
ATOM     24  C   UNL A   1      34.877  29.106  27.377  1.00  0.00     0.023 C 
BRANCH  24  25
ATOM     25  C   UNL A   1      35.531  30.399  27.891  1.00  0.00     0.116 C 
BRANCH  25  26
ATOM     26  N   UNL A   1      35.651  30.498  29.345  1.00  0.00    -0.352 N 
ATOM     27  C   UNL A   1      36.506  29.808  30.202  1.00  0.00     0.251 C 
ATOM     28  H   UNL A   1      35.044  31.141  29.779  1.00  0.00     0.163 HD
ATOM     29  O   UNL A   1      36.243  29.748  31.395  1.00  0.00    -0.269 OA
BRANCH  27  30
ATOM     30  C   UNL A   1      37.748  29.171  29.688  1.00  0.00     0.039 A 
ATOM     31  C   UNL A   1      38.395  29.611  28.531  1.00  0.00     0.014 A 
ATOM     32  C   UNL A   1      38.249  28.057  30.347  1.00  0.00     0.014 A 
ATOM     33  C   UNL A   1      39.582  28.981  28.126  1.00  0.00     0.010 A 
ATOM     34  C   UNL A   1      39.423  27.441  29.974  1.00  0.00     0.010 A 
ATOM     35  C   UNL A   1      40.108  27.904  28.865  1.00  0.00    -0.014 A 
BRANCH  35  36
ATOM     36  C   UNL A   1      41.515  27.496  28.741  1.00  0.00     0.031 A 
ATOM     37  C   UNL A   1      41.635  26.207  28.001  1.00  0.00     0.074 A 
ATOM     38  C   UNL A   1      42.586  28.301  28.945  1.00  0.00     0.049 A 
ATOM     39  N   UNL A   1      42.003  25.060  28.467  1.00  0.00    -0.248 NA
ATOM     40  C   UNL A   1      41.062  26.128  26.640  1.00  0.00     0.031 C 
ATOM     41  C   UNL A   1      42.574  29.710  29.353  1.00  0.00     0.029 A 
ATOM     42  N   UNL A   1      43.920  28.078  28.721  1.00  0.00    -0.354 N 
ATOM     43  C   UNL A   1      42.010  24.204  27.371  1.00  0.00     0.074 A 
ATOM     44  C   UNL A   1      41.167  24.823  26.388  1.00  0.00     0.031 C 
ATOM     45  C   UNL A   1      43.790  30.264  29.137  1.00  0.00     0.029 A 
ATOM     46  C   UNL A   1      44.717  29.230  28.702  1.00  0.00     0.049 A 
ATOM     47  H   UNL A   1      44.290  27.175  28.584  1.00  0.00     0.167 HD
ATOM     48  C   UNL A   1      42.985  23.262  27.242  1.00  0.00     0.034 A 
ATOM     49  C   UNL A   1      46.029  29.348  28.337  1.00  0.00     0.034 A 
ATOM     50  C   UNL A   1      43.623  23.017  28.524  1.00  0.00     0.049 A 
ATOM     51  C   UNL A   1      46.621  27.994  28.444  1.00  0.00     0.074 A 
ATOM     52  C   UNL A   1      43.167  22.686  29.788  1.00  0.00     0.029 A 
ATOM     53  N   UNL A   1      44.896  23.511  28.717  1.00  0.00    -0.354 N 
ATOM     54  N   UNL A   1      46.748  27.356  29.573  1.00  0.00    -0.248 NA
ATOM     55  C   UNL A   1      46.618  27.159  27.255  1.00  0.00     0.031 C 
ATOM     56  C   UNL A   1      43.966  23.460  30.683  1.00  0.00     0.029 A 
ATOM     57  C   UNL A   1      44.934  24.134  29.937  1.00  0.00     0.049 A 
ATOM     58  H   UNL A   1      45.647  23.430  28.087  1.00  0.00     0.167 HD
ATOM     59  C   UNL A   1      46.375  26.053  29.285  1.00  0.00     0.074 A 
ATOM     60  C   UNL A   1      46.408  25.969  27.825  1.00  0.00     0.031 C 
ATOM     61  C   UNL A   1      45.796  25.263  30.238  1.00  0.00     0.034 A 
BRANCH  48  62
ATOM     62  C   UNL A   1      43.678  22.939  25.923  1.00  0.00     0.023 A 
ATOM     63  C   UNL A   1      43.838  21.574  25.622  1.00  0.00     0.031 A 
ATOM     64  C   UNL A   1      44.455  23.824  25.138  1.00  0.00     0.131 A 
ATOM     65  C   UNL A   1      44.843  21.139  24.742  1.00  0.00     0.055 A 
ATOM     66  C   UNL A   1      45.406  23.387  24.211  1.00  0.00     0.041 A 
ATOM     67  F   UNL A   1      44.403  25.154  25.255  1.00  0.00    -0.206 F 
ATOM     68  C   UNL A   1      45.640  22.036  24.042  1.00  0.00     0.022 A 
BRANCH  65  69
ATOM     69  S   UNL A   1      45.225  19.371  24.704  1.00  0.00     0.124 S 
ATOM     70  O   UNL A   1      44.224  18.849  25.627  1.00  0.00    -0.237 OA
ATOM     71  O   UNL A   1      45.029  19.057  23.292  1.00  0.00    -0.237 OA
ATOM     72  O   UNL A   1      46.606  19.314  25.172  1.00  0.00    -0.744 OA
ENDBRANCH  65  69
ENDBRANCH  48  62
BRANCH  49  73
ATOM     73  C   UNL A   1      46.721  30.474  27.625  1.00  0.00     0.023 A 
ATOM     74  C   UNL A   1      46.037  31.532  26.969  1.00  0.00     0.031 A 
ATOM     75  C   UNL A   1      48.108  30.656  27.815  1.00  0.00     0.131 A 
ATOM     76  C   UNL A   1      46.739  32.693  26.545  1.00  0.00     0.055 A 
ATOM     77  C   UNL A   1      48.792  31.803  27.399  1.00  0.00     0.041 A 
ATOM     78  F   UNL A   1      48.838  29.762  28.498  1.00  0.00    -0.206 F 
ATOM     79  C   UNL A   1      48.110  32.831  26.771  1.00  0.00     0.022 A 
BRANCH  76  80
ATOM     80  S   UNL A   1      45.872  34.102  25.760  1.00  0.00     0.124 S 
ATOM     81  O   UNL A   1      46.945  34.758  25.022  1.00  0.00    -0.237 OA
ATOM     82  O   UNL A   1      44.846  33.439  24.963  1.00  0.00    -0.237 OA
ATOM     83  O   UNL A   1      45.357  34.866  26.898  1.00  0.00    -0.744 OA
ENDBRANCH  76  80
ENDBRANCH  49  73
BRANCH  61  84
ATOM     84  C   UNL A   1      45.913  25.677  31.692  1.00  0.00     0.023 A 
ATOM     85  C   UNL A   1      47.029  25.454  32.531  1.00  0.00     0.031 A 
ATOM     86  C   UNL A   1      44.843  26.425  32.219  1.00  0.00     0.131 A 
ATOM     87  C   UNL A   1      47.033  25.963  33.848  1.00  0.00     0.055 A 
ATOM     88  C   UNL A   1      44.861  26.945  33.510  1.00  0.00     0.041 A 
ATOM     89  F   UNL A   1      43.761  26.688  31.467  1.00  0.00    -0.206 F 
ATOM     90  C   UNL A   1      45.954  26.711  34.332  1.00  0.00     0.022 A 
BRANCH  87  91
ATOM     91  S   UNL A   1      48.430  25.643  34.976  1.00  0.00     0.124 S 
ATOM     92  O   UNL A   1      47.852  24.789  36.005  1.00  0.00    -0.237 OA
ATOM     93  O   UNL A   1      49.410  25.011  34.095  1.00  0.00    -0.237 OA
ATOM     94  O   UNL A   1      48.807  26.981  35.437  1.00  0.00    -0.744 OA
ENDBRANCH  87  91
ENDBRANCH  61  84
ENDBRANCH  35  36
ENDBRANCH  27  30
ENDBRANCH  25  26
ENDBRANCH  24  25
ENDBRANCH   1  24
TORSDOF 17
ENDMDL
