MODEL 1
REMARK VINA RESULT:     -12.2      0.000      0.000
REMARK SMILES O=C(NCCCCNC(=O)[C@H]1CCc2[nH]nc(C(F)(F)F)c2C1)c1ccc(-c2c3nc(c(-c4cc(S(=O)(=O)[O-])ccc4F)c4ccc([nH]4)c(-c4cc(S(=O)(=O)[O-])ccc4F)c4nc(c(-c5cc(S(=O)(=O)[O-])ccc5F)c5ccc2[nH]5)C=C4)C=C3)cc1
REMARK SMILES IDX 4 1 3 2 1 3 2 4 24 6 25 7 86 8 26 9 85 10 27 11 28 12 29 13
REMARK SMILES IDX 79 14 30 15 84 16 78 17 80 18 31 19 83 20 77 21 76 22 32 24
REMARK SMILES IDX 64 25 44 26 63 27 45 28 48 29 62 30 81 31 46 32 47 33 61 35
REMARK SMILES IDX 82 36 49 37 33 38 34 39 42 40 35 41 41 42 43 43 40 44 36 45
REMARK SMILES IDX 37 46 38 47 39 48 65 49 66 50 74 51 67 52 73 53 75 54 72 55
REMARK SMILES IDX 68 56 69 57 70 58 71 59 50 60 51 61 59 62 52 63 58 64 60 65
REMARK SMILES IDX 57 66 53 67 54 68 55 69 56 70 5 71 6 72 7 73 8 74 9 75 10 77
REMARK SMILES IDX 11 78 12 79 23 80 13 81 22 82 14 83 17 84 15 85 16 86 18 88
REMARK SMILES IDX 19 89 20 90 21 91
REMARK H PARENT 3 5 80 23 48 34 8 76 15 87
REMARK Flexibility Score: inf
ROOT
ATOM      1  C   UNL A   1      32.781  32.528  27.244  1.00  0.00     0.116 C 
ENDROOT
BRANCH   1   2
ATOM      2  N   UNL A   1      32.520  33.896  27.660  1.00  0.00    -0.352 N 
ATOM      3  O   UNL A   1      32.682  35.740  28.941  1.00  0.00    -0.269 OA
ATOM      4  C   UNL A   1      33.143  34.644  28.628  1.00  0.00     0.251 C 
ATOM      5  H   UNL A   1      31.791  34.352  27.179  1.00  0.00     0.163 HD
BRANCH   4   6
ATOM      6  C   UNL A   1      34.350  34.125  29.304  1.00  0.00     0.039 A 
ATOM      7  C   UNL A   1      35.629  34.409  28.815  1.00  0.00     0.014 A 
ATOM      8  C   UNL A   1      34.195  33.352  30.457  1.00  0.00     0.014 A 
ATOM      9  C   UNL A   1      36.745  33.826  29.410  1.00  0.00     0.010 A 
ATOM     10  C   UNL A   1      35.321  32.826  31.094  1.00  0.00     0.010 A 
ATOM     11  C   UNL A   1      36.604  33.039  30.562  1.00  0.00    -0.014 A 
BRANCH  11  12
ATOM     12  C   UNL A   1      37.797  32.468  31.239  1.00  0.00     0.031 A 
ATOM     13  C   UNL A   1      38.532  31.305  30.637  1.00  0.00     0.074 A 
ATOM     14  C   UNL A   1      38.189  32.979  32.422  1.00  0.00     0.049 A 
ATOM     15  N   UNL A   1      39.510  30.595  31.138  1.00  0.00    -0.248 NA
ATOM     16  C   UNL A   1      38.094  30.876  29.303  1.00  0.00     0.031 C 
ATOM     17  C   UNL A   1      37.558  34.114  33.097  1.00  0.00     0.029 A 
ATOM     18  N   UNL A   1      39.195  32.600  33.275  1.00  0.00    -0.354 N 
ATOM     19  C   UNL A   1      39.794  29.617  30.191  1.00  0.00     0.074 A 
ATOM     20  C   UNL A   1      38.855  29.809  29.103  1.00  0.00     0.031 C 
ATOM     21  C   UNL A   1      38.188  34.338  34.259  1.00  0.00     0.029 A 
ATOM     22  C   UNL A   1      39.218  33.320  34.445  1.00  0.00     0.049 A 
ATOM     23  H   UNL A   1      39.836  31.881  33.068  1.00  0.00     0.167 HD
ATOM     24  C   UNL A   1      40.752  28.656  30.226  1.00  0.00     0.034 A 
ATOM     25  C   UNL A   1      39.947  33.154  35.566  1.00  0.00     0.034 A 
ATOM     26  C   UNL A   1      41.668  28.480  31.331  1.00  0.00     0.049 A 
ATOM     27  C   UNL A   1      40.954  32.038  35.622  1.00  0.00     0.074 A 
ATOM     28  C   UNL A   1      42.699  27.565  31.461  1.00  0.00     0.029 A 
ATOM     29  N   UNL A   1      41.649  29.221  32.508  1.00  0.00    -0.354 N 
ATOM     30  N   UNL A   1      41.227  31.129  34.714  1.00  0.00    -0.248 NA
ATOM     31  C   UNL A   1      41.757  31.927  36.846  1.00  0.00     0.031 C 
ATOM     32  C   UNL A   1      43.245  27.695  32.742  1.00  0.00     0.029 A 
ATOM     33  C   UNL A   1      42.622  28.755  33.382  1.00  0.00     0.049 A 
ATOM     34  H   UNL A   1      41.034  29.966  32.695  1.00  0.00     0.167 HD
ATOM     35  C   UNL A   1      42.255  30.357  35.245  1.00  0.00     0.074 A 
ATOM     36  C   UNL A   1      42.551  30.905  36.554  1.00  0.00     0.031 C 
ATOM     37  C   UNL A   1      42.905  29.303  34.690  1.00  0.00     0.034 A 
BRANCH  24  38
ATOM     38  C   UNL A   1      40.808  27.687  29.065  1.00  0.00     0.023 A 
ATOM     39  C   UNL A   1      41.765  27.810  28.042  1.00  0.00     0.031 A 
ATOM     40  C   UNL A   1      39.855  26.660  28.948  1.00  0.00     0.131 A 
ATOM     41  C   UNL A   1      41.682  26.995  26.903  1.00  0.00     0.055 A 
ATOM     42  C   UNL A   1      39.839  25.787  27.858  1.00  0.00     0.041 A 
ATOM     43  F   UNL A   1      38.902  26.500  29.881  1.00  0.00    -0.206 F 
ATOM     44  C   UNL A   1      40.742  25.966  26.815  1.00  0.00     0.022 A 
BRANCH  41  45
ATOM     45  S   UNL A   1      42.692  27.427  25.459  1.00  0.00     0.124 S 
ATOM     46  O   UNL A   1      44.000  27.655  26.070  1.00  0.00    -0.237 OA
ATOM     47  O   UNL A   1      42.575  26.236  24.626  1.00  0.00    -0.237 OA
ATOM     48  O   UNL A   1      42.042  28.626  24.933  1.00  0.00    -0.744 OA
ENDBRANCH  41  45
ENDBRANCH  24  38
BRANCH  25  49
ATOM     49  C   UNL A   1      39.702  34.042  36.735  1.00  0.00     0.023 A 
ATOM     50  C   UNL A   1      39.114  33.555  37.912  1.00  0.00     0.031 A 
ATOM     51  C   UNL A   1      40.084  35.396  36.697  1.00  0.00     0.131 A 
ATOM     52  C   UNL A   1      38.908  34.422  38.996  1.00  0.00     0.055 A 
ATOM     53  C   UNL A   1      39.922  36.241  37.794  1.00  0.00     0.041 A 
ATOM     54  F   UNL A   1      40.660  35.907  35.596  1.00  0.00    -0.206 F 
ATOM     55  C   UNL A   1      39.324  35.755  38.952  1.00  0.00     0.022 A 
BRANCH  52  56
ATOM     56  S   UNL A   1      38.046  33.790  40.462  1.00  0.00     0.124 S 
ATOM     57  O   UNL A   1      37.731  35.023  41.174  1.00  0.00    -0.237 OA
ATOM     58  O   UNL A   1      36.915  33.084  39.868  1.00  0.00    -0.237 OA
ATOM     59  O   UNL A   1      39.044  32.936  41.102  1.00  0.00    -0.744 OA
ENDBRANCH  52  56
ENDBRANCH  25  49
BRANCH  37  60
ATOM     60  C   UNL A   1      44.054  28.707  35.466  1.00  0.00     0.023 A 
ATOM     61  C   UNL A   1      43.879  27.651  36.376  1.00  0.00     0.031 A 
ATOM     62  C   UNL A   1      45.358  29.193  35.257  1.00  0.00     0.131 A 
ATOM     63  C   UNL A   1      44.988  27.132  37.064  1.00  0.00     0.055 A 
ATOM     64  C   UNL A   1      46.463  28.639  35.904  1.00  0.00     0.041 A 
ATOM     65  F   UNL A   1      45.581  30.205  34.405  1.00  0.00    -0.206 F 
ATOM     66  C   UNL A   1      46.280  27.606  36.818  1.00  0.00     0.022 A 
BRANCH  63  67
ATOM     67  S   UNL A   1      44.720  25.864  38.332  1.00  0.00     0.124 S 
ATOM     68  O   UNL A   1      46.069  25.665  38.852  1.00  0.00    -0.237 OA
ATOM     69  O   UNL A   1      43.777  26.515  39.236  1.00  0.00    -0.237 OA
ATOM     70  O   UNL A   1      44.175  24.735  37.580  1.00  0.00    -0.744 OA
ENDBRANCH  63  67
ENDBRANCH  37  60
ENDBRANCH  11  12
ENDBRANCH   4   6
ENDBRANCH   1   2
BRANCH   1  71
ATOM     71  C   UNL A   1      31.605  31.905  26.501  1.00  0.00     0.023 C 
BRANCH  71  72
ATOM     72  C   UNL A   1      31.751  30.422  26.157  1.00  0.00     0.023 C 
BRANCH  72  73
ATOM     73  C   UNL A   1      33.185  29.920  25.997  1.00  0.00     0.116 C 
BRANCH  73  74
ATOM     74  N   UNL A   1      33.391  29.179  24.767  1.00  0.00    -0.356 N 
ATOM     75  C   UNL A   1      33.406  27.837  24.542  1.00  0.00     0.223 C 
ATOM     76  H   UNL A   1      33.545  29.735  23.969  1.00  0.00     0.163 HD
ATOM     77  O   UNL A   1      33.362  27.458  23.371  1.00  0.00    -0.275 OA
BRANCH  75  78
ATOM     78  C   UNL A   1      33.452  26.866  25.721  1.00  0.00     0.083 C 
ATOM     79  C   UNL A   1      32.170  26.981  26.596  1.00  0.00     0.020 C 
ATOM     80  C   UNL A   1      33.656  25.409  25.242  1.00  0.00     0.053 C 
ATOM     81  C   UNL A   1      30.872  26.506  25.901  1.00  0.00     0.057 C 
ATOM     82  C   UNL A   1      32.399  24.869  24.660  1.00  0.00     0.006 A 
ATOM     83  C   UNL A   1      31.165  25.379  24.983  1.00  0.00     0.039 A 
ATOM     84  C   UNL A   1      32.147  23.850  23.699  1.00  0.00     0.169 A 
ATOM     85  N   UNL A   1      30.264  24.731  24.199  1.00  0.00    -0.282 N 
ATOM     86  N   UNL A   1      30.819  23.757  23.457  1.00  0.00    -0.171 NA
ATOM     87  H   UNL A   1      29.304  24.951  24.177  1.00  0.00     0.190 HD
BRANCH  84  88
ATOM     88  C   UNL A   1      33.157  22.972  23.003  1.00  0.00     0.435 C 
ATOM     89  F   UNL A   1      32.596  22.188  22.041  1.00  0.00    -0.164 F 
ATOM     90  F   UNL A   1      34.150  23.684  22.411  1.00  0.00    -0.164 F 
ATOM     91  F   UNL A   1      33.770  22.114  23.871  1.00  0.00    -0.164 F 
ENDBRANCH  84  88
ENDBRANCH  75  78
ENDBRANCH  73  74
ENDBRANCH  72  73
ENDBRANCH  71  72
ENDBRANCH   1  71
TORSDOF 15
ENDMDL
MODEL 2
REMARK VINA RESULT:     -12.2      1.471      1.823
REMARK SMILES O=C(NCCCCNC(=O)[C@H]1CCc2[nH]nc(C(F)(F)F)c2C1)c1ccc(-c2c3nc(c(-c4cc(S(=O)(=O)[O-])ccc4F)c4ccc([nH]4)c(-c4cc(S(=O)(=O)[O-])ccc4F)c4nc(c(-c5cc(S(=O)(=O)[O-])ccc5F)c5ccc2[nH]5)C=C4)C=C3)cc1
REMARK SMILES IDX 4 1 3 2 1 3 2 4 24 6 25 7 86 8 26 9 85 10 27 11 28 12 29 13
REMARK SMILES IDX 79 14 30 15 84 16 78 17 80 18 31 19 83 20 77 21 76 22 32 24
REMARK SMILES IDX 64 25 44 26 63 27 45 28 48 29 62 30 81 31 46 32 47 33 61 35
REMARK SMILES IDX 82 36 49 37 33 38 34 39 42 40 35 41 41 42 43 43 40 44 36 45
REMARK SMILES IDX 37 46 38 47 39 48 65 49 66 50 74 51 67 52 73 53 75 54 72 55
REMARK SMILES IDX 68 56 69 57 70 58 71 59 50 60 51 61 59 62 52 63 58 64 60 65
REMARK SMILES IDX 57 66 53 67 54 68 55 69 56 70 5 71 6 72 7 73 8 74 9 75 10 77
REMARK SMILES IDX 11 78 12 79 23 80 13 81 22 82 14 83 17 84 15 85 16 86 18 88
REMARK SMILES IDX 19 89 20 90 21 91
REMARK H PARENT 3 5 80 23 48 34 8 76 15 87
REMARK Flexibility Score: inf
ROOT
ATOM      1  C   UNL A   1      32.665  32.195  27.136  1.00  0.00     0.116 C 
ENDROOT
BRANCH   1   2
ATOM      2  N   UNL A   1      32.489  33.580  27.542  1.00  0.00    -0.352 N 
ATOM      3  O   UNL A   1      32.802  35.433  28.780  1.00  0.00    -0.269 OA
ATOM      4  C   UNL A   1      33.196  34.312  28.463  1.00  0.00     0.251 C 
ATOM      5  H   UNL A   1      31.758  34.062  27.091  1.00  0.00     0.163 HD
BRANCH   4   6
ATOM      6  C   UNL A   1      34.412  33.746  29.085  1.00  0.00     0.039 A 
ATOM      7  C   UNL A   1      35.680  34.250  28.777  1.00  0.00     0.014 A 
ATOM      8  C   UNL A   1      34.274  32.704  30.004  1.00  0.00     0.014 A 
ATOM      9  C   UNL A   1      36.816  33.635  29.298  1.00  0.00     0.010 A 
ATOM     10  C   UNL A   1      35.412  32.135  30.580  1.00  0.00     0.010 A 
ATOM     11  C   UNL A   1      36.693  32.580  30.214  1.00  0.00    -0.014 A 
BRANCH  11  12
ATOM     12  C   UNL A   1      37.900  31.964  30.823  1.00  0.00     0.031 A 
ATOM     13  C   UNL A   1      38.680  30.917  30.081  1.00  0.00     0.074 A 
ATOM     14  C   UNL A   1      38.265  32.324  32.068  1.00  0.00     0.049 A 
ATOM     15  N   UNL A   1      39.678  30.179  30.494  1.00  0.00    -0.248 NA
ATOM     16  C   UNL A   1      38.268  30.656  28.696  1.00  0.00     0.031 C 
ATOM     17  C   UNL A   1      37.590  33.337  32.882  1.00  0.00     0.029 A 
ATOM     18  N   UNL A   1      39.276  31.868  32.875  1.00  0.00    -0.354 N 
ATOM     19  C   UNL A   1      40.003  29.347  29.428  1.00  0.00     0.074 A 
ATOM     20  C   UNL A   1      39.066  29.651  28.365  1.00  0.00     0.031 C 
ATOM     21  C   UNL A   1      38.203  33.424  34.071  1.00  0.00     0.029 A 
ATOM     22  C   UNL A   1      39.266  32.426  34.132  1.00  0.00     0.049 A 
ATOM     23  H   UNL A   1      39.944  31.205  32.583  1.00  0.00     0.167 HD
ATOM     24  C   UNL A   1      40.994  28.422  29.347  1.00  0.00     0.034 A 
ATOM     25  C   UNL A   1      39.991  32.135  35.229  1.00  0.00     0.034 A 
ATOM     26  C   UNL A   1      41.906  28.130  30.429  1.00  0.00     0.049 A 
ATOM     27  C   UNL A   1      41.036  31.056  35.148  1.00  0.00     0.074 A 
ATOM     28  C   UNL A   1      42.967  27.242  30.448  1.00  0.00     0.029 A 
ATOM     29  N   UNL A   1      41.852  28.706  31.694  1.00  0.00    -0.354 N 
ATOM     30  N   UNL A   1      41.347  30.286  34.130  1.00  0.00    -0.248 NA
ATOM     31  C   UNL A   1      41.832  30.809  36.356  1.00  0.00     0.031 C 
ATOM     32  C   UNL A   1      43.498  27.217  31.742  1.00  0.00     0.029 A 
ATOM     33  C   UNL A   1      42.834  28.160  32.510  1.00  0.00     0.049 A 
ATOM     34  H   UNL A   1      41.210  29.399  31.972  1.00  0.00     0.167 HD
ATOM     35  C   UNL A   1      42.397  29.485  34.566  1.00  0.00     0.074 A 
ATOM     36  C   UNL A   1      42.663  29.862  35.940  1.00  0.00     0.031 C 
ATOM     37  C   UNL A   1      43.087  28.537  33.883  1.00  0.00     0.034 A 
BRANCH  24  38
ATOM     38  C   UNL A   1      41.092  27.621  28.067  1.00  0.00     0.023 A 
ATOM     39  C   UNL A   1      40.691  26.274  28.003  1.00  0.00     0.031 A 
ATOM     40  C   UNL A   1      41.647  28.193  26.908  1.00  0.00     0.131 A 
ATOM     41  C   UNL A   1      40.949  25.520  26.847  1.00  0.00     0.055 A 
ATOM     42  C   UNL A   1      41.808  27.464  25.729  1.00  0.00     0.041 A 
ATOM     43  F   UNL A   1      42.066  29.468  26.908  1.00  0.00    -0.206 F 
ATOM     44  C   UNL A   1      41.481  26.112  25.700  1.00  0.00     0.022 A 
BRANCH  41  45
ATOM     45  S   UNL A   1      40.761  23.718  26.935  1.00  0.00     0.124 S 
ATOM     46  O   UNL A   1      41.733  23.271  25.939  1.00  0.00    -0.237 OA
ATOM     47  O   UNL A   1      41.096  23.435  28.325  1.00  0.00    -0.237 OA
ATOM     48  O   UNL A   1      39.363  23.501  26.570  1.00  0.00    -0.744 OA
ENDBRANCH  41  45
ENDBRANCH  24  38
BRANCH  25  49
ATOM     49  C   UNL A   1      39.706  32.850  36.504  1.00  0.00     0.023 A 
ATOM     50  C   UNL A   1      38.735  32.383  37.401  1.00  0.00     0.031 A 
ATOM     51  C   UNL A   1      40.431  34.004  36.853  1.00  0.00     0.131 A 
ATOM     52  C   UNL A   1      38.502  33.079  38.598  1.00  0.00     0.055 A 
ATOM     53  C   UNL A   1      40.230  34.664  38.065  1.00  0.00     0.041 A 
ATOM     54  F   UNL A   1      41.378  34.485  36.031  1.00  0.00    -0.206 F 
ATOM     55  C   UNL A   1      39.254  34.205  38.943  1.00  0.00     0.022 A 
BRANCH  52  56
ATOM     56  S   UNL A   1      37.165  32.515  39.685  1.00  0.00     0.124 S 
ATOM     57  O   UNL A   1      36.025  32.510  38.775  1.00  0.00    -0.237 OA
ATOM     58  O   UNL A   1      37.652  31.208  40.113  1.00  0.00    -0.237 OA
ATOM     59  O   UNL A   1      37.124  33.535  40.731  1.00  0.00    -0.744 OA
ENDBRANCH  52  56
ENDBRANCH  25  49
BRANCH  37  60
ATOM     60  C   UNL A   1      44.251  27.881  34.587  1.00  0.00     0.023 A 
ATOM     61  C   UNL A   1      44.139  26.631  35.219  1.00  0.00     0.031 A 
ATOM     62  C   UNL A   1      45.507  28.515  34.590  1.00  0.00     0.131 A 
ATOM     63  C   UNL A   1      45.259  26.067  35.852  1.00  0.00     0.055 A 
ATOM     64  C   UNL A   1      46.629  27.926  35.173  1.00  0.00     0.041 A 
ATOM     65  F   UNL A   1      45.668  29.714  34.007  1.00  0.00    -0.206 F 
ATOM     66  C   UNL A   1      46.506  26.697  35.815  1.00  0.00     0.022 A 
BRANCH  63  67
ATOM     67  S   UNL A   1      45.058  24.520  36.777  1.00  0.00     0.124 S 
ATOM     68  O   UNL A   1      44.676  25.005  38.099  1.00  0.00    -0.237 OA
ATOM     69  O   UNL A   1      44.014  23.835  36.022  1.00  0.00    -0.237 OA
ATOM     70  O   UNL A   1      46.381  23.902  36.704  1.00  0.00    -0.744 OA
ENDBRANCH  63  67
ENDBRANCH  37  60
ENDBRANCH  11  12
ENDBRANCH   4   6
ENDBRANCH   1   2
BRANCH   1  71
ATOM     71  C   UNL A   1      31.426  31.617  26.464  1.00  0.00     0.023 C 
BRANCH  71  72
ATOM     72  C   UNL A   1      31.658  30.374  25.603  1.00  0.00     0.023 C 
BRANCH  72  73
ATOM     73  C   UNL A   1      33.028  29.716  25.752  1.00  0.00     0.116 C 
BRANCH  73  74
ATOM     74  N   UNL A   1      33.423  28.960  24.579  1.00  0.00    -0.356 N 
ATOM     75  C   UNL A   1      33.554  27.617  24.403  1.00  0.00     0.223 C 
ATOM     76  H   UNL A   1      33.630  29.504  23.785  1.00  0.00     0.163 HD
ATOM     77  O   UNL A   1      33.669  27.204  23.248  1.00  0.00    -0.275 OA
BRANCH  75  78
ATOM     78  C   UNL A   1      33.529  26.682  25.613  1.00  0.00     0.083 C 
ATOM     79  C   UNL A   1      32.235  26.883  26.453  1.00  0.00     0.020 C 
ATOM     80  C   UNL A   1      33.677  25.203  25.183  1.00  0.00     0.053 C 
ATOM     81  C   UNL A   1      30.932  26.445  25.743  1.00  0.00     0.057 C 
ATOM     82  C   UNL A   1      32.409  24.702  24.589  1.00  0.00     0.006 A 
ATOM     83  C   UNL A   1      31.193  25.277  24.867  1.00  0.00     0.039 A 
ATOM     84  C   UNL A   1      32.132  23.665  23.654  1.00  0.00     0.169 A 
ATOM     85  N   UNL A   1      30.281  24.646  24.083  1.00  0.00    -0.282 N 
ATOM     86  N   UNL A   1      30.807  23.625  23.384  1.00  0.00    -0.171 NA
ATOM     87  H   UNL A   1      29.333  24.909  24.032  1.00  0.00     0.190 HD
BRANCH  84  88
ATOM     88  C   UNL A   1      33.116  22.721  23.010  1.00  0.00     0.435 C 
ATOM     89  F   UNL A   1      33.703  21.883  23.908  1.00  0.00    -0.164 F 
ATOM     90  F   UNL A   1      32.546  21.945  22.051  1.00  0.00    -0.164 F 
ATOM     91  F   UNL A   1      34.139  23.389  22.400  1.00  0.00    -0.164 F 
ENDBRANCH  84  88
ENDBRANCH  75  78
ENDBRANCH  73  74
ENDBRANCH  72  73
ENDBRANCH  71  72
ENDBRANCH   1  71
TORSDOF 15
ENDMDL
MODEL 3
REMARK VINA RESULT:     -12.1      3.413      8.824
REMARK SMILES O=C(NCCCCNC(=O)[C@H]1CCc2[nH]nc(C(F)(F)F)c2C1)c1ccc(-c2c3nc(c(-c4cc(S(=O)(=O)[O-])ccc4F)c4ccc([nH]4)c(-c4cc(S(=O)(=O)[O-])ccc4F)c4nc(c(-c5cc(S(=O)(=O)[O-])ccc5F)c5ccc2[nH]5)C=C4)C=C3)cc1
REMARK SMILES IDX 4 1 3 2 1 3 2 4 24 6 25 7 86 8 26 9 85 10 27 11 28 12 29 13
REMARK SMILES IDX 79 14 30 15 84 16 78 17 80 18 31 19 83 20 77 21 76 22 32 24
REMARK SMILES IDX 64 25 44 26 63 27 45 28 48 29 62 30 81 31 46 32 47 33 61 35
REMARK SMILES IDX 82 36 49 37 33 38 34 39 42 40 35 41 41 42 43 43 40 44 36 45
REMARK SMILES IDX 37 46 38 47 39 48 65 49 66 50 74 51 67 52 73 53 75 54 72 55
REMARK SMILES IDX 68 56 69 57 70 58 71 59 50 60 51 61 59 62 52 63 58 64 60 65
REMARK SMILES IDX 57 66 53 67 54 68 55 69 56 70 5 71 6 72 7 73 8 74 9 75 10 77
REMARK SMILES IDX 11 78 12 79 23 80 13 81 22 82 14 83 17 84 15 85 16 86 18 88
REMARK SMILES IDX 19 89 20 90 21 91
REMARK H PARENT 3 5 80 23 48 34 8 76 15 87
REMARK Flexibility Score: inf
ROOT
ATOM      1  C   UNL A   1      33.975  28.792  26.129  1.00  0.00     0.116 C 
ENDROOT
BRANCH   1   2
ATOM      2  N   UNL A   1      33.757  30.171  26.533  1.00  0.00    -0.352 N 
ATOM      3  O   UNL A   1      34.034  32.042  27.753  1.00  0.00    -0.269 OA
ATOM      4  C   UNL A   1      34.461  30.936  27.429  1.00  0.00     0.251 C 
ATOM      5  H   UNL A   1      32.993  30.621  26.103  1.00  0.00     0.163 HD
BRANCH   4   6
ATOM      6  C   UNL A   1      35.718  30.423  28.016  1.00  0.00     0.039 A 
ATOM      7  C   UNL A   1      36.940  30.584  27.356  1.00  0.00     0.014 A 
ATOM      8  C   UNL A   1      35.668  29.783  29.256  1.00  0.00     0.014 A 
ATOM      9  C   UNL A   1      38.093  30.005  27.880  1.00  0.00     0.010 A 
ATOM     10  C   UNL A   1      36.838  29.263  29.814  1.00  0.00     0.010 A 
ATOM     11  C   UNL A   1      38.056  29.349  29.119  1.00  0.00    -0.014 A 
BRANCH  11  12
ATOM     12  C   UNL A   1      39.296  28.786  29.713  1.00  0.00     0.031 A 
ATOM     13  C   UNL A   1      39.955  29.458  30.884  1.00  0.00     0.074 A 
ATOM     14  C   UNL A   1      39.849  27.688  29.164  1.00  0.00     0.049 A 
ATOM     15  N   UNL A   1      41.101  29.191  31.455  1.00  0.00    -0.248 NA
ATOM     16  C   UNL A   1      39.233  30.592  31.476  1.00  0.00     0.031 C 
ATOM     17  C   UNL A   1      39.293  26.945  28.031  1.00  0.00     0.029 A 
ATOM     18  N   UNL A   1      41.006  27.017  29.467  1.00  0.00    -0.354 N 
ATOM     19  C   UNL A   1      41.253  30.137  32.463  1.00  0.00     0.074 A 
ATOM     20  C   UNL A   1      40.094  31.005  32.395  1.00  0.00     0.031 C 
ATOM     21  C   UNL A   1      40.110  25.925  27.734  1.00  0.00     0.029 A 
ATOM     22  C   UNL A   1      41.280  25.983  28.604  1.00  0.00     0.049 A 
ATOM     23  H   UNL A   1      41.585  27.256  30.228  1.00  0.00     0.167 HD
ATOM     24  C   UNL A   1      42.263  30.262  33.362  1.00  0.00     0.034 A 
ATOM     25  C   UNL A   1      42.370  25.200  28.488  1.00  0.00     0.034 A 
ATOM     26  C   UNL A   1      43.414  29.388  33.398  1.00  0.00     0.049 A 
ATOM     27  C   UNL A   1      43.515  25.397  29.443  1.00  0.00     0.074 A 
ATOM     28  C   UNL A   1      44.478  29.398  34.283  1.00  0.00     0.029 A 
ATOM     29  N   UNL A   1      43.664  28.360  32.495  1.00  0.00    -0.354 N 
ATOM     30  N   UNL A   1      43.643  26.284  30.403  1.00  0.00    -0.248 NA
ATOM     31  C   UNL A   1      44.660  24.489  29.306  1.00  0.00     0.031 C 
ATOM     32  C   UNL A   1      45.407  28.438  33.867  1.00  0.00     0.029 A 
ATOM     33  C   UNL A   1      44.883  27.760  32.778  1.00  0.00     0.049 A 
ATOM     34  H   UNL A   1      43.063  28.097  31.760  1.00  0.00     0.167 HD
ATOM     35  C   UNL A   1      44.868  26.018  31.006  1.00  0.00     0.074 A 
ATOM     36  C   UNL A   1      45.443  24.892  30.298  1.00  0.00     0.031 C 
ATOM     37  C   UNL A   1      45.453  26.641  32.061  1.00  0.00     0.034 A 
BRANCH  24  38
ATOM     38  C   UNL A   1      42.192  31.422  34.330  1.00  0.00     0.023 A 
ATOM     39  C   UNL A   1      41.332  31.408  35.442  1.00  0.00     0.031 A 
ATOM     40  C   UNL A   1      42.952  32.585  34.106  1.00  0.00     0.131 A 
ATOM     41  C   UNL A   1      41.174  32.565  36.222  1.00  0.00     0.055 A 
ATOM     42  C   UNL A   1      42.864  33.698  34.945  1.00  0.00     0.041 A 
ATOM     43  F   UNL A   1      43.778  32.670  33.051  1.00  0.00    -0.206 F 
ATOM     44  C   UNL A   1      41.954  33.702  35.997  1.00  0.00     0.022 A 
BRANCH  41  45
ATOM     45  S   UNL A   1      39.799  32.627  37.404  1.00  0.00     0.124 S 
ATOM     46  O   UNL A   1      39.211  33.932  37.105  1.00  0.00    -0.237 OA
ATOM     47  O   UNL A   1      39.004  31.467  37.021  1.00  0.00    -0.237 OA
ATOM     48  O   UNL A   1      40.460  32.533  38.703  1.00  0.00    -0.744 OA
ENDBRANCH  41  45
ENDBRANCH  24  38
BRANCH  25  49
ATOM     49  C   UNL A   1      42.435  24.198  27.388  1.00  0.00     0.023 A 
ATOM     50  C   UNL A   1      41.674  23.020  27.427  1.00  0.00     0.031 A 
ATOM     51  C   UNL A   1      43.248  24.425  26.262  1.00  0.00     0.131 A 
ATOM     52  C   UNL A   1      41.755  22.105  26.366  1.00  0.00     0.055 A 
ATOM     53  C   UNL A   1      43.288  23.536  25.189  1.00  0.00     0.041 A 
ATOM     54  F   UNL A   1      43.988  25.542  26.174  1.00  0.00    -0.206 F 
ATOM     55  C   UNL A   1      42.543  22.363  25.241  1.00  0.00     0.022 A 
BRANCH  52  56
ATOM     56  S   UNL A   1      40.845  20.542  26.496  1.00  0.00     0.124 S 
ATOM     57  O   UNL A   1      39.526  20.926  26.008  1.00  0.00    -0.237 OA
ATOM     58  O   UNL A   1      41.622  19.664  25.627  1.00  0.00    -0.237 OA
ATOM     59  O   UNL A   1      40.916  20.224  27.921  1.00  0.00    -0.744 OA
ENDBRANCH  52  56
ENDBRANCH  25  49
BRANCH  37  60
ATOM     60  C   UNL A   1      46.759  26.076  32.565  1.00  0.00     0.023 A 
ATOM     61  C   UNL A   1      46.813  25.037  33.510  1.00  0.00     0.031 A 
ATOM     62  C   UNL A   1      47.972  26.573  32.056  1.00  0.00     0.131 A 
ATOM     63  C   UNL A   1      48.058  24.547  33.937  1.00  0.00     0.055 A 
ATOM     64  C   UNL A   1      49.205  26.046  32.443  1.00  0.00     0.041 A 
ATOM     65  F   UNL A   1      47.978  27.569  31.156  1.00  0.00    -0.206 F 
ATOM     66  C   UNL A   1      49.252  25.031  33.394  1.00  0.00     0.022 A 
BRANCH  63  67
ATOM     67  S   UNL A   1      48.107  23.303  35.255  1.00  0.00     0.124 S 
ATOM     68  O   UNL A   1      47.668  24.072  36.415  1.00  0.00    -0.237 OA
ATOM     69  O   UNL A   1      47.173  22.292  34.770  1.00  0.00    -0.237 OA
ATOM     70  O   UNL A   1      49.509  22.887  35.284  1.00  0.00    -0.744 OA
ENDBRANCH  63  67
ENDBRANCH  37  60
ENDBRANCH  11  12
ENDBRANCH   4   6
ENDBRANCH   1   2
BRANCH   1  71
ATOM     71  C   UNL A   1      33.271  27.794  27.040  1.00  0.00     0.023 C 
BRANCH  71  72
ATOM     72  C   UNL A   1      31.743  27.805  26.979  1.00  0.00     0.023 C 
BRANCH  72  73
ATOM     73  C   UNL A   1      31.105  26.653  26.205  1.00  0.00     0.116 C 
BRANCH  73  74
ATOM     74  N   UNL A   1      31.399  25.354  26.780  1.00  0.00    -0.356 N 
ATOM     75  C   UNL A   1      32.125  24.316  26.282  1.00  0.00     0.223 C 
ATOM     76  H   UNL A   1      31.012  25.198  27.672  1.00  0.00     0.163 HD
ATOM     77  O   UNL A   1      32.431  23.412  27.060  1.00  0.00    -0.275 OA
BRANCH  75  78
ATOM     78  C   UNL A   1      32.549  24.318  24.813  1.00  0.00     0.083 C 
ATOM     79  C   UNL A   1      33.836  25.165  24.599  1.00  0.00     0.020 C 
ATOM     80  C   UNL A   1      32.750  22.877  24.285  1.00  0.00     0.053 C 
ATOM     81  C   UNL A   1      35.110  24.578  25.251  1.00  0.00     0.057 C 
ATOM     82  C   UNL A   1      34.022  22.305  24.801  1.00  0.00     0.006 A 
ATOM     83  C   UNL A   1      35.064  23.095  25.219  1.00  0.00     0.039 A 
ATOM     84  C   UNL A   1      34.448  20.966  25.028  1.00  0.00     0.169 A 
ATOM     85  N   UNL A   1      36.007  22.255  25.719  1.00  0.00    -0.282 N 
ATOM     86  N   UNL A   1      35.691  20.958  25.561  1.00  0.00    -0.171 NA
ATOM     87  H   UNL A   1      36.837  22.564  26.152  1.00  0.00     0.190 HD
BRANCH  84  88
ATOM     88  C   UNL A   1      33.681  19.697  24.752  1.00  0.00     0.435 C 
ATOM     89  F   UNL A   1      34.494  18.615  24.604  1.00  0.00    -0.164 F 
ATOM     90  F   UNL A   1      32.791  19.399  25.734  1.00  0.00    -0.164 F 
ATOM     91  F   UNL A   1      32.958  19.780  23.596  1.00  0.00    -0.164 F 
ENDBRANCH  84  88
ENDBRANCH  75  78
ENDBRANCH  73  74
ENDBRANCH  72  73
ENDBRANCH  71  72
ENDBRANCH   1  71
TORSDOF 15
ENDMDL
