MODEL 1
REMARK VINA RESULT:     -11.0      0.000      0.000
REMARK SMILES O=C(NCCCCNC(=O)c1ccc(NCCCO)c(F)c1F)c1ccc(-c2c3nc(c(-c4cc(S(=O)(=O)[O-])ccc4F)c4ccc([nH]4)c(-c4cc(S(=O)(=O)[O-])ccc4F)c4nc(c(-c5cc(S(=O)(=O)[O-])ccc5F)c5ccc2[nH]5)C=C4)C=C3)cc1
REMARK SMILES IDX 6 1 5 2 4 3 3 4 1 5 2 6 24 8 25 9 86 10 26 11 85 12 27 13
REMARK SMILES IDX 28 14 29 15 79 16 30 17 84 18 78 19 80 20 31 21 83 22 77 23
REMARK SMILES IDX 76 24 32 26 64 27 44 28 63 29 45 30 48 31 62 32 81 33 46 34
REMARK SMILES IDX 47 35 61 37 82 38 49 39 33 40 34 41 42 42 35 43 41 44 43 45
REMARK SMILES IDX 40 46 36 47 37 48 38 49 39 50 65 51 66 52 74 53 67 54 73 55
REMARK SMILES IDX 75 56 72 57 68 58 69 59 70 60 71 61 50 62 51 63 59 64 52 65
REMARK SMILES IDX 58 66 60 67 57 68 53 69 54 70 55 71 56 72 7 73 8 74 9 75
REMARK SMILES IDX 10 77 11 78 12 79 22 80 13 81 20 82 23 83 14 84 21 85 15 86
REMARK SMILES IDX 16 88 17 89 18 90 19 91
REMARK H PARENT 3 7 80 25 48 36 8 76 15 87 19 92
REMARK Flexibility Score: inf
ROOT
ATOM      1  C   UNL A   1      31.995  26.762  26.739  1.00  0.00     0.023 C 
ENDROOT
BRANCH   1   2
ATOM      2  C   UNL A   1      31.696  28.251  26.883  1.00  0.00     0.023 C 
BRANCH   2   3
ATOM      3  C   UNL A   1      32.686  29.183  26.198  1.00  0.00     0.116 C 
BRANCH   3   4
ATOM      4  N   UNL A   1      32.393  30.594  26.410  1.00  0.00    -0.352 N 
ATOM      5  O   UNL A   1      32.643  32.657  27.293  1.00  0.00    -0.269 OA
ATOM      6  C   UNL A   1      33.105  31.532  27.124  1.00  0.00     0.251 C 
ATOM      7  H   UNL A   1      31.571  30.925  25.981  1.00  0.00     0.163 HD
BRANCH   6   8
ATOM      8  C   UNL A   1      34.412  31.164  27.712  1.00  0.00     0.039 A 
ATOM      9  C   UNL A   1      34.701  29.831  28.007  1.00  0.00     0.014 A 
ATOM     10  C   UNL A   1      35.340  32.166  28.011  1.00  0.00     0.014 A 
ATOM     11  C   UNL A   1      35.821  29.524  28.769  1.00  0.00     0.010 A 
ATOM     12  C   UNL A   1      36.524  31.836  28.681  1.00  0.00     0.010 A 
ATOM     13  C   UNL A   1      36.755  30.517  29.105  1.00  0.00    -0.014 A 
BRANCH  13  14
ATOM     14  C   UNL A   1      37.975  30.132  29.865  1.00  0.00     0.031 A 
ATOM     15  C   UNL A   1      38.210  30.617  31.271  1.00  0.00     0.074 A 
ATOM     16  C   UNL A   1      38.855  29.292  29.284  1.00  0.00     0.049 A 
ATOM     17  N   UNL A   1      39.202  30.344  32.082  1.00  0.00    -0.248 NA
ATOM     18  C   UNL A   1      37.211  31.533  31.836  1.00  0.00     0.031 C 
ATOM     19  C   UNL A   1      38.731  28.755  27.926  1.00  0.00     0.029 A 
ATOM     20  N   UNL A   1      40.003  28.715  29.762  1.00  0.00    -0.354 N 
ATOM     21  C   UNL A   1      38.959  31.069  33.245  1.00  0.00     0.074 A 
ATOM     22  C   UNL A   1      37.744  31.824  33.014  1.00  0.00     0.031 C 
ATOM     23  C   UNL A   1      39.720  27.879  27.706  1.00  0.00     0.029 A 
ATOM     24  C   UNL A   1      40.597  27.854  28.869  1.00  0.00     0.049 A 
ATOM     25  H   UNL A   1      40.368  28.901  30.657  1.00  0.00     0.167 HD
ATOM     26  C   UNL A   1      39.679  31.096  34.397  1.00  0.00     0.034 A 
ATOM     27  C   UNL A   1      41.734  27.137  28.963  1.00  0.00     0.034 A 
ATOM     28  C   UNL A   1      40.889  30.333  34.606  1.00  0.00     0.049 A 
ATOM     29  C   UNL A   1      42.541  27.228  30.230  1.00  0.00     0.074 A 
ATOM     30  C   UNL A   1      41.675  30.256  35.743  1.00  0.00     0.029 A 
ATOM     31  N   UNL A   1      41.498  29.522  33.654  1.00  0.00    -0.354 N 
ATOM     32  N   UNL A   1      42.285  27.904  31.326  1.00  0.00    -0.248 NA
ATOM     33  C   UNL A   1      43.789  26.457  30.269  1.00  0.00     0.031 C 
ATOM     34  C   UNL A   1      42.797  29.471  35.453  1.00  0.00     0.029 A 
ATOM     35  C   UNL A   1      42.669  28.978  34.165  1.00  0.00     0.049 A 
ATOM     36  H   UNL A   1      41.150  29.358  32.747  1.00  0.00     0.167 HD
ATOM     37  C   UNL A   1      43.330  27.615  32.198  1.00  0.00     0.074 A 
ATOM     38  C   UNL A   1      44.203  26.689  31.505  1.00  0.00     0.031 C 
ATOM     39  C   UNL A   1      43.546  28.070  33.459  1.00  0.00     0.034 A 
BRANCH  26  40
ATOM     40  C   UNL A   1      39.206  32.022  35.496  1.00  0.00     0.023 A 
ATOM     41  C   UNL A   1      39.615  33.365  35.570  1.00  0.00     0.031 A 
ATOM     42  C   UNL A   1      38.348  31.545  36.505  1.00  0.00     0.131 A 
ATOM     43  C   UNL A   1      39.235  34.156  36.667  1.00  0.00     0.055 A 
ATOM     44  C   UNL A   1      37.902  32.363  37.546  1.00  0.00     0.041 A 
ATOM     45  F   UNL A   1      37.936  30.267  36.504  1.00  0.00    -0.206 F 
ATOM     46  C   UNL A   1      38.360  33.673  37.641  1.00  0.00     0.022 A 
BRANCH  43  47
ATOM     47  S   UNL A   1      40.031  35.773  36.886  1.00  0.00     0.124 S 
ATOM     48  O   UNL A   1      41.439  35.397  36.997  1.00  0.00    -0.237 OA
ATOM     49  O   UNL A   1      39.653  36.478  35.667  1.00  0.00    -0.237 OA
ATOM     50  O   UNL A   1      39.433  36.285  38.117  1.00  0.00    -0.744 OA
ENDBRANCH  43  47
ENDBRANCH  26  40
BRANCH  27  51
ATOM     51  C   UNL A   1      42.187  26.295  27.821  1.00  0.00     0.023 A 
ATOM     52  C   UNL A   1      41.747  24.969  27.682  1.00  0.00     0.031 A 
ATOM     53  C   UNL A   1      43.091  26.793  26.865  1.00  0.00     0.131 A 
ATOM     54  C   UNL A   1      42.246  24.174  26.640  1.00  0.00     0.055 A 
ATOM     55  C   UNL A   1      43.536  26.018  25.795  1.00  0.00     0.041 A 
ATOM     56  F   UNL A   1      43.542  28.056  26.950  1.00  0.00    -0.206 F 
ATOM     57  C   UNL A   1      43.124  24.694  25.685  1.00  0.00     0.022 A 
BRANCH  54  58
ATOM     58  S   UNL A   1      41.798  22.418  26.599  1.00  0.00     0.124 S 
ATOM     59  O   UNL A   1      42.385  21.933  27.842  1.00  0.00    -0.237 OA
ATOM     60  O   UNL A   1      40.340  22.479  26.557  1.00  0.00    -0.237 OA
ATOM     61  O   UNL A   1      42.434  21.934  25.376  1.00  0.00    -0.744 OA
ENDBRANCH  54  58
ENDBRANCH  27  51
BRANCH  39  62
ATOM     62  C   UNL A   1      44.757  27.528  34.180  1.00  0.00     0.023 A 
ATOM     63  C   UNL A   1      44.696  26.357  34.956  1.00  0.00     0.031 A 
ATOM     64  C   UNL A   1      45.981  28.218  34.122  1.00  0.00     0.131 A 
ATOM     65  C   UNL A   1      45.816  25.950  35.698  1.00  0.00     0.055 A 
ATOM     66  C   UNL A   1      47.112  27.769  34.806  1.00  0.00     0.041 A 
ATOM     67  F   UNL A   1      46.097  29.346  33.403  1.00  0.00    -0.206 F 
ATOM     68  C   UNL A   1      47.028  26.638  35.613  1.00  0.00     0.022 A 
BRANCH  65  69
ATOM     69  S   UNL A   1      45.632  24.577  36.869  1.00  0.00     0.124 S 
ATOM     70  O   UNL A   1      44.973  23.566  36.050  1.00  0.00    -0.237 OA
ATOM     71  O   UNL A   1      47.015  24.294  37.239  1.00  0.00    -0.237 OA
ATOM     72  O   UNL A   1      44.810  25.144  37.936  1.00  0.00    -0.744 OA
ENDBRANCH  65  69
ENDBRANCH  39  62
ENDBRANCH  13  14
ENDBRANCH   6   8
ENDBRANCH   3   4
ENDBRANCH   2   3
ENDBRANCH   1   2
BRANCH   1  73
ATOM     73  C   UNL A   1      33.122  26.415  25.772  1.00  0.00     0.116 C 
BRANCH  73  74
ATOM     74  N   UNL A   1      32.819  25.274  24.921  1.00  0.00    -0.352 N 
ATOM     75  C   UNL A   1      31.847  25.149  23.956  1.00  0.00     0.254 C 
ATOM     76  H   UNL A   1      33.388  24.483  25.054  1.00  0.00     0.163 HD
ATOM     77  O   UNL A   1      31.700  24.103  23.334  1.00  0.00    -0.269 OA
BRANCH  75  78
ATOM     78  C   UNL A   1      30.988  26.301  23.657  1.00  0.00     0.078 A 
ATOM     79  C   UNL A   1      29.625  26.263  23.971  1.00  0.00     0.019 A 
ATOM     80  C   UNL A   1      31.529  27.414  23.032  1.00  0.00     0.173 A 
ATOM     81  C   UNL A   1      28.787  27.306  23.563  1.00  0.00     0.030 A 
ATOM     82  C   UNL A   1      30.687  28.449  22.645  1.00  0.00     0.182 A 
ATOM     83  F   UNL A   1      32.836  27.485  22.743  1.00  0.00    -0.203 F 
ATOM     84  C   UNL A   1      29.293  28.403  22.860  1.00  0.00     0.073 A 
ATOM     85  F   UNL A   1      31.206  29.512  22.005  1.00  0.00    -0.201 F 
BRANCH  84  86
ATOM     86  N   UNL A   1      28.507  29.424  22.357  1.00  0.00    -0.383 N 
ATOM     87  H   UNL A   1      28.803  29.835  21.513  1.00  0.00     0.160 HD
BRANCH  86  88
ATOM     88  C   UNL A   1      27.290  29.952  22.944  1.00  0.00     0.115 C 
BRANCH  88  89
ATOM     89  C   UNL A   1      27.521  31.366  23.467  1.00  0.00     0.049 C 
BRANCH  89  90
ATOM     90  C   UNL A   1      28.996  31.720  23.620  1.00  0.00     0.158 C 
BRANCH  90  91
ATOM     91  O   UNL A   1      29.485  32.372  22.455  1.00  0.00    -0.396 OA
ATOM     92  H   UNL A   1      29.161  33.286  22.436  1.00  0.00     0.210 HD
ENDBRANCH  90  91
ENDBRANCH  89  90
ENDBRANCH  88  89
ENDBRANCH  86  88
ENDBRANCH  84  86
ENDBRANCH  75  78
ENDBRANCH  73  74
ENDBRANCH   1  73
TORSDOF 19
ENDMDL
MODEL 2
REMARK VINA RESULT:     -11.0      2.005      3.468
REMARK SMILES O=C(NCCCCNC(=O)c1ccc(NCCCO)c(F)c1F)c1ccc(-c2c3nc(c(-c4cc(S(=O)(=O)[O-])ccc4F)c4ccc([nH]4)c(-c4cc(S(=O)(=O)[O-])ccc4F)c4nc(c(-c5cc(S(=O)(=O)[O-])ccc5F)c5ccc2[nH]5)C=C4)C=C3)cc1
REMARK SMILES IDX 6 1 5 2 4 3 3 4 1 5 2 6 24 8 25 9 86 10 26 11 85 12 27 13
REMARK SMILES IDX 28 14 29 15 79 16 30 17 84 18 78 19 80 20 31 21 83 22 77 23
REMARK SMILES IDX 76 24 32 26 64 27 44 28 63 29 45 30 48 31 62 32 81 33 46 34
REMARK SMILES IDX 47 35 61 37 82 38 49 39 33 40 34 41 42 42 35 43 41 44 43 45
REMARK SMILES IDX 40 46 36 47 37 48 38 49 39 50 65 51 66 52 74 53 67 54 73 55
REMARK SMILES IDX 75 56 72 57 68 58 69 59 70 60 71 61 50 62 51 63 59 64 52 65
REMARK SMILES IDX 58 66 60 67 57 68 53 69 54 70 55 71 56 72 7 73 8 74 9 75
REMARK SMILES IDX 10 77 11 78 12 79 22 80 13 81 20 82 23 83 14 84 21 85 15 86
REMARK SMILES IDX 16 88 17 89 18 90 19 91
REMARK H PARENT 3 7 80 25 48 36 8 76 15 87 19 92
REMARK Flexibility Score: inf
ROOT
ATOM      1  C   UNL A   1      31.238  28.291  23.826  1.00  0.00     0.023 C 
ENDROOT
BRANCH   1   2
ATOM      2  C   UNL A   1      31.815  28.202  25.235  1.00  0.00     0.023 C 
BRANCH   2   3
ATOM      3  C   UNL A   1      32.956  29.165  25.533  1.00  0.00     0.116 C 
BRANCH   3   4
ATOM      4  N   UNL A   1      32.507  30.452  26.046  1.00  0.00    -0.352 N 
ATOM      5  O   UNL A   1      32.511  32.269  27.386  1.00  0.00    -0.269 OA
ATOM      6  C   UNL A   1      33.096  31.266  26.989  1.00  0.00     0.251 C 
ATOM      7  H   UNL A   1      31.664  30.789  25.664  1.00  0.00     0.163 HD
BRANCH   6   8
ATOM      8  C   UNL A   1      34.421  30.905  27.540  1.00  0.00     0.039 A 
ATOM      9  C   UNL A   1      34.662  29.610  28.000  1.00  0.00     0.014 A 
ATOM     10  C   UNL A   1      35.416  31.881  27.639  1.00  0.00     0.014 A 
ATOM     11  C   UNL A   1      35.815  29.343  28.727  1.00  0.00     0.010 A 
ATOM     12  C   UNL A   1      36.626  31.576  28.273  1.00  0.00     0.010 A 
ATOM     13  C   UNL A   1      36.819  30.316  28.863  1.00  0.00    -0.014 A 
BRANCH  13  14
ATOM     14  C   UNL A   1      38.068  29.967  29.592  1.00  0.00     0.031 A 
ATOM     15  C   UNL A   1      38.339  30.487  30.978  1.00  0.00     0.074 A 
ATOM     16  C   UNL A   1      38.942  29.126  29.003  1.00  0.00     0.049 A 
ATOM     17  N   UNL A   1      39.360  30.248  31.764  1.00  0.00    -0.248 NA
ATOM     18  C   UNL A   1      37.344  31.401  31.554  1.00  0.00     0.031 C 
ATOM     19  C   UNL A   1      38.784  28.557  27.661  1.00  0.00     0.029 A 
ATOM     20  N   UNL A   1      40.114  28.578  29.457  1.00  0.00    -0.354 N 
ATOM     21  C   UNL A   1      39.142  30.995  32.918  1.00  0.00     0.074 A 
ATOM     22  C   UNL A   1      37.909  31.726  32.708  1.00  0.00     0.031 C 
ATOM     23  C   UNL A   1      39.780  27.690  27.430  1.00  0.00     0.029 A 
ATOM     24  C   UNL A   1      40.693  27.706  28.565  1.00  0.00     0.049 A 
ATOM     25  H   UNL A   1      40.503  28.789  30.336  1.00  0.00     0.167 HD
ATOM     26  C   UNL A   1      39.897  31.059  34.045  1.00  0.00     0.034 A 
ATOM     27  C   UNL A   1      41.842  27.007  28.639  1.00  0.00     0.034 A 
ATOM     28  C   UNL A   1      41.125  30.318  34.233  1.00  0.00     0.049 A 
ATOM     29  C   UNL A   1      42.687  27.139  29.877  1.00  0.00     0.074 A 
ATOM     30  C   UNL A   1      41.947  30.279  35.346  1.00  0.00     0.029 A 
ATOM     31  N   UNL A   1      41.717  29.495  33.280  1.00  0.00    -0.354 N 
ATOM     32  N   UNL A   1      42.455  27.836  30.965  1.00  0.00    -0.248 NA
ATOM     33  C   UNL A   1      43.947  26.388  29.895  1.00  0.00     0.031 C 
ATOM     34  C   UNL A   1      43.072  29.504  35.039  1.00  0.00     0.029 A 
ATOM     35  C   UNL A   1      42.911  28.980  33.767  1.00  0.00     0.049 A 
ATOM     36  H   UNL A   1      41.343  29.305  32.389  1.00  0.00     0.167 HD
ATOM     37  C   UNL A   1      43.531  27.582  31.811  1.00  0.00     0.074 A 
ATOM     38  C   UNL A   1      44.397  26.654  31.111  1.00  0.00     0.031 C 
ATOM     39  C   UNL A   1      43.779  28.070  33.054  1.00  0.00     0.034 A 
BRANCH  26  40
ATOM     40  C   UNL A   1      39.445  32.003  35.137  1.00  0.00     0.023 A 
ATOM     41  C   UNL A   1      38.827  31.543  36.314  1.00  0.00     0.031 A 
ATOM     42  C   UNL A   1      39.611  33.393  34.988  1.00  0.00     0.131 A 
ATOM     43  C   UNL A   1      38.328  32.463  37.251  1.00  0.00     0.055 A 
ATOM     44  C   UNL A   1      39.191  34.298  35.966  1.00  0.00     0.041 A 
ATOM     45  F   UNL A   1      40.175  33.898  33.880  1.00  0.00    -0.206 F 
ATOM     46  C   UNL A   1      38.529  33.836  37.098  1.00  0.00     0.022 A 
BRANCH  43  47
ATOM     47  S   UNL A   1      37.270  31.846  38.591  1.00  0.00     0.124 S 
ATOM     48  O   UNL A   1      37.029  30.468  38.168  1.00  0.00    -0.237 OA
ATOM     49  O   UNL A   1      38.118  32.015  39.765  1.00  0.00    -0.237 OA
ATOM     50  O   UNL A   1      36.100  32.719  38.533  1.00  0.00    -0.744 OA
ENDBRANCH  43  47
ENDBRANCH  26  40
BRANCH  27  51
ATOM     51  C   UNL A   1      42.273  26.146  27.503  1.00  0.00     0.023 A 
ATOM     52  C   UNL A   1      41.884  24.799  27.430  1.00  0.00     0.031 A 
ATOM     53  C   UNL A   1      43.104  26.648  26.485  1.00  0.00     0.131 A 
ATOM     54  C   UNL A   1      42.363  23.990  26.389  1.00  0.00     0.055 A 
ATOM     55  C   UNL A   1      43.527  25.856  25.418  1.00  0.00     0.041 A 
ATOM     56  F   UNL A   1      43.503  27.930  26.505  1.00  0.00    -0.206 F 
ATOM     57  C   UNL A   1      43.167  24.513  25.373  1.00  0.00     0.022 A 
BRANCH  54  58
ATOM     58  S   UNL A   1      41.990  22.216  26.428  1.00  0.00     0.124 S 
ATOM     59  O   UNL A   1      42.667  21.744  25.226  1.00  0.00    -0.237 OA
ATOM     60  O   UNL A   1      42.580  21.811  27.700  1.00  0.00    -0.237 OA
ATOM     61  O   UNL A   1      40.530  22.175  26.380  1.00  0.00    -0.744 OA
ENDBRANCH  54  58
ENDBRANCH  27  51
BRANCH  39  62
ATOM     62  C   UNL A   1      45.021  27.562  33.748  1.00  0.00     0.023 A 
ATOM     63  C   UNL A   1      45.004  26.402  34.543  1.00  0.00     0.031 A 
ATOM     64  C   UNL A   1      46.229  28.274  33.644  1.00  0.00     0.131 A 
ATOM     65  C   UNL A   1      46.153  26.028  35.259  1.00  0.00     0.055 A 
ATOM     66  C   UNL A   1      47.387  27.857  34.302  1.00  0.00     0.041 A 
ATOM     67  F   UNL A   1      46.303  29.392  32.905  1.00  0.00    -0.206 F 
ATOM     68  C   UNL A   1      47.348  26.737  35.129  1.00  0.00     0.022 A 
BRANCH  65  69
ATOM     69  S   UNL A   1      46.029  24.671  36.456  1.00  0.00     0.124 S 
ATOM     70  O   UNL A   1      46.778  25.198  37.591  1.00  0.00    -0.237 OA
ATOM     71  O   UNL A   1      44.586  24.551  36.644  1.00  0.00    -0.237 OA
ATOM     72  O   UNL A   1      46.658  23.546  35.765  1.00  0.00    -0.744 OA
ENDBRANCH  65  69
ENDBRANCH  39  62
ENDBRANCH  13  14
ENDBRANCH   6   8
ENDBRANCH   3   4
ENDBRANCH   2   3
ENDBRANCH   1   2
BRANCH   1  73
ATOM     73  C   UNL A   1      30.982  26.953  23.140  1.00  0.00     0.116 C 
BRANCH  73  74
ATOM     74  N   UNL A   1      31.701  26.803  21.884  1.00  0.00    -0.352 N 
ATOM     75  C   UNL A   1      32.740  25.956  21.577  1.00  0.00     0.254 C 
ATOM     76  H   UNL A   1      31.402  27.389  21.152  1.00  0.00     0.163 HD
ATOM     77  O   UNL A   1      33.261  25.966  20.468  1.00  0.00    -0.269 OA
BRANCH  75  78
ATOM     78  C   UNL A   1      33.213  25.011  22.595  1.00  0.00     0.078 A 
ATOM     79  C   UNL A   1      32.850  23.661  22.526  1.00  0.00     0.019 A 
ATOM     80  C   UNL A   1      33.996  25.469  23.644  1.00  0.00     0.173 A 
ATOM     81  C   UNL A   1      33.191  22.793  23.568  1.00  0.00     0.030 A 
ATOM     82  C   UNL A   1      34.340  24.592  24.666  1.00  0.00     0.182 A 
ATOM     83  F   UNL A   1      34.378  26.752  23.720  1.00  0.00    -0.203 F 
ATOM     84  C   UNL A   1      33.911  23.249  24.678  1.00  0.00     0.073 A 
ATOM     85  F   UNL A   1      35.067  25.046  25.701  1.00  0.00    -0.201 F 
BRANCH  84  86
ATOM     86  N   UNL A   1      34.207  22.464  25.778  1.00  0.00    -0.383 N 
ATOM     87  H   UNL A   1      35.160  22.287  25.951  1.00  0.00     0.160 HD
BRANCH  86  88
ATOM     88  C   UNL A   1      33.259  21.874  26.703  1.00  0.00     0.115 C 
BRANCH  88  89
ATOM     89  C   UNL A   1      32.260  22.923  27.184  1.00  0.00     0.049 C 
BRANCH  89  90
ATOM     90  C   UNL A   1      30.862  22.735  26.606  1.00  0.00     0.158 C 
BRANCH  90  91
ATOM     91  O   UNL A   1      29.871  22.886  27.615  1.00  0.00    -0.396 OA
ATOM     92  H   UNL A   1      29.075  23.283  27.229  1.00  0.00     0.210 HD
ENDBRANCH  90  91
ENDBRANCH  89  90
ENDBRANCH  88  89
ENDBRANCH  86  88
ENDBRANCH  84  86
ENDBRANCH  75  78
ENDBRANCH  73  74
ENDBRANCH   1  73
TORSDOF 19
ENDMDL
MODEL 3
REMARK VINA RESULT:     -11.0      2.042      2.655
REMARK SMILES O=C(NCCCCNC(=O)c1ccc(NCCCO)c(F)c1F)c1ccc(-c2c3nc(c(-c4cc(S(=O)(=O)[O-])ccc4F)c4ccc([nH]4)c(-c4cc(S(=O)(=O)[O-])ccc4F)c4nc(c(-c5cc(S(=O)(=O)[O-])ccc5F)c5ccc2[nH]5)C=C4)C=C3)cc1
REMARK SMILES IDX 6 1 5 2 4 3 3 4 1 5 2 6 24 8 25 9 86 10 26 11 85 12 27 13
REMARK SMILES IDX 28 14 29 15 79 16 30 17 84 18 78 19 80 20 31 21 83 22 77 23
REMARK SMILES IDX 76 24 32 26 64 27 44 28 63 29 45 30 48 31 62 32 81 33 46 34
REMARK SMILES IDX 47 35 61 37 82 38 49 39 33 40 34 41 42 42 35 43 41 44 43 45
REMARK SMILES IDX 40 46 36 47 37 48 38 49 39 50 65 51 66 52 74 53 67 54 73 55
REMARK SMILES IDX 75 56 72 57 68 58 69 59 70 60 71 61 50 62 51 63 59 64 52 65
REMARK SMILES IDX 58 66 60 67 57 68 53 69 54 70 55 71 56 72 7 73 8 74 9 75
REMARK SMILES IDX 10 77 11 78 12 79 22 80 13 81 20 82 23 83 14 84 21 85 15 86
REMARK SMILES IDX 16 88 17 89 18 90 19 91
REMARK H PARENT 3 7 80 25 48 36 8 76 15 87 19 92
REMARK Flexibility Score: inf
ROOT
ATOM      1  C   UNL A   1      31.819  28.027  26.249  1.00  0.00     0.023 C 
ENDROOT
BRANCH   1   2
ATOM      2  C   UNL A   1      33.260  27.913  26.737  1.00  0.00     0.023 C 
BRANCH   2   3
ATOM      3  C   UNL A   1      34.200  29.008  26.252  1.00  0.00     0.116 C 
BRANCH   3   4
ATOM      4  N   UNL A   1      33.794  30.344  26.668  1.00  0.00    -0.352 N 
ATOM      5  O   UNL A   1      33.812  32.225  27.918  1.00  0.00    -0.269 OA
ATOM      6  C   UNL A   1      34.362  31.170  27.613  1.00  0.00     0.251 C 
ATOM      7  H   UNL A   1      33.003  30.709  26.210  1.00  0.00     0.163 HD
BRANCH   6   8
ATOM      8  C   UNL A   1      35.619  30.763  28.278  1.00  0.00     0.039 A 
ATOM      9  C   UNL A   1      36.827  31.371  27.931  1.00  0.00     0.014 A 
ATOM     10  C   UNL A   1      35.598  29.736  29.226  1.00  0.00     0.014 A 
ATOM     11  C   UNL A   1      38.023  30.826  28.381  1.00  0.00     0.010 A 
ATOM     12  C   UNL A   1      36.801  29.265  29.764  1.00  0.00     0.010 A 
ATOM     13  C   UNL A   1      38.028  29.776  29.312  1.00  0.00    -0.014 A 
BRANCH  13  14
ATOM     14  C   UNL A   1      39.331  29.268  29.819  1.00  0.00     0.031 A 
ATOM     15  C   UNL A   1      39.968  29.840  31.059  1.00  0.00     0.074 A 
ATOM     16  C   UNL A   1      39.918  28.241  29.172  1.00  0.00     0.049 A 
ATOM     17  N   UNL A   1      41.080  29.485  31.653  1.00  0.00    -0.248 NA
ATOM     18  C   UNL A   1      39.274  30.960  31.709  1.00  0.00     0.031 C 
ATOM     19  C   UNL A   1      39.392  27.605  27.960  1.00  0.00     0.029 A 
ATOM     20  N   UNL A   1      41.056  27.530  29.449  1.00  0.00    -0.354 N 
ATOM     21  C   UNL A   1      41.232  30.349  32.734  1.00  0.00     0.074 A 
ATOM     22  C   UNL A   1      40.114  31.269  32.687  1.00  0.00     0.031 C 
ATOM     23  C   UNL A   1      40.166  26.559  27.641  1.00  0.00     0.029 A 
ATOM     24  C   UNL A   1      41.289  26.501  28.568  1.00  0.00     0.049 A 
ATOM     25  H   UNL A   1      41.651  27.738  30.206  1.00  0.00     0.167 HD
ATOM     26  C   UNL A   1      42.208  30.366  33.678  1.00  0.00     0.034 A 
ATOM     27  C   UNL A   1      42.303  25.617  28.496  1.00  0.00     0.034 A 
ATOM     28  C   UNL A   1      43.315  29.435  33.707  1.00  0.00     0.049 A 
ATOM     29  C   UNL A   1      43.399  25.694  29.523  1.00  0.00     0.074 A 
ATOM     30  C   UNL A   1      44.336  29.339  34.637  1.00  0.00     0.029 A 
ATOM     31  N   UNL A   1      43.554  28.447  32.758  1.00  0.00    -0.354 N 
ATOM     32  N   UNL A   1      43.516  26.504  30.549  1.00  0.00    -0.248 NA
ATOM     33  C   UNL A   1      44.500  24.733  29.381  1.00  0.00     0.031 C 
ATOM     34  C   UNL A   1      45.234  28.353  34.207  1.00  0.00     0.029 A 
ATOM     35  C   UNL A   1      44.727  27.767  33.059  1.00  0.00     0.049 A 
ATOM     36  H   UNL A   1      42.976  28.257  31.985  1.00  0.00     0.167 HD
ATOM     37  C   UNL A   1      44.692  26.131  31.192  1.00  0.00     0.074 A 
ATOM     38  C   UNL A   1      45.232  25.011  30.448  1.00  0.00     0.031 C 
ATOM     39  C   UNL A   1      45.270  26.663  32.300  1.00  0.00     0.034 A 
BRANCH  26  40
ATOM     40  C   UNL A   1      42.151  31.459  34.723  1.00  0.00     0.023 A 
ATOM     41  C   UNL A   1      41.180  31.472  35.740  1.00  0.00     0.031 A 
ATOM     42  C   UNL A   1      43.071  32.524  34.687  1.00  0.00     0.131 A 
ATOM     43  C   UNL A   1      41.100  32.561  36.622  1.00  0.00     0.055 A 
ATOM     44  C   UNL A   1      43.041  33.560  35.622  1.00  0.00     0.041 A 
ATOM     45  F   UNL A   1      44.011  32.582  33.730  1.00  0.00    -0.206 F 
ATOM     46  C   UNL A   1      42.041  33.593  36.587  1.00  0.00     0.022 A 
BRANCH  43  47
ATOM     47  S   UNL A   1      39.654  32.691  37.711  1.00  0.00     0.124 S 
ATOM     48  O   UNL A   1      40.268  32.590  39.033  1.00  0.00    -0.237 OA
ATOM     49  O   UNL A   1      39.109  33.996  37.357  1.00  0.00    -0.237 OA
ATOM     50  O   UNL A   1      38.833  31.545  37.327  1.00  0.00    -0.744 OA
ENDBRANCH  43  47
ENDBRANCH  26  40
BRANCH  27  51
ATOM     51  C   UNL A   1      42.342  24.605  27.403  1.00  0.00     0.023 A 
ATOM     52  C   UNL A   1      41.578  23.430  27.480  1.00  0.00     0.031 A 
ATOM     53  C   UNL A   1      43.166  24.784  26.277  1.00  0.00     0.131 A 
ATOM     54  C   UNL A   1      41.689  22.459  26.473  1.00  0.00     0.055 A 
ATOM     55  C   UNL A   1      43.225  23.844  25.248  1.00  0.00     0.041 A 
ATOM     56  F   UNL A   1      43.915  25.892  26.153  1.00  0.00    -0.206 F 
ATOM     57  C   UNL A   1      42.494  22.666  25.349  1.00  0.00     0.022 A 
BRANCH  54  58
ATOM     58  S   UNL A   1      40.830  20.878  26.696  1.00  0.00     0.124 S 
ATOM     59  O   UNL A   1      40.820  20.749  28.148  1.00  0.00    -0.237 OA
ATOM     60  O   UNL A   1      39.541  21.142  26.064  1.00  0.00    -0.237 OA
ATOM     61  O   UNL A   1      41.684  19.926  25.990  1.00  0.00    -0.744 OA
ENDBRANCH  54  58
ENDBRANCH  27  51
BRANCH  39  62
ATOM     62  C   UNL A   1      46.534  25.999  32.793  1.00  0.00     0.023 A 
ATOM     63  C   UNL A   1      46.502  24.924  33.700  1.00  0.00     0.031 A 
ATOM     64  C   UNL A   1      47.790  26.476  32.379  1.00  0.00     0.131 A 
ATOM     65  C   UNL A   1      47.701  24.410  34.217  1.00  0.00     0.055 A 
ATOM     66  C   UNL A   1      48.980  25.913  32.843  1.00  0.00     0.041 A 
ATOM     67  F   UNL A   1      47.883  27.504  31.520  1.00  0.00    -0.206 F 
ATOM     68  C   UNL A   1      48.939  24.884  33.780  1.00  0.00     0.022 A 
BRANCH  65  69
ATOM     69  S   UNL A   1      47.618  23.191  35.558  1.00  0.00     0.124 S 
ATOM     70  O   UNL A   1      46.521  22.335  35.122  1.00  0.00    -0.237 OA
ATOM     71  O   UNL A   1      48.949  22.593  35.520  1.00  0.00    -0.237 OA
ATOM     72  O   UNL A   1      47.338  24.003  36.742  1.00  0.00    -0.744 OA
ENDBRANCH  65  69
ENDBRANCH  39  62
ENDBRANCH  13  14
ENDBRANCH   6   8
ENDBRANCH   3   4
ENDBRANCH   2   3
ENDBRANCH   1   2
BRANCH   1  73
ATOM     73  C   UNL A   1      31.024  26.725  26.255  1.00  0.00     0.116 C 
BRANCH  73  74
ATOM     74  N   UNL A   1      31.396  25.820  25.178  1.00  0.00    -0.352 N 
ATOM     75  C   UNL A   1      31.067  25.880  23.845  1.00  0.00     0.254 C 
ATOM     76  H   UNL A   1      31.961  25.058  25.442  1.00  0.00     0.163 HD
ATOM     77  O   UNL A   1      31.442  25.018  23.059  1.00  0.00    -0.269 OA
BRANCH  75  78
ATOM     78  C   UNL A   1      30.271  27.013  23.358  1.00  0.00     0.078 A 
ATOM     79  C   UNL A   1      30.890  28.070  22.682  1.00  0.00     0.019 A 
ATOM     80  C   UNL A   1      28.906  27.045  23.601  1.00  0.00     0.173 A 
ATOM     81  C   UNL A   1      30.151  29.207  22.339  1.00  0.00     0.030 A 
ATOM     82  C   UNL A   1      28.181  28.175  23.242  1.00  0.00     0.182 A 
ATOM     83  F   UNL A   1      28.285  26.034  24.224  1.00  0.00    -0.203 F 
ATOM     84  C   UNL A   1      28.790  29.299  22.645  1.00  0.00     0.073 A 
ATOM     85  F   UNL A   1      26.865  28.221  23.511  1.00  0.00    -0.201 F 
BRANCH  84  86
ATOM     86  N   UNL A   1      28.023  30.426  22.409  1.00  0.00    -0.383 N 
ATOM     87  H   UNL A   1      27.506  30.776  23.170  1.00  0.00     0.160 HD
BRANCH  86  88
ATOM     88  C   UNL A   1      27.900  31.145  21.155  1.00  0.00     0.115 C 
BRANCH  88  89
ATOM     89  C   UNL A   1      28.198  32.627  21.360  1.00  0.00     0.049 C 
BRANCH  89  90
ATOM     90  C   UNL A   1      28.802  32.939  22.724  1.00  0.00     0.158 C 
BRANCH  90  91
ATOM     91  O   UNL A   1      28.510  34.275  23.116  1.00  0.00    -0.396 OA
ATOM     92  H   UNL A   1      28.880  34.441  23.997  1.00  0.00     0.210 HD
ENDBRANCH  90  91
ENDBRANCH  89  90
ENDBRANCH  88  89
ENDBRANCH  86  88
ENDBRANCH  84  86
ENDBRANCH  75  78
ENDBRANCH  73  74
ENDBRANCH   1  73
TORSDOF 19
ENDMDL
