MODEL 1
REMARK VINA RESULT:     -12.5      0.000      0.000
REMARK SMILES Cc1n[nH]c(C(=O)Nc2cc(C(=O)NCCCCNC(=O)c3ccc(-c4c5nc(c(-c6cc(S(=O)(=O)[O-])ccc6F)c6ccc([nH]6)c(-c6cc(S(=O)(=O)[O-])ccc6F)c6nc(c(-c7cc(S(=O)(=O)[O-])ccc7F)c7ccc4[nH]7)C=C6)C=C5)cc3)[nH]n2)n1
REMARK SMILES IDX 17 1 16 2 15 3 14 4 12 5 13 6 11 8 9 9 10 10 86 11 85 12
REMARK SMILES IDX 8 14 6 15 7 16 5 18 1 19 2 20 3 21 87 22 4 23 18 25 19 26
REMARK SMILES IDX 20 27 21 29 22 30 23 31 84 32 24 33 83 34 25 35 26 36 27 37
REMARK SMILES IDX 77 38 28 39 82 40 76 41 78 42 29 43 81 44 75 45 74 46 30 48
REMARK SMILES IDX 62 49 42 50 61 51 43 52 46 53 60 54 79 55 44 56 45 57 59 59
REMARK SMILES IDX 80 60 47 61 31 62 32 63 40 64 33 65 39 66 41 67 38 68 34 69
REMARK SMILES IDX 35 70 36 71 37 72 63 73 64 74 72 75 65 76 71 77 73 78 70 79
REMARK SMILES IDX 66 80 67 81 68 82 69 83 48 84 49 85 57 86 50 87 56 88 58 89
REMARK SMILES IDX 55 90 51 91 52 92 53 93 54 94
REMARK H PARENT 14 7 85 13 8 17 4 24 19 28 78 47 46 58
REMARK Flexibility Score: inf
ROOT
ATOM      1  C   UNL A   1      36.066  31.026  31.898  1.00  0.00     0.023 C 
ENDROOT
BRANCH   1   2
ATOM      2  C   UNL A   1      37.439  31.113  32.581  1.00  0.00     0.023 C 
BRANCH   2   3
ATOM      3  C   UNL A   1      37.388  31.489  34.064  1.00  0.00     0.116 C 
BRANCH   3   4
ATOM      4  N   UNL A   1      38.156  32.692  34.342  1.00  0.00    -0.351 N 
ATOM      5  C   UNL A   1      37.863  34.024  34.189  1.00  0.00     0.269 C 
ATOM      6  O   UNL A   1      38.692  34.839  34.569  1.00  0.00    -0.268 OA
ATOM      7  H   UNL A   1      39.052  32.517  34.708  1.00  0.00     0.163 HD
BRANCH   5   8
ATOM      8  C   UNL A   1      36.593  34.451  33.661  1.00  0.00     0.125 A 
ATOM      9  C   UNL A   1      34.559  35.228  33.253  1.00  0.00     0.155 A 
ATOM     10  C   UNL A   1      35.276  34.300  34.034  1.00  0.00     0.082 A 
ATOM     11  N   UNL A   1      35.296  35.686  32.246  1.00  0.00    -0.157 NA
ATOM     12  N   UNL A   1      36.530  35.217  32.520  1.00  0.00    -0.271 N 
ATOM     13  H   UNL A   1      37.314  35.405  31.955  1.00  0.00     0.190 HD
BRANCH   9  14
ATOM     14  N   UNL A   1      33.296  35.698  33.480  1.00  0.00    -0.302 N 
ATOM     15  C   UNL A   1      32.529  36.463  32.618  1.00  0.00     0.294 C 
ATOM     16  O   UNL A   1      31.619  37.130  33.115  1.00  0.00    -0.265 OA
ATOM     17  H   UNL A   1      32.888  35.468  34.347  1.00  0.00     0.172 HD
BRANCH  15  18
ATOM     18  C   UNL A   1      32.737  36.337  31.176  1.00  0.00     0.214 A 
ATOM     19  C   UNL A   1      33.195  34.585  28.118  1.00  0.00     0.092 C 
ATOM     20  C   UNL A   1      33.027  35.562  29.216  1.00  0.00     0.148 A 
ATOM     21  N   UNL A   1      33.364  36.847  29.078  1.00  0.00    -0.159 NA
ATOM     22  N   UNL A   1      32.592  35.223  30.475  1.00  0.00    -0.207 NA
ATOM     23  N   UNL A   1      33.259  37.286  30.337  1.00  0.00    -0.255 N 
ATOM     24  H   UNL A   1      33.526  38.187  30.627  1.00  0.00     0.192 HD
ENDBRANCH  15  18
ENDBRANCH   9  14
ENDBRANCH   5   8
ENDBRANCH   3   4
ENDBRANCH   2   3
ENDBRANCH   1   2
BRANCH   1  25
ATOM     25  C   UNL A   1      35.669  32.260  31.088  1.00  0.00     0.116 C 
BRANCH  25  26
ATOM     26  N   UNL A   1      34.977  31.926  29.845  1.00  0.00    -0.352 N 
ATOM     27  C   UNL A   1      35.526  31.480  28.657  1.00  0.00     0.251 C 
ATOM     28  H   UNL A   1      33.999  32.032  29.854  1.00  0.00     0.163 HD
ATOM     29  O   UNL A   1      34.935  31.660  27.598  1.00  0.00    -0.269 OA
BRANCH  27  30
ATOM     30  C   UNL A   1      36.827  30.784  28.686  1.00  0.00     0.039 A 
ATOM     31  C   UNL A   1      38.010  31.463  28.987  1.00  0.00     0.014 A 
ATOM     32  C   UNL A   1      36.841  29.416  28.422  1.00  0.00     0.014 A 
ATOM     33  C   UNL A   1      39.192  30.733  29.119  1.00  0.00     0.010 A 
ATOM     34  C   UNL A   1      37.978  28.681  28.667  1.00  0.00     0.010 A 
ATOM     35  C   UNL A   1      39.166  29.334  28.984  1.00  0.00    -0.014 A 
BRANCH  35  36
ATOM     36  C   UNL A   1      40.336  28.526  29.329  1.00  0.00     0.031 A 
ATOM     37  C   UNL A   1      40.611  28.434  30.789  1.00  0.00     0.074 A 
ATOM     38  C   UNL A   1      40.978  27.719  28.455  1.00  0.00     0.049 A 
ATOM     39  N   UNL A   1      41.588  28.966  31.444  1.00  0.00    -0.248 NA
ATOM     40  C   UNL A   1      39.594  27.814  31.654  1.00  0.00     0.031 C 
ATOM     41  C   UNL A   1      40.630  27.447  27.058  1.00  0.00     0.029 A 
ATOM     42  N   UNL A   1      42.021  26.868  28.672  1.00  0.00    -0.354 N 
ATOM     43  C   UNL A   1      41.454  28.531  32.760  1.00  0.00     0.074 A 
ATOM     44  C   UNL A   1      40.109  28.035  32.866  1.00  0.00     0.031 C 
ATOM     45  C   UNL A   1      41.282  26.341  26.635  1.00  0.00     0.029 A 
ATOM     46  C   UNL A   1      42.213  25.919  27.668  1.00  0.00     0.049 A 
ATOM     47  H   UNL A   1      42.591  26.919  29.472  1.00  0.00     0.167 HD
ATOM     48  C   UNL A   1      42.544  28.387  33.568  1.00  0.00     0.034 A 
ATOM     49  C   UNL A   1      43.051  24.846  27.693  1.00  0.00     0.034 A 
ATOM     50  C   UNL A   1      43.701  29.033  32.981  1.00  0.00     0.049 A 
ATOM     51  C   UNL A   1      44.087  25.136  28.715  1.00  0.00     0.074 A 
ATOM     52  C   UNL A   1      43.982  30.318  32.552  1.00  0.00     0.029 A 
ATOM     53  N   UNL A   1      44.657  28.234  32.388  1.00  0.00    -0.354 N 
ATOM     54  N   UNL A   1      44.965  26.092  28.593  1.00  0.00    -0.248 NA
ATOM     55  C   UNL A   1      43.843  24.693  30.080  1.00  0.00     0.031 C 
ATOM     56  C   UNL A   1      44.724  30.145  31.346  1.00  0.00     0.029 A 
ATOM     57  C   UNL A   1      44.946  28.779  31.162  1.00  0.00     0.049 A 
ATOM     58  H   UNL A   1      45.058  27.422  32.774  1.00  0.00     0.167 HD
ATOM     59  C   UNL A   1      45.036  26.673  29.848  1.00  0.00     0.074 A 
ATOM     60  C   UNL A   1      44.407  25.705  30.747  1.00  0.00     0.031 C 
ATOM     61  C   UNL A   1      45.329  28.000  29.999  1.00  0.00     0.034 A 
BRANCH  48  62
ATOM     62  C   UNL A   1      42.695  27.363  34.679  1.00  0.00     0.023 A 
ATOM     63  C   UNL A   1      43.484  26.230  34.392  1.00  0.00     0.031 A 
ATOM     64  C   UNL A   1      41.911  27.273  35.850  1.00  0.00     0.131 A 
ATOM     65  C   UNL A   1      43.366  25.050  35.145  1.00  0.00     0.055 A 
ATOM     66  C   UNL A   1      41.853  26.120  36.640  1.00  0.00     0.041 A 
ATOM     67  F   UNL A   1      41.093  28.249  36.256  1.00  0.00    -0.206 F 
ATOM     68  C   UNL A   1      42.550  24.984  36.268  1.00  0.00     0.022 A 
BRANCH  65  69
ATOM     69  S   UNL A   1      44.145  23.548  34.502  1.00  0.00     0.124 S 
ATOM     70  O   UNL A   1      44.504  22.860  35.738  1.00  0.00    -0.237 OA
ATOM     71  O   UNL A   1      43.061  22.957  33.725  1.00  0.00    -0.237 OA
ATOM     72  O   UNL A   1      45.268  24.057  33.719  1.00  0.00    -0.744 OA
ENDBRANCH  65  69
ENDBRANCH  48  62
BRANCH  49  73
ATOM     73  C   UNL A   1      42.856  23.495  27.092  1.00  0.00     0.023 A 
ATOM     74  C   UNL A   1      43.806  22.900  26.232  1.00  0.00     0.031 A 
ATOM     75  C   UNL A   1      41.831  22.653  27.575  1.00  0.00     0.131 A 
ATOM     76  C   UNL A   1      43.714  21.524  25.904  1.00  0.00     0.055 A 
ATOM     77  C   UNL A   1      41.741  21.298  27.247  1.00  0.00     0.041 A 
ATOM     78  F   UNL A   1      40.927  23.096  28.464  1.00  0.00    -0.206 F 
ATOM     79  C   UNL A   1      42.692  20.724  26.419  1.00  0.00     0.022 A 
BRANCH  76  80
ATOM     80  S   UNL A   1      44.997  20.717  24.888  1.00  0.00     0.124 S 
ATOM     81  O   UNL A   1      44.825  19.311  25.234  1.00  0.00    -0.237 OA
ATOM     82  O   UNL A   1      44.620  21.105  23.534  1.00  0.00    -0.237 OA
ATOM     83  O   UNL A   1      46.241  21.320  25.370  1.00  0.00    -0.744 OA
ENDBRANCH  76  80
ENDBRANCH  49  73
BRANCH  61  84
ATOM     84  C   UNL A   1      45.903  28.759  28.817  1.00  0.00     0.023 A 
ATOM     85  C   UNL A   1      47.268  28.788  28.447  1.00  0.00     0.031 A 
ATOM     86  C   UNL A   1      44.988  29.409  27.969  1.00  0.00     0.131 A 
ATOM     87  C   UNL A   1      47.668  29.465  27.276  1.00  0.00     0.055 A 
ATOM     88  C   UNL A   1      45.384  30.055  26.799  1.00  0.00     0.041 A 
ATOM     89  F   UNL A   1      43.674  29.402  28.249  1.00  0.00    -0.206 F 
ATOM     90  C   UNL A   1      46.728  30.094  26.453  1.00  0.00     0.022 A 
BRANCH  87  91
ATOM     91  S   UNL A   1      49.428  29.580  26.817  1.00  0.00     0.124 S 
ATOM     92  O   UNL A   1      49.600  30.981  26.450  1.00  0.00    -0.237 OA
ATOM     93  O   UNL A   1      50.100  29.153  28.041  1.00  0.00    -0.237 OA
ATOM     94  O   UNL A   1      49.546  28.639  25.700  1.00  0.00    -0.744 OA
ENDBRANCH  87  91
ENDBRANCH  61  84
ENDBRANCH  35  36
ENDBRANCH  27  30
ENDBRANCH  25  26
ENDBRANCH   1  25
TORSDOF 16
ENDMDL
MODEL 2
REMARK VINA RESULT:     -12.3      2.958      7.628
REMARK SMILES Cc1n[nH]c(C(=O)Nc2cc(C(=O)NCCCCNC(=O)c3ccc(-c4c5nc(c(-c6cc(S(=O)(=O)[O-])ccc6F)c6ccc([nH]6)c(-c6cc(S(=O)(=O)[O-])ccc6F)c6nc(c(-c7cc(S(=O)(=O)[O-])ccc7F)c7ccc4[nH]7)C=C6)C=C5)cc3)[nH]n2)n1
REMARK SMILES IDX 17 1 16 2 15 3 14 4 12 5 13 6 11 8 9 9 10 10 86 11 85 12
REMARK SMILES IDX 8 14 6 15 7 16 5 18 1 19 2 20 3 21 87 22 4 23 18 25 19 26
REMARK SMILES IDX 20 27 21 29 22 30 23 31 84 32 24 33 83 34 25 35 26 36 27 37
REMARK SMILES IDX 77 38 28 39 82 40 76 41 78 42 29 43 81 44 75 45 74 46 30 48
REMARK SMILES IDX 62 49 42 50 61 51 43 52 46 53 60 54 79 55 44 56 45 57 59 59
REMARK SMILES IDX 80 60 47 61 31 62 32 63 40 64 33 65 39 66 41 67 38 68 34 69
REMARK SMILES IDX 35 70 36 71 37 72 63 73 64 74 72 75 65 76 71 77 73 78 70 79
REMARK SMILES IDX 66 80 67 81 68 82 69 83 48 84 49 85 57 86 50 87 56 88 58 89
REMARK SMILES IDX 55 90 51 91 52 92 53 93 54 94
REMARK H PARENT 14 7 85 13 8 17 4 24 19 28 78 47 46 58
REMARK Flexibility Score: inf
ROOT
ATOM      1  C   UNL A   1      37.492  32.248  30.942  1.00  0.00     0.023 C 
ENDROOT
BRANCH   1   2
ATOM      2  C   UNL A   1      37.985  32.558  29.520  1.00  0.00     0.023 C 
BRANCH   2   3
ATOM      3  C   UNL A   1      37.048  33.453  28.704  1.00  0.00     0.116 C 
BRANCH   3   4
ATOM      4  N   UNL A   1      35.868  32.734  28.257  1.00  0.00    -0.351 N 
ATOM      5  C   UNL A   1      34.550  33.105  28.154  1.00  0.00     0.269 C 
ATOM      6  O   UNL A   1      33.764  32.297  27.679  1.00  0.00    -0.268 OA
ATOM      7  H   UNL A   1      36.047  31.808  27.976  1.00  0.00     0.163 HD
BRANCH   5   8
ATOM      8  C   UNL A   1      34.117  34.426  28.529  1.00  0.00     0.125 A 
ATOM      9  C   UNL A   1      33.580  36.344  29.497  1.00  0.00     0.155 A 
ATOM     10  C   UNL A   1      33.349  34.955  29.542  1.00  0.00     0.082 A 
ATOM     11  N   UNL A   1      34.170  36.701  28.362  1.00  0.00    -0.157 NA
ATOM     12  N   UNL A   1      34.503  35.524  27.795  1.00  0.00    -0.271 N 
ATOM     13  H   UNL A   1      34.978  35.457  26.936  1.00  0.00     0.190 HD
BRANCH   9  14
ATOM     14  N   UNL A   1      33.323  37.256  30.482  1.00  0.00    -0.302 N 
ATOM     15  C   UNL A   1      33.217  37.003  31.839  1.00  0.00     0.294 C 
ATOM     16  O   UNL A   1      32.594  37.823  32.518  1.00  0.00    -0.265 OA
ATOM     17  H   UNL A   1      33.201  38.192  30.197  1.00  0.00     0.172 HD
BRANCH  15  18
ATOM     18  C   UNL A   1      33.953  35.878  32.414  1.00  0.00     0.214 A 
ATOM     19  C   UNL A   1      36.822  34.193  33.662  1.00  0.00     0.092 C 
ATOM     20  C   UNL A   1      35.486  34.633  33.207  1.00  0.00     0.148 A 
ATOM     21  N   UNL A   1      34.502  33.766  32.953  1.00  0.00    -0.159 NA
ATOM     22  N   UNL A   1      35.168  35.943  32.934  1.00  0.00    -0.207 NA
ATOM     23  N   UNL A   1      33.592  34.557  32.376  1.00  0.00    -0.255 N 
ATOM     24  H   UNL A   1      32.758  34.228  31.971  1.00  0.00     0.192 HD
ENDBRANCH  15  18
ENDBRANCH   9  14
ENDBRANCH   5   8
ENDBRANCH   3   4
ENDBRANCH   2   3
ENDBRANCH   1   2
BRANCH   1  25
ATOM     25  C   UNL A   1      37.282  30.765  31.243  1.00  0.00     0.116 C 
BRANCH  25  26
ATOM     26  N   UNL A   1      36.255  30.153  30.402  1.00  0.00    -0.352 N 
ATOM     27  C   UNL A   1      36.409  29.564  29.161  1.00  0.00     0.251 C 
ATOM     28  H   UNL A   1      35.340  30.162  30.765  1.00  0.00     0.163 HD
ATOM     29  O   UNL A   1      35.460  29.498  28.388  1.00  0.00    -0.269 OA
BRANCH  27  30
ATOM     30  C   UNL A   1      37.726  29.015  28.788  1.00  0.00     0.039 A 
ATOM     31  C   UNL A   1      38.410  29.467  27.656  1.00  0.00     0.014 A 
ATOM     32  C   UNL A   1      38.285  28.040  29.611  1.00  0.00     0.014 A 
ATOM     33  C   UNL A   1      39.703  29.001  27.418  1.00  0.00     0.010 A 
ATOM     34  C   UNL A   1      39.599  27.670  29.444  1.00  0.00     0.010 A 
ATOM     35  C   UNL A   1      40.306  28.120  28.333  1.00  0.00    -0.014 A 
BRANCH  35  36
ATOM     36  C   UNL A   1      41.727  27.788  28.227  1.00  0.00     0.031 A 
ATOM     37  C   UNL A   1      42.008  26.508  27.520  1.00  0.00     0.074 A 
ATOM     38  C   UNL A   1      42.726  28.655  28.505  1.00  0.00     0.049 A 
ATOM     39  N   UNL A   1      42.449  25.406  28.028  1.00  0.00    -0.248 NA
ATOM     40  C   UNL A   1      41.599  26.382  26.112  1.00  0.00     0.031 C 
ATOM     41  C   UNL A   1      42.614  30.062  28.899  1.00  0.00     0.029 A 
ATOM     42  N   UNL A   1      44.074  28.491  28.373  1.00  0.00    -0.354 N 
ATOM     43  C   UNL A   1      42.622  24.530  26.959  1.00  0.00     0.074 A 
ATOM     44  C   UNL A   1      41.872  25.098  25.871  1.00  0.00     0.031 C 
ATOM     45  C   UNL A   1      43.808  30.674  28.741  1.00  0.00     0.029 A 
ATOM     46  C   UNL A   1      44.807  29.678  28.392  1.00  0.00     0.049 A 
ATOM     47  H   UNL A   1      44.494  27.607  28.272  1.00  0.00     0.167 HD
ATOM     48  C   UNL A   1      43.570  23.550  26.997  1.00  0.00     0.034 A 
ATOM     49  C   UNL A   1      46.129  29.838  28.110  1.00  0.00     0.034 A 
ATOM     50  C   UNL A   1      44.075  23.384  28.346  1.00  0.00     0.049 A 
ATOM     51  C   UNL A   1      46.768  28.510  28.290  1.00  0.00     0.074 A 
ATOM     52  C   UNL A   1      43.498  23.102  29.571  1.00  0.00     0.029 A 
ATOM     53  N   UNL A   1      45.317  23.907  28.641  1.00  0.00    -0.354 N 
ATOM     54  N   UNL A   1      46.864  27.913  29.445  1.00  0.00    -0.248 NA
ATOM     55  C   UNL A   1      46.859  27.632  27.133  1.00  0.00     0.031 C 
ATOM     56  C   UNL A   1      44.180  23.944  30.498  1.00  0.00     0.029 A 
ATOM     57  C   UNL A   1      45.200  24.610  29.815  1.00  0.00     0.049 A 
ATOM     58  H   UNL A   1      46.137  23.797  28.108  1.00  0.00     0.167 HD
ATOM     59  C   UNL A   1      46.567  26.585  29.186  1.00  0.00     0.074 A 
ATOM     60  C   UNL A   1      46.678  26.452  27.733  1.00  0.00     0.031 C 
ATOM     61  C   UNL A   1      45.976  25.794  30.131  1.00  0.00     0.034 A 
BRANCH  48  62
ATOM     62  C   UNL A   1      44.329  23.004  25.801  1.00  0.00     0.023 A 
ATOM     63  C   UNL A   1      44.270  21.610  25.597  1.00  0.00     0.031 A 
ATOM     64  C   UNL A   1      45.311  23.685  25.048  1.00  0.00     0.131 A 
ATOM     65  C   UNL A   1      45.230  20.947  24.815  1.00  0.00     0.055 A 
ATOM     66  C   UNL A   1      46.219  23.027  24.211  1.00  0.00     0.041 A 
ATOM     67  F   UNL A   1      45.514  25.003  25.136  1.00  0.00    -0.206 F 
ATOM     68  C   UNL A   1      46.210  21.646  24.121  1.00  0.00     0.022 A 
BRANCH  65  69
ATOM     69  S   UNL A   1      45.289  19.139  24.890  1.00  0.00     0.124 S 
ATOM     70  O   UNL A   1      46.623  18.918  25.441  1.00  0.00    -0.237 OA
ATOM     71  O   UNL A   1      44.168  18.839  25.774  1.00  0.00    -0.237 OA
ATOM     72  O   UNL A   1      45.111  18.736  23.498  1.00  0.00    -0.744 OA
ENDBRANCH  65  69
ENDBRANCH  48  62
BRANCH  49  73
ATOM     73  C   UNL A   1      46.809  30.986  27.444  1.00  0.00     0.023 A 
ATOM     74  C   UNL A   1      46.097  32.046  26.839  1.00  0.00     0.031 A 
ATOM     75  C   UNL A   1      48.195  31.182  27.628  1.00  0.00     0.131 A 
ATOM     76  C   UNL A   1      46.768  33.236  26.462  1.00  0.00     0.055 A 
ATOM     77  C   UNL A   1      48.853  32.357  27.251  1.00  0.00     0.041 A 
ATOM     78  F   UNL A   1      48.949  30.275  28.268  1.00  0.00    -0.206 F 
ATOM     79  C   UNL A   1      48.138  33.395  26.678  1.00  0.00     0.022 A 
BRANCH  76  80
ATOM     80  S   UNL A   1      45.842  34.656  25.786  1.00  0.00     0.124 S 
ATOM     81  O   UNL A   1      46.841  35.717  25.813  1.00  0.00    -0.237 OA
ATOM     82  O   UNL A   1      45.439  34.175  24.470  1.00  0.00    -0.237 OA
ATOM     83  O   UNL A   1      44.740  34.826  26.735  1.00  0.00    -0.744 OA
ENDBRANCH  76  80
ENDBRANCH  49  73
BRANCH  61  84
ATOM     84  C   UNL A   1      45.950  26.273  31.571  1.00  0.00     0.023 A 
ATOM     85  C   UNL A   1      44.857  26.911  32.202  1.00  0.00     0.031 A 
ATOM     86  C   UNL A   1      47.071  25.972  32.366  1.00  0.00     0.131 A 
ATOM     87  C   UNL A   1      44.924  27.236  33.573  1.00  0.00     0.055 A 
ATOM     88  C   UNL A   1      47.124  26.272  33.726  1.00  0.00     0.041 A 
ATOM     89  F   UNL A   1      48.136  25.347  31.834  1.00  0.00    -0.206 F 
ATOM     90  C   UNL A   1      46.053  26.915  34.333  1.00  0.00     0.022 A 
BRANCH  87  91
ATOM     91  S   UNL A   1      43.560  28.124  34.392  1.00  0.00     0.124 S 
ATOM     92  O   UNL A   1      42.634  27.064  34.771  1.00  0.00    -0.237 OA
ATOM     93  O   UNL A   1      44.241  28.802  35.492  1.00  0.00    -0.237 OA
ATOM     94  O   UNL A   1      43.064  29.019  33.343  1.00  0.00    -0.744 OA
ENDBRANCH  87  91
ENDBRANCH  61  84
ENDBRANCH  35  36
ENDBRANCH  27  30
ENDBRANCH  25  26
ENDBRANCH   1  25
TORSDOF 16
ENDMDL
MODEL 3
REMARK VINA RESULT:     -12.3      1.900      2.252
REMARK SMILES Cc1n[nH]c(C(=O)Nc2cc(C(=O)NCCCCNC(=O)c3ccc(-c4c5nc(c(-c6cc(S(=O)(=O)[O-])ccc6F)c6ccc([nH]6)c(-c6cc(S(=O)(=O)[O-])ccc6F)c6nc(c(-c7cc(S(=O)(=O)[O-])ccc7F)c7ccc4[nH]7)C=C6)C=C5)cc3)[nH]n2)n1
REMARK SMILES IDX 17 1 16 2 15 3 14 4 12 5 13 6 11 8 9 9 10 10 86 11 85 12
REMARK SMILES IDX 8 14 6 15 7 16 5 18 1 19 2 20 3 21 87 22 4 23 18 25 19 26
REMARK SMILES IDX 20 27 21 29 22 30 23 31 84 32 24 33 83 34 25 35 26 36 27 37
REMARK SMILES IDX 77 38 28 39 82 40 76 41 78 42 29 43 81 44 75 45 74 46 30 48
REMARK SMILES IDX 62 49 42 50 61 51 43 52 46 53 60 54 79 55 44 56 45 57 59 59
REMARK SMILES IDX 80 60 47 61 31 62 32 63 40 64 33 65 39 66 41 67 38 68 34 69
REMARK SMILES IDX 35 70 36 71 37 72 63 73 64 74 72 75 65 76 71 77 73 78 70 79
REMARK SMILES IDX 66 80 67 81 68 82 69 83 48 84 49 85 57 86 50 87 56 88 58 89
REMARK SMILES IDX 55 90 51 91 52 92 53 93 54 94
REMARK H PARENT 14 7 85 13 8 17 4 24 19 28 78 47 46 58
REMARK Flexibility Score: inf
ROOT
ATOM      1  C   UNL A   1      36.010  31.107  31.817  1.00  0.00     0.023 C 
ENDROOT
BRANCH   1   2
ATOM      2  C   UNL A   1      37.414  31.383  32.379  1.00  0.00     0.023 C 
BRANCH   2   3
ATOM      3  C   UNL A   1      37.476  31.490  33.905  1.00  0.00     0.116 C 
BRANCH   3   4
ATOM      4  N   UNL A   1      38.162  32.697  34.334  1.00  0.00    -0.351 N 
ATOM      5  C   UNL A   1      37.803  34.022  34.290  1.00  0.00     0.269 C 
ATOM      6  O   UNL A   1      38.567  34.838  34.787  1.00  0.00    -0.268 OA
ATOM      7  H   UNL A   1      39.048  32.535  34.729  1.00  0.00     0.163 HD
BRANCH   5   8
ATOM      8  C   UNL A   1      36.538  34.433  33.737  1.00  0.00     0.125 A 
ATOM      9  C   UNL A   1      34.505  35.188  33.288  1.00  0.00     0.155 A 
ATOM     10  C   UNL A   1      35.217  34.275  34.091  1.00  0.00     0.082 A 
ATOM     11  N   UNL A   1      35.254  35.640  32.288  1.00  0.00    -0.157 NA
ATOM     12  N   UNL A   1      36.488  35.185  32.587  1.00  0.00    -0.271 N 
ATOM     13  H   UNL A   1      37.279  35.373  32.032  1.00  0.00     0.190 HD
BRANCH   9  14
ATOM     14  N   UNL A   1      33.235  35.650  33.490  1.00  0.00    -0.302 N 
ATOM     15  C   UNL A   1      32.483  36.416  32.616  1.00  0.00     0.294 C 
ATOM     16  O   UNL A   1      31.559  37.075  33.097  1.00  0.00    -0.265 OA
ATOM     17  H   UNL A   1      32.809  35.412  34.346  1.00  0.00     0.172 HD
BRANCH  15  18
ATOM     18  C   UNL A   1      32.724  36.301  31.179  1.00  0.00     0.214 A 
ATOM     19  C   UNL A   1      33.228  34.571  28.115  1.00  0.00     0.092 C 
ATOM     20  C   UNL A   1      33.049  35.540  29.218  1.00  0.00     0.148 A 
ATOM     21  N   UNL A   1      33.410  36.821  29.101  1.00  0.00    -0.159 NA
ATOM     22  N   UNL A   1      32.579  35.196  30.463  1.00  0.00    -0.207 NA
ATOM     23  N   UNL A   1      33.281  37.249  30.361  1.00  0.00    -0.255 N 
ATOM     24  H   UNL A   1      33.556  38.143  30.667  1.00  0.00     0.192 HD
ENDBRANCH  15  18
ENDBRANCH   9  14
ENDBRANCH   5   8
ENDBRANCH   3   4
ENDBRANCH   2   3
ENDBRANCH   1   2
BRANCH   1  25
ATOM     25  C   UNL A   1      35.410  32.245  30.993  1.00  0.00     0.116 C 
BRANCH  25  26
ATOM     26  N   UNL A   1      34.735  31.777  29.784  1.00  0.00    -0.352 N 
ATOM     27  C   UNL A   1      35.306  31.358  28.597  1.00  0.00     0.251 C 
ATOM     28  H   UNL A   1      33.752  31.759  29.820  1.00  0.00     0.163 HD
ATOM     29  O   UNL A   1      34.670  31.419  27.551  1.00  0.00    -0.269 OA
BRANCH  27  30
ATOM     30  C   UNL A   1      36.685  30.833  28.612  1.00  0.00     0.039 A 
ATOM     31  C   UNL A   1      37.780  31.668  28.843  1.00  0.00     0.014 A 
ATOM     32  C   UNL A   1      36.866  29.467  28.407  1.00  0.00     0.014 A 
ATOM     33  C   UNL A   1      39.048  31.100  28.966  1.00  0.00     0.010 A 
ATOM     34  C   UNL A   1      38.094  28.893  28.643  1.00  0.00     0.010 A 
ATOM     35  C   UNL A   1      39.197  29.705  28.892  1.00  0.00    -0.014 A 
BRANCH  35  36
ATOM     36  C   UNL A   1      40.470  29.068  29.231  1.00  0.00     0.031 A 
ATOM     37  C   UNL A   1      40.672  28.834  30.688  1.00  0.00     0.074 A 
ATOM     38  C   UNL A   1      41.294  28.502  28.322  1.00  0.00     0.049 A 
ATOM     39  N   UNL A   1      41.500  29.434  31.476  1.00  0.00    -0.248 NA
ATOM     40  C   UNL A   1      39.733  27.945  31.390  1.00  0.00     0.031 C 
ATOM     41  C   UNL A   1      41.082  28.358  26.879  1.00  0.00     0.029 A 
ATOM     42  N   UNL A   1      42.458  27.817  28.519  1.00  0.00    -0.354 N 
ATOM     43  C   UNL A   1      41.370  28.815  32.717  1.00  0.00     0.074 A 
ATOM     44  C   UNL A   1      40.129  28.090  32.657  1.00  0.00     0.031 C 
ATOM     45  C   UNL A   1      41.943  27.443  26.382  1.00  0.00     0.029 A 
ATOM     46  C   UNL A   1      42.873  27.052  27.429  1.00  0.00     0.049 A 
ATOM     47  H   UNL A   1      42.962  27.859  29.363  1.00  0.00     0.167 HD
ATOM     48  C   UNL A   1      42.419  28.753  33.587  1.00  0.00     0.034 A 
ATOM     49  C   UNL A   1      43.884  26.142  27.393  1.00  0.00     0.034 A 
ATOM     50  C   UNL A   1      43.475  29.656  33.173  1.00  0.00     0.049 A 
ATOM     51  C   UNL A   1      44.792  26.467  28.522  1.00  0.00     0.074 A 
ATOM     52  C   UNL A   1      43.548  31.014  32.923  1.00  0.00     0.029 A 
ATOM     53  N   UNL A   1      44.590  29.113  32.569  1.00  0.00    -0.354 N 
ATOM     54  N   UNL A   1      45.491  27.566  28.584  1.00  0.00    -0.248 NA
ATOM     55  C   UNL A   1      44.552  25.817  29.802  1.00  0.00     0.031 C 
ATOM     56  C   UNL A   1      44.378  31.128  31.768  1.00  0.00     0.029 A 
ATOM     57  C   UNL A   1      44.849  29.854  31.442  1.00  0.00     0.049 A 
ATOM     58  H   UNL A   1      45.106  28.338  32.887  1.00  0.00     0.167 HD
ATOM     59  C   UNL A   1      45.386  27.982  29.901  1.00  0.00     0.074 A 
ATOM     60  C   UNL A   1      44.887  26.814  30.626  1.00  0.00     0.031 C 
ATOM     61  C   UNL A   1      45.430  29.309  30.229  1.00  0.00     0.034 A 
BRANCH  48  62
ATOM     62  C   UNL A   1      42.685  27.633  34.577  1.00  0.00     0.023 A 
ATOM     63  C   UNL A   1      43.514  26.582  34.136  1.00  0.00     0.031 A 
ATOM     64  C   UNL A   1      41.973  27.383  35.771  1.00  0.00     0.131 A 
ATOM     65  C   UNL A   1      43.499  25.328  34.769  1.00  0.00     0.055 A 
ATOM     66  C   UNL A   1      42.019  26.155  36.441  1.00  0.00     0.041 A 
ATOM     67  F   UNL A   1      41.130  28.265  36.316  1.00  0.00    -0.206 F 
ATOM     68  C   UNL A   1      42.752  25.104  35.919  1.00  0.00     0.022 A 
BRANCH  65  69
ATOM     69  S   UNL A   1      44.318  23.944  33.937  1.00  0.00     0.124 S 
ATOM     70  O   UNL A   1      45.722  24.316  34.075  1.00  0.00    -0.237 OA
ATOM     71  O   UNL A   1      43.869  22.808  34.734  1.00  0.00    -0.237 OA
ATOM     72  O   UNL A   1      43.785  24.002  32.578  1.00  0.00    -0.744 OA
ENDBRANCH  65  69
ENDBRANCH  48  62
BRANCH  49  73
ATOM     73  C   UNL A   1      43.967  24.867  26.624  1.00  0.00     0.023 A 
ATOM     74  C   UNL A   1      43.168  23.742  26.927  1.00  0.00     0.031 A 
ATOM     75  C   UNL A   1      44.661  24.834  25.395  1.00  0.00     0.131 A 
ATOM     76  C   UNL A   1      43.080  22.659  26.017  1.00  0.00     0.055 A 
ATOM     77  C   UNL A   1      44.574  23.762  24.502  1.00  0.00     0.041 A 
ATOM     78  F   UNL A   1      45.380  25.885  24.971  1.00  0.00    -0.206 F 
ATOM     79  C   UNL A   1      43.772  22.675  24.804  1.00  0.00     0.022 A 
BRANCH  76  80
ATOM     80  S   UNL A   1      41.965  21.252  26.343  1.00  0.00     0.124 S 
ATOM     81  O   UNL A   1      40.657  21.816  26.033  1.00  0.00    -0.237 OA
ATOM     82  O   UNL A   1      42.467  20.232  25.431  1.00  0.00    -0.237 OA
ATOM     83  O   UNL A   1      42.188  20.964  27.761  1.00  0.00    -0.744 OA
ENDBRANCH  76  80
ENDBRANCH  49  73
BRANCH  61  84
ATOM     84  C   UNL A   1      45.928  30.301  29.195  1.00  0.00     0.023 A 
ATOM     85  C   UNL A   1      45.108  31.063  28.330  1.00  0.00     0.031 A 
ATOM     86  C   UNL A   1      47.312  30.549  29.161  1.00  0.00     0.131 A 
ATOM     87  C   UNL A   1      45.687  32.015  27.466  1.00  0.00     0.055 A 
ATOM     88  C   UNL A   1      47.877  31.510  28.324  1.00  0.00     0.041 A 
ATOM     89  F   UNL A   1      48.146  29.876  29.972  1.00  0.00    -0.206 F 
ATOM     90  C   UNL A   1      47.067  32.240  27.465  1.00  0.00     0.022 A 
BRANCH  87  91
ATOM     91  S   UNL A   1      44.661  32.957  26.290  1.00  0.00     0.124 S 
ATOM     92  O   UNL A   1      43.864  31.932  25.627  1.00  0.00    -0.237 OA
ATOM     93  O   UNL A   1      43.930  33.866  27.168  1.00  0.00    -0.237 OA
ATOM     94  O   UNL A   1      45.651  33.610  25.429  1.00  0.00    -0.744 OA
ENDBRANCH  87  91
ENDBRANCH  61  84
ENDBRANCH  35  36
ENDBRANCH  27  30
ENDBRANCH  25  26
ENDBRANCH   1  25
TORSDOF 16
ENDMDL
