MODEL 1
REMARK VINA RESULT:     -11.2      0.000      0.000
REMARK SMILES CN(C)c1oc(/C=N/c2ccc(O)c(C(=O)NCCCCNC(=O)c3ccc(-c4c5nc(c(-c6cc(S(=O)(=O)[O-])ccc6F)c6ccc([nH]6)c(-c6cc(S(=O)(=O)[O-])ccc6F)c6nc(c(-c7cc(S(=O)(=O)[O-])ccc7F)c7ccc4[nH]7)C=C6)C=C5)cc3)c2)cc1Br
REMARK SMILES IDX 19 1 18 2 17 3 15 4 16 5 14 7 9 8 10 9 88 10 11 11 12 12
REMARK SMILES IDX 8 13 7 14 6 15 4 16 5 17 90 18 89 19 91 20 2 21 1 22 3 23
REMARK SMILES IDX 13 24 20 26 21 27 22 28 23 29 24 31 25 32 26 33 87 34 27 35
REMARK SMILES IDX 86 36 28 37 29 38 30 39 80 40 31 41 85 42 79 43 81 44 32 45
REMARK SMILES IDX 84 46 78 47 77 48 33 50 65 51 45 52 64 53 46 54 49 55 63 56
REMARK SMILES IDX 82 57 47 58 48 59 62 61 83 62 50 63 34 64 35 65 43 66 36 67
REMARK SMILES IDX 42 68 44 69 41 70 37 71 38 72 39 73 40 74 66 75 67 76 75 77
REMARK SMILES IDX 68 78 74 79 76 80 73 81 69 82 70 83 71 84 72 85 51 86 52 87
REMARK SMILES IDX 60 88 53 89 59 90 61 91 58 92 54 93 55 94 56 95 57 96
REMARK H PARENT 17 6 13 25 22 30 81 49 49 60
REMARK Flexibility Score: inf
ROOT
ATOM      1  C   UNL A   1      37.005  22.152  24.565  1.00  0.00     0.023 C 
ENDROOT
BRANCH   1   2
ATOM      2  C   UNL A   1      36.572  23.108  25.681  1.00  0.00     0.116 C 
BRANCH   2   3
ATOM      3  N   UNL A   1      35.761  22.409  26.653  1.00  0.00    -0.352 N 
ATOM      4  C   UNL A   1      34.449  22.019  26.661  1.00  0.00     0.255 C 
ATOM      5  O   UNL A   1      34.065  21.477  27.705  1.00  0.00    -0.269 OA
ATOM      6  H   UNL A   1      36.250  22.164  27.471  1.00  0.00     0.163 HD
BRANCH   4   7
ATOM      7  C   UNL A   1      33.478  22.127  25.524  1.00  0.00     0.083 A 
ATOM      8  C   UNL A   1      31.909  23.690  24.447  1.00  0.00     0.064 A 
ATOM      9  C   UNL A   1      31.670  22.760  23.439  1.00  0.00     0.032 A 
ATOM     10  C   UNL A   1      32.784  23.356  25.484  1.00  0.00     0.046 A 
ATOM     11  C   UNL A   1      32.333  21.538  23.450  1.00  0.00     0.049 A 
ATOM     12  C   UNL A   1      33.260  21.240  24.462  1.00  0.00     0.128 A 
BRANCH   8  13
ATOM     13  N   UNL A   1      31.465  25.011  24.349  1.00  0.00    -0.253 NA
ATOM     14  C   UNL A   1      32.315  25.983  24.354  1.00  0.00     0.158 C 
BRANCH  14  15
ATOM     15  C   UNL A   1      31.810  27.324  24.381  1.00  0.00     0.149 A 
ATOM     16  C   UNL A   1      31.570  29.361  25.203  1.00  0.00     0.210 A 
ATOM     17  O   UNL A   1      32.296  28.202  25.306  1.00  0.00    -0.438 OA
ATOM     18  C   UNL A   1      30.660  29.217  24.173  1.00  0.00     0.082 A 
ATOM     19  C   UNL A   1      30.819  27.928  23.635  1.00  0.00     0.070 A 
ATOM     20  Br  UNL A   1      29.408  30.434  23.486  1.00  0.00    -0.045 Br
BRANCH  16  21
ATOM     21  N   UNL A   1      31.859  30.336  26.101  1.00  0.00    -0.348 N 
ATOM     22  C   UNL A   1      32.949  30.189  27.045  1.00  0.00     0.146 C 
ATOM     23  C   UNL A   1      31.088  31.565  26.105  1.00  0.00     0.146 C 
ENDBRANCH  16  21
ENDBRANCH  14  15
ENDBRANCH   8  13
BRANCH  12  24
ATOM     24  O   UNL A   1      33.979  20.095  24.299  1.00  0.00    -0.507 OA
ATOM     25  H   UNL A   1      33.547  19.263  24.316  1.00  0.00     0.293 HD
ENDBRANCH  12  24
ENDBRANCH   4   7
ENDBRANCH   2   3
ENDBRANCH   1   2
BRANCH   1  26
ATOM     26  C   UNL A   1      37.643  20.851  25.050  1.00  0.00     0.023 C 
BRANCH  26  27
ATOM     27  C   UNL A   1      38.900  21.032  25.893  1.00  0.00     0.116 C 
BRANCH  27  28
ATOM     28  N   UNL A   1      39.767  19.862  25.894  1.00  0.00    -0.352 N 
ATOM     29  C   UNL A   1      41.126  19.806  26.101  1.00  0.00     0.251 C 
ATOM     30  H   UNL A   1      39.324  18.999  25.725  1.00  0.00     0.163 HD
ATOM     31  O   UNL A   1      41.726  18.747  25.975  1.00  0.00    -0.269 OA
BRANCH  29  32
ATOM     32  C   UNL A   1      41.850  21.053  26.424  1.00  0.00     0.039 A 
ATOM     33  C   UNL A   1      42.156  21.940  25.389  1.00  0.00     0.014 A 
ATOM     34  C   UNL A   1      42.168  21.370  27.747  1.00  0.00     0.014 A 
ATOM     35  C   UNL A   1      42.710  23.184  25.692  1.00  0.00     0.010 A 
ATOM     36  C   UNL A   1      42.658  22.635  28.053  1.00  0.00     0.010 A 
ATOM     37  C   UNL A   1      42.925  23.558  27.029  1.00  0.00    -0.014 A 
BRANCH  37  38
ATOM     38  C   UNL A   1      43.418  24.912  27.385  1.00  0.00     0.031 A 
ATOM     39  C   UNL A   1      42.482  25.908  28.009  1.00  0.00     0.074 A 
ATOM     40  C   UNL A   1      44.679  25.265  27.070  1.00  0.00     0.049 A 
ATOM     41  N   UNL A   1      42.681  27.171  28.286  1.00  0.00    -0.248 NA
ATOM     42  C   UNL A   1      41.132  25.424  28.333  1.00  0.00     0.031 C 
ATOM     43  C   UNL A   1      45.664  24.396  26.422  1.00  0.00     0.029 A 
ATOM     44  N   UNL A   1      45.345  26.454  27.233  1.00  0.00    -0.354 N 
ATOM     45  C   UNL A   1      41.480  27.637  28.807  1.00  0.00     0.074 A 
ATOM     46  C   UNL A   1      40.541  26.535  28.747  1.00  0.00     0.031 C 
ATOM     47  C   UNL A   1      46.809  25.079  26.251  1.00  0.00     0.029 A 
ATOM     48  C   UNL A   1      46.628  26.443  26.735  1.00  0.00     0.049 A 
ATOM     49  H   UNL A   1      44.942  27.242  27.665  1.00  0.00     0.167 HD
ATOM     50  C   UNL A   1      41.193  28.863  29.312  1.00  0.00     0.034 A 
ATOM     51  C   UNL A   1      47.546  27.427  26.659  1.00  0.00     0.034 A 
ATOM     52  C   UNL A   1      42.143  29.946  29.370  1.00  0.00     0.049 A 
ATOM     53  C   UNL A   1      47.198  28.788  27.205  1.00  0.00     0.074 A 
ATOM     54  C   UNL A   1      41.977  31.214  29.901  1.00  0.00     0.029 A 
ATOM     55  N   UNL A   1      43.440  29.893  28.873  1.00  0.00    -0.354 N 
ATOM     56  N   UNL A   1      46.071  29.201  27.738  1.00  0.00    -0.248 NA
ATOM     57  C   UNL A   1      48.249  29.813  27.148  1.00  0.00     0.031 C 
ATOM     58  C   UNL A   1      43.149  31.943  29.674  1.00  0.00     0.029 A 
ATOM     59  C   UNL A   1      44.073  31.111  29.062  1.00  0.00     0.049 A 
ATOM     60  H   UNL A   1      43.848  29.105  28.448  1.00  0.00     0.167 HD
ATOM     61  C   UNL A   1      46.288  30.527  28.102  1.00  0.00     0.074 A 
ATOM     62  C   UNL A   1      47.655  30.839  27.741  1.00  0.00     0.031 C 
ATOM     63  C   UNL A   1      45.435  31.407  28.686  1.00  0.00     0.034 A 
BRANCH  50  64
ATOM     64  C   UNL A   1      39.789  29.090  29.817  1.00  0.00     0.023 A 
ATOM     65  C   UNL A   1      38.846  29.813  29.064  1.00  0.00     0.031 A 
ATOM     66  C   UNL A   1      39.396  28.613  31.079  1.00  0.00     0.131 A 
ATOM     67  C   UNL A   1      37.589  30.108  29.612  1.00  0.00     0.055 A 
ATOM     68  C   UNL A   1      38.114  28.840  31.584  1.00  0.00     0.041 A 
ATOM     69  F   UNL A   1      40.258  27.935  31.852  1.00  0.00    -0.206 F 
ATOM     70  C   UNL A   1      37.207  29.606  30.857  1.00  0.00     0.022 A 
BRANCH  67  71
ATOM     71  S   UNL A   1      36.518  31.281  28.735  1.00  0.00     0.124 S 
ATOM     72  O   UNL A   1      37.340  32.489  28.739  1.00  0.00    -0.237 OA
ATOM     73  O   UNL A   1      36.336  30.635  27.440  1.00  0.00    -0.237 OA
ATOM     74  O   UNL A   1      35.323  31.346  29.574  1.00  0.00    -0.744 OA
ENDBRANCH  67  71
ENDBRANCH  50  64
BRANCH  51  75
ATOM     75  C   UNL A   1      48.871  27.176  26.026  1.00  0.00     0.023 A 
ATOM     76  C   UNL A   1      49.091  27.456  24.669  1.00  0.00     0.031 A 
ATOM     77  C   UNL A   1      49.929  26.613  26.762  1.00  0.00     0.131 A 
ATOM     78  C   UNL A   1      50.321  27.130  24.077  1.00  0.00     0.055 A 
ATOM     79  C   UNL A   1      51.167  26.336  26.181  1.00  0.00     0.041 A 
ATOM     80  F   UNL A   1      49.774  26.331  28.067  1.00  0.00    -0.206 F 
ATOM     81  C   UNL A   1      51.364  26.583  24.827  1.00  0.00     0.022 A 
BRANCH  78  82
ATOM     82  S   UNL A   1      50.510  27.356  22.287  1.00  0.00     0.124 S 
ATOM     83  O   UNL A   1      51.864  26.864  22.066  1.00  0.00    -0.237 OA
ATOM     84  O   UNL A   1      49.431  26.525  21.762  1.00  0.00    -0.237 OA
ATOM     85  O   UNL A   1      50.330  28.795  22.104  1.00  0.00    -0.744 OA
ENDBRANCH  78  82
ENDBRANCH  51  75
BRANCH  63  86
ATOM     86  C   UNL A   1      45.979  32.776  29.004  1.00  0.00     0.023 A 
ATOM     87  C   UNL A   1      45.879  33.842  28.094  1.00  0.00     0.031 A 
ATOM     88  C   UNL A   1      46.612  33.013  30.237  1.00  0.00     0.131 A 
ATOM     89  C   UNL A   1      46.445  35.086  28.412  1.00  0.00     0.055 A 
ATOM     90  C   UNL A   1      47.126  34.267  30.569  1.00  0.00     0.041 A 
ATOM     91  F   UNL A   1      46.736  32.029  31.142  1.00  0.00    -0.206 F 
ATOM     92  C   UNL A   1      47.053  35.310  29.649  1.00  0.00     0.022 A 
BRANCH  89  93
ATOM     93  S   UNL A   1      46.436  36.395  27.156  1.00  0.00     0.124 S 
ATOM     94  O   UNL A   1      47.614  37.174  27.523  1.00  0.00    -0.237 OA
ATOM     95  O   UNL A   1      46.535  35.637  25.913  1.00  0.00    -0.237 OA
ATOM     96  O   UNL A   1      45.156  37.067  27.370  1.00  0.00    -0.744 OA
ENDBRANCH  89  93
ENDBRANCH  63  86
ENDBRANCH  37  38
ENDBRANCH  29  32
ENDBRANCH  27  28
ENDBRANCH  26  27
ENDBRANCH   1  26
TORSDOF 18
ENDMDL
MODEL 2
REMARK VINA RESULT:     -11.2      1.745      2.131
REMARK SMILES CN(C)c1oc(/C=N/c2ccc(O)c(C(=O)NCCCCNC(=O)c3ccc(-c4c5nc(c(-c6cc(S(=O)(=O)[O-])ccc6F)c6ccc([nH]6)c(-c6cc(S(=O)(=O)[O-])ccc6F)c6nc(c(-c7cc(S(=O)(=O)[O-])ccc7F)c7ccc4[nH]7)C=C6)C=C5)cc3)c2)cc1Br
REMARK SMILES IDX 19 1 18 2 17 3 15 4 16 5 14 7 9 8 10 9 88 10 11 11 12 12
REMARK SMILES IDX 8 13 7 14 6 15 4 16 5 17 90 18 89 19 91 20 2 21 1 22 3 23
REMARK SMILES IDX 13 24 20 26 21 27 22 28 23 29 24 31 25 32 26 33 87 34 27 35
REMARK SMILES IDX 86 36 28 37 29 38 30 39 80 40 31 41 85 42 79 43 81 44 32 45
REMARK SMILES IDX 84 46 78 47 77 48 33 50 65 51 45 52 64 53 46 54 49 55 63 56
REMARK SMILES IDX 82 57 47 58 48 59 62 61 83 62 50 63 34 64 35 65 43 66 36 67
REMARK SMILES IDX 42 68 44 69 41 70 37 71 38 72 39 73 40 74 66 75 67 76 75 77
REMARK SMILES IDX 68 78 74 79 76 80 73 81 69 82 70 83 71 84 72 85 51 86 52 87
REMARK SMILES IDX 60 88 53 89 59 90 61 91 58 92 54 93 55 94 56 95 57 96
REMARK H PARENT 17 6 13 25 22 30 81 49 49 60
REMARK Flexibility Score: inf
ROOT
ATOM      1  C   UNL A   1      37.337  21.641  24.524  1.00  0.00     0.023 C 
ENDROOT
BRANCH   1   2
ATOM      2  C   UNL A   1      36.806  22.792  25.384  1.00  0.00     0.116 C 
BRANCH   2   3
ATOM      3  N   UNL A   1      36.025  22.275  26.486  1.00  0.00    -0.352 N 
ATOM      4  C   UNL A   1      34.755  21.772  26.571  1.00  0.00     0.255 C 
ATOM      5  O   UNL A   1      34.382  21.467  27.710  1.00  0.00    -0.269 OA
ATOM      6  H   UNL A   1      36.502  22.287  27.347  1.00  0.00     0.163 HD
BRANCH   4   7
ATOM      7  C   UNL A   1      33.823  21.503  25.427  1.00  0.00     0.083 A 
ATOM      8  C   UNL A   1      32.159  22.594  23.976  1.00  0.00     0.064 A 
ATOM      9  C   UNL A   1      32.047  21.428  23.223  1.00  0.00     0.032 A 
ATOM     10  C   UNL A   1      33.020  22.611  25.076  1.00  0.00     0.046 A 
ATOM     11  C   UNL A   1      32.819  20.317  23.546  1.00  0.00     0.049 A 
ATOM     12  C   UNL A   1      33.729  20.368  24.613  1.00  0.00     0.128 A 
BRANCH   8  13
ATOM     13  N   UNL A   1      31.598  23.800  23.549  1.00  0.00    -0.253 NA
ATOM     14  C   UNL A   1      31.824  24.888  24.207  1.00  0.00     0.158 C 
BRANCH  14  15
ATOM     15  C   UNL A   1      31.127  26.076  23.811  1.00  0.00     0.149 A 
ATOM     16  C   UNL A   1      29.345  27.333  23.454  1.00  0.00     0.210 A 
ATOM     17  O   UNL A   1      29.783  26.167  24.030  1.00  0.00    -0.438 OA
ATOM     18  C   UNL A   1      30.434  27.992  22.917  1.00  0.00     0.082 A 
ATOM     19  C   UNL A   1      31.574  27.205  23.155  1.00  0.00     0.070 A 
ATOM     20  Br  UNL A   1      30.533  29.646  22.036  1.00  0.00    -0.045 Br
BRANCH  16  21
ATOM     21  N   UNL A   1      28.009  27.564  23.503  1.00  0.00    -0.348 N 
ATOM     22  C   UNL A   1      27.112  26.651  24.184  1.00  0.00     0.146 C 
ATOM     23  C   UNL A   1      27.461  28.761  22.892  1.00  0.00     0.146 C 
ENDBRANCH  16  21
ENDBRANCH  14  15
ENDBRANCH   8  13
BRANCH  12  24
ATOM     24  O   UNL A   1      34.557  19.295  24.748  1.00  0.00    -0.507 OA
ATOM     25  H   UNL A   1      34.206  18.425  24.721  1.00  0.00     0.293 HD
ENDBRANCH  12  24
ENDBRANCH   4   7
ENDBRANCH   2   3
ENDBRANCH   1   2
BRANCH   1  26
ATOM     26  C   UNL A   1      37.946  20.482  25.313  1.00  0.00     0.023 C 
BRANCH  26  27
ATOM     27  C   UNL A   1      39.330  20.758  25.887  1.00  0.00     0.116 C 
BRANCH  27  28
ATOM     28  N   UNL A   1      40.183  19.578  25.928  1.00  0.00    -0.352 N 
ATOM     29  C   UNL A   1      41.540  19.513  26.145  1.00  0.00     0.251 C 
ATOM     30  H   UNL A   1      39.731  18.717  25.783  1.00  0.00     0.163 HD
ATOM     31  O   UNL A   1      42.128  18.444  26.053  1.00  0.00    -0.269 OA
BRANCH  29  32
ATOM     32  C   UNL A   1      42.278  20.761  26.434  1.00  0.00     0.039 A 
ATOM     33  C   UNL A   1      42.689  21.562  25.366  1.00  0.00     0.014 A 
ATOM     34  C   UNL A   1      42.504  21.165  27.752  1.00  0.00     0.014 A 
ATOM     35  C   UNL A   1      43.258  22.810  25.623  1.00  0.00     0.010 A 
ATOM     36  C   UNL A   1      43.010  22.435  28.005  1.00  0.00     0.010 A 
ATOM     37  C   UNL A   1      43.383  23.274  26.942  1.00  0.00    -0.014 A 
BRANCH  37  38
ATOM     38  C   UNL A   1      43.891  24.637  27.239  1.00  0.00     0.031 A 
ATOM     39  C   UNL A   1      42.947  25.695  27.737  1.00  0.00     0.074 A 
ATOM     40  C   UNL A   1      45.178  24.939  26.980  1.00  0.00     0.049 A 
ATOM     41  N   UNL A   1      43.163  26.967  27.942  1.00  0.00    -0.248 NA
ATOM     42  C   UNL A   1      41.567  25.265  28.007  1.00  0.00     0.031 C 
ATOM     43  C   UNL A   1      46.176  24.005  26.453  1.00  0.00     0.029 A 
ATOM     44  N   UNL A   1      45.865  26.120  27.106  1.00  0.00    -0.354 N 
ATOM     45  C   UNL A   1      41.946  27.495  28.357  1.00  0.00     0.074 A 
ATOM     46  C   UNL A   1      40.983  26.414  28.310  1.00  0.00     0.031 C 
ATOM     47  C   UNL A   1      47.347  24.648  26.309  1.00  0.00     0.029 A 
ATOM     48  C   UNL A   1      47.174  26.046  26.691  1.00  0.00     0.049 A 
ATOM     49  H   UNL A   1      45.459  26.944  27.460  1.00  0.00     0.167 HD
ATOM     50  C   UNL A   1      41.663  28.759  28.761  1.00  0.00     0.034 A 
ATOM     51  C   UNL A   1      48.123  27.000  26.608  1.00  0.00     0.034 A 
ATOM     52  C   UNL A   1      42.637  29.821  28.807  1.00  0.00     0.049 A 
ATOM     53  C   UNL A   1      47.780  28.403  27.041  1.00  0.00     0.074 A 
ATOM     54  C   UNL A   1      42.474  31.125  29.243  1.00  0.00     0.029 A 
ATOM     55  N   UNL A   1      43.959  29.704  28.396  1.00  0.00    -0.354 N 
ATOM     56  N   UNL A   1      46.634  28.877  27.474  1.00  0.00    -0.248 NA
ATOM     57  C   UNL A   1      48.860  29.397  26.982  1.00  0.00     0.031 C 
ATOM     58  C   UNL A   1      43.678  31.809  29.042  1.00  0.00     0.029 A 
ATOM     59  C   UNL A   1      44.614  30.918  28.544  1.00  0.00     0.049 A 
ATOM     60  H   UNL A   1      44.371  28.880  28.050  1.00  0.00     0.167 HD
ATOM     61  C   UNL A   1      46.866  30.219  27.764  1.00  0.00     0.074 A 
ATOM     62  C   UNL A   1      48.260  30.473  27.469  1.00  0.00     0.031 C 
ATOM     63  C   UNL A   1      46.004  31.155  28.235  1.00  0.00     0.034 A 
BRANCH  50  64
ATOM     64  C   UNL A   1      40.237  29.052  29.162  1.00  0.00     0.023 A 
ATOM     65  C   UNL A   1      39.840  29.051  30.512  1.00  0.00     0.031 A 
ATOM     66  C   UNL A   1      39.255  29.298  28.188  1.00  0.00     0.131 A 
ATOM     67  C   UNL A   1      38.487  29.209  30.845  1.00  0.00     0.055 A 
ATOM     68  C   UNL A   1      37.923  29.537  28.531  1.00  0.00     0.041 A 
ATOM     69  F   UNL A   1      39.570  29.291  26.883  1.00  0.00    -0.206 F 
ATOM     70  C   UNL A   1      37.528  29.477  29.865  1.00  0.00     0.022 A 
BRANCH  67  71
ATOM     71  S   UNL A   1      37.978  28.914  32.560  1.00  0.00     0.124 S 
ATOM     72  O   UNL A   1      38.111  27.462  32.659  1.00  0.00    -0.237 OA
ATOM     73  O   UNL A   1      38.948  29.697  33.317  1.00  0.00    -0.237 OA
ATOM     74  O   UNL A   1      36.605  29.412  32.601  1.00  0.00    -0.744 OA
ENDBRANCH  67  71
ENDBRANCH  50  64
BRANCH  51  75
ATOM     75  C   UNL A   1      49.476  26.676  26.076  1.00  0.00     0.023 A 
ATOM     76  C   UNL A   1      49.865  27.079  24.790  1.00  0.00     0.031 A 
ATOM     77  C   UNL A   1      50.389  25.922  26.835  1.00  0.00     0.131 A 
ATOM     78  C   UNL A   1      51.113  26.687  24.280  1.00  0.00     0.055 A 
ATOM     79  C   UNL A   1      51.649  25.576  26.343  1.00  0.00     0.041 A 
ATOM     80  F   UNL A   1      50.070  25.516  28.075  1.00  0.00    -0.206 F 
ATOM     81  C   UNL A   1      52.012  25.949  25.053  1.00  0.00     0.022 A 
BRANCH  78  82
ATOM     82  S   UNL A   1      51.512  27.088  22.557  1.00  0.00     0.124 S 
ATOM     83  O   UNL A   1      50.269  26.747  21.876  1.00  0.00    -0.237 OA
ATOM     84  O   UNL A   1      51.827  28.511  22.643  1.00  0.00    -0.237 OA
ATOM     85  O   UNL A   1      52.648  26.217  22.259  1.00  0.00    -0.744 OA
ENDBRANCH  78  82
ENDBRANCH  51  75
BRANCH  63  86
ATOM     86  C   UNL A   1      46.565  32.529  28.497  1.00  0.00     0.023 A 
ATOM     87  C   UNL A   1      46.652  33.498  27.483  1.00  0.00     0.031 A 
ATOM     88  C   UNL A   1      47.024  32.870  29.781  1.00  0.00     0.131 A 
ATOM     89  C   UNL A   1      47.228  34.747  27.759  1.00  0.00     0.055 A 
ATOM     90  C   UNL A   1      47.548  34.132  30.063  1.00  0.00     0.041 A 
ATOM     91  F   UNL A   1      46.965  31.981  30.786  1.00  0.00    -0.206 F 
ATOM     92  C   UNL A   1      47.662  35.076  29.046  1.00  0.00     0.022 A 
BRANCH  89  93
ATOM     93  S   UNL A   1      47.468  35.918  26.395  1.00  0.00     0.124 S 
ATOM     94  O   UNL A   1      47.877  35.036  25.306  1.00  0.00    -0.237 OA
ATOM     95  O   UNL A   1      46.146  36.521  26.263  1.00  0.00    -0.237 OA
ATOM     96  O   UNL A   1      48.510  36.815  26.891  1.00  0.00    -0.744 OA
ENDBRANCH  89  93
ENDBRANCH  63  86
ENDBRANCH  37  38
ENDBRANCH  29  32
ENDBRANCH  27  28
ENDBRANCH  26  27
ENDBRANCH   1  26
TORSDOF 18
ENDMDL
MODEL 3
REMARK VINA RESULT:     -11.1      1.988      7.738
REMARK SMILES CN(C)c1oc(/C=N/c2ccc(O)c(C(=O)NCCCCNC(=O)c3ccc(-c4c5nc(c(-c6cc(S(=O)(=O)[O-])ccc6F)c6ccc([nH]6)c(-c6cc(S(=O)(=O)[O-])ccc6F)c6nc(c(-c7cc(S(=O)(=O)[O-])ccc7F)c7ccc4[nH]7)C=C6)C=C5)cc3)c2)cc1Br
REMARK SMILES IDX 19 1 18 2 17 3 15 4 16 5 14 7 9 8 10 9 88 10 11 11 12 12
REMARK SMILES IDX 8 13 7 14 6 15 4 16 5 17 90 18 89 19 91 20 2 21 1 22 3 23
REMARK SMILES IDX 13 24 20 26 21 27 22 28 23 29 24 31 25 32 26 33 87 34 27 35
REMARK SMILES IDX 86 36 28 37 29 38 30 39 80 40 31 41 85 42 79 43 81 44 32 45
REMARK SMILES IDX 84 46 78 47 77 48 33 50 65 51 45 52 64 53 46 54 49 55 63 56
REMARK SMILES IDX 82 57 47 58 48 59 62 61 83 62 50 63 34 64 35 65 43 66 36 67
REMARK SMILES IDX 42 68 44 69 41 70 37 71 38 72 39 73 40 74 66 75 67 76 75 77
REMARK SMILES IDX 68 78 74 79 76 80 73 81 69 82 70 83 71 84 72 85 51 86 52 87
REMARK SMILES IDX 60 88 53 89 59 90 61 91 58 92 54 93 55 94 56 95 57 96
REMARK H PARENT 17 6 13 25 22 30 81 49 49 60
REMARK Flexibility Score: inf
ROOT
ATOM      1  C   UNL A   1      35.115  21.897  25.501  1.00  0.00     0.023 C 
ENDROOT
BRANCH   1   2
ATOM      2  C   UNL A   1      34.177  21.651  26.687  1.00  0.00     0.116 C 
BRANCH   2   3
ATOM      3  N   UNL A   1      33.634  20.312  26.627  1.00  0.00    -0.352 N 
ATOM      4  C   UNL A   1      32.851  19.666  25.708  1.00  0.00     0.255 C 
ATOM      5  O   UNL A   1      32.522  18.514  26.012  1.00  0.00    -0.269 OA
ATOM      6  H   UNL A   1      33.875  19.754  27.401  1.00  0.00     0.163 HD
BRANCH   4   7
ATOM      7  C   UNL A   1      32.424  20.193  24.371  1.00  0.00     0.083 A 
ATOM      8  C   UNL A   1      31.809  22.274  23.206  1.00  0.00     0.064 A 
ATOM      9  C   UNL A   1      31.728  21.579  22.002  1.00  0.00     0.032 A 
ATOM     10  C   UNL A   1      32.129  21.575  24.372  1.00  0.00     0.046 A 
ATOM     11  C   UNL A   1      32.007  20.217  21.966  1.00  0.00     0.049 A 
ATOM     12  C   UNL A   1      32.392  19.539  23.133  1.00  0.00     0.128 A 
BRANCH   8  13
ATOM     13  N   UNL A   1      31.782  23.670  23.252  1.00  0.00    -0.253 NA
ATOM     14  C   UNL A   1      32.000  24.286  24.365  1.00  0.00     0.158 C 
BRANCH  14  15
ATOM     15  C   UNL A   1      31.835  25.710  24.396  1.00  0.00     0.149 A 
ATOM     16  C   UNL A   1      32.125  27.746  25.202  1.00  0.00     0.210 A 
ATOM     17  O   UNL A   1      32.553  26.446  25.293  1.00  0.00    -0.438 OA
ATOM     18  C   UNL A   1      31.171  27.824  24.206  1.00  0.00     0.082 A 
ATOM     19  C   UNL A   1      30.994  26.534  23.678  1.00  0.00     0.070 A 
ATOM     20  Br  UNL A   1      30.225  29.306  23.551  1.00  0.00    -0.045 Br
BRANCH  16  21
ATOM     21  N   UNL A   1      32.675  28.624  26.079  1.00  0.00    -0.348 N 
ATOM     22  C   UNL A   1      31.882  29.236  27.126  1.00  0.00     0.146 C 
ATOM     23  C   UNL A   1      34.089  28.939  25.994  1.00  0.00     0.146 C 
ENDBRANCH  16  21
ENDBRANCH  14  15
ENDBRANCH   8  13
BRANCH  12  24
ATOM     24  O   UNL A   1      32.805  18.251  22.970  1.00  0.00    -0.507 OA
ATOM     25  H   UNL A   1      32.789  17.858  22.119  1.00  0.00     0.293 HD
ENDBRANCH  12  24
ENDBRANCH   4   7
ENDBRANCH   2   3
ENDBRANCH   1   2
BRANCH   1  26
ATOM     26  C   UNL A   1      36.133  20.786  25.250  1.00  0.00     0.023 C 
BRANCH  26  27
ATOM     27  C   UNL A   1      37.576  21.260  25.120  1.00  0.00     0.116 C 
BRANCH  27  28
ATOM     28  N   UNL A   1      38.549  20.273  25.566  1.00  0.00    -0.352 N 
ATOM     29  C   UNL A   1      39.719  20.480  26.260  1.00  0.00     0.251 C 
ATOM     30  H   UNL A   1      38.345  19.336  25.342  1.00  0.00     0.163 HD
ATOM     31  O   UNL A   1      40.480  19.547  26.478  1.00  0.00    -0.269 OA
BRANCH  29  32
ATOM     32  C   UNL A   1      40.062  21.853  26.687  1.00  0.00     0.039 A 
ATOM     33  C   UNL A   1      41.103  22.033  27.601  1.00  0.00     0.014 A 
ATOM     34  C   UNL A   1      39.399  22.955  26.140  1.00  0.00     0.014 A 
ATOM     35  C   UNL A   1      41.533  23.325  27.906  1.00  0.00     0.010 A 
ATOM     36  C   UNL A   1      39.873  24.238  26.394  1.00  0.00     0.010 A 
ATOM     37  C   UNL A   1      40.951  24.434  27.271  1.00  0.00    -0.014 A 
BRANCH  37  38
ATOM     38  C   UNL A   1      41.457  25.811  27.501  1.00  0.00     0.031 A 
ATOM     39  C   UNL A   1      42.819  26.200  26.999  1.00  0.00     0.074 A 
ATOM     40  C   UNL A   1      40.726  26.676  28.229  1.00  0.00     0.049 A 
ATOM     41  N   UNL A   1      43.489  27.305  27.195  1.00  0.00    -0.248 NA
ATOM     42  C   UNL A   1      43.533  25.195  26.198  1.00  0.00     0.031 C 
ATOM     43  C   UNL A   1      39.409  26.395  28.806  1.00  0.00     0.029 A 
ATOM     44  N   UNL A   1      40.992  27.962  28.628  1.00  0.00    -0.354 N 
ATOM     45  C   UNL A   1      44.708  27.127  26.551  1.00  0.00     0.074 A 
ATOM     46  C   UNL A   1      44.706  25.782  26.015  1.00  0.00     0.031 C 
ATOM     47  C   UNL A   1      38.981  27.478  29.475  1.00  0.00     0.029 A 
ATOM     48  C   UNL A   1      40.007  28.513  29.414  1.00  0.00     0.049 A 
ATOM     49  H   UNL A   1      41.812  28.445  28.375  1.00  0.00     0.167 HD
ATOM     50  C   UNL A   1      45.725  28.013  26.400  1.00  0.00     0.034 A 
ATOM     51  C   UNL A   1      39.946  29.710  30.032  1.00  0.00     0.034 A 
ATOM     52  C   UNL A   1      45.706  29.351  26.935  1.00  0.00     0.049 A 
ATOM     53  C   UNL A   1      41.098  30.669  29.871  1.00  0.00     0.074 A 
ATOM     54  C   UNL A   1      46.659  30.348  26.806  1.00  0.00     0.029 A 
ATOM     55  N   UNL A   1      44.683  29.882  27.712  1.00  0.00    -0.354 N 
ATOM     56  N   UNL A   1      42.226  30.503  29.219  1.00  0.00    -0.248 NA
ATOM     57  C   UNL A   1      40.964  31.980  30.519  1.00  0.00     0.031 C 
ATOM     58  C   UNL A   1      46.239  31.457  27.548  1.00  0.00     0.029 A 
ATOM     59  C   UNL A   1      44.993  31.180  28.088  1.00  0.00     0.049 A 
ATOM     60  H   UNL A   1      43.858  29.405  27.959  1.00  0.00     0.167 HD
ATOM     61  C   UNL A   1      42.924  31.699  29.360  1.00  0.00     0.074 A 
ATOM     62  C   UNL A   1      42.084  32.580  30.144  1.00  0.00     0.031 C 
ATOM     63  C   UNL A   1      44.147  32.040  28.880  1.00  0.00     0.034 A 
BRANCH  50  64
ATOM     64  C   UNL A   1      46.943  27.542  25.643  1.00  0.00     0.023 A 
ATOM     65  C   UNL A   1      47.173  27.929  24.310  1.00  0.00     0.031 A 
ATOM     66  C   UNL A   1      47.866  26.668  26.242  1.00  0.00     0.131 A 
ATOM     67  C   UNL A   1      48.249  27.380  23.596  1.00  0.00     0.055 A 
ATOM     68  C   UNL A   1      48.981  26.190  25.552  1.00  0.00     0.041 A 
ATOM     69  F   UNL A   1      47.688  26.248  27.505  1.00  0.00    -0.206 F 
ATOM     70  C   UNL A   1      49.169  26.533  24.216  1.00  0.00     0.022 A 
BRANCH  67  71
ATOM     71  S   UNL A   1      48.341  27.676  21.809  1.00  0.00     0.124 S 
ATOM     72  O   UNL A   1      49.458  28.614  21.725  1.00  0.00    -0.237 OA
ATOM     73  O   UNL A   1      48.588  26.339  21.280  1.00  0.00    -0.237 OA
ATOM     74  O   UNL A   1      47.033  28.243  21.488  1.00  0.00    -0.744 OA
ENDBRANCH  67  71
ENDBRANCH  50  64
BRANCH  51  75
ATOM     75  C   UNL A   1      38.772  30.064  30.878  1.00  0.00     0.023 A 
ATOM     76  C   UNL A   1      37.722  30.844  30.370  1.00  0.00     0.031 A 
ATOM     77  C   UNL A   1      38.703  29.661  32.224  1.00  0.00     0.131 A 
ATOM     78  C   UNL A   1      36.671  31.236  31.213  1.00  0.00     0.055 A 
ATOM     79  C   UNL A   1      37.630  30.012  33.045  1.00  0.00     0.041 A 
ATOM     80  F   UNL A   1      39.678  28.908  32.758  1.00  0.00    -0.206 F 
ATOM     81  C   UNL A   1      36.612  30.816  32.543  1.00  0.00     0.022 A 
BRANCH  78  82
ATOM     82  S   UNL A   1      35.418  32.377  30.565  1.00  0.00     0.124 S 
ATOM     83  O   UNL A   1      36.165  33.627  30.487  1.00  0.00    -0.237 OA
ATOM     84  O   UNL A   1      35.075  31.755  29.289  1.00  0.00    -0.237 OA
ATOM     85  O   UNL A   1      34.366  32.339  31.578  1.00  0.00    -0.744 OA
ENDBRANCH  78  82
ENDBRANCH  51  75
BRANCH  63  86
ATOM     86  C   UNL A   1      44.624  33.442  29.161  1.00  0.00     0.023 A 
ATOM     87  C   UNL A   1      45.366  33.754  30.313  1.00  0.00     0.031 A 
ATOM     88  C   UNL A   1      44.324  34.482  28.263  1.00  0.00     0.131 A 
ATOM     89  C   UNL A   1      45.745  35.082  30.560  1.00  0.00     0.055 A 
ATOM     90  C   UNL A   1      44.750  35.791  28.488  1.00  0.00     0.041 A 
ATOM     91  F   UNL A   1      43.617  34.238  27.147  1.00  0.00    -0.206 F 
ATOM     92  C   UNL A   1      45.456  36.099  29.647  1.00  0.00     0.022 A 
BRANCH  89  93
ATOM     93  S   UNL A   1      46.566  35.477  32.129  1.00  0.00     0.124 S 
ATOM     94  O   UNL A   1      45.556  36.286  32.804  1.00  0.00    -0.237 OA
ATOM     95  O   UNL A   1      46.808  34.156  32.697  1.00  0.00    -0.237 OA
ATOM     96  O   UNL A   1      47.766  36.202  31.715  1.00  0.00    -0.744 OA
ENDBRANCH  89  93
ENDBRANCH  63  86
ENDBRANCH  37  38
ENDBRANCH  29  32
ENDBRANCH  27  28
ENDBRANCH  26  27
ENDBRANCH   1  26
TORSDOF 18
ENDMDL
