MODEL 1
REMARK VINA RESULT:     -12.5      0.000      0.000
REMARK SMILES C[C@H]1CCC[C@]1(C(=O)NCCCCNC(=O)c1ccc(-c2c3nc(c(-c4cc(S(=O)(=O)[O-])ccc4F)c4ccc([nH]4)c(-c4cc(S(=O)(=O)[O-])ccc4F)c4nc(c(-c5cc(S(=O)(=O)[O-])ccc5F)c5ccc2[nH]5)C=C4)C=C3)cc1)c1ccc2c(c1)OCO2
REMARK SMILES IDX 12 1 11 2 10 3 9 4 7 5 8 6 6 8 1 9 2 10 3 11 4 12 5 13 80 14
REMARK SMILES IDX 81 15 85 16 82 17 84 18 83 19 86 20 88 21 87 22 13 23 14 24
REMARK SMILES IDX 15 25 16 27 17 28 18 29 79 30 19 31 78 32 20 33 21 34 22 35
REMARK SMILES IDX 72 36 23 37 77 38 71 39 73 40 24 41 76 42 70 43 69 44 25 46
REMARK SMILES IDX 57 47 37 48 56 49 38 50 41 51 55 52 74 53 39 54 40 55 54 57
REMARK SMILES IDX 75 58 42 59 26 60 27 61 35 62 28 63 34 64 36 65 33 66 29 67
REMARK SMILES IDX 30 68 31 69 32 70 58 71 59 72 67 73 60 74 66 75 68 76 65 77
REMARK SMILES IDX 61 78 62 79 63 80 64 81 43 82 44 83 52 84 45 85 51 86 53 87
REMARK SMILES IDX 50 88 46 89 47 90 48 91 49 92
REMARK H PARENT 9 7 14 26 73 45 41 56
REMARK Flexibility Score: inf
ROOT
ATOM      1  C   UNL A   1      31.748  29.429  26.922  1.00  0.00     0.023 C 
ENDROOT
BRANCH   1   2
ATOM      2  C   UNL A   1      31.892  27.944  27.239  1.00  0.00     0.023 C 
BRANCH   2   3
ATOM      3  C   UNL A   1      31.146  27.006  26.296  1.00  0.00     0.116 C 
BRANCH   3   4
ATOM      4  N   UNL A   1      31.052  25.645  26.792  1.00  0.00    -0.355 N 
ATOM      5  C   UNL A   1      31.820  24.525  26.642  1.00  0.00     0.230 C 
ATOM      6  O   UNL A   1      31.571  23.651  27.479  1.00  0.00    -0.274 OA
ATOM      7  H   UNL A   1      30.264  25.497  27.362  1.00  0.00     0.163 HD
BRANCH   5   8
ATOM      8  C   UNL A   1      32.923  24.342  25.532  1.00  0.00     0.077 C 
ATOM      9  C   UNL A   1      30.961  23.771  23.872  1.00  0.00     0.009 C 
ATOM     10  C   UNL A   1      32.373  24.310  24.061  1.00  0.00     0.006 C 
ATOM     11  C   UNL A   1      32.640  25.682  23.460  1.00  0.00     0.005 C 
ATOM     12  C   UNL A   1      33.906  26.160  24.162  1.00  0.00     0.002 C 
ATOM     13  C   UNL A   1      33.879  25.569  25.576  1.00  0.00     0.022 C 
BRANCH   8  14
ATOM     14  C   UNL A   1      33.732  22.993  25.615  1.00  0.00    -0.028 A 
ATOM     15  C   UNL A   1      33.203  21.764  25.141  1.00  0.00     0.009 A 
ATOM     16  C   UNL A   1      35.120  23.034  25.900  1.00  0.00     0.055 A 
ATOM     17  C   UNL A   1      34.012  20.636  24.932  1.00  0.00     0.051 A 
ATOM     18  C   UNL A   1      35.899  21.932  25.626  1.00  0.00     0.166 A 
ATOM     19  C   UNL A   1      35.363  20.766  25.146  1.00  0.00     0.165 A 
ATOM     20  O   UNL A   1      37.257  21.891  25.698  1.00  0.00    -0.454 OA
ATOM     21  O   UNL A   1      36.317  19.840  24.859  1.00  0.00    -0.454 OA
ATOM     22  C   UNL A   1      37.508  20.636  25.036  1.00  0.00     0.468 C 
ENDBRANCH   8  14
ENDBRANCH   5   8
ENDBRANCH   3   4
ENDBRANCH   2   3
ENDBRANCH   1   2
BRANCH   1  23
ATOM     23  C   UNL A   1      33.061  30.176  26.740  1.00  0.00     0.116 C 
BRANCH  23  24
ATOM     24  N   UNL A   1      32.999  31.580  27.125  1.00  0.00    -0.352 N 
ATOM     25  C   UNL A   1      33.939  32.308  27.818  1.00  0.00     0.251 C 
ATOM     26  H   UNL A   1      32.185  32.065  26.857  1.00  0.00     0.163 HD
ATOM     27  O   UNL A   1      33.718  33.462  28.145  1.00  0.00    -0.269 OA
BRANCH  25  28
ATOM     28  C   UNL A   1      35.198  31.632  28.194  1.00  0.00     0.039 A 
ATOM     29  C   UNL A   1      36.386  32.363  28.174  1.00  0.00     0.014 A 
ATOM     30  C   UNL A   1      35.172  30.319  28.669  1.00  0.00     0.014 A 
ATOM     31  C   UNL A   1      37.544  31.796  28.706  1.00  0.00     0.010 A 
ATOM     32  C   UNL A   1      36.303  29.789  29.272  1.00  0.00     0.010 A 
ATOM     33  C   UNL A   1      37.501  30.521  29.297  1.00  0.00    -0.014 A 
BRANCH  33  34
ATOM     34  C   UNL A   1      38.701  29.929  29.938  1.00  0.00     0.031 A 
ATOM     35  C   UNL A   1      39.116  30.392  31.306  1.00  0.00     0.074 A 
ATOM     36  C   UNL A   1      39.448  29.035  29.260  1.00  0.00     0.049 A 
ATOM     37  N   UNL A   1      40.169  30.060  32.008  1.00  0.00    -0.248 NA
ATOM     38  C   UNL A   1      38.252  31.391  31.951  1.00  0.00     0.031 C 
ATOM     39  C   UNL A   1      39.173  28.557  27.902  1.00  0.00     0.029 A 
ATOM     40  N   UNL A   1      40.596  28.374  29.617  1.00  0.00    -0.354 N 
ATOM     41  C   UNL A   1      40.101  30.824  33.169  1.00  0.00     0.074 A 
ATOM     42  C   UNL A   1      38.945  31.684  33.040  1.00  0.00     0.031 C 
ATOM     43  C   UNL A   1      40.111  27.660  27.554  1.00  0.00     0.029 A 
ATOM     44  C   UNL A   1      41.072  27.526  28.644  1.00  0.00     0.049 A 
ATOM     45  H   UNL A   1      41.038  28.495  30.488  1.00  0.00     0.167 HD
ATOM     46  C   UNL A   1      40.912  30.788  34.255  1.00  0.00     0.034 A 
ATOM     47  C   UNL A   1      42.162  26.734  28.633  1.00  0.00     0.034 A 
ATOM     48  C   UNL A   1      42.047  29.906  34.373  1.00  0.00     0.049 A 
ATOM     49  C   UNL A   1      43.045  26.702  29.855  1.00  0.00     0.074 A 
ATOM     50  C   UNL A   1      42.905  29.741  35.445  1.00  0.00     0.029 A 
ATOM     51  N   UNL A   1      42.485  29.041  33.377  1.00  0.00    -0.354 N 
ATOM     52  N   UNL A   1      42.935  27.386  30.970  1.00  0.00    -0.248 NA
ATOM     53  C   UNL A   1      44.187  25.781  29.822  1.00  0.00     0.031 C 
ATOM     54  C   UNL A   1      43.892  28.818  35.079  1.00  0.00     0.029 A 
ATOM     55  C   UNL A   1      43.613  28.356  33.803  1.00  0.00     0.049 A 
ATOM     56  H   UNL A   1      42.057  28.930  32.497  1.00  0.00     0.167 HD
ATOM     57  C   UNL A   1      43.980  26.955  31.783  1.00  0.00     0.074 A 
ATOM     58  C   UNL A   1      44.696  25.942  31.035  1.00  0.00     0.031 C 
ATOM     59  C   UNL A   1      44.317  27.355  33.036  1.00  0.00     0.034 A 
BRANCH  46  60
ATOM     60  C   UNL A   1      40.600  31.744  35.381  1.00  0.00     0.023 A 
ATOM     61  C   UNL A   1      39.546  31.502  36.282  1.00  0.00     0.031 A 
ATOM     62  C   UNL A   1      41.331  32.935  35.530  1.00  0.00     0.131 A 
ATOM     63  C   UNL A   1      39.198  32.475  37.230  1.00  0.00     0.055 A 
ATOM     64  C   UNL A   1      41.034  33.860  36.534  1.00  0.00     0.041 A 
ATOM     65  F   UNL A   1      42.335  33.231  34.690  1.00  0.00    -0.206 F 
ATOM     66  C   UNL A   1      39.950  33.641  37.380  1.00  0.00     0.022 A 
BRANCH  63  67
ATOM     67  S   UNL A   1      37.654  32.262  38.158  1.00  0.00     0.124 S 
ATOM     68  O   UNL A   1      37.380  30.842  37.950  1.00  0.00    -0.237 OA
ATOM     69  O   UNL A   1      38.043  32.645  39.510  1.00  0.00    -0.237 OA
ATOM     70  O   UNL A   1      36.725  33.173  37.493  1.00  0.00    -0.744 OA
ENDBRANCH  63  67
ENDBRANCH  46  60
BRANCH  47  71
ATOM     71  C   UNL A   1      42.482  25.901  27.439  1.00  0.00     0.023 A 
ATOM     72  C   UNL A   1      42.086  24.556  27.369  1.00  0.00     0.031 A 
ATOM     73  C   UNL A   1      43.224  26.427  26.367  1.00  0.00     0.131 A 
ATOM     74  C   UNL A   1      42.474  23.768  26.274  1.00  0.00     0.055 A 
ATOM     75  C   UNL A   1      43.565  25.652  25.256  1.00  0.00     0.041 A 
ATOM     76  F   UNL A   1      43.619  27.710  26.379  1.00  0.00    -0.206 F 
ATOM     77  C   UNL A   1      43.201  24.310  25.213  1.00  0.00     0.022 A 
BRANCH  74  78
ATOM     78  S   UNL A   1      42.076  21.998  26.294  1.00  0.00     0.124 S 
ATOM     79  O   UNL A   1      42.462  21.622  27.650  1.00  0.00    -0.237 OA
ATOM     80  O   UNL A   1      40.645  22.007  26.012  1.00  0.00    -0.237 OA
ATOM     81  O   UNL A   1      42.915  21.449  25.231  1.00  0.00    -0.744 OA
ENDBRANCH  74  78
ENDBRANCH  47  71
BRANCH  59  82
ATOM     82  C   UNL A   1      45.486  26.656  33.682  1.00  0.00     0.023 A 
ATOM     83  C   UNL A   1      45.317  25.490  34.449  1.00  0.00     0.031 A 
ATOM     84  C   UNL A   1      46.785  27.175  33.538  1.00  0.00     0.131 A 
ATOM     85  C   UNL A   1      46.422  24.911  35.089  1.00  0.00     0.055 A 
ATOM     86  C   UNL A   1      47.889  26.561  34.130  1.00  0.00     0.041 A 
ATOM     87  F   UNL A   1      47.001  28.286  32.817  1.00  0.00    -0.206 F 
ATOM     88  C   UNL A   1      47.710  25.430  34.922  1.00  0.00     0.022 A 
BRANCH  85  89
ATOM     89  S   UNL A   1      46.144  23.520  36.218  1.00  0.00     0.124 S 
ATOM     90  O   UNL A   1      45.172  22.719  35.480  1.00  0.00    -0.237 OA
ATOM     91  O   UNL A   1      47.481  22.946  36.340  1.00  0.00    -0.237 OA
ATOM     92  O   UNL A   1      45.631  24.157  37.429  1.00  0.00    -0.744 OA
ENDBRANCH  85  89
ENDBRANCH  59  82
ENDBRANCH  33  34
ENDBRANCH  25  28
ENDBRANCH  23  24
ENDBRANCH   1  23
TORSDOF 15
ENDMDL
MODEL 2
REMARK VINA RESULT:     -12.5      1.436      1.741
REMARK SMILES C[C@H]1CCC[C@]1(C(=O)NCCCCNC(=O)c1ccc(-c2c3nc(c(-c4cc(S(=O)(=O)[O-])ccc4F)c4ccc([nH]4)c(-c4cc(S(=O)(=O)[O-])ccc4F)c4nc(c(-c5cc(S(=O)(=O)[O-])ccc5F)c5ccc2[nH]5)C=C4)C=C3)cc1)c1ccc2c(c1)OCO2
REMARK SMILES IDX 12 1 11 2 10 3 9 4 7 5 8 6 6 8 1 9 2 10 3 11 4 12 5 13 80 14
REMARK SMILES IDX 81 15 85 16 82 17 84 18 83 19 86 20 88 21 87 22 13 23 14 24
REMARK SMILES IDX 15 25 16 27 17 28 18 29 79 30 19 31 78 32 20 33 21 34 22 35
REMARK SMILES IDX 72 36 23 37 77 38 71 39 73 40 24 41 76 42 70 43 69 44 25 46
REMARK SMILES IDX 57 47 37 48 56 49 38 50 41 51 55 52 74 53 39 54 40 55 54 57
REMARK SMILES IDX 75 58 42 59 26 60 27 61 35 62 28 63 34 64 36 65 33 66 29 67
REMARK SMILES IDX 30 68 31 69 32 70 58 71 59 72 67 73 60 74 66 75 68 76 65 77
REMARK SMILES IDX 61 78 62 79 63 80 64 81 43 82 44 83 52 84 45 85 51 86 53 87
REMARK SMILES IDX 50 88 46 89 47 90 48 91 49 92
REMARK H PARENT 9 7 14 26 73 45 41 56
REMARK Flexibility Score: inf
ROOT
ATOM      1  C   UNL A   1      31.429  29.456  26.561  1.00  0.00     0.023 C 
ENDROOT
BRANCH   1   2
ATOM      2  C   UNL A   1      31.735  28.008  26.927  1.00  0.00     0.023 C 
BRANCH   2   3
ATOM      3  C   UNL A   1      31.044  26.961  26.059  1.00  0.00     0.116 C 
BRANCH   3   4
ATOM      4  N   UNL A   1      31.037  25.636  26.651  1.00  0.00    -0.355 N 
ATOM      5  C   UNL A   1      31.871  24.557  26.570  1.00  0.00     0.230 C 
ATOM      6  O   UNL A   1      31.682  23.730  27.470  1.00  0.00    -0.274 OA
ATOM      7  H   UNL A   1      30.263  25.480  27.238  1.00  0.00     0.163 HD
BRANCH   5   8
ATOM      8  C   UNL A   1      32.976  24.362  25.465  1.00  0.00     0.077 C 
ATOM      9  C   UNL A   1      31.031  23.633  23.847  1.00  0.00     0.009 C 
ATOM     10  C   UNL A   1      32.421  24.236  24.001  1.00  0.00     0.006 C 
ATOM     11  C   UNL A   1      32.631  25.587  23.331  1.00  0.00     0.005 C 
ATOM     12  C   UNL A   1      33.880  26.149  24.001  1.00  0.00     0.002 C 
ATOM     13  C   UNL A   1      33.882  25.627  25.442  1.00  0.00     0.022 C 
BRANCH   8  14
ATOM     14  C   UNL A   1      33.838  23.053  25.609  1.00  0.00    -0.028 A 
ATOM     15  C   UNL A   1      33.340  21.775  25.243  1.00  0.00     0.009 A 
ATOM     16  C   UNL A   1      35.233  23.164  25.835  1.00  0.00     0.055 A 
ATOM     17  C   UNL A   1      34.183  20.665  25.080  1.00  0.00     0.051 A 
ATOM     18  C   UNL A   1      36.043  22.073  25.608  1.00  0.00     0.166 A 
ATOM     19  C   UNL A   1      35.535  20.857  25.232  1.00  0.00     0.165 A 
ATOM     20  O   UNL A   1      37.404  22.086  25.629  1.00  0.00    -0.454 OA
ATOM     21  O   UNL A   1      36.512  19.948  24.973  1.00  0.00    -0.454 OA
ATOM     22  C   UNL A   1      37.678  20.796  25.046  1.00  0.00     0.468 C 
ENDBRANCH   8  14
ENDBRANCH   5   8
ENDBRANCH   3   4
ENDBRANCH   2   3
ENDBRANCH   1   2
BRANCH   1  23
ATOM     23  C   UNL A   1      32.651  30.324  26.298  1.00  0.00     0.116 C 
BRANCH  23  24
ATOM     24  N   UNL A   1      32.469  31.723  26.660  1.00  0.00    -0.352 N 
ATOM     25  C   UNL A   1      33.307  32.517  27.409  1.00  0.00     0.251 C 
ATOM     26  H   UNL A   1      31.647  32.152  26.328  1.00  0.00     0.163 HD
ATOM     27  O   UNL A   1      32.988  33.658  27.705  1.00  0.00    -0.269 OA
BRANCH  25  28
ATOM     28  C   UNL A   1      34.577  31.930  27.883  1.00  0.00     0.039 A 
ATOM     29  C   UNL A   1      35.668  32.771  28.101  1.00  0.00     0.014 A 
ATOM     30  C   UNL A   1      34.640  30.574  28.212  1.00  0.00     0.014 A 
ATOM     31  C   UNL A   1      36.806  32.262  28.726  1.00  0.00     0.010 A 
ATOM     32  C   UNL A   1      35.739  30.090  28.908  1.00  0.00     0.010 A 
ATOM     33  C   UNL A   1      36.834  30.929  29.172  1.00  0.00    -0.014 A 
BRANCH  33  34
ATOM     34  C   UNL A   1      38.003  30.387  29.907  1.00  0.00     0.031 A 
ATOM     35  C   UNL A   1      38.245  30.807  31.329  1.00  0.00     0.074 A 
ATOM     36  C   UNL A   1      38.876  29.581  29.272  1.00  0.00     0.049 A 
ATOM     37  N   UNL A   1      39.243  30.512  32.121  1.00  0.00    -0.248 NA
ATOM     38  C   UNL A   1      37.251  31.713  31.924  1.00  0.00     0.031 C 
ATOM     39  C   UNL A   1      38.774  29.154  27.874  1.00  0.00     0.029 A 
ATOM     40  N   UNL A   1      40.027  28.980  29.717  1.00  0.00    -0.354 N 
ATOM     41  C   UNL A   1      39.004  31.210  33.301  1.00  0.00     0.074 A 
ATOM     42  C   UNL A   1      37.808  31.996  33.091  1.00  0.00     0.031 C 
ATOM     43  C   UNL A   1      39.803  28.340  27.585  1.00  0.00     0.029 A 
ATOM     44  C   UNL A   1      40.657  28.216  28.762  1.00  0.00     0.049 A 
ATOM     45  H   UNL A   1      40.370  29.087  30.633  1.00  0.00     0.167 HD
ATOM     46  C   UNL A   1      39.704  31.174  34.463  1.00  0.00     0.034 A 
ATOM     47  C   UNL A   1      41.797  27.500  28.830  1.00  0.00     0.034 A 
ATOM     48  C   UNL A   1      40.881  30.365  34.659  1.00  0.00     0.049 A 
ATOM     49  C   UNL A   1      42.553  27.466  30.134  1.00  0.00     0.074 A 
ATOM     50  C   UNL A   1      41.637  30.203  35.806  1.00  0.00     0.029 A 
ATOM     51  N   UNL A   1      41.477  29.582  33.677  1.00  0.00    -0.354 N 
ATOM     52  N   UNL A   1      42.283  28.085  31.260  1.00  0.00    -0.248 NA
ATOM     53  C   UNL A   1      43.756  26.626  30.180  1.00  0.00     0.031 C 
ATOM     54  C   UNL A   1      42.719  29.368  35.504  1.00  0.00     0.029 A 
ATOM     55  C   UNL A   1      42.603  28.953  34.187  1.00  0.00     0.049 A 
ATOM     56  H   UNL A   1      41.149  29.487  32.754  1.00  0.00     0.167 HD
ATOM     57  C   UNL A   1      43.270  27.684  32.158  1.00  0.00     0.074 A 
ATOM     58  C   UNL A   1      44.128  26.760  31.444  1.00  0.00     0.031 C 
ATOM     59  C   UNL A   1      43.450  28.042  33.455  1.00  0.00     0.034 A 
BRANCH  46  60
ATOM     60  C   UNL A   1      39.212  32.049  35.591  1.00  0.00     0.023 A 
ATOM     61  C   UNL A   1      39.607  33.394  35.705  1.00  0.00     0.031 A 
ATOM     62  C   UNL A   1      38.377  31.522  36.591  1.00  0.00     0.131 A 
ATOM     63  C   UNL A   1      39.242  34.138  36.837  1.00  0.00     0.055 A 
ATOM     64  C   UNL A   1      37.945  32.295  37.671  1.00  0.00     0.041 A 
ATOM     65  F   UNL A   1      37.983  30.240  36.548  1.00  0.00    -0.206 F 
ATOM     66  C   UNL A   1      38.392  33.607  37.808  1.00  0.00     0.022 A 
BRANCH  63  67
ATOM     67  S   UNL A   1      40.021  35.756  37.094  1.00  0.00     0.124 S 
ATOM     68  O   UNL A   1      39.339  36.221  38.300  1.00  0.00    -0.237 OA
ATOM     69  O   UNL A   1      41.428  35.408  37.251  1.00  0.00    -0.237 OA
ATOM     70  O   UNL A   1      39.690  36.494  35.876  1.00  0.00    -0.744 OA
ENDBRANCH  63  67
ENDBRANCH  46  60
BRANCH  47  71
ATOM     71  C   UNL A   1      42.295  26.752  27.640  1.00  0.00     0.023 A 
ATOM     72  C   UNL A   1      41.980  25.396  27.457  1.00  0.00     0.031 A 
ATOM     73  C   UNL A   1      43.124  27.372  26.690  1.00  0.00     0.131 A 
ATOM     74  C   UNL A   1      42.531  24.690  26.376  1.00  0.00     0.055 A 
ATOM     75  C   UNL A   1      43.629  26.677  25.588  1.00  0.00     0.041 A 
ATOM     76  F   UNL A   1      43.446  28.669  26.812  1.00  0.00    -0.206 F 
ATOM     77  C   UNL A   1      43.344  25.324  25.435  1.00  0.00     0.022 A 
BRANCH  74  78
ATOM     78  S   UNL A   1      42.229  22.905  26.261  1.00  0.00     0.124 S 
ATOM     79  O   UNL A   1      42.744  22.601  24.930  1.00  0.00    -0.237 OA
ATOM     80  O   UNL A   1      43.008  22.393  27.383  1.00  0.00    -0.237 OA
ATOM     81  O   UNL A   1      40.780  22.795  26.410  1.00  0.00    -0.744 OA
ENDBRANCH  74  78
ENDBRANCH  47  71
BRANCH  59  82
ATOM     82  C   UNL A   1      44.596  27.391  34.188  1.00  0.00     0.023 A 
ATOM     83  C   UNL A   1      44.432  26.186  34.892  1.00  0.00     0.031 A 
ATOM     84  C   UNL A   1      45.865  27.995  34.189  1.00  0.00     0.131 A 
ATOM     85  C   UNL A   1      45.506  25.651  35.617  1.00  0.00     0.055 A 
ATOM     86  C   UNL A   1      46.946  27.427  34.865  1.00  0.00     0.041 A 
ATOM     87  F   UNL A   1      46.075  29.147  33.533  1.00  0.00    -0.206 F 
ATOM     88  C   UNL A   1      46.767  26.255  35.595  1.00  0.00     0.022 A 
BRANCH  85  89
ATOM     89  S   UNL A   1      45.214  24.200  36.665  1.00  0.00     0.124 S 
ATOM     90  O   UNL A   1      44.411  24.764  37.745  1.00  0.00    -0.237 OA
ATOM     91  O   UNL A   1      44.516  23.296  35.757  1.00  0.00    -0.237 OA
ATOM     92  O   UNL A   1      46.559  23.776  37.048  1.00  0.00    -0.744 OA
ENDBRANCH  85  89
ENDBRANCH  59  82
ENDBRANCH  33  34
ENDBRANCH  25  28
ENDBRANCH  23  24
ENDBRANCH   1  23
TORSDOF 15
ENDMDL
MODEL 3
REMARK VINA RESULT:     -12.3      2.064      2.389
REMARK SMILES C[C@H]1CCC[C@]1(C(=O)NCCCCNC(=O)c1ccc(-c2c3nc(c(-c4cc(S(=O)(=O)[O-])ccc4F)c4ccc([nH]4)c(-c4cc(S(=O)(=O)[O-])ccc4F)c4nc(c(-c5cc(S(=O)(=O)[O-])ccc5F)c5ccc2[nH]5)C=C4)C=C3)cc1)c1ccc2c(c1)OCO2
REMARK SMILES IDX 12 1 11 2 10 3 9 4 7 5 8 6 6 8 1 9 2 10 3 11 4 12 5 13 80 14
REMARK SMILES IDX 81 15 85 16 82 17 84 18 83 19 86 20 88 21 87 22 13 23 14 24
REMARK SMILES IDX 15 25 16 27 17 28 18 29 79 30 19 31 78 32 20 33 21 34 22 35
REMARK SMILES IDX 72 36 23 37 77 38 71 39 73 40 24 41 76 42 70 43 69 44 25 46
REMARK SMILES IDX 57 47 37 48 56 49 38 50 41 51 55 52 74 53 39 54 40 55 54 57
REMARK SMILES IDX 75 58 42 59 26 60 27 61 35 62 28 63 34 64 36 65 33 66 29 67
REMARK SMILES IDX 30 68 31 69 32 70 58 71 59 72 67 73 60 74 66 75 68 76 65 77
REMARK SMILES IDX 61 78 62 79 63 80 64 81 43 82 44 83 52 84 45 85 51 86 53 87
REMARK SMILES IDX 50 88 46 89 47 90 48 91 49 92
REMARK H PARENT 9 7 14 26 73 45 41 56
REMARK Flexibility Score: inf
ROOT
ATOM      1  C   UNL A   1      31.814  28.918  25.922  1.00  0.00     0.023 C 
ENDROOT
BRANCH   1   2
ATOM      2  C   UNL A   1      31.421  27.718  26.777  1.00  0.00     0.023 C 
BRANCH   2   3
ATOM      3  C   UNL A   1      30.711  26.595  26.028  1.00  0.00     0.116 C 
BRANCH   3   4
ATOM      4  N   UNL A   1      30.855  25.298  26.663  1.00  0.00    -0.355 N 
ATOM      5  C   UNL A   1      31.823  24.334  26.644  1.00  0.00     0.230 C 
ATOM      6  O   UNL A   1      31.712  23.517  27.564  1.00  0.00    -0.274 OA
ATOM      7  H   UNL A   1      30.088  25.061  27.233  1.00  0.00     0.163 HD
BRANCH   5   8
ATOM      8  C   UNL A   1      32.979  24.251  25.577  1.00  0.00     0.077 C 
ATOM      9  C   UNL A   1      31.132  23.569  23.831  1.00  0.00     0.009 C 
ATOM     10  C   UNL A   1      32.491  24.206  24.085  1.00  0.00     0.006 C 
ATOM     11  C   UNL A   1      32.680  25.605  23.515  1.00  0.00     0.005 C 
ATOM     12  C   UNL A   1      33.879  26.162  24.276  1.00  0.00     0.002 C 
ATOM     13  C   UNL A   1      33.840  25.545  25.678  1.00  0.00     0.022 C 
BRANCH   8  14
ATOM     14  C   UNL A   1      33.882  22.965  25.674  1.00  0.00    -0.028 A 
ATOM     15  C   UNL A   1      33.437  21.694  25.225  1.00  0.00     0.009 A 
ATOM     16  C   UNL A   1      35.266  23.108  25.942  1.00  0.00     0.055 A 
ATOM     17  C   UNL A   1      34.321  20.622  25.024  1.00  0.00     0.051 A 
ATOM     18  C   UNL A   1      36.118  22.059  25.678  1.00  0.00     0.166 A 
ATOM     19  C   UNL A   1      35.661  20.850  25.222  1.00  0.00     0.165 A 
ATOM     20  O   UNL A   1      37.477  22.114  25.736  1.00  0.00    -0.454 OA
ATOM     21  O   UNL A   1      36.675  19.989  24.940  1.00  0.00    -0.454 OA
ATOM     22  C   UNL A   1      37.809  20.869  25.091  1.00  0.00     0.468 C 
ENDBRANCH   8  14
ENDBRANCH   5   8
ENDBRANCH   3   4
ENDBRANCH   2   3
ENDBRANCH   1   2
BRANCH   1  23
ATOM     23  C   UNL A   1      33.058  29.659  26.391  1.00  0.00     0.116 C 
BRANCH  23  24
ATOM     24  N   UNL A   1      32.833  31.071  26.669  1.00  0.00    -0.352 N 
ATOM     25  C   UNL A   1      33.622  31.921  27.412  1.00  0.00     0.251 C 
ATOM     26  H   UNL A   1      32.019  31.464  26.280  1.00  0.00     0.163 HD
ATOM     27  O   UNL A   1      33.267  33.068  27.632  1.00  0.00    -0.269 OA
BRANCH  25  28
ATOM     28  C   UNL A   1      34.880  31.387  27.971  1.00  0.00     0.039 A 
ATOM     29  C   UNL A   1      35.987  32.231  28.066  1.00  0.00     0.014 A 
ATOM     30  C   UNL A   1      34.917  30.093  28.497  1.00  0.00     0.014 A 
ATOM     31  C   UNL A   1      37.115  31.799  28.763  1.00  0.00     0.010 A 
ATOM     32  C   UNL A   1      36.007  29.698  29.260  1.00  0.00     0.010 A 
ATOM     33  C   UNL A   1      37.117  30.545  29.401  1.00  0.00    -0.014 A 
BRANCH  33  34
ATOM     34  C   UNL A   1      38.276  30.097  30.211  1.00  0.00     0.031 A 
ATOM     35  C   UNL A   1      38.467  30.643  31.598  1.00  0.00     0.074 A 
ATOM     36  C   UNL A   1      39.183  29.259  29.673  1.00  0.00     0.049 A 
ATOM     37  N   UNL A   1      39.447  30.441  32.440  1.00  0.00    -0.248 NA
ATOM     38  C   UNL A   1      37.437  31.573  32.085  1.00  0.00     0.031 C 
ATOM     39  C   UNL A   1      39.131  28.712  28.315  1.00  0.00     0.029 A 
ATOM     40  N   UNL A   1      40.333  28.727  30.199  1.00  0.00    -0.354 N 
ATOM     41  C   UNL A   1      39.160  31.232  33.548  1.00  0.00     0.074 A 
ATOM     42  C   UNL A   1      37.954  31.969  33.238  1.00  0.00     0.031 C 
ATOM     43  C   UNL A   1      40.186  27.901  28.126  1.00  0.00     0.029 A 
ATOM     44  C   UNL A   1      41.007  27.899  29.332  1.00  0.00     0.049 A 
ATOM     45  H   UNL A   1      40.647  28.920  31.111  1.00  0.00     0.167 HD
ATOM     46  C   UNL A   1      39.826  31.312  34.727  1.00  0.00     0.034 A 
ATOM     47  C   UNL A   1      42.160  27.218  29.493  1.00  0.00     0.034 A 
ATOM     48  C   UNL A   1      41.014  30.552  35.024  1.00  0.00     0.049 A 
ATOM     49  C   UNL A   1      42.878  27.314  30.814  1.00  0.00     0.074 A 
ATOM     50  C   UNL A   1      41.739  30.507  36.201  1.00  0.00     0.029 A 
ATOM     51  N   UNL A   1      41.655  29.702  34.131  1.00  0.00    -0.354 N 
ATOM     52  N   UNL A   1      42.562  28.021  31.876  1.00  0.00    -0.248 NA
ATOM     53  C   UNL A   1      44.097  26.510  30.966  1.00  0.00     0.031 C 
ATOM     54  C   UNL A   1      42.847  29.675  36.003  1.00  0.00     0.029 A 
ATOM     55  C   UNL A   1      42.778  29.145  34.723  1.00  0.00     0.049 A 
ATOM     56  H   UNL A   1      41.355  29.520  33.210  1.00  0.00     0.167 HD
ATOM     57  C   UNL A   1      43.530  27.722  32.831  1.00  0.00     0.074 A 
ATOM     58  C   UNL A   1      44.428  26.761  32.224  1.00  0.00     0.031 C 
ATOM     59  C   UNL A   1      43.665  28.195  34.096  1.00  0.00     0.034 A 
BRANCH  46  60
ATOM     60  C   UNL A   1      39.283  32.269  35.761  1.00  0.00     0.023 A 
ATOM     61  C   UNL A   1      39.695  33.614  35.808  1.00  0.00     0.031 A 
ATOM     62  C   UNL A   1      38.380  31.824  36.742  1.00  0.00     0.131 A 
ATOM     63  C   UNL A   1      39.276  34.438  36.862  1.00  0.00     0.055 A 
ATOM     64  C   UNL A   1      37.898  32.675  37.739  1.00  0.00     0.041 A 
ATOM     65  F   UNL A   1      37.966  30.547  36.761  1.00  0.00    -0.206 F 
ATOM     66  C   UNL A   1      38.360  33.987  37.814  1.00  0.00     0.022 A 
BRANCH  63  67
ATOM     67  S   UNL A   1      40.066  36.059  37.057  1.00  0.00     0.124 S 
ATOM     68  O   UNL A   1      41.448  35.680  37.343  1.00  0.00    -0.237 OA
ATOM     69  O   UNL A   1      39.830  36.683  35.761  1.00  0.00    -0.237 OA
ATOM     70  O   UNL A   1      39.348  36.658  38.181  1.00  0.00    -0.744 OA
ENDBRANCH  63  67
ENDBRANCH  46  60
BRANCH  47  71
ATOM     71  C   UNL A   1      42.707  26.382  28.386  1.00  0.00     0.023 A 
ATOM     72  C   UNL A   1      43.814  26.810  27.637  1.00  0.00     0.031 A 
ATOM     73  C   UNL A   1      42.106  25.160  28.036  1.00  0.00     0.131 A 
ATOM     74  C   UNL A   1      44.258  26.048  26.545  1.00  0.00     0.055 A 
ATOM     75  C   UNL A   1      42.582  24.381  26.980  1.00  0.00     0.041 A 
ATOM     76  F   UNL A   1      41.051  24.700  28.727  1.00  0.00    -0.206 F 
ATOM     77  C   UNL A   1      43.656  24.832  26.218  1.00  0.00     0.022 A 
BRANCH  74  78
ATOM     78  S   UNL A   1      45.590  26.711  25.507  1.00  0.00     0.124 S 
ATOM     79  O   UNL A   1      46.615  27.018  26.499  1.00  0.00    -0.237 OA
ATOM     80  O   UNL A   1      45.871  25.587  24.622  1.00  0.00    -0.237 OA
ATOM     81  O   UNL A   1      44.976  27.869  24.864  1.00  0.00    -0.744 OA
ENDBRANCH  74  78
ENDBRANCH  47  71
BRANCH  59  82
ATOM     82  C   UNL A   1      44.803  27.637  34.914  1.00  0.00     0.023 A 
ATOM     83  C   UNL A   1      44.685  26.420  35.609  1.00  0.00     0.031 A 
ATOM     84  C   UNL A   1      46.016  28.341  35.006  1.00  0.00     0.131 A 
ATOM     85  C   UNL A   1      45.743  25.972  36.412  1.00  0.00     0.055 A 
ATOM     86  C   UNL A   1      47.087  27.860  35.761  1.00  0.00     0.041 A 
ATOM     87  F   UNL A   1      46.180  29.507  34.362  1.00  0.00    -0.206 F 
ATOM     88  C   UNL A   1      46.949  26.676  36.481  1.00  0.00     0.022 A 
BRANCH  85  89
ATOM     89  S   UNL A   1      45.492  24.500  37.441  1.00  0.00     0.124 S 
ATOM     90  O   UNL A   1      46.856  24.182  37.852  1.00  0.00    -0.237 OA
ATOM     91  O   UNL A   1      44.612  25.001  38.492  1.00  0.00    -0.237 OA
ATOM     92  O   UNL A   1      44.879  23.541  36.526  1.00  0.00    -0.744 OA
ENDBRANCH  85  89
ENDBRANCH  59  82
ENDBRANCH  33  34
ENDBRANCH  25  28
ENDBRANCH  23  24
ENDBRANCH   1  23
TORSDOF 15
ENDMDL
