MODEL 1
REMARK VINA RESULT:     -13.3      0.000      0.000
REMARK SMILES Cc1ccc2[nH]cc([C@@H](C(=O)NCCCCNC(=O)c3ccc(-c4c5nc(c(-c6cc(S(=O)(=O)[O-])ccc6F)c6ccc([nH]6)c(-c6cc(S(=O)(=O)[O-])ccc6F)c6nc(c(-c7cc(S(=O)(=O)[O-])ccc7F)c7ccc4[nH]7)C=C6)C=C5)cc3)[NH+]3CCN(c4ccc(F)cc4)CC3)c2c1
REMARK SMILES IDX 15 1 14 2 13 3 12 4 10 5 11 6 9 8 8 9 1 10 2 11 3 12 97 13
REMARK SMILES IDX 4 14 96 15 5 16 6 17 7 18 83 20 84 21 95 22 85 24 94 25
REMARK SMILES IDX 86 26 87 27 88 28 93 29 89 30 92 31 90 32 91 33 16 34 17 35
REMARK SMILES IDX 18 36 19 38 20 39 21 40 82 41 22 42 81 43 23 44 24 45 25 46
REMARK SMILES IDX 75 47 26 48 80 49 74 50 76 51 27 52 79 53 73 54 72 55 28 57
REMARK SMILES IDX 60 58 40 59 59 60 41 61 44 62 58 63 77 64 42 65 43 66 57 68
REMARK SMILES IDX 78 69 45 70 29 71 30 72 38 73 31 74 37 75 39 76 36 77 32 78
REMARK SMILES IDX 33 79 34 80 35 81 61 82 62 83 70 84 63 85 69 86 71 87 68 88
REMARK SMILES IDX 64 89 65 90 66 91 67 92 46 93 47 94 55 95 48 96 54 97 56 98
REMARK SMILES IDX 53 99 49 100 50 101 51 102 52 103
REMARK H PARENT 12 7 6 19 83 23 17 37 76 56 44 67
REMARK Flexibility Score: inf
ROOT
ATOM      1  C   UNL A   1      32.398  29.638  25.360  1.00  0.00     0.023 C 
ENDROOT
BRANCH   1   2
ATOM      2  C   UNL A   1      33.687  28.852  25.146  1.00  0.00     0.023 C 
BRANCH   2   3
ATOM      3  C   UNL A   1      33.545  27.336  25.269  1.00  0.00     0.116 C 
BRANCH   3   4
ATOM      4  N   UNL A   1      33.784  26.665  24.008  1.00  0.00    -0.351 N 
ATOM      5  C   UNL A   1      33.735  25.324  23.715  1.00  0.00     0.283 C 
ATOM      6  O   UNL A   1      34.023  25.020  22.553  1.00  0.00    -0.268 OA
ATOM      7  H   UNL A   1      34.014  27.254  23.254  1.00  0.00     0.163 HD
BRANCH   5   8
ATOM      8  C   UNL A   1      33.265  24.300  24.806  1.00  0.00     0.307 C 
BRANCH   8   9
ATOM      9  C   UNL A   1      34.087  23.034  24.824  1.00  0.00     0.044 A 
ATOM     10  C   UNL A   1      38.791  24.450  26.312  1.00  0.00     0.044 C 
ATOM     11  C   UNL A   1      37.746  23.433  25.955  1.00  0.00    -0.050 A 
ATOM     12  C   UNL A   1      38.081  22.085  25.810  1.00  0.00     0.005 A 
ATOM     13  C   UNL A   1      36.428  23.852  25.705  1.00  0.00     0.014 A 
ATOM     14  C   UNL A   1      37.140  21.142  25.387  1.00  0.00     0.027 A 
ATOM     15  C   UNL A   1      35.463  22.926  25.245  1.00  0.00     0.009 A 
ATOM     16  C   UNL A   1      35.853  21.597  25.085  1.00  0.00     0.046 A 
ATOM     17  N   UNL A   1      34.775  20.919  24.572  1.00  0.00    -0.361 N 
ATOM     18  C   UNL A   1      33.737  21.781  24.349  1.00  0.00     0.094 A 
ATOM     19  H   UNL A   1      34.751  19.951  24.392  1.00  0.00     0.166 HD
ENDBRANCH   8   9
BRANCH   8  20
ATOM     20  N   UNL A   1      31.801  24.057  24.777  1.00  0.00    -0.318 N 
ATOM     21  C   UNL A   1      30.949  24.776  25.736  1.00  0.00     0.284 C 
ATOM     22  C   UNL A   1      31.192  24.076  23.437  1.00  0.00     0.284 C 
ATOM     23  H   UNL A   1      31.811  23.097  25.121  1.00  0.00     0.349 HD
ATOM     24  C   UNL A   1      30.364  26.137  25.303  1.00  0.00     0.178 C 
ATOM     25  C   UNL A   1      30.696  25.448  22.922  1.00  0.00     0.178 C 
ATOM     26  N   UNL A   1      29.862  26.129  23.923  1.00  0.00    -0.360 N 
BRANCH  26  27
ATOM     27  C   UNL A   1      29.255  27.304  23.476  1.00  0.00     0.037 A 
ATOM     28  C   UNL A   1      27.875  27.536  23.592  1.00  0.00     0.029 A 
ATOM     29  C   UNL A   1      30.049  28.295  22.884  1.00  0.00     0.029 A 
ATOM     30  C   UNL A   1      27.299  28.707  23.094  1.00  0.00     0.041 A 
ATOM     31  C   UNL A   1      29.478  29.465  22.382  1.00  0.00     0.041 A 
ATOM     32  C   UNL A   1      28.107  29.657  22.485  1.00  0.00     0.123 A 
ATOM     33  F   UNL A   1      27.556  30.774  21.992  1.00  0.00    -0.207 F 
ENDBRANCH  26  27
ENDBRANCH   8  20
ENDBRANCH   5   8
ENDBRANCH   3   4
ENDBRANCH   2   3
ENDBRANCH   1   2
BRANCH   1  34
ATOM     34  C   UNL A   1      32.227  30.194  26.762  1.00  0.00     0.116 C 
BRANCH  34  35
ATOM     35  N   UNL A   1      32.197  31.647  26.794  1.00  0.00    -0.352 N 
ATOM     36  C   UNL A   1      33.106  32.509  27.362  1.00  0.00     0.251 C 
ATOM     37  H   UNL A   1      31.425  32.070  26.352  1.00  0.00     0.163 HD
ATOM     38  O   UNL A   1      32.867  33.705  27.422  1.00  0.00    -0.269 OA
BRANCH  36  39
ATOM     39  C   UNL A   1      34.351  31.951  27.933  1.00  0.00     0.039 A 
ATOM     40  C   UNL A   1      35.451  32.792  28.101  1.00  0.00     0.014 A 
ATOM     41  C   UNL A   1      34.408  30.617  28.346  1.00  0.00     0.014 A 
ATOM     42  C   UNL A   1      36.594  32.306  28.736  1.00  0.00     0.010 A 
ATOM     43  C   UNL A   1      35.512  30.161  29.056  1.00  0.00     0.010 A 
ATOM     44  C   UNL A   1      36.621  30.998  29.247  1.00  0.00    -0.014 A 
BRANCH  44  45
ATOM     45  C   UNL A   1      37.816  30.476  29.956  1.00  0.00     0.031 A 
ATOM     46  C   UNL A   1      38.096  30.915  31.367  1.00  0.00     0.074 A 
ATOM     47  C   UNL A   1      38.669  29.656  29.312  1.00  0.00     0.049 A 
ATOM     48  N   UNL A   1      39.109  30.620  32.140  1.00  0.00    -0.248 NA
ATOM     49  C   UNL A   1      37.126  31.838  31.975  1.00  0.00     0.031 C 
ATOM     50  C   UNL A   1      38.527  29.206  27.924  1.00  0.00     0.029 A 
ATOM     51  N   UNL A   1      39.827  29.056  29.736  1.00  0.00    -0.354 N 
ATOM     52  C   UNL A   1      38.905  31.331  33.318  1.00  0.00     0.074 A 
ATOM     53  C   UNL A   1      37.712  32.127  33.126  1.00  0.00     0.031 C 
ATOM     54  C   UNL A   1      39.541  28.379  27.625  1.00  0.00     0.029 A 
ATOM     55  C   UNL A   1      40.426  28.269  28.780  1.00  0.00     0.049 A 
ATOM     56  H   UNL A   1      40.195  29.177  30.641  1.00  0.00     0.167 HD
ATOM     57  C   UNL A   1      39.629  31.300  34.465  1.00  0.00     0.034 A 
ATOM     58  C   UNL A   1      41.562  27.546  28.829  1.00  0.00     0.034 A 
ATOM     59  C   UNL A   1      40.806  30.486  34.642  1.00  0.00     0.049 A 
ATOM     60  C   UNL A   1      42.350  27.524  30.115  1.00  0.00     0.074 A 
ATOM     61  C   UNL A   1      41.589  30.334  35.772  1.00  0.00     0.029 A 
ATOM     62  N   UNL A   1      41.374  29.687  33.656  1.00  0.00    -0.354 N 
ATOM     63  N   UNL A   1      42.114  28.158  31.240  1.00  0.00    -0.248 NA
ATOM     64  C   UNL A   1      43.548  26.676  30.140  1.00  0.00     0.031 C 
ATOM     65  C   UNL A   1      42.662  29.495  35.453  1.00  0.00     0.029 A 
ATOM     66  C   UNL A   1      42.510  29.059  34.146  1.00  0.00     0.049 A 
ATOM     67  H   UNL A   1      41.021  29.581  32.743  1.00  0.00     0.167 HD
ATOM     68  C   UNL A   1      43.116  27.757  32.119  1.00  0.00     0.074 A 
ATOM     69  C   UNL A   1      43.946  26.815  31.396  1.00  0.00     0.031 C 
ATOM     70  C   UNL A   1      43.331  28.129  33.407  1.00  0.00     0.034 A 
BRANCH  57  71
ATOM     71  C   UNL A   1      39.172  32.191  35.597  1.00  0.00     0.023 A 
ATOM     72  C   UNL A   1      39.588  33.530  35.698  1.00  0.00     0.031 A 
ATOM     73  C   UNL A   1      38.338  31.685  36.610  1.00  0.00     0.131 A 
ATOM     74  C   UNL A   1      39.245  34.289  36.826  1.00  0.00     0.055 A 
ATOM     75  C   UNL A   1      37.927  32.473  37.687  1.00  0.00     0.041 A 
ATOM     76  F   UNL A   1      37.925  30.408  36.582  1.00  0.00    -0.206 F 
ATOM     77  C   UNL A   1      38.395  33.778  37.809  1.00  0.00     0.022 A 
BRANCH  74  78
ATOM     78  S   UNL A   1      40.050  35.897  37.066  1.00  0.00     0.124 S 
ATOM     79  O   UNL A   1      39.711  36.583  35.821  1.00  0.00    -0.237 OA
ATOM     80  O   UNL A   1      39.398  36.400  38.271  1.00  0.00    -0.237 OA
ATOM     81  O   UNL A   1      41.463  35.555  37.216  1.00  0.00    -0.744 OA
ENDBRANCH  74  78
ENDBRANCH  57  71
BRANCH  58  82
ATOM     82  C   UNL A   1      42.024  26.778  27.637  1.00  0.00     0.023 A 
ATOM     83  C   UNL A   1      41.957  25.377  27.608  1.00  0.00     0.031 A 
ATOM     84  C   UNL A   1      42.578  27.435  26.523  1.00  0.00     0.131 A 
ATOM     85  C   UNL A   1      42.481  24.673  26.512  1.00  0.00     0.055 A 
ATOM     86  C   UNL A   1      43.050  26.734  25.413  1.00  0.00     0.041 A 
ATOM     87  F   UNL A   1      42.657  28.775  26.495  1.00  0.00    -0.206 F 
ATOM     88  C   UNL A   1      43.017  25.342  25.409  1.00  0.00     0.022 A 
BRANCH  85  89
ATOM     89  S   UNL A   1      42.531  22.861  26.587  1.00  0.00     0.124 S 
ATOM     90  O   UNL A   1      43.869  22.622  27.119  1.00  0.00    -0.237 OA
ATOM     91  O   UNL A   1      41.421  22.566  27.487  1.00  0.00    -0.237 OA
ATOM     92  O   UNL A   1      42.330  22.458  25.197  1.00  0.00    -0.744 OA
ENDBRANCH  85  89
ENDBRANCH  58  82
BRANCH  70  93
ATOM     93  C   UNL A   1      44.484  27.470  34.124  1.00  0.00     0.023 A 
ATOM     94  C   UNL A   1      44.319  26.280  34.855  1.00  0.00     0.031 A 
ATOM     95  C   UNL A   1      45.763  28.054  34.091  1.00  0.00     0.131 A 
ATOM     96  C   UNL A   1      45.397  25.749  35.577  1.00  0.00     0.055 A 
ATOM     97  C   UNL A   1      46.848  27.485  34.759  1.00  0.00     0.041 A 
ATOM     98  F   UNL A   1      45.978  29.190  33.410  1.00  0.00    -0.206 F 
ATOM     99  C   UNL A   1      46.666  26.334  35.520  1.00  0.00     0.022 A 
BRANCH  96 100
ATOM    100  S   UNL A   1      45.097  24.342  36.682  1.00  0.00     0.124 S 
ATOM    101  O   UNL A   1      44.364  23.426  35.813  1.00  0.00    -0.237 OA
ATOM    102  O   UNL A   1      46.451  23.933  37.041  1.00  0.00    -0.237 OA
ATOM    103  O   UNL A   1      44.315  24.922  37.772  1.00  0.00    -0.744 OA
ENDBRANCH  96 100
ENDBRANCH  70  93
ENDBRANCH  44  45
ENDBRANCH  36  39
ENDBRANCH  34  35
ENDBRANCH   1  34
TORSDOF 17
ENDMDL
MODEL 2
REMARK VINA RESULT:     -13.0      2.439      8.692
REMARK SMILES Cc1ccc2[nH]cc([C@@H](C(=O)NCCCCNC(=O)c3ccc(-c4c5nc(c(-c6cc(S(=O)(=O)[O-])ccc6F)c6ccc([nH]6)c(-c6cc(S(=O)(=O)[O-])ccc6F)c6nc(c(-c7cc(S(=O)(=O)[O-])ccc7F)c7ccc4[nH]7)C=C6)C=C5)cc3)[NH+]3CCN(c4ccc(F)cc4)CC3)c2c1
REMARK SMILES IDX 15 1 14 2 13 3 12 4 10 5 11 6 9 8 8 9 1 10 2 11 3 12 97 13
REMARK SMILES IDX 4 14 96 15 5 16 6 17 7 18 83 20 84 21 95 22 85 24 94 25
REMARK SMILES IDX 86 26 87 27 88 28 93 29 89 30 92 31 90 32 91 33 16 34 17 35
REMARK SMILES IDX 18 36 19 38 20 39 21 40 82 41 22 42 81 43 23 44 24 45 25 46
REMARK SMILES IDX 75 47 26 48 80 49 74 50 76 51 27 52 79 53 73 54 72 55 28 57
REMARK SMILES IDX 60 58 40 59 59 60 41 61 44 62 58 63 77 64 42 65 43 66 57 68
REMARK SMILES IDX 78 69 45 70 29 71 30 72 38 73 31 74 37 75 39 76 36 77 32 78
REMARK SMILES IDX 33 79 34 80 35 81 61 82 62 83 70 84 63 85 69 86 71 87 68 88
REMARK SMILES IDX 64 89 65 90 66 91 67 92 46 93 47 94 55 95 48 96 54 97 56 98
REMARK SMILES IDX 53 99 49 100 50 101 51 102 52 103
REMARK H PARENT 12 7 6 19 83 23 17 37 76 56 44 67
REMARK Flexibility Score: inf
ROOT
ATOM      1  C   UNL A   1      31.922  31.275  26.542  1.00  0.00     0.023 C 
ENDROOT
BRANCH   1   2
ATOM      2  C   UNL A   1      31.768  29.831  27.010  1.00  0.00     0.023 C 
BRANCH   2   3
ATOM      3  C   UNL A   1      32.961  28.926  26.706  1.00  0.00     0.116 C 
BRANCH   3   4
ATOM      4  N   UNL A   1      32.623  27.524  26.835  1.00  0.00    -0.351 N 
ATOM      5  C   UNL A   1      32.031  26.685  25.923  1.00  0.00     0.283 C 
ATOM      6  O   UNL A   1      31.821  25.532  26.314  1.00  0.00    -0.268 OA
ATOM      7  H   UNL A   1      32.850  27.113  27.701  1.00  0.00     0.163 HD
BRANCH   5   8
ATOM      8  C   UNL A   1      31.731  27.194  24.471  1.00  0.00     0.307 C 
BRANCH   8   9
ATOM      9  C   UNL A   1      30.262  27.167  24.123  1.00  0.00     0.044 A 
ATOM     10  C   UNL A   1      29.006  32.019  23.016  1.00  0.00     0.044 C 
ATOM     11  C   UNL A   1      28.723  30.547  23.108  1.00  0.00    -0.050 A 
ATOM     12  C   UNL A   1      27.433  30.053  22.901  1.00  0.00     0.005 A 
ATOM     13  C   UNL A   1      29.756  29.664  23.466  1.00  0.00     0.014 A 
ATOM     14  C   UNL A   1      27.135  28.699  23.076  1.00  0.00     0.027 A 
ATOM     15  C   UNL A   1      29.478  28.294  23.680  1.00  0.00     0.009 A 
ATOM     16  C   UNL A   1      28.168  27.853  23.493  1.00  0.00     0.046 A 
ATOM     17  N   UNL A   1      28.140  26.521  23.822  1.00  0.00    -0.361 N 
ATOM     18  C   UNL A   1      29.369  26.117  24.265  1.00  0.00     0.094 A 
ATOM     19  H   UNL A   1      27.349  25.939  23.749  1.00  0.00     0.166 HD
ENDBRANCH   8   9
BRANCH   8  20
ATOM     20  N   UNL A   1      32.594  26.556  23.445  1.00  0.00    -0.318 N 
ATOM     21  C   UNL A   1      33.933  26.093  23.842  1.00  0.00     0.284 C 
ATOM     22  C   UNL A   1      31.928  25.542  22.613  1.00  0.00     0.284 C 
ATOM     23  H   UNL A   1      32.773  27.383  22.877  1.00  0.00     0.349 HD
ATOM     24  C   UNL A   1      34.075  24.640  24.342  1.00  0.00     0.178 C 
ATOM     25  C   UNL A   1      31.952  24.087  23.141  1.00  0.00     0.178 C 
ATOM     26  N   UNL A   1      33.309  23.681  23.536  1.00  0.00    -0.360 N 
BRANCH  26  27
ATOM     27  C   UNL A   1      33.438  22.335  23.881  1.00  0.00     0.037 A 
ATOM     28  C   UNL A   1      32.389  21.412  23.741  1.00  0.00     0.029 A 
ATOM     29  C   UNL A   1      34.661  21.880  24.391  1.00  0.00     0.029 A 
ATOM     30  C   UNL A   1      32.545  20.081  24.137  1.00  0.00     0.041 A 
ATOM     31  C   UNL A   1      34.820  20.552  24.791  1.00  0.00     0.041 A 
ATOM     32  C   UNL A   1      33.758  19.667  24.667  1.00  0.00     0.123 A 
ATOM     33  F   UNL A   1      33.905  18.396  25.063  1.00  0.00    -0.207 F 
ENDBRANCH  26  27
ENDBRANCH   8  20
ENDBRANCH   5   8
ENDBRANCH   3   4
ENDBRANCH   2   3
ENDBRANCH   1   2
BRANCH   1  34
ATOM     34  C   UNL A   1      33.064  32.030  27.198  1.00  0.00     0.116 C 
BRANCH  34  35
ATOM     35  N   UNL A   1      32.743  33.423  27.459  1.00  0.00    -0.352 N 
ATOM     36  C   UNL A   1      33.270  34.257  28.418  1.00  0.00     0.251 C 
ATOM     37  H   UNL A   1      32.059  33.823  26.875  1.00  0.00     0.163 HD
ATOM     38  O   UNL A   1      32.795  35.367  28.598  1.00  0.00    -0.269 OA
BRANCH  36  39
ATOM     39  C   UNL A   1      34.388  33.762  29.250  1.00  0.00     0.039 A 
ATOM     40  C   UNL A   1      34.132  32.782  30.209  1.00  0.00     0.014 A 
ATOM     41  C   UNL A   1      35.689  34.231  29.043  1.00  0.00     0.014 A 
ATOM     42  C   UNL A   1      35.194  32.230  30.925  1.00  0.00     0.010 A 
ATOM     43  C   UNL A   1      36.753  33.618  29.694  1.00  0.00     0.010 A 
ATOM     44  C   UNL A   1      36.515  32.620  30.651  1.00  0.00    -0.014 A 
BRANCH  44  45
ATOM     45  C   UNL A   1      37.660  32.020  31.379  1.00  0.00     0.031 A 
ATOM     46  C   UNL A   1      38.477  30.940  30.723  1.00  0.00     0.074 A 
ATOM     47  C   UNL A   1      37.926  32.407  32.642  1.00  0.00     0.049 A 
ATOM     48  N   UNL A   1      39.479  30.252  31.205  1.00  0.00    -0.248 NA
ATOM     49  C   UNL A   1      38.092  30.561  29.356  1.00  0.00     0.031 C 
ATOM     50  C   UNL A   1      37.167  33.407  33.398  1.00  0.00     0.029 A 
ATOM     51  N   UNL A   1      38.903  32.005  33.516  1.00  0.00    -0.354 N 
ATOM     52  C   UNL A   1      39.833  29.350  30.208  1.00  0.00     0.074 A 
ATOM     53  C   UNL A   1      38.890  29.532  29.124  1.00  0.00     0.031 C 
ATOM     54  C   UNL A   1      37.727  33.560  34.609  1.00  0.00     0.029 A 
ATOM     55  C   UNL A   1      38.857  32.646  34.732  1.00  0.00     0.049 A 
ATOM     56  H   UNL A   1      39.577  31.322  33.292  1.00  0.00     0.167 HD
ATOM     57  C   UNL A   1      40.866  28.472  30.184  1.00  0.00     0.034 A 
ATOM     58  C   UNL A   1      39.635  32.506  35.823  1.00  0.00     0.034 A 
ATOM     59  C   UNL A   1      41.806  28.319  31.267  1.00  0.00     0.049 A 
ATOM     60  C   UNL A   1      40.781  31.526  35.774  1.00  0.00     0.074 A 
ATOM     61  C   UNL A   1      42.921  27.502  31.335  1.00  0.00     0.029 A 
ATOM     62  N   UNL A   1      41.738  28.998  32.478  1.00  0.00    -0.354 N 
ATOM     63  N   UNL A   1      41.138  30.719  34.801  1.00  0.00    -0.248 NA
ATOM     64  C   UNL A   1      41.637  31.451  36.964  1.00  0.00     0.031 C 
ATOM     65  C   UNL A   1      43.489  27.639  32.606  1.00  0.00     0.029 A 
ATOM     66  C   UNL A   1      42.777  28.600  33.307  1.00  0.00     0.049 A 
ATOM     67  H   UNL A   1      41.054  29.665  32.713  1.00  0.00     0.167 HD
ATOM     68  C   UNL A   1      42.282  30.066  35.251  1.00  0.00     0.074 A 
ATOM     69  C   UNL A   1      42.561  30.587  36.573  1.00  0.00     0.031 C 
ATOM     70  C   UNL A   1      43.035  29.124  34.628  1.00  0.00     0.034 A 
BRANCH  57  71
ATOM     71  C   UNL A   1      41.010  27.604  28.955  1.00  0.00     0.023 A 
ATOM     72  C   UNL A   1      42.013  27.838  27.997  1.00  0.00     0.031 A 
ATOM     73  C   UNL A   1      40.110  26.550  28.718  1.00  0.00     0.131 A 
ATOM     74  C   UNL A   1      42.039  27.092  26.811  1.00  0.00     0.055 A 
ATOM     75  C   UNL A   1      40.195  25.752  27.575  1.00  0.00     0.041 A 
ATOM     76  F   UNL A   1      39.118  26.290  29.583  1.00  0.00    -0.206 F 
ATOM     77  C   UNL A   1      41.153  26.032  26.605  1.00  0.00     0.022 A 
BRANCH  74  78
ATOM     78  S   UNL A   1      43.145  27.624  25.476  1.00  0.00     0.124 S 
ATOM     79  O   UNL A   1      44.112  28.441  26.205  1.00  0.00    -0.237 OA
ATOM     80  O   UNL A   1      43.644  26.356  24.954  1.00  0.00    -0.237 OA
ATOM     81  O   UNL A   1      42.265  28.368  24.576  1.00  0.00    -0.744 OA
ENDBRANCH  74  78
ENDBRANCH  57  71
BRANCH  58  82
ATOM     82  C   UNL A   1      39.372  33.311  37.050  1.00  0.00     0.023 A 
ATOM     83  C   UNL A   1      40.010  34.543  37.260  1.00  0.00     0.031 A 
ATOM     84  C   UNL A   1      38.505  32.839  38.053  1.00  0.00     0.131 A 
ATOM     85  C   UNL A   1      39.814  35.239  38.463  1.00  0.00     0.055 A 
ATOM     86  C   UNL A   1      38.273  33.559  39.226  1.00  0.00     0.041 A 
ATOM     87  F   UNL A   1      37.862  31.671  37.900  1.00  0.00    -0.206 F 
ATOM     88  C   UNL A   1      38.941  34.760  39.443  1.00  0.00     0.022 A 
BRANCH  85  89
ATOM     89  S   UNL A   1      40.787  36.740  38.767  1.00  0.00     0.124 S 
ATOM     90  O   UNL A   1      41.514  36.382  39.980  1.00  0.00    -0.237 OA
ATOM     91  O   UNL A   1      41.581  36.836  37.547  1.00  0.00    -0.237 OA
ATOM     92  O   UNL A   1      39.769  37.776  38.930  1.00  0.00    -0.744 OA
ENDBRANCH  85  89
ENDBRANCH  58  82
BRANCH  70  93
ATOM     93  C   UNL A   1      44.264  28.640  35.359  1.00  0.00     0.023 A 
ATOM     94  C   UNL A   1      44.231  27.509  36.195  1.00  0.00     0.031 A 
ATOM     95  C   UNL A   1      45.480  29.334  35.233  1.00  0.00     0.131 A 
ATOM     96  C   UNL A   1      45.374  27.147  36.923  1.00  0.00     0.055 A 
ATOM     97  C   UNL A   1      46.632  28.929  35.909  1.00  0.00     0.041 A 
ATOM     98  F   UNL A   1      45.569  30.420  34.449  1.00  0.00    -0.206 F 
ATOM     99  C   UNL A   1      46.579  27.839  36.772  1.00  0.00     0.022 A 
BRANCH  96 100
ATOM    100  S   UNL A   1      45.237  25.821  38.154  1.00  0.00     0.124 S 
ATOM    101  O   UNL A   1      46.312  24.921  37.751  1.00  0.00    -0.237 OA
ATOM    102  O   UNL A   1      45.443  26.538  39.408  1.00  0.00    -0.237 OA
ATOM    103  O   UNL A   1      43.884  25.303  37.952  1.00  0.00    -0.744 OA
ENDBRANCH  96 100
ENDBRANCH  70  93
ENDBRANCH  44  45
ENDBRANCH  36  39
ENDBRANCH  34  35
ENDBRANCH   1  34
TORSDOF 17
ENDMDL
MODEL 3
REMARK VINA RESULT:     -13.0      4.883     10.167
REMARK SMILES Cc1ccc2[nH]cc([C@@H](C(=O)NCCCCNC(=O)c3ccc(-c4c5nc(c(-c6cc(S(=O)(=O)[O-])ccc6F)c6ccc([nH]6)c(-c6cc(S(=O)(=O)[O-])ccc6F)c6nc(c(-c7cc(S(=O)(=O)[O-])ccc7F)c7ccc4[nH]7)C=C6)C=C5)cc3)[NH+]3CCN(c4ccc(F)cc4)CC3)c2c1
REMARK SMILES IDX 15 1 14 2 13 3 12 4 10 5 11 6 9 8 8 9 1 10 2 11 3 12 97 13
REMARK SMILES IDX 4 14 96 15 5 16 6 17 7 18 83 20 84 21 95 22 85 24 94 25
REMARK SMILES IDX 86 26 87 27 88 28 93 29 89 30 92 31 90 32 91 33 16 34 17 35
REMARK SMILES IDX 18 36 19 38 20 39 21 40 82 41 22 42 81 43 23 44 24 45 25 46
REMARK SMILES IDX 75 47 26 48 80 49 74 50 76 51 27 52 79 53 73 54 72 55 28 57
REMARK SMILES IDX 60 58 40 59 59 60 41 61 44 62 58 63 77 64 42 65 43 66 57 68
REMARK SMILES IDX 78 69 45 70 29 71 30 72 38 73 31 74 37 75 39 76 36 77 32 78
REMARK SMILES IDX 33 79 34 80 35 81 61 82 62 83 70 84 63 85 69 86 71 87 68 88
REMARK SMILES IDX 64 89 65 90 66 91 67 92 46 93 47 94 55 95 48 96 54 97 56 98
REMARK SMILES IDX 53 99 49 100 50 101 51 102 52 103
REMARK H PARENT 12 7 6 19 83 23 17 37 76 56 44 67
REMARK Flexibility Score: inf
ROOT
ATOM      1  C   UNL A   1      36.313  21.877  24.630  1.00  0.00     0.023 C 
ENDROOT
BRANCH   1   2
ATOM      2  C   UNL A   1      34.974  22.587  24.806  1.00  0.00     0.023 C 
BRANCH   2   3
ATOM      3  C   UNL A   1      35.036  23.889  25.604  1.00  0.00     0.116 C 
BRANCH   3   4
ATOM      4  N   UNL A   1      33.964  23.980  26.575  1.00  0.00    -0.351 N 
ATOM      5  C   UNL A   1      32.663  24.381  26.397  1.00  0.00     0.283 C 
ATOM      6  O   UNL A   1      31.965  24.399  27.415  1.00  0.00    -0.268 OA
ATOM      7  H   UNL A   1      34.203  23.717  27.493  1.00  0.00     0.163 HD
BRANCH   5   8
ATOM      8  C   UNL A   1      32.135  24.710  24.957  1.00  0.00     0.307 C 
BRANCH   8   9
ATOM      9  C   UNL A   1      31.661  26.136  24.810  1.00  0.00     0.044 A 
ATOM     10  C   UNL A   1      35.076  29.003  27.354  1.00  0.00     0.044 C 
ATOM     11  C   UNL A   1      33.884  28.812  26.461  1.00  0.00    -0.050 A 
ATOM     12  C   UNL A   1      33.088  29.899  26.089  1.00  0.00     0.005 A 
ATOM     13  C   UNL A   1      33.531  27.518  26.043  1.00  0.00     0.014 A 
ATOM     14  C   UNL A   1      31.923  29.724  25.336  1.00  0.00     0.027 A 
ATOM     15  C   UNL A   1      32.342  27.308  25.307  1.00  0.00     0.009 A 
ATOM     16  C   UNL A   1      31.563  28.419  24.987  1.00  0.00     0.046 A 
ATOM     17  N   UNL A   1      30.444  27.955  24.340  1.00  0.00    -0.361 N 
ATOM     18  C   UNL A   1      30.460  26.589  24.289  1.00  0.00     0.094 A 
ATOM     19  H   UNL A   1      29.734  28.524  23.965  1.00  0.00     0.166 HD
ENDBRANCH   8   9
BRANCH   8  20
ATOM     20  N   UNL A   1      31.162  23.708  24.455  1.00  0.00    -0.318 N 
ATOM     21  C   UNL A   1      31.331  23.184  23.091  1.00  0.00     0.284 C 
ATOM     22  C   UNL A   1      30.857  22.612  25.390  1.00  0.00     0.284 C 
ATOM     23  H   UNL A   1      30.349  24.321  24.389  1.00  0.00     0.349 HD
ATOM     24  C   UNL A   1      32.185  21.911  22.908  1.00  0.00     0.178 C 
ATOM     25  C   UNL A   1      31.766  21.363  25.312  1.00  0.00     0.178 C 
ATOM     26  N   UNL A   1      31.913  20.890  23.927  1.00  0.00    -0.360 N 
BRANCH  26  27
ATOM     27  C   UNL A   1      32.596  19.680  23.792  1.00  0.00     0.037 A 
ATOM     28  C   UNL A   1      33.663  19.315  24.629  1.00  0.00     0.029 A 
ATOM     29  C   UNL A   1      32.207  18.790  22.783  1.00  0.00     0.029 A 
ATOM     30  C   UNL A   1      34.349  18.112  24.436  1.00  0.00     0.041 A 
ATOM     31  C   UNL A   1      32.890  17.590  22.584  1.00  0.00     0.041 A 
ATOM     32  C   UNL A   1      33.959  17.266  23.408  1.00  0.00     0.123 A 
ATOM     33  F   UNL A   1      34.625  16.120  23.210  1.00  0.00    -0.207 F 
ENDBRANCH  26  27
ENDBRANCH   8  20
ENDBRANCH   5   8
ENDBRANCH   3   4
ENDBRANCH   2   3
ENDBRANCH   1   2
BRANCH   1  34
ATOM     34  C   UNL A   1      37.429  22.417  25.506  1.00  0.00     0.116 C 
BRANCH  34  35
ATOM     35  N   UNL A   1      38.442  21.419  25.809  1.00  0.00    -0.352 N 
ATOM     36  C   UNL A   1      39.683  21.603  26.371  1.00  0.00     0.251 C 
ATOM     37  H   UNL A   1      38.209  20.489  25.581  1.00  0.00     0.163 HD
ATOM     38  O   UNL A   1      40.474  20.675  26.436  1.00  0.00    -0.269 OA
BRANCH  36  39
ATOM     39  C   UNL A   1      40.051  22.953  26.851  1.00  0.00     0.039 A 
ATOM     40  C   UNL A   1      40.907  23.068  27.946  1.00  0.00     0.014 A 
ATOM     41  C   UNL A   1      39.590  24.093  26.187  1.00  0.00     0.014 A 
ATOM     42  C   UNL A   1      41.347  24.331  28.342  1.00  0.00     0.010 A 
ATOM     43  C   UNL A   1      40.097  25.341  26.528  1.00  0.00     0.010 A 
ATOM     44  C   UNL A   1      40.972  25.474  27.617  1.00  0.00    -0.014 A 
BRANCH  44  45
ATOM     45  C   UNL A   1      41.457  26.822  28.004  1.00  0.00     0.031 A 
ATOM     46  C   UNL A   1      42.886  27.205  27.733  1.00  0.00     0.074 A 
ATOM     47  C   UNL A   1      40.630  27.672  28.641  1.00  0.00     0.049 A 
ATOM     48  N   UNL A   1      43.520  28.308  28.038  1.00  0.00    -0.248 NA
ATOM     49  C   UNL A   1      43.723  26.199  27.061  1.00  0.00     0.031 C 
ATOM     50  C   UNL A   1      39.238  27.388  29.004  1.00  0.00     0.029 A 
ATOM     51  N   UNL A   1      40.836  28.947  29.103  1.00  0.00    -0.354 N 
ATOM     52  C   UNL A   1      44.830  28.122  27.611  1.00  0.00     0.074 A 
ATOM     53  C   UNL A   1      44.914  26.773  27.091  1.00  0.00     0.031 C 
ATOM     54  C   UNL A   1      38.711  28.468  29.603  1.00  0.00     0.029 A 
ATOM     55  C   UNL A   1      39.732  29.505  29.703  1.00  0.00     0.049 A 
ATOM     56  H   UNL A   1      41.696  29.419  29.011  1.00  0.00     0.167 HD
ATOM     57  C   UNL A   1      45.860  29.004  27.621  1.00  0.00     0.034 A 
ATOM     58  C   UNL A   1      39.565  30.714  30.274  1.00  0.00     0.034 A 
ATOM     59  C   UNL A   1      45.751  30.350  28.127  1.00  0.00     0.049 A 
ATOM     60  C   UNL A   1      40.723  31.681  30.273  1.00  0.00     0.074 A 
ATOM     61  C   UNL A   1      46.709  31.348  28.142  1.00  0.00     0.029 A 
ATOM     62  N   UNL A   1      44.610  30.887  28.712  1.00  0.00    -0.354 N 
ATOM     63  N   UNL A   1      41.942  31.511  29.813  1.00  0.00    -0.248 NA
ATOM     64  C   UNL A   1      40.477  33.006  30.852  1.00  0.00     0.031 C 
ATOM     65  C   UNL A   1      46.171  32.464  28.791  1.00  0.00     0.029 A 
ATOM     66  C   UNL A   1      44.850  32.194  29.113  1.00  0.00     0.049 A 
ATOM     67  H   UNL A   1      43.756  30.411  28.826  1.00  0.00     0.167 HD
ATOM     68  C   UNL A   1      42.597  32.722  30.017  1.00  0.00     0.074 A 
ATOM     69  C   UNL A   1      41.632  33.615  30.626  1.00  0.00     0.031 C 
ATOM     70  C   UNL A   1      43.877  33.067  29.727  1.00  0.00     0.034 A 
BRANCH  57  71
ATOM     71  C   UNL A   1      47.190  28.522  27.090  1.00  0.00     0.023 A 
ATOM     72  C   UNL A   1      47.401  28.300  25.717  1.00  0.00     0.031 A 
ATOM     73  C   UNL A   1      48.252  28.245  27.969  1.00  0.00     0.131 A 
ATOM     74  C   UNL A   1      48.605  27.736  25.273  1.00  0.00     0.055 A 
ATOM     75  C   UNL A   1      49.481  27.766  27.511  1.00  0.00     0.041 A 
ATOM     76  F   UNL A   1      48.106  28.415  29.292  1.00  0.00    -0.206 F 
ATOM     77  C   UNL A   1      49.658  27.492  26.158  1.00  0.00     0.022 A 
BRANCH  74  78
ATOM     78  S   UNL A   1      48.720  27.183  23.550  1.00  0.00     0.124 S 
ATOM     79  O   UNL A   1      50.165  27.210  23.329  1.00  0.00    -0.237 OA
ATOM     80  O   UNL A   1      48.106  25.861  23.600  1.00  0.00    -0.237 OA
ATOM     81  O   UNL A   1      47.966  28.195  22.813  1.00  0.00    -0.744 OA
ENDBRANCH  74  78
ENDBRANCH  57  71
BRANCH  58  82
ATOM     82  C   UNL A   1      38.259  31.089  30.888  1.00  0.00     0.023 A 
ATOM     83  C   UNL A   1      37.261  31.726  30.134  1.00  0.00     0.031 A 
ATOM     84  C   UNL A   1      38.005  30.851  32.250  1.00  0.00     0.131 A 
ATOM     85  C   UNL A   1      36.076  32.150  30.755  1.00  0.00     0.055 A 
ATOM     86  C   UNL A   1      36.803  31.228  32.853  1.00  0.00     0.041 A 
ATOM     87  F   UNL A   1      38.921  30.237  33.015  1.00  0.00    -0.206 F 
ATOM     88  C   UNL A   1      35.835  31.894  32.108  1.00  0.00     0.022 A 
BRANCH  85  89
ATOM     89  S   UNL A   1      34.886  33.119  29.788  1.00  0.00     0.124 S 
ATOM     90  O   UNL A   1      35.755  34.093  29.137  1.00  0.00    -0.237 OA
ATOM     91  O   UNL A   1      34.300  32.100  28.923  1.00  0.00    -0.237 OA
ATOM     92  O   UNL A   1      33.987  33.663  30.803  1.00  0.00    -0.744 OA
ENDBRANCH  85  89
ENDBRANCH  58  82
BRANCH  70  93
ATOM     93  C   UNL A   1      44.283  34.491  30.021  1.00  0.00     0.023 A 
ATOM     94  C   UNL A   1      44.103  35.522  29.082  1.00  0.00     0.031 A 
ATOM     95  C   UNL A   1      44.877  34.815  31.254  1.00  0.00     0.131 A 
ATOM     96  C   UNL A   1      44.574  36.813  29.363  1.00  0.00     0.055 A 
ATOM     97  C   UNL A   1      45.284  36.117  31.554  1.00  0.00     0.041 A 
ATOM     98  F   UNL A   1      45.074  33.872  32.187  1.00  0.00    -0.206 F 
ATOM     99  C   UNL A   1      45.147  37.121  30.600  1.00  0.00     0.022 A 
BRANCH  96 100
ATOM    100  S   UNL A   1      44.524  38.063  28.049  1.00  0.00     0.124 S 
ATOM    101  O   UNL A   1      43.111  38.063  27.685  1.00  0.00    -0.237 OA
ATOM    102  O   UNL A   1      45.006  39.256  28.737  1.00  0.00    -0.237 OA
ATOM    103  O   UNL A   1      45.427  37.527  27.032  1.00  0.00    -0.744 OA
ENDBRANCH  96 100
ENDBRANCH  70  93
ENDBRANCH  44  45
ENDBRANCH  36  39
ENDBRANCH  34  35
ENDBRANCH   1  34
TORSDOF 17
ENDMDL
