MODEL 1
REMARK VINA RESULT:     -11.8      0.000      0.000
REMARK SMILES N#Cc1ccc(/C=C/C(=O)N2C[C@@H](O)C[C@H]2C(=O)NCCCCNC(=O)c2ccc(-c3c4nc(c(-c5cc(S(=O)(=O)[O-])ccc5F)c5ccc([nH]5)c(-c5cc(S(=O)(=O)[O-])ccc5F)c5nc(c(-c6cc(S(=O)(=O)[O-])ccc6F)c6ccc3[nH]6)C=C5)C=C4)cc2)cc1
REMARK SMILES IDX 21 1 20 2 19 3 17 4 18 5 16 7 11 8 12 9 13 10 15 11 9 12
REMARK SMILES IDX 10 13 8 14 7 15 6 16 3 17 4 18 91 19 5 20 90 21 2 22 1 23
REMARK SMILES IDX 14 24 22 26 23 27 24 28 25 29 26 31 27 32 28 33 89 34 29 35
REMARK SMILES IDX 88 36 30 37 31 38 32 39 82 40 33 41 87 42 81 43 83 44 34 45
REMARK SMILES IDX 86 46 80 47 79 48 35 50 67 51 47 52 66 53 48 54 51 55 65 56
REMARK SMILES IDX 84 57 49 58 50 59 64 61 85 62 52 63 36 64 37 65 45 66 38 67
REMARK SMILES IDX 44 68 46 69 43 70 39 71 40 72 41 73 42 74 68 75 69 76 77 77
REMARK SMILES IDX 70 78 76 79 78 80 75 81 71 82 72 83 73 84 74 85 53 86 54 87
REMARK SMILES IDX 62 88 55 89 61 90 63 91 60 92 56 93 57 94 58 95 59 96
REMARK H PARENT 19 6 14 25 24 30 83 49 51 60
REMARK Flexibility Score: inf
ROOT
ATOM      1  C   UNL A   1      31.512  27.958  26.990  1.00  0.00     0.023 C 
ENDROOT
BRANCH   1   2
ATOM      2  C   UNL A   1      31.991  26.603  26.493  1.00  0.00     0.116 C 
BRANCH   2   3
ATOM      3  N   UNL A   1      31.137  25.522  26.922  1.00  0.00    -0.354 N 
ATOM      4  C   UNL A   1      31.151  24.204  26.573  1.00  0.00     0.242 C 
ATOM      5  O   UNL A   1      30.477  23.434  27.266  1.00  0.00    -0.273 OA
ATOM      6  H   UNL A   1      30.435  25.775  27.565  1.00  0.00     0.163 HD
BRANCH   4   7
ATOM      7  C   UNL A   1      32.113  23.648  25.501  1.00  0.00     0.177 C 
ATOM      8  N   UNL A   1      32.265  24.421  24.264  1.00  0.00    -0.324 N 
ATOM      9  C   UNL A   1      33.638  24.852  24.060  1.00  0.00     0.152 C 
ATOM     10  C   UNL A   1      34.463  23.906  24.925  1.00  0.00     0.136 C 
ATOM     11  C   UNL A   1      33.532  23.481  26.061  1.00  0.00     0.069 C 
BRANCH   8  12
ATOM     12  C   UNL A   1      31.218  24.437  23.370  1.00  0.00     0.247 C 
ATOM     13  O   UNL A   1      30.612  23.424  23.031  1.00  0.00    -0.270 OA
BRANCH  12  14
ATOM     14  C   UNL A   1      30.834  25.721  22.737  1.00  0.00     0.072 C 
ATOM     15  C   UNL A   1      29.935  26.517  23.339  1.00  0.00     0.014 C 
BRANCH  15  16
ATOM     16  C   UNL A   1      29.550  27.866  22.916  1.00  0.00    -0.025 A 
ATOM     17  C   UNL A   1      28.786  30.523  22.407  1.00  0.00     0.052 A 
ATOM     18  C   UNL A   1      30.092  30.102  22.143  1.00  0.00     0.020 A 
ATOM     19  C   UNL A   1      27.851  29.608  22.901  1.00  0.00     0.020 A 
ATOM     20  C   UNL A   1      30.473  28.779  22.398  1.00  0.00     0.009 A 
ATOM     21  C   UNL A   1      28.234  28.289  23.157  1.00  0.00     0.009 A 
BRANCH  17  22
ATOM     22  C   UNL A   1      28.411  31.893  22.206  1.00  0.00     0.099 C 
ATOM     23  N   UNL A   1      28.103  33.001  22.063  1.00  0.00    -0.192 NA
ENDBRANCH  17  22
ENDBRANCH  15  16
ENDBRANCH  12  14
ENDBRANCH   8  12
BRANCH  10  24
ATOM     24  O   UNL A   1      35.646  24.515  25.414  1.00  0.00    -0.391 OA
ATOM     25  H   UNL A   1      36.217  23.839  25.811  1.00  0.00     0.211 HD
ENDBRANCH  10  24
ENDBRANCH   4   7
ENDBRANCH   2   3
ENDBRANCH   1   2
BRANCH   1  26
ATOM     26  C   UNL A   1      31.472  29.024  25.898  1.00  0.00     0.023 C 
BRANCH  26  27
ATOM     27  C   UNL A   1      32.690  29.940  25.860  1.00  0.00     0.116 C 
BRANCH  27  28
ATOM     28  N   UNL A   1      32.397  31.293  26.312  1.00  0.00    -0.352 N 
ATOM     29  C   UNL A   1      33.098  32.055  27.218  1.00  0.00     0.251 C 
ATOM     30  H   UNL A   1      31.598  31.716  25.921  1.00  0.00     0.163 HD
ATOM     31  O   UNL A   1      32.635  33.117  27.620  1.00  0.00    -0.269 OA
BRANCH  29  32
ATOM     32  C   UNL A   1      34.391  31.548  27.719  1.00  0.00     0.039 A 
ATOM     33  C   UNL A   1      35.429  32.451  27.954  1.00  0.00     0.014 A 
ATOM     34  C   UNL A   1      34.543  30.193  28.028  1.00  0.00     0.014 A 
ATOM     35  C   UNL A   1      36.599  32.001  28.564  1.00  0.00     0.010 A 
ATOM     36  C   UNL A   1      35.670  29.769  28.720  1.00  0.00     0.010 A 
ATOM     37  C   UNL A   1      36.715  30.667  28.993  1.00  0.00    -0.014 A 
BRANCH  37  38
ATOM     38  C   UNL A   1      37.921  30.193  29.721  1.00  0.00     0.031 A 
ATOM     39  C   UNL A   1      38.180  30.659  31.128  1.00  0.00     0.074 A 
ATOM     40  C   UNL A   1      38.801  29.381  29.102  1.00  0.00     0.049 A 
ATOM     41  N   UNL A   1      39.198  30.404  31.908  1.00  0.00    -0.248 NA
ATOM     42  C   UNL A   1      37.176  31.552  31.724  1.00  0.00     0.031 C 
ATOM     43  C   UNL A   1      38.676  28.889  27.727  1.00  0.00     0.029 A 
ATOM     44  N   UNL A   1      39.979  28.828  29.542  1.00  0.00    -0.354 N 
ATOM     45  C   UNL A   1      38.961  31.107  33.083  1.00  0.00     0.074 A 
ATOM     46  C   UNL A   1      37.739  31.857  32.883  1.00  0.00     0.031 C 
ATOM     47  C   UNL A   1      39.709  28.078  27.454  1.00  0.00     0.029 A 
ATOM     48  C   UNL A   1      40.606  28.039  28.604  1.00  0.00     0.049 A 
ATOM     49  H   UNL A   1      40.339  28.980  30.445  1.00  0.00     0.167 HD
ATOM     50  C   UNL A   1      39.681  31.108  34.231  1.00  0.00     0.034 A 
ATOM     51  C   UNL A   1      41.779  27.377  28.657  1.00  0.00     0.034 A 
ATOM     52  C   UNL A   1      40.897  30.355  34.413  1.00  0.00     0.049 A 
ATOM     53  C   UNL A   1      42.594  27.442  29.925  1.00  0.00     0.074 A 
ATOM     54  C   UNL A   1      41.681  30.250  35.548  1.00  0.00     0.029 A 
ATOM     55  N   UNL A   1      41.517  29.593  33.431  1.00  0.00    -0.354 N 
ATOM     56  N   UNL A   1      42.329  28.075  31.046  1.00  0.00    -0.248 NA
ATOM     57  C   UNL A   1      43.861  26.700  29.939  1.00  0.00     0.031 C 
ATOM     58  C   UNL A   1      42.820  29.506  35.226  1.00  0.00     0.029 A 
ATOM     59  C   UNL A   1      42.696  29.052  33.923  1.00  0.00     0.049 A 
ATOM     60  H   UNL A   1      41.170  29.455  32.520  1.00  0.00     0.167 HD
ATOM     61  C   UNL A   1      43.380  27.772  31.910  1.00  0.00     0.074 A 
ATOM     62  C   UNL A   1      44.271  26.891  31.184  1.00  0.00     0.031 C 
ATOM     63  C   UNL A   1      43.584  28.180  33.189  1.00  0.00     0.034 A 
BRANCH  50  64
ATOM     64  C   UNL A   1      39.187  31.976  35.366  1.00  0.00     0.023 A 
ATOM     65  C   UNL A   1      38.601  31.424  36.519  1.00  0.00     0.031 A 
ATOM     66  C   UNL A   1      39.286  33.376  35.285  1.00  0.00     0.131 A 
ATOM     67  C   UNL A   1      38.069  32.268  37.506  1.00  0.00     0.055 A 
ATOM     68  C   UNL A   1      38.839  34.207  36.315  1.00  0.00     0.041 A 
ATOM     69  F   UNL A   1      39.809  33.963  34.198  1.00  0.00    -0.206 F 
ATOM     70  C   UNL A   1      38.212  33.655  37.427  1.00  0.00     0.022 A 
BRANCH  67  71
ATOM     71  S   UNL A   1      37.045  31.533  38.811  1.00  0.00     0.124 S 
ATOM     72  O   UNL A   1      37.923  31.651  39.974  1.00  0.00    -0.237 OA
ATOM     73  O   UNL A   1      35.867  32.391  38.809  1.00  0.00    -0.237 OA
ATOM     74  O   UNL A   1      36.825  30.166  38.344  1.00  0.00    -0.744 OA
ENDBRANCH  67  71
ENDBRANCH  50  64
BRANCH  51  75
ATOM     75  C   UNL A   1      42.272  26.610  27.474  1.00  0.00     0.023 A 
ATOM     76  C   UNL A   1      41.974  25.247  27.316  1.00  0.00     0.031 A 
ATOM     77  C   UNL A   1      43.099  27.217  26.511  1.00  0.00     0.131 A 
ATOM     78  C   UNL A   1      42.544  24.523  26.257  1.00  0.00     0.055 A 
ATOM     79  C   UNL A   1      43.606  26.510  25.420  1.00  0.00     0.041 A 
ATOM     80  F   UNL A   1      43.420  28.516  26.613  1.00  0.00    -0.206 F 
ATOM     81  C   UNL A   1      43.342  25.149  25.297  1.00  0.00     0.022 A 
BRANCH  78  82
ATOM     82  S   UNL A   1      42.322  22.723  26.216  1.00  0.00     0.124 S 
ATOM     83  O   UNL A   1      40.890  22.597  26.458  1.00  0.00    -0.237 OA
ATOM     84  O   UNL A   1      42.778  22.392  24.871  1.00  0.00    -0.237 OA
ATOM     85  O   UNL A   1      43.183  22.251  27.298  1.00  0.00    -0.744 OA
ENDBRANCH  78  82
ENDBRANCH  51  75
BRANCH  63  86
ATOM     86  C   UNL A   1      44.794  27.629  33.908  1.00  0.00     0.023 A 
ATOM     87  C   UNL A   1      46.031  28.296  33.907  1.00  0.00     0.031 A 
ATOM     88  C   UNL A   1      44.703  26.409  34.605  1.00  0.00     0.131 A 
ATOM     89  C   UNL A   1      47.141  27.711  34.535  1.00  0.00     0.055 A 
ATOM     90  C   UNL A   1      45.790  25.871  35.293  1.00  0.00     0.041 A 
ATOM     91  F   UNL A   1      43.549  25.722  34.633  1.00  0.00    -0.206 F 
ATOM     92  C   UNL A   1      47.023  26.514  35.248  1.00  0.00     0.022 A 
BRANCH  89  93
ATOM     93  S   UNL A   1      48.771  28.472  34.308  1.00  0.00     0.124 S 
ATOM     94  O   UNL A   1      49.143  27.999  32.979  1.00  0.00    -0.237 OA
ATOM     95  O   UNL A   1      48.468  29.896  34.417  1.00  0.00    -0.237 OA
ATOM     96  O   UNL A   1      49.563  27.922  35.407  1.00  0.00    -0.744 OA
ENDBRANCH  89  93
ENDBRANCH  63  86
ENDBRANCH  37  38
ENDBRANCH  29  32
ENDBRANCH  27  28
ENDBRANCH  26  27
ENDBRANCH   1  26
TORSDOF 19
ENDMDL
MODEL 2
REMARK VINA RESULT:     -11.8      2.052      7.786
REMARK SMILES N#Cc1ccc(/C=C/C(=O)N2C[C@@H](O)C[C@H]2C(=O)NCCCCNC(=O)c2ccc(-c3c4nc(c(-c5cc(S(=O)(=O)[O-])ccc5F)c5ccc([nH]5)c(-c5cc(S(=O)(=O)[O-])ccc5F)c5nc(c(-c6cc(S(=O)(=O)[O-])ccc6F)c6ccc3[nH]6)C=C5)C=C4)cc2)cc1
REMARK SMILES IDX 21 1 20 2 19 3 17 4 18 5 16 7 11 8 12 9 13 10 15 11 9 12
REMARK SMILES IDX 10 13 8 14 7 15 6 16 3 17 4 18 91 19 5 20 90 21 2 22 1 23
REMARK SMILES IDX 14 24 22 26 23 27 24 28 25 29 26 31 27 32 28 33 89 34 29 35
REMARK SMILES IDX 88 36 30 37 31 38 32 39 82 40 33 41 87 42 81 43 83 44 34 45
REMARK SMILES IDX 86 46 80 47 79 48 35 50 67 51 47 52 66 53 48 54 51 55 65 56
REMARK SMILES IDX 84 57 49 58 50 59 64 61 85 62 52 63 36 64 37 65 45 66 38 67
REMARK SMILES IDX 44 68 46 69 43 70 39 71 40 72 41 73 42 74 68 75 69 76 77 77
REMARK SMILES IDX 70 78 76 79 78 80 75 81 71 82 72 83 73 84 74 85 53 86 54 87
REMARK SMILES IDX 62 88 55 89 61 90 63 91 60 92 56 93 57 94 58 95 59 96
REMARK H PARENT 19 6 14 25 24 30 83 49 51 60
REMARK Flexibility Score: inf
ROOT
ATOM      1  C   UNL A   1      32.860  29.312  24.353  1.00  0.00     0.023 C 
ENDROOT
BRANCH   1   2
ATOM      2  C   UNL A   1      33.606  28.004  24.566  1.00  0.00     0.116 C 
BRANCH   2   3
ATOM      3  N   UNL A   1      33.869  27.308  23.330  1.00  0.00    -0.354 N 
ATOM      4  C   UNL A   1      33.669  25.999  23.002  1.00  0.00     0.242 C 
ATOM      5  O   UNL A   1      33.740  25.705  21.804  1.00  0.00    -0.273 OA
ATOM      6  H   UNL A   1      34.252  27.863  22.612  1.00  0.00     0.163 HD
BRANCH   4   7
ATOM      7  C   UNL A   1      33.173  24.961  24.032  1.00  0.00     0.177 C 
ATOM      8  N   UNL A   1      31.775  24.528  23.935  1.00  0.00    -0.324 N 
ATOM      9  C   UNL A   1      31.667  23.096  23.702  1.00  0.00     0.152 C 
ATOM     10  C   UNL A   1      33.008  22.536  24.164  1.00  0.00     0.136 C 
ATOM     11  C   UNL A   1      34.009  23.675  23.972  1.00  0.00     0.069 C 
BRANCH   8  12
ATOM     12  C   UNL A   1      30.788  25.415  24.298  1.00  0.00     0.247 C 
ATOM     13  O   UNL A   1      30.126  25.295  25.325  1.00  0.00    -0.270 OA
BRANCH  12  14
ATOM     14  C   UNL A   1      30.462  26.539  23.389  1.00  0.00     0.072 C 
ATOM     15  C   UNL A   1      29.397  27.316  23.645  1.00  0.00     0.014 C 
BRANCH  15  16
ATOM     16  C   UNL A   1      29.020  28.535  22.926  1.00  0.00    -0.025 A 
ATOM     17  C   UNL A   1      28.296  31.017  21.822  1.00  0.00     0.052 A 
ATOM     18  C   UNL A   1      29.564  30.480  21.579  1.00  0.00     0.020 A 
ATOM     19  C   UNL A   1      27.378  30.301  22.595  1.00  0.00     0.020 A 
ATOM     20  C   UNL A   1      29.925  29.245  22.130  1.00  0.00     0.009 A 
ATOM     21  C   UNL A   1      27.741  29.069  23.146  1.00  0.00     0.009 A 
BRANCH  17  22
ATOM     22  C   UNL A   1      27.948  32.312  21.311  1.00  0.00     0.099 C 
ATOM     23  N   UNL A   1      27.665  33.350  20.879  1.00  0.00    -0.192 NA
ENDBRANCH  17  22
ENDBRANCH  15  16
ENDBRANCH  12  14
ENDBRANCH   8  12
BRANCH  10  24
ATOM     24  O   UNL A   1      33.385  21.376  23.443  1.00  0.00    -0.391 OA
ATOM     25  H   UNL A   1      32.597  20.972  23.047  1.00  0.00     0.211 HD
ENDBRANCH  10  24
ENDBRANCH   4   7
ENDBRANCH   2   3
ENDBRANCH   1   2
BRANCH   1  26
ATOM     26  C   UNL A   1      31.754  29.551  25.377  1.00  0.00     0.023 C 
BRANCH  26  27
ATOM     27  C   UNL A   1      32.232  30.126  26.706  1.00  0.00     0.116 C 
BRANCH  27  28
ATOM     28  N   UNL A   1      32.075  31.571  26.790  1.00  0.00    -0.352 N 
ATOM     29  C   UNL A   1      32.917  32.483  27.382  1.00  0.00     0.251 C 
ATOM     30  H   UNL A   1      31.265  31.942  26.370  1.00  0.00     0.163 HD
ATOM     31  O   UNL A   1      32.568  33.651  27.515  1.00  0.00    -0.269 OA
BRANCH  29  32
ATOM     32  C   UNL A   1      34.224  32.016  27.887  1.00  0.00     0.039 A 
ATOM     33  C   UNL A   1      35.260  32.939  28.046  1.00  0.00     0.014 A 
ATOM     34  C   UNL A   1      34.394  30.684  28.272  1.00  0.00     0.014 A 
ATOM     35  C   UNL A   1      36.446  32.535  28.657  1.00  0.00     0.010 A 
ATOM     36  C   UNL A   1      35.539  30.310  28.965  1.00  0.00     0.010 A 
ATOM     37  C   UNL A   1      36.581  31.229  29.162  1.00  0.00    -0.014 A 
BRANCH  37  38
ATOM     38  C   UNL A   1      37.805  30.809  29.893  1.00  0.00     0.031 A 
ATOM     39  C   UNL A   1      38.783  29.869  29.241  1.00  0.00     0.074 A 
ATOM     40  C   UNL A   1      38.012  31.236  31.154  1.00  0.00     0.049 A 
ATOM     41  N   UNL A   1      39.876  29.344  29.731  1.00  0.00    -0.248 NA
ATOM     42  C   UNL A   1      38.474  29.441  27.868  1.00  0.00     0.031 C 
ATOM     43  C   UNL A   1      37.119  32.123  31.905  1.00  0.00     0.029 A 
ATOM     44  N   UNL A   1      39.037  30.983  32.033  1.00  0.00    -0.354 N 
ATOM     45  C   UNL A   1      40.382  28.522  28.730  1.00  0.00     0.074 A 
ATOM     46  C   UNL A   1      39.437  28.563  27.636  1.00  0.00     0.031 C 
ATOM     47  C   UNL A   1      37.654  32.370  33.110  1.00  0.00     0.029 A 
ATOM     48  C   UNL A   1      38.894  31.612  33.249  1.00  0.00     0.049 A 
ATOM     49  H   UNL A   1      39.803  30.406  31.813  1.00  0.00     0.167 HD
ATOM     50  C   UNL A   1      41.541  27.819  28.717  1.00  0.00     0.034 A 
ATOM     51  C   UNL A   1      39.662  31.569  34.356  1.00  0.00     0.034 A 
ATOM     52  C   UNL A   1      42.472  27.790  29.818  1.00  0.00     0.049 A 
ATOM     53  C   UNL A   1      40.916  30.731  34.338  1.00  0.00     0.074 A 
ATOM     54  C   UNL A   1      43.695  27.147  29.892  1.00  0.00     0.029 A 
ATOM     55  N   UNL A   1      42.278  28.415  31.043  1.00  0.00    -0.354 N 
ATOM     56  N   UNL A   1      41.406  29.997  33.364  1.00  0.00    -0.248 NA
ATOM     57  C   UNL A   1      41.725  30.719  35.564  1.00  0.00     0.031 C 
ATOM     58  C   UNL A   1      44.193  27.303  31.189  1.00  0.00     0.029 A 
ATOM     59  C   UNL A   1      43.337  28.135  31.893  1.00  0.00     0.049 A 
ATOM     60  H   UNL A   1      41.503  28.976  31.274  1.00  0.00     0.167 HD
ATOM     61  C   UNL A   1      42.600  29.470  33.850  1.00  0.00     0.074 A 
ATOM     62  C   UNL A   1      42.761  29.981  35.195  1.00  0.00     0.031 C 
ATOM     63  C   UNL A   1      43.486  28.644  33.237  1.00  0.00     0.034 A 
BRANCH  50  64
ATOM     64  C   UNL A   1      41.847  27.000  27.484  1.00  0.00     0.023 A 
ATOM     65  C   UNL A   1      41.577  25.622  27.424  1.00  0.00     0.031 A 
ATOM     66  C   UNL A   1      42.435  27.604  26.358  1.00  0.00     0.131 A 
ATOM     67  C   UNL A   1      41.964  24.881  26.297  1.00  0.00     0.055 A 
ATOM     68  C   UNL A   1      42.731  26.877  25.203  1.00  0.00     0.041 A 
ATOM     69  F   UNL A   1      42.743  28.910  26.364  1.00  0.00    -0.206 F 
ATOM     70  C   UNL A   1      42.510  25.504  25.173  1.00  0.00     0.022 A 
BRANCH  67  71
ATOM     71  S   UNL A   1      41.893  23.070  26.388  1.00  0.00     0.124 S 
ATOM     72  O   UNL A   1      42.688  22.805  27.585  1.00  0.00    -0.237 OA
ATOM     73  O   UNL A   1      40.462  22.816  26.502  1.00  0.00    -0.237 OA
ATOM     74  O   UNL A   1      42.507  22.640  25.133  1.00  0.00    -0.744 OA
ENDBRANCH  67  71
ENDBRANCH  50  64
BRANCH  51  75
ATOM     75  C   UNL A   1      39.267  32.322  35.584  1.00  0.00     0.023 A 
ATOM     76  C   UNL A   1      39.749  33.617  35.829  1.00  0.00     0.031 A 
ATOM     77  C   UNL A   1      38.444  31.731  36.561  1.00  0.00     0.131 A 
ATOM     78  C   UNL A   1      39.454  34.257  37.044  1.00  0.00     0.055 A 
ATOM     79  C   UNL A   1      38.096  32.399  37.737  1.00  0.00     0.041 A 
ATOM     80  F   UNL A   1      37.958  30.493  36.382  1.00  0.00    -0.206 F 
ATOM     81  C   UNL A   1      38.616  33.664  37.990  1.00  0.00     0.022 A 
BRANCH  78  82
ATOM     82  S   UNL A   1      40.279  35.828  37.421  1.00  0.00     0.124 S 
ATOM     83  O   UNL A   1      39.667  36.723  36.447  1.00  0.00    -0.237 OA
ATOM     84  O   UNL A   1      39.902  36.040  38.814  1.00  0.00    -0.237 OA
ATOM     85  O   UNL A   1      41.692  35.531  37.197  1.00  0.00    -0.744 OA
ENDBRANCH  78  82
ENDBRANCH  51  75
BRANCH  63  86
ATOM     86  C   UNL A   1      44.743  28.287  33.997  1.00  0.00     0.023 A 
ATOM     87  C   UNL A   1      44.816  27.159  34.832  1.00  0.00     0.031 A 
ATOM     88  C   UNL A   1      45.888  29.097  33.882  1.00  0.00     0.131 A 
ATOM     89  C   UNL A   1      45.985  26.908  35.567  1.00  0.00     0.055 A 
ATOM     90  C   UNL A   1      47.073  28.798  34.555  1.00  0.00     0.041 A 
ATOM     91  F   UNL A   1      45.876  30.193  33.106  1.00  0.00    -0.206 F 
ATOM     92  C   UNL A   1      47.122  27.706  35.415  1.00  0.00     0.022 A 
BRANCH  89  93
ATOM     93  S   UNL A   1      45.962  25.592  36.814  1.00  0.00     0.124 S 
ATOM     94  O   UNL A   1      44.631  25.024  36.630  1.00  0.00    -0.237 OA
ATOM     95  O   UNL A   1      47.079  24.749  36.398  1.00  0.00    -0.237 OA
ATOM     96  O   UNL A   1      46.163  26.308  38.073  1.00  0.00    -0.744 OA
ENDBRANCH  89  93
ENDBRANCH  63  86
ENDBRANCH  37  38
ENDBRANCH  29  32
ENDBRANCH  27  28
ENDBRANCH  26  27
ENDBRANCH   1  26
TORSDOF 19
ENDMDL
MODEL 3
REMARK VINA RESULT:     -11.7      5.173     10.503
REMARK SMILES N#Cc1ccc(/C=C/C(=O)N2C[C@@H](O)C[C@H]2C(=O)NCCCCNC(=O)c2ccc(-c3c4nc(c(-c5cc(S(=O)(=O)[O-])ccc5F)c5ccc([nH]5)c(-c5cc(S(=O)(=O)[O-])ccc5F)c5nc(c(-c6cc(S(=O)(=O)[O-])ccc6F)c6ccc3[nH]6)C=C5)C=C4)cc2)cc1
REMARK SMILES IDX 21 1 20 2 19 3 17 4 18 5 16 7 11 8 12 9 13 10 15 11 9 12
REMARK SMILES IDX 10 13 8 14 7 15 6 16 3 17 4 18 91 19 5 20 90 21 2 22 1 23
REMARK SMILES IDX 14 24 22 26 23 27 24 28 25 29 26 31 27 32 28 33 89 34 29 35
REMARK SMILES IDX 88 36 30 37 31 38 32 39 82 40 33 41 87 42 81 43 83 44 34 45
REMARK SMILES IDX 86 46 80 47 79 48 35 50 67 51 47 52 66 53 48 54 51 55 65 56
REMARK SMILES IDX 84 57 49 58 50 59 64 61 85 62 52 63 36 64 37 65 45 66 38 67
REMARK SMILES IDX 44 68 46 69 43 70 39 71 40 72 41 73 42 74 68 75 69 76 77 77
REMARK SMILES IDX 70 78 76 79 78 80 75 81 71 82 72 83 73 84 74 85 53 86 54 87
REMARK SMILES IDX 62 88 55 89 61 90 63 91 60 92 56 93 57 94 58 95 59 96
REMARK H PARENT 19 6 14 25 24 30 83 49 51 60
REMARK Flexibility Score: inf
ROOT
ATOM      1  C   UNL A   1      36.417  22.534  23.558  1.00  0.00     0.023 C 
ENDROOT
BRANCH   1   2
ATOM      2  C   UNL A   1      35.893  23.777  24.260  1.00  0.00     0.116 C 
BRANCH   2   3
ATOM      3  N   UNL A   1      35.314  23.483  25.549  1.00  0.00    -0.354 N 
ATOM      4  C   UNL A   1      34.025  23.603  25.978  1.00  0.00     0.242 C 
ATOM      5  O   UNL A   1      33.737  23.051  27.045  1.00  0.00    -0.273 OA
ATOM      6  H   UNL A   1      35.948  23.143  26.222  1.00  0.00     0.163 HD
BRANCH   4   7
ATOM      7  C   UNL A   1      32.918  24.214  25.092  1.00  0.00     0.177 C 
ATOM      8  N   UNL A   1      32.028  23.285  24.387  1.00  0.00    -0.324 N 
ATOM      9  C   UNL A   1      30.639  23.464  24.779  1.00  0.00     0.152 C 
ATOM     10  C   UNL A   1      30.591  24.870  25.366  1.00  0.00     0.136 C 
ATOM     11  C   UNL A   1      31.996  25.131  25.907  1.00  0.00     0.069 C 
BRANCH   8  12
ATOM     12  C   UNL A   1      32.535  22.571  23.325  1.00  0.00     0.247 C 
ATOM     13  O   UNL A   1      32.917  23.100  22.285  1.00  0.00    -0.270 OA
BRANCH  12  14
ATOM     14  C   UNL A   1      32.574  21.091  23.408  1.00  0.00     0.072 C 
ATOM     15  C   UNL A   1      33.367  20.495  24.312  1.00  0.00     0.014 C 
BRANCH  15  16
ATOM     16  C   UNL A   1      33.420  19.061  24.609  1.00  0.00    -0.025 A 
ATOM     17  C   UNL A   1      33.213  16.307  25.132  1.00  0.00     0.052 A 
ATOM     18  C   UNL A   1      33.848  16.759  23.970  1.00  0.00     0.020 A 
ATOM     19  C   UNL A   1      32.706  17.234  26.047  1.00  0.00     0.020 A 
ATOM     20  C   UNL A   1      33.949  18.130  23.710  1.00  0.00     0.009 A 
ATOM     21  C   UNL A   1      32.806  18.602  25.784  1.00  0.00     0.009 A 
BRANCH  17  22
ATOM     22  C   UNL A   1      33.053  14.902  25.369  1.00  0.00     0.099 C 
ATOM     23  N   UNL A   1      32.936  13.762  25.546  1.00  0.00    -0.192 NA
ENDBRANCH  17  22
ENDBRANCH  15  16
ENDBRANCH  12  14
ENDBRANCH   8  12
BRANCH  10  24
ATOM     24  O   UNL A   1      29.605  25.000  26.375  1.00  0.00    -0.391 OA
ATOM     25  H   UNL A   1      29.840  24.438  27.130  1.00  0.00     0.211 HD
ENDBRANCH  10  24
ENDBRANCH   4   7
ENDBRANCH   2   3
ENDBRANCH   1   2
BRANCH   1  26
ATOM     26  C   UNL A   1      36.801  21.412  24.519  1.00  0.00     0.023 C 
BRANCH  26  27
ATOM     27  C   UNL A   1      37.690  21.847  25.680  1.00  0.00     0.116 C 
BRANCH  27  28
ATOM     28  N   UNL A   1      38.764  20.905  25.957  1.00  0.00    -0.352 N 
ATOM     29  C   UNL A   1      40.009  21.167  26.479  1.00  0.00     0.251 C 
ATOM     30  H   UNL A   1      38.577  19.961  25.743  1.00  0.00     0.163 HD
ATOM     31  O   UNL A   1      40.866  20.291  26.502  1.00  0.00    -0.269 OA
BRANCH  29  32
ATOM     32  C   UNL A   1      40.298  22.530  26.971  1.00  0.00     0.039 A 
ATOM     33  C   UNL A   1      41.209  22.696  28.015  1.00  0.00     0.014 A 
ATOM     34  C   UNL A   1      39.724  23.639  26.344  1.00  0.00     0.014 A 
ATOM     35  C   UNL A   1      41.596  23.984  28.384  1.00  0.00     0.010 A 
ATOM     36  C   UNL A   1      40.183  24.915  26.651  1.00  0.00     0.010 A 
ATOM     37  C   UNL A   1      41.121  25.103  27.678  1.00  0.00    -0.014 A 
BRANCH  37  38
ATOM     38  C   UNL A   1      41.589  26.475  28.004  1.00  0.00     0.031 A 
ATOM     39  C   UNL A   1      42.992  26.893  27.653  1.00  0.00     0.074 A 
ATOM     40  C   UNL A   1      40.770  27.327  28.653  1.00  0.00     0.049 A 
ATOM     41  N   UNL A   1      43.604  28.022  27.901  1.00  0.00    -0.248 NA
ATOM     42  C   UNL A   1      43.824  25.899  26.958  1.00  0.00     0.031 C 
ATOM     43  C   UNL A   1      39.400  27.025  29.075  1.00  0.00     0.029 A 
ATOM     44  N   UNL A   1      40.966  28.619  29.075  1.00  0.00    -0.354 N 
ATOM     45  C   UNL A   1      44.891  27.873  27.399  1.00  0.00     0.074 A 
ATOM     46  C   UNL A   1      44.992  26.519  26.898  1.00  0.00     0.031 C 
ATOM     47  C   UNL A   1      38.868  28.111  29.657  1.00  0.00     0.029 A 
ATOM     48  C   UNL A   1      39.875  29.167  29.710  1.00  0.00     0.049 A 
ATOM     49  H   UNL A   1      41.809  29.108  28.934  1.00  0.00     0.167 HD
ATOM     50  C   UNL A   1      45.888  28.789  27.337  1.00  0.00     0.034 A 
ATOM     51  C   UNL A   1      39.709  30.374  30.287  1.00  0.00     0.034 A 
ATOM     52  C   UNL A   1      45.770  30.134  27.841  1.00  0.00     0.049 A 
ATOM     53  C   UNL A   1      40.855  31.356  30.260  1.00  0.00     0.074 A 
ATOM     54  C   UNL A   1      46.702  31.156  27.791  1.00  0.00     0.029 A 
ATOM     55  N   UNL A   1      44.661  30.643  28.505  1.00  0.00    -0.354 N 
ATOM     56  N   UNL A   1      42.051  31.215  29.735  1.00  0.00    -0.248 NA
ATOM     57  C   UNL A   1      40.627  32.660  30.894  1.00  0.00     0.031 C 
ATOM     58  C   UNL A   1      46.196  32.246  28.505  1.00  0.00     0.029 A 
ATOM     59  C   UNL A   1      44.905  31.948  28.907  1.00  0.00     0.049 A 
ATOM     60  H   UNL A   1      43.824  30.151  28.666  1.00  0.00     0.167 HD
ATOM     61  C   UNL A   1      42.702  32.429  29.944  1.00  0.00     0.074 A 
ATOM     62  C   UNL A   1      41.761  33.291  30.628  1.00  0.00     0.031 C 
ATOM     63  C   UNL A   1      43.961  32.799  29.596  1.00  0.00     0.034 A 
BRANCH  50  64
ATOM     64  C   UNL A   1      47.202  28.352  26.730  1.00  0.00     0.023 A 
ATOM     65  C   UNL A   1      47.365  28.208  25.341  1.00  0.00     0.031 A 
ATOM     66  C   UNL A   1      48.303  28.058  27.555  1.00  0.00     0.131 A 
ATOM     67  C   UNL A   1      48.571  27.709  24.826  1.00  0.00     0.055 A 
ATOM     68  C   UNL A   1      49.530  27.652  27.028  1.00  0.00     0.041 A 
ATOM     69  F   UNL A   1      48.201  28.149  28.890  1.00  0.00    -0.206 F 
ATOM     70  C   UNL A   1      49.666  27.460  25.657  1.00  0.00     0.022 A 
BRANCH  67  71
ATOM     71  S   UNL A   1      48.633  27.237  23.076  1.00  0.00     0.124 S 
ATOM     72  O   UNL A   1      47.596  28.094  22.504  1.00  0.00    -0.237 OA
ATOM     73  O   UNL A   1      50.006  27.563  22.709  1.00  0.00    -0.237 OA
ATOM     74  O   UNL A   1      48.310  25.812  23.094  1.00  0.00    -0.744 OA
ENDBRANCH  67  71
ENDBRANCH  50  64
BRANCH  51  75
ATOM     75  C   UNL A   1      38.422  30.724  30.958  1.00  0.00     0.023 A 
ATOM     76  C   UNL A   1      37.400  31.394  30.267  1.00  0.00     0.031 A 
ATOM     77  C   UNL A   1      38.218  30.445  32.322  1.00  0.00     0.131 A 
ATOM     78  C   UNL A   1      36.248  31.812  30.952  1.00  0.00     0.055 A 
ATOM     79  C   UNL A   1      37.041  30.801  32.982  1.00  0.00     0.041 A 
ATOM     80  F   UNL A   1      39.162  29.811  33.035  1.00  0.00    -0.206 F 
ATOM     81  C   UNL A   1      36.053  31.504  32.299  1.00  0.00     0.022 A 
BRANCH  78  82
ATOM     82  S   UNL A   1      35.058  32.871  30.083  1.00  0.00     0.124 S 
ATOM     83  O   UNL A   1      35.927  33.908  29.540  1.00  0.00    -0.237 OA
ATOM     84  O   UNL A   1      34.479  31.945  29.116  1.00  0.00    -0.237 OA
ATOM     85  O   UNL A   1      34.153  33.306  31.145  1.00  0.00    -0.744 OA
ENDBRANCH  78  82
ENDBRANCH  51  75
BRANCH  63  86
ATOM     86  C   UNL A   1      44.375  34.221  29.897  1.00  0.00     0.023 A 
ATOM     87  C   UNL A   1      44.077  35.285  29.030  1.00  0.00     0.031 A 
ATOM     88  C   UNL A   1      45.085  34.511  31.078  1.00  0.00     0.131 A 
ATOM     89  C   UNL A   1      44.540  36.577  29.323  1.00  0.00     0.055 A 
ATOM     90  C   UNL A   1      45.474  35.811  31.403  1.00  0.00     0.041 A 
ATOM     91  F   UNL A   1      45.406  33.534  31.941  1.00  0.00    -0.206 F 
ATOM     92  C   UNL A   1      45.216  36.851  30.516  1.00  0.00     0.022 A 
BRANCH  89  93
ATOM     93  S   UNL A   1      44.351  37.875  28.071  1.00  0.00     0.124 S 
ATOM     94  O   UNL A   1      43.613  38.897  28.804  1.00  0.00    -0.237 OA
ATOM     95  O   UNL A   1      45.737  38.199  27.746  1.00  0.00    -0.237 OA
ATOM     96  O   UNL A   1      43.603  37.215  27.002  1.00  0.00    -0.744 OA
ENDBRANCH  89  93
ENDBRANCH  63  86
ENDBRANCH  37  38
ENDBRANCH  29  32
ENDBRANCH  27  28
ENDBRANCH  26  27
ENDBRANCH   1  26
TORSDOF 19
ENDMDL
