MODEL 1
REMARK VINA RESULT:     -13.4      0.000      0.000
REMARK SMILES Cc1ccc(Oc2cc(C(=O)NCCCCNC(=O)c3ccc(-c4c5nc(c(-c6cc(S(=O)(=O)[O-])ccc6F)c6ccc([nH]6)c(-c6cc(S(=O)(=O)[O-])ccc6F)c6nc(c(-c7cc(S(=O)(=O)[O-])ccc7F)c7ccc4[nH]7)C=C6)C=C5)cc3)nc3ccccc23)cc1
REMARK SMILES IDX 15 1 14 2 13 3 12 4 10 5 11 6 9 8 7 9 8 10 89 11 84 12 88 13
REMARK SMILES IDX 83 14 85 15 87 16 86 17 6 18 5 19 1 20 2 21 3 22 91 23 4 24
REMARK SMILES IDX 90 25 16 26 17 27 18 28 19 30 20 31 21 32 82 33 22 34 81 35
REMARK SMILES IDX 23 36 24 37 25 38 75 39 26 40 80 41 74 42 76 43 27 44 79 45
REMARK SMILES IDX 73 46 72 47 28 49 60 50 40 51 59 52 41 53 44 54 58 55 77 56
REMARK SMILES IDX 42 57 43 58 57 60 78 61 45 62 29 63 30 64 38 65 31 66 37 67
REMARK SMILES IDX 39 68 36 69 32 70 33 71 34 72 35 73 61 74 62 75 70 76 63 77
REMARK SMILES IDX 69 78 71 79 68 80 64 81 65 82 66 83 67 84 46 85 47 86 55 87
REMARK SMILES IDX 48 88 54 89 56 90 53 91 49 92 50 93 51 94 52 95
REMARK H PARENT 12 7 17 29 76 48 44 59
REMARK Flexibility Score: inf
ROOT
ATOM      1  C   UNL A   1      32.941  31.179  27.181  1.00  0.00     0.023 C 
ENDROOT
BRANCH   1   2
ATOM      2  C   UNL A   1      32.146  30.148  26.369  1.00  0.00     0.023 C 
BRANCH   2   3
ATOM      3  C   UNL A   1      32.926  29.498  25.215  1.00  0.00     0.116 C 
BRANCH   3   4
ATOM      4  N   UNL A   1      32.143  29.408  23.984  1.00  0.00    -0.351 N 
ATOM      5  C   UNL A   1      31.660  28.313  23.299  1.00  0.00     0.270 C 
ATOM      6  O   UNL A   1      30.989  28.515  22.284  1.00  0.00    -0.268 OA
ATOM      7  H   UNL A   1      31.924  30.276  23.574  1.00  0.00     0.163 HD
BRANCH   5   8
ATOM      8  C   UNL A   1      31.914  26.901  23.740  1.00  0.00     0.132 A 
ATOM      9  C   UNL A   1      33.167  24.882  23.599  1.00  0.00     0.139 A 
ATOM     10  C   UNL A   1      32.965  26.195  23.180  1.00  0.00     0.082 A 
ATOM     11  C   UNL A   1      32.349  24.307  24.600  1.00  0.00     0.043 A 
ATOM     12  C   UNL A   1      31.292  25.107  25.075  1.00  0.00     0.075 A 
ATOM     13  C   UNL A   1      32.503  23.002  25.128  1.00  0.00     0.014 A 
ATOM     14  N   UNL A   1      31.102  26.370  24.677  1.00  0.00    -0.242 NA
ATOM     15  C   UNL A   1      30.395  24.573  25.987  1.00  0.00     0.029 A 
ATOM     16  C   UNL A   1      31.590  22.485  26.046  1.00  0.00     0.001 A 
ATOM     17  C   UNL A   1      30.524  23.270  26.465  1.00  0.00     0.002 A 
BRANCH   9  18
ATOM     18  O   UNL A   1      34.233  24.224  23.020  1.00  0.00    -0.457 OA
BRANCH  18  19
ATOM     19  C   UNL A   1      35.240  23.740  23.832  1.00  0.00     0.127 A 
ATOM     20  C   UNL A   1      38.608  22.090  25.958  1.00  0.00     0.044 C 
ATOM     21  C   UNL A   1      37.422  22.653  25.234  1.00  0.00    -0.051 A 
ATOM     22  C   UNL A   1      36.956  22.042  24.063  1.00  0.00     0.007 A 
ATOM     23  C   UNL A   1      36.753  23.780  25.723  1.00  0.00     0.007 A 
ATOM     24  C   UNL A   1      35.873  22.585  23.368  1.00  0.00     0.047 A 
ATOM     25  C   UNL A   1      35.658  24.315  25.034  1.00  0.00     0.047 A 
ENDBRANCH  18  19
ENDBRANCH   9  18
ENDBRANCH   5   8
ENDBRANCH   3   4
ENDBRANCH   2   3
ENDBRANCH   1   2
BRANCH   1  26
ATOM     26  C   UNL A   1      34.302  30.681  27.663  1.00  0.00     0.116 C 
BRANCH  26  27
ATOM     27  N   UNL A   1      35.024  31.572  28.561  1.00  0.00    -0.352 N 
ATOM     28  C   UNL A   1      36.149  31.301  29.329  1.00  0.00     0.251 C 
ATOM     29  H   UNL A   1      34.669  32.487  28.631  1.00  0.00     0.163 HD
ATOM     30  O   UNL A   1      36.563  32.105  30.150  1.00  0.00    -0.269 OA
BRANCH  28  31
ATOM     31  C   UNL A   1      36.922  30.059  29.062  1.00  0.00     0.039 A 
ATOM     32  C   UNL A   1      37.078  29.153  30.120  1.00  0.00     0.014 A 
ATOM     33  C   UNL A   1      37.664  29.905  27.896  1.00  0.00     0.014 A 
ATOM     34  C   UNL A   1      38.149  28.261  30.107  1.00  0.00     0.010 A 
ATOM     35  C   UNL A   1      38.785  29.099  27.925  1.00  0.00     0.010 A 
ATOM     36  C   UNL A   1      39.067  28.330  29.062  1.00  0.00    -0.014 A 
BRANCH  36  37
ATOM     37  C   UNL A   1      40.417  27.778  29.139  1.00  0.00     0.031 A 
ATOM     38  C   UNL A   1      40.704  26.390  28.727  1.00  0.00     0.074 A 
ATOM     39  C   UNL A   1      41.441  28.594  29.473  1.00  0.00     0.049 A 
ATOM     40  N   UNL A   1      41.770  25.736  29.045  1.00  0.00    -0.248 NA
ATOM     41  C   UNL A   1      39.765  25.605  27.941  1.00  0.00     0.031 C 
ATOM     42  C   UNL A   1      42.870  28.349  29.302  1.00  0.00     0.029 A 
ATOM     43  N   UNL A   1      41.379  29.727  30.283  1.00  0.00    -0.354 N 
ATOM     44  C   UNL A   1      41.809  24.596  28.277  1.00  0.00     0.074 A 
ATOM     45  C   UNL A   1      40.499  24.523  27.673  1.00  0.00     0.031 C 
ATOM     46  C   UNL A   1      43.546  29.107  30.178  1.00  0.00     0.029 A 
ATOM     47  C   UNL A   1      42.570  29.748  31.038  1.00  0.00     0.049 A 
ATOM     48  H   UNL A   1      40.646  30.383  30.321  1.00  0.00     0.167 HD
ATOM     49  C   UNL A   1      42.992  23.927  28.137  1.00  0.00     0.034 A 
ATOM     50  C   UNL A   1      42.519  29.639  32.399  1.00  0.00     0.034 A 
ATOM     51  C   UNL A   1      44.034  24.473  29.017  1.00  0.00     0.049 A 
ATOM     52  C   UNL A   1      43.190  28.393  32.950  1.00  0.00     0.074 A 
ATOM     53  C   UNL A   1      45.150  25.272  28.832  1.00  0.00     0.029 A 
ATOM     54  N   UNL A   1      43.847  24.401  30.387  1.00  0.00    -0.354 N 
ATOM     55  N   UNL A   1      43.762  27.473  32.222  1.00  0.00    -0.248 NA
ATOM     56  C   UNL A   1      43.188  28.048  34.372  1.00  0.00     0.031 C 
ATOM     57  C   UNL A   1      45.600  25.712  30.115  1.00  0.00     0.029 A 
ATOM     58  C   UNL A   1      44.772  25.162  31.076  1.00  0.00     0.049 A 
ATOM     59  H   UNL A   1      43.139  23.871  30.819  1.00  0.00     0.167 HD
ATOM     60  C   UNL A   1      44.125  26.418  33.018  1.00  0.00     0.074 A 
ATOM     61  C   UNL A   1      43.753  26.830  34.360  1.00  0.00     0.031 C 
ATOM     62  C   UNL A   1      44.657  25.260  32.524  1.00  0.00     0.034 A 
BRANCH  49  63
ATOM     63  C   UNL A   1      43.286  22.943  27.020  1.00  0.00     0.023 A 
ATOM     64  C   UNL A   1      42.728  21.648  27.083  1.00  0.00     0.031 A 
ATOM     65  C   UNL A   1      44.130  23.171  25.915  1.00  0.00     0.131 A 
ATOM     66  C   UNL A   1      43.092  20.640  26.169  1.00  0.00     0.055 A 
ATOM     67  C   UNL A   1      44.544  22.154  25.043  1.00  0.00     0.041 A 
ATOM     68  F   UNL A   1      44.542  24.397  25.577  1.00  0.00    -0.206 F 
ATOM     69  C   UNL A   1      44.036  20.874  25.175  1.00  0.00     0.022 A 
BRANCH  66  70
ATOM     70  S   UNL A   1      42.307  19.011  26.290  1.00  0.00     0.124 S 
ATOM     71  O   UNL A   1      43.175  18.185  25.457  1.00  0.00    -0.237 OA
ATOM     72  O   UNL A   1      42.352  18.755  27.726  1.00  0.00    -0.237 OA
ATOM     73  O   UNL A   1      40.967  19.239  25.748  1.00  0.00    -0.744 OA
ENDBRANCH  66  70
ENDBRANCH  49  63
BRANCH  50  74
ATOM     74  C   UNL A   1      41.322  30.321  32.974  1.00  0.00     0.023 A 
ATOM     75  C   UNL A   1      41.341  31.734  33.000  1.00  0.00     0.031 A 
ATOM     76  C   UNL A   1      40.082  29.681  33.090  1.00  0.00     0.131 A 
ATOM     77  C   UNL A   1      40.142  32.459  32.961  1.00  0.00     0.055 A 
ATOM     78  C   UNL A   1      38.888  30.411  33.128  1.00  0.00     0.041 A 
ATOM     79  F   UNL A   1      39.992  28.343  33.031  1.00  0.00    -0.206 F 
ATOM     80  C   UNL A   1      38.911  31.802  33.014  1.00  0.00     0.022 A 
BRANCH  77  81
ATOM     81  S   UNL A   1      40.201  34.232  32.553  1.00  0.00     0.124 S 
ATOM     82  O   UNL A   1      40.876  34.789  33.721  1.00  0.00    -0.237 OA
ATOM     83  O   UNL A   1      40.962  34.260  31.306  1.00  0.00    -0.237 OA
ATOM     84  O   UNL A   1      38.793  34.592  32.406  1.00  0.00    -0.744 OA
ENDBRANCH  77  81
ENDBRANCH  50  74
BRANCH  62  85
ATOM     85  C   UNL A   1      45.080  24.111  33.404  1.00  0.00     0.023 A 
ATOM     86  C   UNL A   1      46.400  23.981  33.866  1.00  0.00     0.031 A 
ATOM     87  C   UNL A   1      44.191  23.070  33.750  1.00  0.00     0.131 A 
ATOM     88  C   UNL A   1      46.769  22.909  34.698  1.00  0.00     0.055 A 
ATOM     89  C   UNL A   1      44.585  21.958  34.501  1.00  0.00     0.041 A 
ATOM     90  F   UNL A   1      42.894  23.108  33.413  1.00  0.00    -0.206 F 
ATOM     91  C   UNL A   1      45.878  21.879  34.993  1.00  0.00     0.022 A 
BRANCH  88  92
ATOM     92  S   UNL A   1      48.412  22.928  35.459  1.00  0.00     0.124 S 
ATOM     93  O   UNL A   1      48.604  24.340  35.771  1.00  0.00    -0.237 OA
ATOM     94  O   UNL A   1      48.215  22.045  36.606  1.00  0.00    -0.237 OA
ATOM     95  O   UNL A   1      49.285  22.398  34.413  1.00  0.00    -0.744 OA
ENDBRANCH  88  92
ENDBRANCH  62  85
ENDBRANCH  36  37
ENDBRANCH  28  31
ENDBRANCH  26  27
ENDBRANCH   1  26
TORSDOF 16
ENDMDL
MODEL 2
REMARK VINA RESULT:     -13.3      4.036     10.514
REMARK SMILES Cc1ccc(Oc2cc(C(=O)NCCCCNC(=O)c3ccc(-c4c5nc(c(-c6cc(S(=O)(=O)[O-])ccc6F)c6ccc([nH]6)c(-c6cc(S(=O)(=O)[O-])ccc6F)c6nc(c(-c7cc(S(=O)(=O)[O-])ccc7F)c7ccc4[nH]7)C=C6)C=C5)cc3)nc3ccccc23)cc1
REMARK SMILES IDX 15 1 14 2 13 3 12 4 10 5 11 6 9 8 7 9 8 10 89 11 84 12 88 13
REMARK SMILES IDX 83 14 85 15 87 16 86 17 6 18 5 19 1 20 2 21 3 22 91 23 4 24
REMARK SMILES IDX 90 25 16 26 17 27 18 28 19 30 20 31 21 32 82 33 22 34 81 35
REMARK SMILES IDX 23 36 24 37 25 38 75 39 26 40 80 41 74 42 76 43 27 44 79 45
REMARK SMILES IDX 73 46 72 47 28 49 60 50 40 51 59 52 41 53 44 54 58 55 77 56
REMARK SMILES IDX 42 57 43 58 57 60 78 61 45 62 29 63 30 64 38 65 31 66 37 67
REMARK SMILES IDX 39 68 36 69 32 70 33 71 34 72 35 73 61 74 62 75 70 76 63 77
REMARK SMILES IDX 69 78 71 79 68 80 64 81 65 82 66 83 67 84 46 85 47 86 55 87
REMARK SMILES IDX 48 88 54 89 56 90 53 91 49 92 50 93 51 94 52 95
REMARK H PARENT 12 7 17 29 76 48 44 59
REMARK Flexibility Score: inf
ROOT
ATOM      1  C   UNL A   1      38.192  21.495  25.564  1.00  0.00     0.023 C 
ENDROOT
BRANCH   1   2
ATOM      2  C   UNL A   1      37.077  21.612  24.516  1.00  0.00     0.023 C 
BRANCH   2   3
ATOM      3  C   UNL A   1      35.806  20.810  24.838  1.00  0.00     0.116 C 
BRANCH   3   4
ATOM      4  N   UNL A   1      35.331  21.029  26.203  1.00  0.00    -0.351 N 
ATOM      5  C   UNL A   1      34.432  21.944  26.710  1.00  0.00     0.270 C 
ATOM      6  O   UNL A   1      34.177  21.897  27.916  1.00  0.00    -0.268 OA
ATOM      7  H   UNL A   1      35.719  20.421  26.874  1.00  0.00     0.163 HD
BRANCH   5   8
ATOM      8  C   UNL A   1      33.757  22.979  25.858  1.00  0.00     0.132 A 
ATOM      9  C   UNL A   1      32.403  24.924  25.649  1.00  0.00     0.139 A 
ATOM     10  C   UNL A   1      33.030  23.987  26.467  1.00  0.00     0.082 A 
ATOM     11  C   UNL A   1      32.546  24.871  24.242  1.00  0.00     0.043 A 
ATOM     12  C   UNL A   1      33.284  23.785  23.734  1.00  0.00     0.075 A 
ATOM     13  C   UNL A   1      31.993  25.802  23.331  1.00  0.00     0.014 A 
ATOM     14  N   UNL A   1      33.890  22.888  24.520  1.00  0.00    -0.242 NA
ATOM     15  C   UNL A   1      33.384  23.617  22.361  1.00  0.00     0.029 A 
ATOM     16  C   UNL A   1      32.107  25.616  21.954  1.00  0.00     0.001 A 
ATOM     17  C   UNL A   1      32.793  24.511  21.469  1.00  0.00     0.002 A 
BRANCH   9  18
ATOM     18  O   UNL A   1      31.699  25.915  26.302  1.00  0.00    -0.457 OA
BRANCH  18  19
ATOM     19  C   UNL A   1      32.299  27.143  26.499  1.00  0.00     0.127 A 
ATOM     20  C   UNL A   1      33.864  31.039  27.480  1.00  0.00     0.044 C 
ATOM     21  C   UNL A   1      33.319  29.690  27.115  1.00  0.00    -0.051 A 
ATOM     22  C   UNL A   1      31.952  29.422  27.252  1.00  0.00     0.007 A 
ATOM     23  C   UNL A   1      34.160  28.689  26.617  1.00  0.00     0.007 A 
ATOM     24  C   UNL A   1      31.448  28.156  26.947  1.00  0.00     0.047 A 
ATOM     25  C   UNL A   1      33.652  27.425  26.298  1.00  0.00     0.047 A 
ENDBRANCH  18  19
ENDBRANCH   9  18
ENDBRANCH   5   8
ENDBRANCH   3   4
ENDBRANCH   2   3
ENDBRANCH   1   2
BRANCH   1  26
ATOM     26  C   UNL A   1      38.723  22.836  26.066  1.00  0.00     0.116 C 
BRANCH  26  27
ATOM     27  N   UNL A   1      40.117  22.852  26.486  1.00  0.00    -0.352 N 
ATOM     28  C   UNL A   1      40.898  23.939  26.856  1.00  0.00     0.251 C 
ATOM     29  H   UNL A   1      40.565  21.975  26.513  1.00  0.00     0.163 HD
ATOM     30  O   UNL A   1      42.099  23.820  27.046  1.00  0.00    -0.269 OA
BRANCH  28  31
ATOM     31  C   UNL A   1      40.235  25.241  27.132  1.00  0.00     0.039 A 
ATOM     32  C   UNL A   1      40.637  26.347  26.372  1.00  0.00     0.014 A 
ATOM     33  C   UNL A   1      39.428  25.419  28.252  1.00  0.00     0.014 A 
ATOM     34  C   UNL A   1      40.447  27.632  26.877  1.00  0.00     0.010 A 
ATOM     35  C   UNL A   1      39.331  26.681  28.805  1.00  0.00     0.010 A 
ATOM     36  C   UNL A   1      39.905  27.779  28.152  1.00  0.00    -0.014 A 
BRANCH  36  37
ATOM     37  C   UNL A   1      40.046  28.994  28.951  1.00  0.00     0.031 A 
ATOM     38  C   UNL A   1      39.010  30.044  28.942  1.00  0.00     0.074 A 
ATOM     39  C   UNL A   1      41.084  29.096  29.811  1.00  0.00     0.049 A 
ATOM     40  N   UNL A   1      39.187  31.253  29.356  1.00  0.00    -0.248 NA
ATOM     41  C   UNL A   1      37.675  29.812  28.410  1.00  0.00     0.031 C 
ATOM     42  C   UNL A   1      41.241  30.043  30.911  1.00  0.00     0.029 A 
ATOM     43  N   UNL A   1      42.338  28.501  29.684  1.00  0.00    -0.354 N 
ATOM     44  C   UNL A   1      37.953  31.854  29.441  1.00  0.00     0.074 A 
ATOM     45  C   UNL A   1      37.061  30.944  28.760  1.00  0.00     0.031 C 
ATOM     46  C   UNL A   1      42.548  30.174  31.183  1.00  0.00     0.029 A 
ATOM     47  C   UNL A   1      43.277  29.433  30.171  1.00  0.00     0.049 A 
ATOM     48  H   UNL A   1      42.530  27.605  29.323  1.00  0.00     0.167 HD
ATOM     49  C   UNL A   1      37.811  32.984  30.196  1.00  0.00     0.034 A 
ATOM     50  C   UNL A   1      44.222  29.954  29.334  1.00  0.00     0.034 A 
ATOM     51  C   UNL A   1      39.107  33.485  30.674  1.00  0.00     0.049 A 
ATOM     52  C   UNL A   1      44.109  31.454  29.123  1.00  0.00     0.074 A 
ATOM     53  C   UNL A   1      39.773  33.473  31.889  1.00  0.00     0.029 A 
ATOM     54  N   UNL A   1      40.040  33.903  29.740  1.00  0.00    -0.354 N 
ATOM     55  N   UNL A   1      43.195  32.214  29.661  1.00  0.00    -0.248 NA
ATOM     56  C   UNL A   1      44.977  32.199  28.210  1.00  0.00     0.031 C 
ATOM     57  C   UNL A   1      41.131  33.850  31.657  1.00  0.00     0.029 A 
ATOM     58  C   UNL A   1      41.282  34.112  30.308  1.00  0.00     0.049 A 
ATOM     59  H   UNL A   1      39.841  34.036  28.785  1.00  0.00     0.167 HD
ATOM     60  C   UNL A   1      43.285  33.479  29.142  1.00  0.00     0.074 A 
ATOM     61  C   UNL A   1      44.425  33.423  28.243  1.00  0.00     0.031 C 
ATOM     62  C   UNL A   1      42.395  34.472  29.441  1.00  0.00     0.034 A 
BRANCH  49  63
ATOM     63  C   UNL A   1      36.483  33.496  30.720  1.00  0.00     0.023 A 
ATOM     64  C   UNL A   1      35.596  34.138  29.830  1.00  0.00     0.031 A 
ATOM     65  C   UNL A   1      36.045  33.447  32.059  1.00  0.00     0.131 A 
ATOM     66  C   UNL A   1      34.427  34.779  30.284  1.00  0.00     0.055 A 
ATOM     67  C   UNL A   1      34.918  34.138  32.524  1.00  0.00     0.041 A 
ATOM     68  F   UNL A   1      36.642  32.674  32.973  1.00  0.00    -0.206 F 
ATOM     69  C   UNL A   1      34.106  34.823  31.637  1.00  0.00     0.022 A 
BRANCH  66  70
ATOM     70  S   UNL A   1      33.318  35.554  29.077  1.00  0.00     0.124 S 
ATOM     71  O   UNL A   1      32.493  36.413  29.920  1.00  0.00    -0.237 OA
ATOM     72  O   UNL A   1      34.256  36.228  28.187  1.00  0.00    -0.237 OA
ATOM     73  O   UNL A   1      32.615  34.416  28.483  1.00  0.00    -0.744 OA
ENDBRANCH  66  70
ENDBRANCH  49  63
BRANCH  50  74
ATOM     74  C   UNL A   1      44.694  28.958  28.328  1.00  0.00     0.023 A 
ATOM     75  C   UNL A   1      45.551  27.934  28.793  1.00  0.00     0.031 A 
ATOM     76  C   UNL A   1      44.030  28.752  27.111  1.00  0.00     0.131 A 
ATOM     77  C   UNL A   1      45.587  26.692  28.145  1.00  0.00     0.055 A 
ATOM     78  C   UNL A   1      44.129  27.535  26.426  1.00  0.00     0.041 A 
ATOM     79  F   UNL A   1      43.171  29.667  26.636  1.00  0.00    -0.206 F 
ATOM     80  C   UNL A   1      44.869  26.483  26.967  1.00  0.00     0.022 A 
BRANCH  77  81
ATOM     81  S   UNL A   1      46.343  25.276  29.004  1.00  0.00     0.124 S 
ATOM     82  O   UNL A   1      45.690  25.329  30.308  1.00  0.00    -0.237 OA
ATOM     83  O   UNL A   1      45.981  24.142  28.157  1.00  0.00    -0.237 OA
ATOM     84  O   UNL A   1      47.768  25.599  28.997  1.00  0.00    -0.744 OA
ENDBRANCH  77  81
ENDBRANCH  50  74
BRANCH  62  85
ATOM     85  C   UNL A   1      42.511  35.871  28.889  1.00  0.00     0.023 A 
ATOM     86  C   UNL A   1      43.065  36.919  29.643  1.00  0.00     0.031 A 
ATOM     87  C   UNL A   1      42.007  36.215  27.616  1.00  0.00     0.131 A 
ATOM     88  C   UNL A   1      43.176  38.213  29.103  1.00  0.00     0.055 A 
ATOM     89  C   UNL A   1      42.037  37.521  27.118  1.00  0.00     0.041 A 
ATOM     90  F   UNL A   1      41.505  35.293  26.783  1.00  0.00    -0.206 F 
ATOM     91  C   UNL A   1      42.638  38.528  27.857  1.00  0.00     0.022 A 
BRANCH  88  92
ATOM     92  S   UNL A   1      44.117  39.458  30.022  1.00  0.00     0.124 S 
ATOM     93  O   UNL A   1      43.255  40.632  29.946  1.00  0.00    -0.237 OA
ATOM     94  O   UNL A   1      44.223  38.832  31.338  1.00  0.00    -0.237 OA
ATOM     95  O   UNL A   1      45.373  39.558  29.283  1.00  0.00    -0.744 OA
ENDBRANCH  88  92
ENDBRANCH  62  85
ENDBRANCH  36  37
ENDBRANCH  28  31
ENDBRANCH  26  27
ENDBRANCH   1  26
TORSDOF 16
ENDMDL
MODEL 3
REMARK VINA RESULT:     -13.1      1.491      2.506
REMARK SMILES Cc1ccc(Oc2cc(C(=O)NCCCCNC(=O)c3ccc(-c4c5nc(c(-c6cc(S(=O)(=O)[O-])ccc6F)c6ccc([nH]6)c(-c6cc(S(=O)(=O)[O-])ccc6F)c6nc(c(-c7cc(S(=O)(=O)[O-])ccc7F)c7ccc4[nH]7)C=C6)C=C5)cc3)nc3ccccc23)cc1
REMARK SMILES IDX 15 1 14 2 13 3 12 4 10 5 11 6 9 8 7 9 8 10 89 11 84 12 88 13
REMARK SMILES IDX 83 14 85 15 87 16 86 17 6 18 5 19 1 20 2 21 3 22 91 23 4 24
REMARK SMILES IDX 90 25 16 26 17 27 18 28 19 30 20 31 21 32 82 33 22 34 81 35
REMARK SMILES IDX 23 36 24 37 25 38 75 39 26 40 80 41 74 42 76 43 27 44 79 45
REMARK SMILES IDX 73 46 72 47 28 49 60 50 40 51 59 52 41 53 44 54 58 55 77 56
REMARK SMILES IDX 42 57 43 58 57 60 78 61 45 62 29 63 30 64 38 65 31 66 37 67
REMARK SMILES IDX 39 68 36 69 32 70 33 71 34 72 35 73 61 74 62 75 70 76 63 77
REMARK SMILES IDX 69 78 71 79 68 80 64 81 65 82 66 83 67 84 46 85 47 86 55 87
REMARK SMILES IDX 48 88 54 89 56 90 53 91 49 92 50 93 51 94 52 95
REMARK H PARENT 12 7 17 29 76 48 44 59
REMARK Flexibility Score: inf
ROOT
ATOM      1  C   UNL A   1      34.011  30.775  27.607  1.00  0.00     0.023 C 
ENDROOT
BRANCH   1   2
ATOM      2  C   UNL A   1      34.441  29.312  27.440  1.00  0.00     0.023 C 
BRANCH   2   3
ATOM      3  C   UNL A   1      33.670  28.535  26.361  1.00  0.00     0.116 C 
BRANCH   3   4
ATOM      4  N   UNL A   1      34.138  28.832  25.008  1.00  0.00    -0.351 N 
ATOM      5  C   UNL A   1      33.467  28.841  23.803  1.00  0.00     0.270 C 
ATOM      6  O   UNL A   1      34.097  29.163  22.792  1.00  0.00    -0.268 OA
ATOM      7  H   UNL A   1      35.092  29.064  24.947  1.00  0.00     0.163 HD
BRANCH   5   8
ATOM      8  C   UNL A   1      32.015  28.482  23.677  1.00  0.00     0.132 A 
ATOM      9  C   UNL A   1      30.290  26.847  23.564  1.00  0.00     0.139 A 
ATOM     10  C   UNL A   1      31.643  27.149  23.698  1.00  0.00     0.082 A 
ATOM     11  C   UNL A   1      29.324  27.876  23.457  1.00  0.00     0.043 A 
ATOM     12  C   UNL A   1      29.821  29.193  23.416  1.00  0.00     0.075 A 
ATOM     13  C   UNL A   1      27.926  27.675  23.368  1.00  0.00     0.014 A 
ATOM     14  N   UNL A   1      31.120  29.483  23.550  1.00  0.00    -0.242 NA
ATOM     15  C   UNL A   1      28.939  30.244  23.217  1.00  0.00     0.029 A 
ATOM     16  C   UNL A   1      27.056  28.746  23.169  1.00  0.00     0.001 A 
ATOM     17  C   UNL A   1      27.568  30.033  23.079  1.00  0.00     0.002 A 
BRANCH   9  18
ATOM     18  O   UNL A   1      29.968  25.506  23.602  1.00  0.00    -0.457 OA
BRANCH  18  19
ATOM     19  C   UNL A   1      30.617  24.687  24.505  1.00  0.00     0.127 A 
ATOM     20  C   UNL A   1      32.980  22.065  26.979  1.00  0.00     0.044 C 
ATOM     21  C   UNL A   1      32.138  22.965  26.125  1.00  0.00    -0.051 A 
ATOM     22  C   UNL A   1      32.044  22.741  24.746  1.00  0.00     0.007 A 
ATOM     23  C   UNL A   1      31.423  24.025  26.691  1.00  0.00     0.007 A 
ATOM     24  C   UNL A   1      31.289  23.599  23.943  1.00  0.00     0.047 A 
ATOM     25  C   UNL A   1      30.654  24.876  25.888  1.00  0.00     0.047 A 
ENDBRANCH  18  19
ENDBRANCH   9  18
ENDBRANCH   5   8
ENDBRANCH   3   4
ENDBRANCH   2   3
ENDBRANCH   1   2
BRANCH   1  26
ATOM     26  C   UNL A   1      35.171  31.766  27.669  1.00  0.00     0.116 C 
BRANCH  26  27
ATOM     27  N   UNL A   1      35.581  32.184  29.003  1.00  0.00    -0.352 N 
ATOM     28  C   UNL A   1      36.358  31.496  29.926  1.00  0.00     0.251 C 
ATOM     29  H   UNL A   1      35.267  33.072  29.287  1.00  0.00     0.163 HD
ATOM     30  O   UNL A   1      36.501  31.909  31.066  1.00  0.00    -0.269 OA
BRANCH  28  31
ATOM     31  C   UNL A   1      37.115  30.297  29.478  1.00  0.00     0.039 A 
ATOM     32  C   UNL A   1      37.173  29.203  30.351  1.00  0.00     0.014 A 
ATOM     33  C   UNL A   1      37.935  30.337  28.354  1.00  0.00     0.014 A 
ATOM     34  C   UNL A   1      38.219  28.289  30.238  1.00  0.00     0.010 A 
ATOM     35  C   UNL A   1      39.030  29.497  28.302  1.00  0.00     0.010 A 
ATOM     36  C   UNL A   1      39.210  28.518  29.287  1.00  0.00    -0.014 A 
BRANCH  36  37
ATOM     37  C   UNL A   1      40.537  27.910  29.345  1.00  0.00     0.031 A 
ATOM     38  C   UNL A   1      40.770  26.529  28.880  1.00  0.00     0.074 A 
ATOM     39  C   UNL A   1      41.592  28.670  29.713  1.00  0.00     0.049 A 
ATOM     40  N   UNL A   1      41.808  25.821  29.174  1.00  0.00    -0.248 NA
ATOM     41  C   UNL A   1      39.803  25.813  28.061  1.00  0.00     0.031 C 
ATOM     42  C   UNL A   1      43.010  28.375  29.535  1.00  0.00     0.029 A 
ATOM     43  N   UNL A   1      41.572  29.773  30.566  1.00  0.00    -0.354 N 
ATOM     44  C   UNL A   1      41.804  24.711  28.362  1.00  0.00     0.074 A 
ATOM     45  C   UNL A   1      40.494  24.713  27.753  1.00  0.00     0.031 C 
ATOM     46  C   UNL A   1      43.713  29.071  30.440  1.00  0.00     0.029 A 
ATOM     47  C   UNL A   1      42.761  29.716  31.323  1.00  0.00     0.049 A 
ATOM     48  H   UNL A   1      40.866  30.456  30.628  1.00  0.00     0.167 HD
ATOM     49  C   UNL A   1      42.959  24.000  28.198  1.00  0.00     0.034 A 
ATOM     50  C   UNL A   1      42.701  29.557  32.679  1.00  0.00     0.034 A 
ATOM     51  C   UNL A   1      44.020  24.469  29.100  1.00  0.00     0.049 A 
ATOM     52  C   UNL A   1      43.320  28.264  33.182  1.00  0.00     0.074 A 
ATOM     53  C   UNL A   1      45.168  25.230  28.949  1.00  0.00     0.029 A 
ATOM     54  N   UNL A   1      43.825  24.352  30.466  1.00  0.00    -0.354 N 
ATOM     55  N   UNL A   1      43.857  27.351  32.420  1.00  0.00    -0.248 NA
ATOM     56  C   UNL A   1      43.299  27.864  34.589  1.00  0.00     0.031 C 
ATOM     57  C   UNL A   1      45.630  25.602  30.249  1.00  0.00     0.029 A 
ATOM     58  C   UNL A   1      44.778  25.047  31.186  1.00  0.00     0.049 A 
ATOM     59  H   UNL A   1      43.095  23.834  30.876  1.00  0.00     0.167 HD
ATOM     60  C   UNL A   1      44.175  26.252  33.175  1.00  0.00     0.074 A 
ATOM     61  C   UNL A   1      43.815  26.626  34.531  1.00  0.00     0.031 C 
ATOM     62  C   UNL A   1      44.662  25.094  32.636  1.00  0.00     0.034 A 
BRANCH  49  63
ATOM     63  C   UNL A   1      43.217  23.050  27.043  1.00  0.00     0.023 A 
ATOM     64  C   UNL A   1      42.692  21.741  27.103  1.00  0.00     0.031 A 
ATOM     65  C   UNL A   1      43.999  23.323  25.903  1.00  0.00     0.131 A 
ATOM     66  C   UNL A   1      43.032  20.764  26.147  1.00  0.00     0.055 A 
ATOM     67  C   UNL A   1      44.390  22.337  24.987  1.00  0.00     0.041 A 
ATOM     68  F   UNL A   1      44.365  24.567  25.575  1.00  0.00    -0.206 F 
ATOM     69  C   UNL A   1      43.918  21.043  25.113  1.00  0.00     0.022 A 
BRANCH  66  70
ATOM     70  S   UNL A   1      42.291  19.114  26.269  1.00  0.00     0.124 S 
ATOM     71  O   UNL A   1      43.162  18.318  25.410  1.00  0.00    -0.237 OA
ATOM     72  O   UNL A   1      42.371  18.846  27.700  1.00  0.00    -0.237 OA
ATOM     73  O   UNL A   1      40.935  19.313  25.755  1.00  0.00    -0.744 OA
ENDBRANCH  66  70
ENDBRANCH  49  63
BRANCH  50  74
ATOM     74  C   UNL A   1      41.530  30.263  33.278  1.00  0.00     0.023 A 
ATOM     75  C   UNL A   1      41.620  31.669  33.392  1.00  0.00     0.031 A 
ATOM     76  C   UNL A   1      40.257  29.682  33.336  1.00  0.00     0.131 A 
ATOM     77  C   UNL A   1      40.460  32.456  33.381  1.00  0.00     0.055 A 
ATOM     78  C   UNL A   1      39.101  30.469  33.403  1.00  0.00     0.041 A 
ATOM     79  F   UNL A   1      40.100  28.357  33.192  1.00  0.00    -0.206 F 
ATOM     80  C   UNL A   1      39.198  31.862  33.376  1.00  0.00     0.022 A 
BRANCH  77  81
ATOM     81  S   UNL A   1      40.617  34.245  33.086  1.00  0.00     0.124 S 
ATOM     82  O   UNL A   1      41.822  34.313  32.267  1.00  0.00    -0.237 OA
ATOM     83  O   UNL A   1      39.367  34.580  32.407  1.00  0.00    -0.237 OA
ATOM     84  O   UNL A   1      40.736  34.800  34.432  1.00  0.00    -0.744 OA
ENDBRANCH  77  81
ENDBRANCH  50  74
BRANCH  62  85
ATOM     85  C   UNL A   1      45.036  23.895  33.471  1.00  0.00     0.023 A 
ATOM     86  C   UNL A   1      46.376  23.549  33.709  1.00  0.00     0.031 A 
ATOM     87  C   UNL A   1      44.061  23.020  33.998  1.00  0.00     0.131 A 
ATOM     88  C   UNL A   1      46.702  22.434  34.502  1.00  0.00     0.055 A 
ATOM     89  C   UNL A   1      44.390  21.862  34.710  1.00  0.00     0.041 A 
ATOM     90  F   UNL A   1      42.750  23.273  33.885  1.00  0.00    -0.206 F 
ATOM     91  C   UNL A   1      45.718  21.571  34.979  1.00  0.00     0.022 A 
BRANCH  88  92
ATOM     92  S   UNL A   1      48.432  22.183  34.974  1.00  0.00     0.124 S 
ATOM     93  O   UNL A   1      48.373  22.201  36.431  1.00  0.00    -0.237 OA
ATOM     94  O   UNL A   1      48.717  20.885  34.366  1.00  0.00    -0.237 OA
ATOM     95  O   UNL A   1      49.125  23.316  34.365  1.00  0.00    -0.744 OA
ENDBRANCH  88  92
ENDBRANCH  62  85
ENDBRANCH  36  37
ENDBRANCH  28  31
ENDBRANCH  26  27
ENDBRANCH   1  26
TORSDOF 16
ENDMDL
