MODEL 1
REMARK VINA RESULT:     -11.3      0.000      0.000
REMARK SMILES CC(C)C[C@H](CNC(=O)N[C@@H](C)c1nccs1)C(=O)NCCCCNC(=O)c1ccc(-c2c3nc(c(-c4cc(S(=O)(=O)[O-])ccc4F)c4ccc([nH]4)c(-c4cc(S(=O)(=O)[O-])ccc4F)c4nc(c(-c5cc(S(=O)(=O)[O-])ccc5F)c5ccc2[nH]5)C=C4)C=C3)cc1
REMARK SMILES IDX 22 1 21 2 20 3 18 4 19 5 5 7 4 8 2 9 1 10 3 11 6 12 7 13
REMARK SMILES IDX 8 14 9 16 10 17 11 19 12 20 13 21 14 22 17 23 15 24 16 25
REMARK SMILES IDX 23 26 24 27 25 28 26 29 27 31 28 32 29 33 90 34 30 35 89 36
REMARK SMILES IDX 31 37 32 38 33 39 83 40 34 41 88 42 82 43 84 44 35 45 87 46
REMARK SMILES IDX 81 47 80 48 36 50 68 51 48 52 67 53 49 54 52 55 66 56 85 57
REMARK SMILES IDX 50 58 51 59 65 61 86 62 53 63 37 64 38 65 46 66 39 67 45 68
REMARK SMILES IDX 47 69 44 70 40 71 41 72 42 73 43 74 69 75 70 76 78 77 71 78
REMARK SMILES IDX 77 79 79 80 76 81 72 82 73 83 74 84 75 85 54 86 55 87 63 88
REMARK SMILES IDX 56 89 62 90 64 91 61 92 57 93 58 94 59 95 60 96
REMARK H PARENT 20 6 7 15 10 18 25 30 84 49 52 60
REMARK Flexibility Score: inf
ROOT
ATOM      1  C   UNL A   1      34.222  20.739  25.019  1.00  0.00     0.023 C 
ENDROOT
BRANCH   1   2
ATOM      2  C   UNL A   1      33.197  21.423  24.118  1.00  0.00     0.116 C 
BRANCH   2   3
ATOM      3  N   UNL A   1      31.967  21.726  24.825  1.00  0.00    -0.356 N 
ATOM      4  C   UNL A   1      31.382  22.930  25.082  1.00  0.00     0.224 C 
ATOM      5  O   UNL A   1      30.349  22.944  25.755  1.00  0.00    -0.275 OA
ATOM      6  H   UNL A   1      31.482  20.943  25.172  1.00  0.00     0.163 HD
BRANCH   4   7
ATOM      7  C   UNL A   1      31.990  24.233  24.565  1.00  0.00     0.098 C 
BRANCH   7   8
ATOM      8  C   UNL A   1      32.225  25.299  25.666  1.00  0.00     0.018 C 
BRANCH   8   9
ATOM      9  C   UNL A   1      33.699  25.674  25.952  1.00  0.00    -0.017 C 
ATOM     10  C   UNL A   1      34.632  25.314  24.797  1.00  0.00     0.007 C 
ATOM     11  C   UNL A   1      33.815  27.169  26.267  1.00  0.00     0.007 C 
ENDBRANCH   8   9
ENDBRANCH   7   8
BRANCH   7  12
ATOM     12  C   UNL A   1      31.192  24.673  23.315  1.00  0.00     0.131 C 
BRANCH  12  13
ATOM     13  N   UNL A   1      31.941  24.763  22.075  1.00  0.00    -0.337 N 
ATOM     14  C   UNL A   1      32.381  25.751  21.295  1.00  0.00     0.315 C 
ATOM     15  H   UNL A   1      32.185  23.876  21.723  1.00  0.00     0.165 HD
ATOM     16  O   UNL A   1      32.892  25.443  20.216  1.00  0.00    -0.249 OA
ATOM     17  N   UNL A   1      32.309  27.045  21.604  1.00  0.00    -0.329 N 
ATOM     18  H   UNL A   1      32.553  27.634  20.855  1.00  0.00     0.166 HD
BRANCH  17  19
ATOM     19  C   UNL A   1      31.949  27.771  22.809  1.00  0.00     0.140 C 
ATOM     20  C   UNL A   1      33.103  28.669  23.240  1.00  0.00     0.039 C 
BRANCH  19  21
ATOM     21  C   UNL A   1      30.614  28.440  22.590  1.00  0.00     0.115 A 
ATOM     22  N   UNL A   1      30.491  29.520  21.839  1.00  0.00    -0.247 NA
ATOM     23  S   UNL A   1      29.143  27.862  23.269  1.00  0.00    -0.125 S 
ATOM     24  C   UNL A   1      29.171  29.904  21.768  1.00  0.00     0.123 A 
ATOM     25  C   UNL A   1      28.289  29.111  22.465  1.00  0.00     0.087 A 
ENDBRANCH  19  21
ENDBRANCH  17  19
ENDBRANCH  12  13
ENDBRANCH   7  12
ENDBRANCH   4   7
ENDBRANCH   2   3
ENDBRANCH   1   2
BRANCH   1  26
ATOM     26  C   UNL A   1      34.831  21.647  26.079  1.00  0.00     0.023 C 
BRANCH  26  27
ATOM     27  C   UNL A   1      36.240  22.120  25.764  1.00  0.00     0.116 C 
BRANCH  27  28
ATOM     28  N   UNL A   1      37.188  21.027  25.598  1.00  0.00    -0.352 N 
ATOM     29  C   UNL A   1      38.548  21.049  25.807  1.00  0.00     0.251 C 
ATOM     30  H   UNL A   1      36.810  20.168  25.299  1.00  0.00     0.163 HD
ATOM     31  O   UNL A   1      39.241  20.087  25.510  1.00  0.00    -0.269 OA
BRANCH  29  32
ATOM     32  C   UNL A   1      39.142  22.282  26.356  1.00  0.00     0.039 A 
ATOM     33  C   UNL A   1      40.202  22.179  27.258  1.00  0.00     0.014 A 
ATOM     34  C   UNL A   1      38.711  23.528  25.891  1.00  0.00     0.014 A 
ATOM     35  C   UNL A   1      40.881  23.333  27.643  1.00  0.00     0.010 A 
ATOM     36  C   UNL A   1      39.441  24.664  26.213  1.00  0.00     0.010 A 
ATOM     37  C   UNL A   1      40.531  24.577  27.094  1.00  0.00    -0.014 A 
BRANCH  37  38
ATOM     38  C   UNL A   1      41.277  25.811  27.440  1.00  0.00     0.031 A 
ATOM     39  C   UNL A   1      40.605  26.875  28.262  1.00  0.00     0.074 A 
ATOM     40  C   UNL A   1      42.519  26.003  26.953  1.00  0.00     0.049 A 
ATOM     41  N   UNL A   1      41.037  28.063  28.594  1.00  0.00    -0.248 NA
ATOM     42  C   UNL A   1      39.247  26.572  28.740  1.00  0.00     0.031 C 
ATOM     43  C   UNL A   1      43.248  25.062  26.098  1.00  0.00     0.029 A 
ATOM     44  N   UNL A   1      43.382  27.058  27.096  1.00  0.00    -0.354 N 
ATOM     45  C   UNL A   1      39.999  28.655  29.305  1.00  0.00     0.074 A 
ATOM     46  C   UNL A   1      38.894  27.722  29.291  1.00  0.00     0.031 C 
ATOM     47  C   UNL A   1      44.455  25.574  25.811  1.00  0.00     0.029 A 
ATOM     48  C   UNL A   1      44.573  26.893  26.426  1.00  0.00     0.049 A 
ATOM     49  H   UNL A   1      43.171  27.858  27.628  1.00  0.00     0.167 HD
ATOM     50  C   UNL A   1      39.981  29.856  29.934  1.00  0.00     0.034 A 
ATOM     51  C   UNL A   1      45.633  27.716  26.315  1.00  0.00     0.034 A 
ATOM     52  C   UNL A   1      41.102  30.763  29.951  1.00  0.00     0.049 A 
ATOM     53  C   UNL A   1      45.594  29.045  27.026  1.00  0.00     0.074 A 
ATOM     54  C   UNL A   1      41.218  31.981  30.598  1.00  0.00     0.029 A 
ATOM     55  N   UNL A   1      42.303  30.550  29.285  1.00  0.00    -0.354 N 
ATOM     56  N   UNL A   1      44.624  29.572  27.738  1.00  0.00    -0.248 NA
ATOM     57  C   UNL A   1      46.797  29.881  26.932  1.00  0.00     0.031 C 
ATOM     58  C   UNL A   1      42.467  32.528  30.280  1.00  0.00     0.029 A 
ATOM     59  C   UNL A   1      43.157  31.623  29.488  1.00  0.00     0.049 A 
ATOM     60  H   UNL A   1      42.516  29.754  28.747  1.00  0.00     0.167 HD
ATOM     61  C   UNL A   1      45.111  30.792  28.198  1.00  0.00     0.074 A 
ATOM     62  C   UNL A   1      46.466  30.912  27.694  1.00  0.00     0.031 C 
ATOM     63  C   UNL A   1      44.500  31.728  28.969  1.00  0.00     0.034 A 
BRANCH  50  64
ATOM     64  C   UNL A   1      38.701  30.248  30.634  1.00  0.00     0.023 A 
ATOM     65  C   UNL A   1      37.681  30.946  29.962  1.00  0.00     0.031 A 
ATOM     66  C   UNL A   1      38.519  29.969  31.999  1.00  0.00     0.131 A 
ATOM     67  C   UNL A   1      36.569  31.417  30.674  1.00  0.00     0.055 A 
ATOM     68  C   UNL A   1      37.367  30.365  32.683  1.00  0.00     0.041 A 
ATOM     69  F   UNL A   1      39.466  29.326  32.699  1.00  0.00    -0.206 F 
ATOM     70  C   UNL A   1      36.391  31.110  32.025  1.00  0.00     0.022 A 
BRANCH  67  71
ATOM     71  S   UNL A   1      35.438  32.569  29.847  1.00  0.00     0.124 S 
ATOM     72  O   UNL A   1      35.042  31.796  28.671  1.00  0.00    -0.237 OA
ATOM     73  O   UNL A   1      34.403  32.775  30.854  1.00  0.00    -0.237 OA
ATOM     74  O   UNL A   1      36.277  33.732  29.565  1.00  0.00    -0.744 OA
ENDBRANCH  67  71
ENDBRANCH  50  64
BRANCH  51  75
ATOM     75  C   UNL A   1      46.816  27.319  25.501  1.00  0.00     0.023 A 
ATOM     76  C   UNL A   1      46.986  27.797  24.192  1.00  0.00     0.031 A 
ATOM     77  C   UNL A   1      47.779  26.430  26.010  1.00  0.00     0.131 A 
ATOM     78  C   UNL A   1      48.068  27.349  23.419  1.00  0.00     0.055 A 
ATOM     79  C   UNL A   1      48.880  26.024  25.253  1.00  0.00     0.041 A 
ATOM     80  F   UNL A   1      47.669  25.954  27.260  1.00  0.00    -0.206 F 
ATOM     81  C   UNL A   1      49.022  26.475  23.944  1.00  0.00     0.022 A 
BRANCH  78  82
ATOM     82  S   UNL A   1      48.172  27.871  21.685  1.00  0.00     0.124 S 
ATOM     83  O   UNL A   1      49.296  28.801  21.720  1.00  0.00    -0.237 OA
ATOM     84  O   UNL A   1      48.407  26.604  21.001  1.00  0.00    -0.237 OA
ATOM     85  O   UNL A   1      46.866  28.478  21.435  1.00  0.00    -0.744 OA
ENDBRANCH  78  82
ENDBRANCH  51  75
BRANCH  63  86
ATOM     86  C   UNL A   1      45.315  32.938  29.344  1.00  0.00     0.023 A 
ATOM     87  C   UNL A   1      45.238  34.137  28.615  1.00  0.00     0.031 A 
ATOM     88  C   UNL A   1      46.189  32.885  30.445  1.00  0.00     0.131 A 
ATOM     89  C   UNL A   1      46.060  35.219  28.963  1.00  0.00     0.055 A 
ATOM     90  C   UNL A   1      46.963  33.983  30.821  1.00  0.00     0.041 A 
ATOM     91  F   UNL A   1      46.301  31.763  31.175  1.00  0.00    -0.206 F 
ATOM     92  C   UNL A   1      46.911  35.154  30.070  1.00  0.00     0.022 A 
BRANCH  89  93
ATOM     93  S   UNL A   1      46.065  36.687  27.898  1.00  0.00     0.124 S 
ATOM     94  O   UNL A   1      44.863  37.386  28.341  1.00  0.00    -0.237 OA
ATOM     95  O   UNL A   1      47.334  37.319  28.243  1.00  0.00    -0.237 OA
ATOM     96  O   UNL A   1      45.997  36.131  26.548  1.00  0.00    -0.744 OA
ENDBRANCH  89  93
ENDBRANCH  63  86
ENDBRANCH  37  38
ENDBRANCH  29  32
ENDBRANCH  27  28
ENDBRANCH  26  27
ENDBRANCH   1  26
TORSDOF 20
ENDMDL
MODEL 2
REMARK VINA RESULT:     -11.0      5.041      7.761
REMARK SMILES CC(C)C[C@H](CNC(=O)N[C@@H](C)c1nccs1)C(=O)NCCCCNC(=O)c1ccc(-c2c3nc(c(-c4cc(S(=O)(=O)[O-])ccc4F)c4ccc([nH]4)c(-c4cc(S(=O)(=O)[O-])ccc4F)c4nc(c(-c5cc(S(=O)(=O)[O-])ccc5F)c5ccc2[nH]5)C=C4)C=C3)cc1
REMARK SMILES IDX 22 1 21 2 20 3 18 4 19 5 5 7 4 8 2 9 1 10 3 11 6 12 7 13
REMARK SMILES IDX 8 14 9 16 10 17 11 19 12 20 13 21 14 22 17 23 15 24 16 25
REMARK SMILES IDX 23 26 24 27 25 28 26 29 27 31 28 32 29 33 90 34 30 35 89 36
REMARK SMILES IDX 31 37 32 38 33 39 83 40 34 41 88 42 82 43 84 44 35 45 87 46
REMARK SMILES IDX 81 47 80 48 36 50 68 51 48 52 67 53 49 54 52 55 66 56 85 57
REMARK SMILES IDX 50 58 51 59 65 61 86 62 53 63 37 64 38 65 46 66 39 67 45 68
REMARK SMILES IDX 47 69 44 70 40 71 41 72 42 73 43 74 69 75 70 76 78 77 71 78
REMARK SMILES IDX 77 79 79 80 76 81 72 82 73 83 74 84 75 85 54 86 55 87 63 88
REMARK SMILES IDX 56 89 62 90 64 91 61 92 57 93 58 94 59 95 60 96
REMARK H PARENT 20 6 7 15 10 18 25 30 84 49 52 60
REMARK Flexibility Score: inf
ROOT
ATOM      1  C   UNL A   1      31.627  27.695  25.376  1.00  0.00     0.023 C 
ENDROOT
BRANCH   1   2
ATOM      2  C   UNL A   1      32.844  26.806  25.140  1.00  0.00     0.116 C 
BRANCH   2   3
ATOM      3  N   UNL A   1      33.149  26.663  23.729  1.00  0.00    -0.356 N 
ATOM      4  C   UNL A   1      33.566  25.567  23.032  1.00  0.00     0.224 C 
ATOM      5  O   UNL A   1      33.815  25.700  21.832  1.00  0.00    -0.275 OA
ATOM      6  H   UNL A   1      33.038  27.481  23.193  1.00  0.00     0.163 HD
BRANCH   4   7
ATOM      7  C   UNL A   1      33.736  24.211  23.716  1.00  0.00     0.098 C 
BRANCH   7   8
ATOM      8  C   UNL A   1      35.036  23.465  23.320  1.00  0.00     0.018 C 
BRANCH   8   9
ATOM      9  C   UNL A   1      36.180  23.485  24.361  1.00  0.00    -0.017 C 
ATOM     10  C   UNL A   1      35.761  24.125  25.683  1.00  0.00     0.007 C 
ATOM     11  C   UNL A   1      36.695  22.064  24.612  1.00  0.00     0.007 C 
ENDBRANCH   8   9
ENDBRANCH   7   8
BRANCH   7  12
ATOM     12  C   UNL A   1      32.405  23.434  23.578  1.00  0.00     0.131 C 
BRANCH  12  13
ATOM     13  N   UNL A   1      31.445  23.612  24.653  1.00  0.00    -0.337 N 
ATOM     14  C   UNL A   1      31.131  22.959  25.772  1.00  0.00     0.315 C 
ATOM     15  H   UNL A   1      30.888  24.414  24.523  1.00  0.00     0.165 HD
ATOM     16  O   UNL A   1      30.143  23.343  26.400  1.00  0.00    -0.249 OA
ATOM     17  N   UNL A   1      31.815  21.923  26.256  1.00  0.00    -0.329 N 
ATOM     18  H   UNL A   1      31.362  21.480  27.009  1.00  0.00     0.166 HD
BRANCH  17  19
ATOM     19  C   UNL A   1      33.084  21.308  25.912  1.00  0.00     0.140 C 
ATOM     20  C   UNL A   1      33.994  21.273  27.135  1.00  0.00     0.039 C 
BRANCH  19  21
ATOM     21  C   UNL A   1      32.814  19.989  25.230  1.00  0.00     0.115 A 
ATOM     22  N   UNL A   1      32.713  18.861  25.910  1.00  0.00    -0.247 NA
ATOM     23  S   UNL A   1      32.597  19.829  23.531  1.00  0.00    -0.125 S 
ATOM     24  C   UNL A   1      32.424  17.817  25.062  1.00  0.00     0.123 A 
ATOM     25  C   UNL A   1      32.303  18.154  23.733  1.00  0.00     0.087 A 
ENDBRANCH  19  21
ENDBRANCH  17  19
ENDBRANCH  12  13
ENDBRANCH   7  12
ENDBRANCH   4   7
ENDBRANCH   2   3
ENDBRANCH   1   2
BRANCH   1  26
ATOM     26  C   UNL A   1      31.856  28.821  26.376  1.00  0.00     0.023 C 
BRANCH  26  27
ATOM     27  C   UNL A   1      32.881  29.852  25.934  1.00  0.00     0.116 C 
BRANCH  27  28
ATOM     28  N   UNL A   1      32.564  31.202  26.380  1.00  0.00    -0.352 N 
ATOM     29  C   UNL A   1      33.270  31.985  27.264  1.00  0.00     0.251 C 
ATOM     30  H   UNL A   1      31.747  31.601  26.005  1.00  0.00     0.163 HD
ATOM     31  O   UNL A   1      32.821  33.057  27.644  1.00  0.00    -0.269 OA
BRANCH  29  32
ATOM     32  C   UNL A   1      34.555  31.470  27.770  1.00  0.00     0.039 A 
ATOM     33  C   UNL A   1      35.626  32.353  27.919  1.00  0.00     0.014 A 
ATOM     34  C   UNL A   1      34.655  30.140  28.189  1.00  0.00     0.014 A 
ATOM     35  C   UNL A   1      36.784  31.914  28.559  1.00  0.00     0.010 A 
ATOM     36  C   UNL A   1      35.777  29.732  28.897  1.00  0.00     0.010 A 
ATOM     37  C   UNL A   1      36.853  30.614  29.086  1.00  0.00    -0.014 A 
BRANCH  37  38
ATOM     38  C   UNL A   1      38.049  30.143  29.824  1.00  0.00     0.031 A 
ATOM     39  C   UNL A   1      38.303  30.643  31.218  1.00  0.00     0.074 A 
ATOM     40  C   UNL A   1      38.938  29.334  29.214  1.00  0.00     0.049 A 
ATOM     41  N   UNL A   1      39.331  30.437  32.000  1.00  0.00    -0.248 NA
ATOM     42  C   UNL A   1      37.277  31.528  31.792  1.00  0.00     0.031 C 
ATOM     43  C   UNL A   1      38.822  28.830  27.842  1.00  0.00     0.029 A 
ATOM     44  N   UNL A   1      40.119  28.803  29.662  1.00  0.00    -0.354 N 
ATOM     45  C   UNL A   1      39.083  31.178  33.150  1.00  0.00     0.074 A 
ATOM     46  C   UNL A   1      37.845  31.893  32.930  1.00  0.00     0.031 C 
ATOM     47  C   UNL A   1      39.879  28.048  27.571  1.00  0.00     0.029 A 
ATOM     48  C   UNL A   1      40.766  28.024  28.729  1.00  0.00     0.049 A 
ATOM     49  H   UNL A   1      40.473  28.963  30.567  1.00  0.00     0.167 HD
ATOM     50  C   UNL A   1      39.809  31.234  34.293  1.00  0.00     0.034 A 
ATOM     51  C   UNL A   1      41.943  27.374  28.801  1.00  0.00     0.034 A 
ATOM     52  C   UNL A   1      41.032  30.498  34.497  1.00  0.00     0.049 A 
ATOM     53  C   UNL A   1      42.733  27.446  30.083  1.00  0.00     0.074 A 
ATOM     54  C   UNL A   1      41.824  30.434  35.630  1.00  0.00     0.029 A 
ATOM     55  N   UNL A   1      41.642  29.696  33.540  1.00  0.00    -0.354 N 
ATOM     56  N   UNL A   1      42.462  28.111  31.183  1.00  0.00    -0.248 NA
ATOM     57  C   UNL A   1      43.977  26.669  30.139  1.00  0.00     0.031 C 
ATOM     58  C   UNL A   1      42.939  29.640  35.341  1.00  0.00     0.029 A 
ATOM     59  C   UNL A   1      42.811  29.151  34.049  1.00  0.00     0.049 A 
ATOM     60  H   UNL A   1      41.296  29.537  32.633  1.00  0.00     0.167 HD
ATOM     61  C   UNL A   1      43.490  27.810  32.071  1.00  0.00     0.074 A 
ATOM     62  C   UNL A   1      44.376  26.893  31.382  1.00  0.00     0.031 C 
ATOM     63  C   UNL A   1      43.686  28.247  33.342  1.00  0.00     0.034 A 
BRANCH  50  64
ATOM     64  C   UNL A   1      39.297  32.136  35.391  1.00  0.00     0.023 A 
ATOM     65  C   UNL A   1      39.681  33.487  35.471  1.00  0.00     0.031 A 
ATOM     66  C   UNL A   1      38.458  31.631  36.398  1.00  0.00     0.131 A 
ATOM     67  C   UNL A   1      39.301  34.259  36.578  1.00  0.00     0.055 A 
ATOM     68  C   UNL A   1      38.010  32.429  37.453  1.00  0.00     0.041 A 
ATOM     69  F   UNL A   1      38.074  30.344  36.388  1.00  0.00    -0.206 F 
ATOM     70  C   UNL A   1      38.447  33.748  37.558  1.00  0.00     0.022 A 
BRANCH  67  71
ATOM     71  S   UNL A   1      40.066  35.889  36.799  1.00  0.00     0.124 S 
ATOM     72  O   UNL A   1      39.682  36.562  35.560  1.00  0.00    -0.237 OA
ATOM     73  O   UNL A   1      39.427  36.376  38.016  1.00  0.00    -0.237 OA
ATOM     74  O   UNL A   1      41.491  35.586  36.919  1.00  0.00    -0.744 OA
ENDBRANCH  67  71
ENDBRANCH  50  64
BRANCH  51  75
ATOM     75  C   UNL A   1      42.453  26.604  27.632  1.00  0.00     0.023 A 
ATOM     76  C   UNL A   1      42.124  25.250  27.459  1.00  0.00     0.031 A 
ATOM     77  C   UNL A   1      43.304  27.203  26.686  1.00  0.00     0.131 A 
ATOM     78  C   UNL A   1      42.678  24.527  26.391  1.00  0.00     0.055 A 
ATOM     79  C   UNL A   1      43.815  26.491  25.599  1.00  0.00     0.041 A 
ATOM     80  F   UNL A   1      43.639  28.498  26.800  1.00  0.00    -0.206 F 
ATOM     81  C   UNL A   1      43.512  25.140  25.455  1.00  0.00     0.022 A 
BRANCH  78  82
ATOM     82  S   UNL A   1      42.349  22.746  26.286  1.00  0.00     0.124 S 
ATOM     83  O   UNL A   1      43.034  22.389  25.049  1.00  0.00    -0.237 OA
ATOM     84  O   UNL A   1      42.952  22.254  27.520  1.00  0.00    -0.237 OA
ATOM     85  O   UNL A   1      40.890  22.673  26.236  1.00  0.00    -0.744 OA
ENDBRANCH  78  82
ENDBRANCH  51  75
BRANCH  63  86
ATOM     86  C   UNL A   1      44.883  27.698  34.073  1.00  0.00     0.023 A 
ATOM     87  C   UNL A   1      44.801  26.533  34.855  1.00  0.00     0.031 A 
ATOM     88  C   UNL A   1      46.122  28.358  33.992  1.00  0.00     0.131 A 
ATOM     89  C   UNL A   1      45.925  26.091  35.568  1.00  0.00     0.055 A 
ATOM     90  C   UNL A   1      47.251  27.883  34.659  1.00  0.00     0.041 A 
ATOM     91  F   UNL A   1      46.254  29.475  33.259  1.00  0.00    -0.206 F 
ATOM     92  C   UNL A   1      47.153  26.750  35.463  1.00  0.00     0.022 A 
BRANCH  89  93
ATOM     93  S   UNL A   1      45.740  24.689  36.704  1.00  0.00     0.124 S 
ATOM     94  O   UNL A   1      45.662  23.561  35.781  1.00  0.00    -0.237 OA
ATOM     95  O   UNL A   1      46.958  24.774  37.505  1.00  0.00    -0.237 OA
ATOM     96  O   UNL A   1      44.505  24.991  37.422  1.00  0.00    -0.744 OA
ENDBRANCH  89  93
ENDBRANCH  63  86
ENDBRANCH  37  38
ENDBRANCH  29  32
ENDBRANCH  27  28
ENDBRANCH  26  27
ENDBRANCH   1  26
TORSDOF 20
ENDMDL
MODEL 3
REMARK VINA RESULT:     -10.9      5.559     10.707
REMARK SMILES CC(C)C[C@H](CNC(=O)N[C@@H](C)c1nccs1)C(=O)NCCCCNC(=O)c1ccc(-c2c3nc(c(-c4cc(S(=O)(=O)[O-])ccc4F)c4ccc([nH]4)c(-c4cc(S(=O)(=O)[O-])ccc4F)c4nc(c(-c5cc(S(=O)(=O)[O-])ccc5F)c5ccc2[nH]5)C=C4)C=C3)cc1
REMARK SMILES IDX 22 1 21 2 20 3 18 4 19 5 5 7 4 8 2 9 1 10 3 11 6 12 7 13
REMARK SMILES IDX 8 14 9 16 10 17 11 19 12 20 13 21 14 22 17 23 15 24 16 25
REMARK SMILES IDX 23 26 24 27 25 28 26 29 27 31 28 32 29 33 90 34 30 35 89 36
REMARK SMILES IDX 31 37 32 38 33 39 83 40 34 41 88 42 82 43 84 44 35 45 87 46
REMARK SMILES IDX 81 47 80 48 36 50 68 51 48 52 67 53 49 54 52 55 66 56 85 57
REMARK SMILES IDX 50 58 51 59 65 61 86 62 53 63 37 64 38 65 46 66 39 67 45 68
REMARK SMILES IDX 47 69 44 70 40 71 41 72 42 73 43 74 69 75 70 76 78 77 71 78
REMARK SMILES IDX 77 79 79 80 76 81 72 82 73 83 74 84 75 85 54 86 55 87 63 88
REMARK SMILES IDX 56 89 62 90 64 91 61 92 57 93 58 94 59 95 60 96
REMARK H PARENT 20 6 7 15 10 18 25 30 84 49 52 60
REMARK Flexibility Score: inf
ROOT
ATOM      1  C   UNL A   1      32.153  29.355  27.061  1.00  0.00     0.023 C 
ENDROOT
BRANCH   1   2
ATOM      2  C   UNL A   1      31.902  28.448  25.860  1.00  0.00     0.116 C 
BRANCH   2   3
ATOM      3  N   UNL A   1      32.815  28.725  24.768  1.00  0.00    -0.356 N 
ATOM      4  C   UNL A   1      32.562  28.883  23.437  1.00  0.00     0.224 C 
ATOM      5  O   UNL A   1      33.518  29.064  22.680  1.00  0.00    -0.275 OA
ATOM      6  H   UNL A   1      33.761  28.812  25.026  1.00  0.00     0.163 HD
BRANCH   4   7
ATOM      7  C   UNL A   1      31.137  28.825  22.890  1.00  0.00     0.098 C 
BRANCH   7   8
ATOM      8  C   UNL A   1      30.100  29.598  23.746  1.00  0.00     0.018 C 
BRANCH   8   9
ATOM      9  C   UNL A   1      28.893  30.193  22.984  1.00  0.00    -0.017 C 
ATOM     10  C   UNL A   1      29.241  30.598  21.553  1.00  0.00     0.007 C 
ATOM     11  C   UNL A   1      27.728  29.198  22.973  1.00  0.00     0.007 C 
ENDBRANCH   8   9
ENDBRANCH   7   8
BRANCH   7  12
ATOM     12  C   UNL A   1      30.813  27.351  22.550  1.00  0.00     0.131 C 
BRANCH  12  13
ATOM     13  N   UNL A   1      31.610  26.746  21.498  1.00  0.00    -0.337 N 
ATOM     14  C   UNL A   1      32.461  25.723  21.413  1.00  0.00     0.315 C 
ATOM     15  H   UNL A   1      31.493  27.204  20.634  1.00  0.00     0.165 HD
ATOM     16  O   UNL A   1      33.068  25.572  20.351  1.00  0.00    -0.249 OA
ATOM     17  N   UNL A   1      32.695  24.853  22.395  1.00  0.00    -0.329 N 
ATOM     18  H   UNL A   1      33.451  24.252  22.206  1.00  0.00     0.166 HD
BRANCH  17  19
ATOM     19  C   UNL A   1      32.075  24.602  23.683  1.00  0.00     0.140 C 
ATOM     20  C   UNL A   1      30.821  23.753  23.500  1.00  0.00     0.039 C 
BRANCH  19  21
ATOM     21  C   UNL A   1      33.122  24.070  24.630  1.00  0.00     0.115 A 
ATOM     22  N   UNL A   1      33.107  22.818  25.054  1.00  0.00    -0.247 NA
ATOM     23  S   UNL A   1      34.429  25.018  25.227  1.00  0.00    -0.125 S 
ATOM     24  C   UNL A   1      34.188  22.577  25.869  1.00  0.00     0.123 A 
ATOM     25  C   UNL A   1      35.030  23.649  26.063  1.00  0.00     0.087 A 
ENDBRANCH  19  21
ENDBRANCH  17  19
ENDBRANCH  12  13
ENDBRANCH   7  12
ENDBRANCH   4   7
ENDBRANCH   2   3
ENDBRANCH   1   2
BRANCH   1  26
ATOM     26  C   UNL A   1      32.095  30.844  26.747  1.00  0.00     0.023 C 
BRANCH  26  27
ATOM     27  C   UNL A   1      33.165  31.672  27.438  1.00  0.00     0.116 C 
BRANCH  27  28
ATOM     28  N   UNL A   1      32.839  33.091  27.503  1.00  0.00    -0.352 N 
ATOM     29  C   UNL A   1      33.374  34.042  28.341  1.00  0.00     0.251 C 
ATOM     30  H   UNL A   1      32.152  33.406  26.873  1.00  0.00     0.163 HD
ATOM     31  O   UNL A   1      32.917  35.175  28.370  1.00  0.00    -0.269 OA
BRANCH  29  32
ATOM     32  C   UNL A   1      34.481  33.638  29.228  1.00  0.00     0.039 A 
ATOM     33  C   UNL A   1      34.258  32.634  30.172  1.00  0.00     0.014 A 
ATOM     34  C   UNL A   1      35.754  34.184  29.044  1.00  0.00     0.014 A 
ATOM     35  C   UNL A   1      35.339  32.126  30.890  1.00  0.00     0.010 A 
ATOM     36  C   UNL A   1      36.838  33.619  29.701  1.00  0.00     0.010 A 
ATOM     37  C   UNL A   1      36.641  32.587  30.632  1.00  0.00    -0.014 A 
BRANCH  37  38
ATOM     38  C   UNL A   1      37.814  32.020  31.338  1.00  0.00     0.031 A 
ATOM     39  C   UNL A   1      38.609  30.922  30.689  1.00  0.00     0.074 A 
ATOM     40  C   UNL A   1      38.112  32.437  32.585  1.00  0.00     0.049 A 
ATOM     41  N   UNL A   1      39.605  30.223  31.168  1.00  0.00    -0.248 NA
ATOM     42  C   UNL A   1      38.199  30.534  29.330  1.00  0.00     0.031 C 
ATOM     43  C   UNL A   1      37.375  33.457  33.336  1.00  0.00     0.029 A 
ATOM     44  N   UNL A   1      39.105  32.045  33.446  1.00  0.00    -0.354 N 
ATOM     45  C   UNL A   1      39.929  29.303  30.177  1.00  0.00     0.074 A 
ATOM     46  C   UNL A   1      38.977  29.487  29.104  1.00  0.00     0.031 C 
ATOM     47  C   UNL A   1      37.955  33.624  34.535  1.00  0.00     0.029 A 
ATOM     48  C   UNL A   1      39.078  32.699  34.656  1.00  0.00     0.049 A 
ATOM     49  H   UNL A   1      39.775  31.361  33.219  1.00  0.00     0.167 HD
ATOM     50  C   UNL A   1      40.946  28.406  30.156  1.00  0.00     0.034 A 
ATOM     51  C   UNL A   1      39.863  32.560  35.741  1.00  0.00     0.034 A 
ATOM     52  C   UNL A   1      41.895  28.252  31.230  1.00  0.00     0.049 A 
ATOM     53  C   UNL A   1      40.991  31.560  35.694  1.00  0.00     0.074 A 
ATOM     54  C   UNL A   1      42.996  27.416  31.297  1.00  0.00     0.029 A 
ATOM     55  N   UNL A   1      41.854  28.952  32.430  1.00  0.00    -0.354 N 
ATOM     56  N   UNL A   1      41.318  30.730  34.730  1.00  0.00    -0.248 NA
ATOM     57  C   UNL A   1      41.862  31.489  36.873  1.00  0.00     0.031 C 
ATOM     58  C   UNL A   1      43.587  27.570  32.557  1.00  0.00     0.029 A 
ATOM     59  C   UNL A   1      42.896  28.551  33.252  1.00  0.00     0.049 A 
ATOM     60  H   UNL A   1      41.182  29.633  32.663  1.00  0.00     0.167 HD
ATOM     61  C   UNL A   1      42.450  30.056  35.178  1.00  0.00     0.074 A 
ATOM     62  C   UNL A   1      42.756  30.589  36.491  1.00  0.00     0.031 C 
ATOM     63  C   UNL A   1      43.176  29.088  34.562  1.00  0.00     0.034 A 
BRANCH  50  64
ATOM     64  C   UNL A   1      41.057  27.521  28.937  1.00  0.00     0.023 A 
ATOM     65  C   UNL A   1      42.068  27.715  27.978  1.00  0.00     0.031 A 
ATOM     66  C   UNL A   1      40.114  26.506  28.702  1.00  0.00     0.131 A 
ATOM     67  C   UNL A   1      42.059  26.969  26.790  1.00  0.00     0.055 A 
ATOM     68  C   UNL A   1      40.163  25.707  27.559  1.00  0.00     0.041 A 
ATOM     69  F   UNL A   1      39.114  26.288  29.570  1.00  0.00    -0.206 F 
ATOM     70  C   UNL A   1      41.129  25.948  26.585  1.00  0.00     0.022 A 
BRANCH  67  71
ATOM     71  S   UNL A   1      43.184  27.458  25.454  1.00  0.00     0.124 S 
ATOM     72  O   UNL A   1      44.150  28.286  26.173  1.00  0.00    -0.237 OA
ATOM     73  O   UNL A   1      43.678  26.174  24.970  1.00  0.00    -0.237 OA
ATOM     74  O   UNL A   1      42.320  28.185  24.527  1.00  0.00    -0.744 OA
ENDBRANCH  67  71
ENDBRANCH  50  64
BRANCH  51  75
ATOM     75  C   UNL A   1      39.617  33.378  36.962  1.00  0.00     0.023 A 
ATOM     76  C   UNL A   1      38.917  32.848  38.058  1.00  0.00     0.031 A 
ATOM     77  C   UNL A   1      40.052  34.712  37.038  1.00  0.00     0.131 A 
ATOM     78  C   UNL A   1      38.633  33.662  39.165  1.00  0.00     0.055 A 
ATOM     79  C   UNL A   1      39.807  35.504  38.163  1.00  0.00     0.041 A 
ATOM     80  F   UNL A   1      40.736  35.263  36.023  1.00  0.00    -0.206 F 
ATOM     81  C   UNL A   1      39.082  34.982  39.230  1.00  0.00     0.022 A 
BRANCH  78  82
ATOM     82  S   UNL A   1      37.598  32.988  40.495  1.00  0.00     0.124 S 
ATOM     83  O   UNL A   1      38.279  31.733  40.794  1.00  0.00    -0.237 OA
ATOM     84  O   UNL A   1      37.696  34.030  41.511  1.00  0.00    -0.237 OA
ATOM     85  O   UNL A   1      36.285  32.853  39.868  1.00  0.00    -0.744 OA
ENDBRANCH  78  82
ENDBRANCH  51  75
BRANCH  63  86
ATOM     86  C   UNL A   1      44.393  28.582  35.292  1.00  0.00     0.023 A 
ATOM     87  C   UNL A   1      44.341  27.448  36.119  1.00  0.00     0.031 A 
ATOM     88  C   UNL A   1      45.623  29.254  35.162  1.00  0.00     0.131 A 
ATOM     89  C   UNL A   1      45.483  27.048  36.828  1.00  0.00     0.055 A 
ATOM     90  C   UNL A   1      46.769  28.819  35.826  1.00  0.00     0.041 A 
ATOM     91  F   UNL A   1      45.727  30.344  34.385  1.00  0.00    -0.206 F 
ATOM     92  C   UNL A   1      46.701  27.717  36.674  1.00  0.00     0.022 A 
BRANCH  89  93
ATOM     93  S   UNL A   1      45.338  25.689  38.020  1.00  0.00     0.124 S 
ATOM     94  O   UNL A   1      46.724  25.250  38.150  1.00  0.00    -0.237 OA
ATOM     95  O   UNL A   1      44.769  26.356  39.187  1.00  0.00    -0.237 OA
ATOM     96  O   UNL A   1      44.447  24.742  37.353  1.00  0.00    -0.744 OA
ENDBRANCH  89  93
ENDBRANCH  63  86
ENDBRANCH  37  38
ENDBRANCH  29  32
ENDBRANCH  27  28
ENDBRANCH  26  27
ENDBRANCH   1  26
TORSDOF 20
ENDMDL
