MODEL 1
REMARK VINA RESULT:     -11.5      0.000      0.000
REMARK SMILES CCCN1C(=O)C[C@H](C(=O)NCCCCNC(=O)c2ccc(-c3c4nc(c(-c5cc(S(=O)(=O)[O-])ccc5F)c5ccc([nH]5)c(-c5cc(S(=O)(=O)[O-])ccc5F)c5nc(c(-c6cc(S(=O)(=O)[O-])ccc6F)c6ccc3[nH]6)C=C5)C=C4)cc2)[C@@H]1c1cncn1C1CC1
REMARK SMILES IDX 14 1 13 2 12 3 11 4 9 5 10 6 8 8 4 9 5 10 82 11 6 12 7 13
REMARK SMILES IDX 3 14 2 15 1 16 83 17 84 18 87 19 85 20 86 21 88 22 89 23
REMARK SMILES IDX 90 24 15 25 16 26 17 27 18 29 19 30 20 31 81 32 21 33 80 34
REMARK SMILES IDX 22 35 23 36 24 37 74 38 25 39 79 40 73 41 75 42 26 43 78 44
REMARK SMILES IDX 72 45 71 46 27 48 59 49 39 50 58 51 40 52 43 53 57 54 76 55
REMARK SMILES IDX 41 56 42 57 56 59 77 60 44 61 28 62 29 63 37 64 30 65 36 66
REMARK SMILES IDX 38 67 35 68 31 69 32 70 33 71 34 72 60 73 61 74 69 75 62 76
REMARK SMILES IDX 68 77 70 78 67 79 63 80 64 81 65 82 66 83 45 84 46 85 54 86
REMARK SMILES IDX 47 87 53 88 55 89 52 90 48 91 49 92 50 93 51 94
REMARK H PARENT 11 7 16 28 75 47 43 58
REMARK Flexibility Score: inf
ROOT
ATOM      1  C   UNL A   1      32.197  29.556  25.071  1.00  0.00     0.023 C 
ENDROOT
BRANCH   1   2
ATOM      2  C   UNL A   1      31.244  28.384  24.863  1.00  0.00     0.023 C 
BRANCH   2   3
ATOM      3  C   UNL A   1      31.318  27.317  25.940  1.00  0.00     0.116 C 
BRANCH   3   4
ATOM      4  N   UNL A   1      30.598  26.106  25.645  1.00  0.00    -0.356 N 
ATOM      5  C   UNL A   1      30.922  24.832  25.984  1.00  0.00     0.226 C 
ATOM      6  O   UNL A   1      30.035  23.977  25.888  1.00  0.00    -0.275 OA
ATOM      7  H   UNL A   1      29.766  26.216  25.131  1.00  0.00     0.163 HD
BRANCH   5   8
ATOM      8  C   UNL A   1      32.314  24.409  26.425  1.00  0.00     0.116 C 
ATOM      9  N   UNL A   1      34.446  23.460  26.035  1.00  0.00    -0.333 N 
ATOM     10  C   UNL A   1      33.870  22.796  27.125  1.00  0.00     0.224 C 
ATOM     11  C   UNL A   1      33.514  24.417  25.469  1.00  0.00     0.146 C 
ATOM     12  O   UNL A   1      34.421  22.096  27.952  1.00  0.00    -0.275 OA
ATOM     13  C   UNL A   1      32.392  23.078  27.148  1.00  0.00     0.116 C 
BRANCH   9  14
ATOM     14  C   UNL A   1      35.892  23.628  25.825  1.00  0.00     0.120 C 
BRANCH  14  15
ATOM     15  C   UNL A   1      36.629  22.667  24.877  1.00  0.00     0.018 C 
ATOM     16  C   UNL A   1      36.689  23.059  23.407  1.00  0.00     0.006 C 
ENDBRANCH  14  15
ENDBRANCH   9  14
BRANCH  11  17
ATOM     17  C   UNL A   1      33.261  24.434  23.992  1.00  0.00     0.061 A 
ATOM     18  C   UNL A   1      33.757  25.478  23.202  1.00  0.00     0.136 A 
ATOM     19  N   UNL A   1      32.638  23.615  23.055  1.00  0.00    -0.330 N 
ATOM     20  N   UNL A   1      33.463  25.338  21.886  1.00  0.00    -0.245 NA
ATOM     21  C   UNL A   1      32.807  24.211  21.822  1.00  0.00     0.199 A 
BRANCH  19  22
ATOM     22  C   UNL A   1      31.859  22.388  23.066  1.00  0.00     0.088 C 
ATOM     23  C   UNL A   1      32.051  21.139  22.266  1.00  0.00     0.027 C 
ATOM     24  C   UNL A   1      32.286  21.092  23.730  1.00  0.00     0.027 C 
ENDBRANCH  19  22
ENDBRANCH  11  17
ENDBRANCH   5   8
ENDBRANCH   3   4
ENDBRANCH   2   3
ENDBRANCH   1   2
BRANCH   1  25
ATOM     25  C   UNL A   1      32.407  29.985  26.521  1.00  0.00     0.116 C 
BRANCH  25  26
ATOM     26  N   UNL A   1      32.289  31.421  26.722  1.00  0.00    -0.352 N 
ATOM     27  C   UNL A   1      33.163  32.276  27.356  1.00  0.00     0.251 C 
ATOM     28  H   UNL A   1      31.477  31.839  26.355  1.00  0.00     0.163 HD
ATOM     29  O   UNL A   1      32.847  33.448  27.536  1.00  0.00    -0.269 OA
BRANCH  27  30
ATOM     30  C   UNL A   1      34.456  31.754  27.853  1.00  0.00     0.039 A 
ATOM     31  C   UNL A   1      35.521  32.639  28.029  1.00  0.00     0.014 A 
ATOM     32  C   UNL A   1      34.598  30.406  28.196  1.00  0.00     0.014 A 
ATOM     33  C   UNL A   1      36.703  32.186  28.619  1.00  0.00     0.010 A 
ATOM     34  C   UNL A   1      35.744  29.979  28.864  1.00  0.00     0.010 A 
ATOM     35  C   UNL A   1      36.812  30.862  29.082  1.00  0.00    -0.014 A 
BRANCH  35  36
ATOM     36  C   UNL A   1      38.038  30.398  29.788  1.00  0.00     0.031 A 
ATOM     37  C   UNL A   1      38.328  30.864  31.191  1.00  0.00     0.074 A 
ATOM     38  C   UNL A   1      38.902  29.574  29.159  1.00  0.00     0.049 A 
ATOM     39  N   UNL A   1      39.348  30.582  31.963  1.00  0.00    -0.248 NA
ATOM     40  C   UNL A   1      37.358  31.788  31.798  1.00  0.00     0.031 C 
ATOM     41  C   UNL A   1      38.761  29.090  27.783  1.00  0.00     0.029 A 
ATOM     42  N   UNL A   1      40.069  28.992  29.591  1.00  0.00    -0.354 N 
ATOM     43  C   UNL A   1      39.135  31.281  33.146  1.00  0.00     0.074 A 
ATOM     44  C   UNL A   1      37.935  32.067  32.957  1.00  0.00     0.031 C 
ATOM     45  C   UNL A   1      39.775  28.257  27.501  1.00  0.00     0.029 A 
ATOM     46  C   UNL A   1      40.667  28.179  28.653  1.00  0.00     0.049 A 
ATOM     47  H   UNL A   1      40.443  29.142  30.488  1.00  0.00     0.167 HD
ATOM     48  C   UNL A   1      39.848  31.243  34.299  1.00  0.00     0.034 A 
ATOM     49  C   UNL A   1      41.803  27.456  28.715  1.00  0.00     0.034 A 
ATOM     50  C   UNL A   1      41.044  30.458  34.479  1.00  0.00     0.049 A 
ATOM     51  C   UNL A   1      42.598  27.463  30.000  1.00  0.00     0.074 A 
ATOM     52  C   UNL A   1      41.841  30.347  35.606  1.00  0.00     0.029 A 
ATOM     53  N   UNL A   1      41.617  29.647  33.509  1.00  0.00    -0.354 N 
ATOM     54  N   UNL A   1      42.352  28.099  31.123  1.00  0.00    -0.248 NA
ATOM     55  C   UNL A   1      43.807  26.633  30.032  1.00  0.00     0.031 C 
ATOM     56  C   UNL A   1      42.925  29.515  35.300  1.00  0.00     0.029 A 
ATOM     57  C   UNL A   1      42.761  29.042  34.008  1.00  0.00     0.049 A 
ATOM     58  H   UNL A   1      41.263  29.518  32.599  1.00  0.00     0.167 HD
ATOM     59  C   UNL A   1      43.356  27.705  32.007  1.00  0.00     0.074 A 
ATOM     60  C   UNL A   1      44.185  26.757  31.293  1.00  0.00     0.031 C 
ATOM     61  C   UNL A   1      43.578  28.094  33.289  1.00  0.00     0.034 A 
BRANCH  48  62
ATOM     62  C   UNL A   1      39.344  32.075  35.454  1.00  0.00     0.023 A 
ATOM     63  C   UNL A   1      39.748  33.413  35.621  1.00  0.00     0.031 A 
ATOM     64  C   UNL A   1      38.456  31.536  36.399  1.00  0.00     0.131 A 
ATOM     65  C   UNL A   1      39.314  34.143  36.736  1.00  0.00     0.055 A 
ATOM     66  C   UNL A   1      37.964  32.294  37.464  1.00  0.00     0.041 A 
ATOM     67  F   UNL A   1      38.052  30.258  36.306  1.00  0.00    -0.206 F 
ATOM     68  C   UNL A   1      38.402  33.602  37.644  1.00  0.00     0.022 A 
BRANCH  65  69
ATOM     69  S   UNL A   1      40.054  35.770  37.048  1.00  0.00     0.124 S 
ATOM     70  O   UNL A   1      41.472  35.434  37.148  1.00  0.00    -0.237 OA
ATOM     71  O   UNL A   1      39.661  36.529  35.867  1.00  0.00    -0.237 OA
ATOM     72  O   UNL A   1      39.431  36.195  38.299  1.00  0.00    -0.744 OA
ENDBRANCH  65  69
ENDBRANCH  48  62
BRANCH  49  73
ATOM     73  C   UNL A   1      42.281  26.666  27.540  1.00  0.00     0.023 A 
ATOM     74  C   UNL A   1      41.882  25.331  27.352  1.00  0.00     0.031 A 
ATOM     75  C   UNL A   1      43.225  27.197  26.643  1.00  0.00     0.131 A 
ATOM     76  C   UNL A   1      42.487  24.551  26.356  1.00  0.00     0.055 A 
ATOM     77  C   UNL A   1      43.768  26.439  25.605  1.00  0.00     0.041 A 
ATOM     78  F   UNL A   1      43.643  28.468  26.768  1.00  0.00    -0.206 F 
ATOM     79  C   UNL A   1      43.418  25.098  25.472  1.00  0.00     0.022 A 
BRANCH  76  80
ATOM     80  S   UNL A   1      42.154  22.767  26.331  1.00  0.00     0.124 S 
ATOM     81  O   UNL A   1      42.712  22.380  25.040  1.00  0.00    -0.237 OA
ATOM     82  O   UNL A   1      42.882  22.308  27.510  1.00  0.00    -0.237 OA
ATOM     83  O   UNL A   1      40.697  22.692  26.431  1.00  0.00    -0.744 OA
ENDBRANCH  76  80
ENDBRANCH  49  73
BRANCH  61  84
ATOM     84  C   UNL A   1      44.728  27.433  34.013  1.00  0.00     0.023 A 
ATOM     85  C   UNL A   1      44.563  26.239  34.736  1.00  0.00     0.031 A 
ATOM     86  C   UNL A   1      45.998  28.038  34.023  1.00  0.00     0.131 A 
ATOM     87  C   UNL A   1      45.618  25.740  35.515  1.00  0.00     0.055 A 
ATOM     88  C   UNL A   1      47.068  27.493  34.734  1.00  0.00     0.041 A 
ATOM     89  F   UNL A   1      46.219  29.179  33.351  1.00  0.00    -0.206 F 
ATOM     90  C   UNL A   1      46.876  26.350  35.505  1.00  0.00     0.022 A 
BRANCH  87  91
ATOM     91  S   UNL A   1      45.282  24.372  36.657  1.00  0.00     0.124 S 
ATOM     92  O   UNL A   1      44.408  23.519  35.860  1.00  0.00    -0.237 OA
ATOM     93  O   UNL A   1      46.619  23.848  36.916  1.00  0.00    -0.237 OA
ATOM     94  O   UNL A   1      44.642  25.026  37.796  1.00  0.00    -0.744 OA
ENDBRANCH  87  91
ENDBRANCH  61  84
ENDBRANCH  35  36
ENDBRANCH  27  30
ENDBRANCH  25  26
ENDBRANCH   1  25
TORSDOF 18
ENDMDL
MODEL 2
REMARK VINA RESULT:     -11.4      4.769      9.980
REMARK SMILES CCCN1C(=O)C[C@H](C(=O)NCCCCNC(=O)c2ccc(-c3c4nc(c(-c5cc(S(=O)(=O)[O-])ccc5F)c5ccc([nH]5)c(-c5cc(S(=O)(=O)[O-])ccc5F)c5nc(c(-c6cc(S(=O)(=O)[O-])ccc6F)c6ccc3[nH]6)C=C5)C=C4)cc2)[C@@H]1c1cncn1C1CC1
REMARK SMILES IDX 14 1 13 2 12 3 11 4 9 5 10 6 8 8 4 9 5 10 82 11 6 12 7 13
REMARK SMILES IDX 3 14 2 15 1 16 83 17 84 18 87 19 85 20 86 21 88 22 89 23
REMARK SMILES IDX 90 24 15 25 16 26 17 27 18 29 19 30 20 31 81 32 21 33 80 34
REMARK SMILES IDX 22 35 23 36 24 37 74 38 25 39 79 40 73 41 75 42 26 43 78 44
REMARK SMILES IDX 72 45 71 46 27 48 59 49 39 50 58 51 40 52 43 53 57 54 76 55
REMARK SMILES IDX 41 56 42 57 56 59 77 60 44 61 28 62 29 63 37 64 30 65 36 66
REMARK SMILES IDX 38 67 35 68 31 69 32 70 33 71 34 72 60 73 61 74 69 75 62 76
REMARK SMILES IDX 68 77 70 78 67 79 63 80 64 81 65 82 66 83 45 84 46 85 54 86
REMARK SMILES IDX 47 87 53 88 55 89 52 90 48 91 49 92 50 93 51 94
REMARK H PARENT 11 7 16 28 75 47 43 58
REMARK Flexibility Score: inf
ROOT
ATOM      1  C   UNL A   1      36.275  21.511  24.618  1.00  0.00     0.023 C 
ENDROOT
BRANCH   1   2
ATOM      2  C   UNL A   1      35.431  22.482  23.800  1.00  0.00     0.023 C 
BRANCH   2   3
ATOM      3  C   UNL A   1      34.018  22.674  24.319  1.00  0.00     0.116 C 
BRANCH   3   4
ATOM      4  N   UNL A   1      33.072  23.146  23.342  1.00  0.00    -0.356 N 
ATOM      5  C   UNL A   1      32.975  24.385  22.795  1.00  0.00     0.226 C 
ATOM      6  O   UNL A   1      32.288  24.503  21.775  1.00  0.00    -0.275 OA
ATOM      7  H   UNL A   1      32.411  22.486  23.031  1.00  0.00     0.163 HD
BRANCH   5   8
ATOM      8  C   UNL A   1      33.625  25.620  23.398  1.00  0.00     0.116 C 
ATOM      9  N   UNL A   1      33.599  27.566  24.744  1.00  0.00    -0.333 N 
ATOM     10  C   UNL A   1      34.027  27.932  23.463  1.00  0.00     0.224 C 
ATOM     11  C   UNL A   1      33.231  26.163  24.778  1.00  0.00     0.146 C 
ATOM     12  O   UNL A   1      34.598  28.952  23.126  1.00  0.00    -0.275 OA
ATOM     13  C   UNL A   1      33.675  26.837  22.493  1.00  0.00     0.116 C 
BRANCH   9  14
ATOM     14  C   UNL A   1      33.980  28.257  25.984  1.00  0.00     0.120 C 
BRANCH  14  15
ATOM     15  C   UNL A   1      33.053  29.346  26.552  1.00  0.00     0.018 C 
ATOM     16  C   UNL A   1      31.783  28.876  27.249  1.00  0.00     0.006 C 
ENDBRANCH  14  15
ENDBRANCH   9  14
BRANCH  11  17
ATOM     17  C   UNL A   1      31.920  25.745  25.371  1.00  0.00     0.061 A 
ATOM     18  C   UNL A   1      31.880  24.809  26.411  1.00  0.00     0.136 A 
ATOM     19  N   UNL A   1      30.576  26.068  25.203  1.00  0.00    -0.330 N 
ATOM     20  N   UNL A   1      30.624  24.555  26.853  1.00  0.00    -0.245 NA
ATOM     21  C   UNL A   1      29.865  25.328  26.125  1.00  0.00     0.199 A 
BRANCH  19  22
ATOM     22  C   UNL A   1      29.786  26.905  24.314  1.00  0.00     0.088 C 
ATOM     23  C   UNL A   1      30.056  28.297  23.838  1.00  0.00     0.027 C 
ATOM     24  C   UNL A   1      30.116  27.182  22.860  1.00  0.00     0.027 C 
ENDBRANCH  19  22
ENDBRANCH  11  17
ENDBRANCH   5   8
ENDBRANCH   3   4
ENDBRANCH   2   3
ENDBRANCH   1   2
BRANCH   1  25
ATOM     25  C   UNL A   1      37.474  22.125  25.338  1.00  0.00     0.116 C 
BRANCH  25  26
ATOM     26  N   UNL A   1      38.479  21.146  25.726  1.00  0.00    -0.352 N 
ATOM     27  C   UNL A   1      39.658  21.348  26.407  1.00  0.00     0.251 C 
ATOM     28  H   UNL A   1      38.291  20.215  25.467  1.00  0.00     0.163 HD
ATOM     29  O   UNL A   1      40.447  20.418  26.549  1.00  0.00    -0.269 OA
BRANCH  27  30
ATOM     30  C   UNL A   1      39.978  22.699  26.920  1.00  0.00     0.039 A 
ATOM     31  C   UNL A   1      40.891  22.826  27.969  1.00  0.00     0.014 A 
ATOM     32  C   UNL A   1      39.420  23.837  26.332  1.00  0.00     0.014 A 
ATOM     33  C   UNL A   1      41.299  24.099  28.376  1.00  0.00     0.010 A 
ATOM     34  C   UNL A   1      39.895  25.100  26.679  1.00  0.00     0.010 A 
ATOM     35  C   UNL A   1      40.840  25.247  27.707  1.00  0.00    -0.014 A 
BRANCH  35  36
ATOM     36  C   UNL A   1      41.337  26.600  28.082  1.00  0.00     0.031 A 
ATOM     37  C   UNL A   1      42.760  26.994  27.783  1.00  0.00     0.074 A 
ATOM     38  C   UNL A   1      40.516  27.466  28.709  1.00  0.00     0.049 A 
ATOM     39  N   UNL A   1      43.381  28.117  28.043  1.00  0.00    -0.248 NA
ATOM     40  C   UNL A   1      43.606  25.983  27.127  1.00  0.00     0.031 C 
ATOM     41  C   UNL A   1      39.130  27.189  29.099  1.00  0.00     0.029 A 
ATOM     42  N   UNL A   1      40.719  28.759  29.128  1.00  0.00    -0.354 N 
ATOM     43  C   UNL A   1      44.680  27.953  27.573  1.00  0.00     0.074 A 
ATOM     44  C   UNL A   1      44.781  26.593  27.091  1.00  0.00     0.031 C 
ATOM     45  C   UNL A   1      38.600  28.287  29.660  1.00  0.00     0.029 A 
ATOM     46  C   UNL A   1      39.614  29.334  29.716  1.00  0.00     0.049 A 
ATOM     47  H   UNL A   1      41.575  29.230  29.018  1.00  0.00     0.167 HD
ATOM     48  C   UNL A   1      45.684  28.862  27.511  1.00  0.00     0.034 A 
ATOM     49  C   UNL A   1      39.440  30.564  30.242  1.00  0.00     0.034 A 
ATOM     50  C   UNL A   1      45.576  30.216  27.995  1.00  0.00     0.049 A 
ATOM     51  C   UNL A   1      40.589  31.543  30.193  1.00  0.00     0.074 A 
ATOM     52  C   UNL A   1      46.532  31.217  27.980  1.00  0.00     0.029 A 
ATOM     53  N   UNL A   1      44.442  30.762  28.582  1.00  0.00    -0.354 N 
ATOM     54  N   UNL A   1      41.797  31.379  29.702  1.00  0.00    -0.248 NA
ATOM     55  C   UNL A   1      40.342  32.880  30.743  1.00  0.00     0.031 C 
ATOM     56  C   UNL A   1      45.997  32.348  28.606  1.00  0.00     0.029 A 
ATOM     57  C   UNL A   1      44.679  32.081  28.941  1.00  0.00     0.049 A 
ATOM     58  H   UNL A   1      43.593  30.284  28.723  1.00  0.00     0.167 HD
ATOM     59  C   UNL A   1      42.434  32.610  29.848  1.00  0.00     0.074 A 
ATOM     60  C   UNL A   1      41.465  33.509  30.441  1.00  0.00     0.031 C 
ATOM     61  C   UNL A   1      43.705  32.968  29.527  1.00  0.00     0.034 A 
BRANCH  48  62
ATOM     62  C   UNL A   1      46.987  28.414  26.892  1.00  0.00     0.023 A 
ATOM     63  C   UNL A   1      47.131  28.302  25.496  1.00  0.00     0.031 A 
ATOM     64  C   UNL A   1      48.095  28.094  27.693  1.00  0.00     0.131 A 
ATOM     65  C   UNL A   1      48.331  27.825  24.951  1.00  0.00     0.055 A 
ATOM     66  C   UNL A   1      49.314  27.696  27.140  1.00  0.00     0.041 A 
ATOM     67  F   UNL A   1      48.012  28.160  29.032  1.00  0.00    -0.206 F 
ATOM     68  C   UNL A   1      49.433  27.548  25.762  1.00  0.00     0.022 A 
BRANCH  65  69
ATOM     69  S   UNL A   1      48.391  27.457  23.176  1.00  0.00     0.124 S 
ATOM     70  O   UNL A   1      47.221  28.184  22.686  1.00  0.00    -0.237 OA
ATOM     71  O   UNL A   1      49.687  27.997  22.783  1.00  0.00    -0.237 OA
ATOM     72  O   UNL A   1      48.279  26.002  23.123  1.00  0.00    -0.744 OA
ENDBRANCH  65  69
ENDBRANCH  48  62
BRANCH  49  73
ATOM     73  C   UNL A   1      38.142  30.959  30.869  1.00  0.00     0.023 A 
ATOM     74  C   UNL A   1      37.134  31.586  30.117  1.00  0.00     0.031 A 
ATOM     75  C   UNL A   1      37.929  30.811  32.251  1.00  0.00     0.131 A 
ATOM     76  C   UNL A   1      36.007  32.120  30.760  1.00  0.00     0.055 A 
ATOM     77  C   UNL A   1      36.770  31.276  32.876  1.00  0.00     0.041 A 
ATOM     78  F   UNL A   1      38.854  30.216  33.023  1.00  0.00    -0.206 F 
ATOM     79  C   UNL A   1      35.811  31.957  32.133  1.00  0.00     0.022 A 
BRANCH  76  80
ATOM     80  S   UNL A   1      34.875  33.165  29.801  1.00  0.00     0.124 S 
ATOM     81  O   UNL A   1      34.026  33.721  30.849  1.00  0.00    -0.237 OA
ATOM     82  O   UNL A   1      35.797  34.097  29.159  1.00  0.00    -0.237 OA
ATOM     83  O   UNL A   1      34.220  32.218  28.900  1.00  0.00    -0.744 OA
ENDBRANCH  76  80
ENDBRANCH  49  73
BRANCH  61  84
ATOM     84  C   UNL A   1      44.084  34.414  29.753  1.00  0.00     0.023 A 
ATOM     85  C   UNL A   1      43.864  35.401  28.776  1.00  0.00     0.031 A 
ATOM     86  C   UNL A   1      44.724  34.799  30.945  1.00  0.00     0.131 A 
ATOM     87  C   UNL A   1      44.365  36.698  28.966  1.00  0.00     0.055 A 
ATOM     88  C   UNL A   1      45.149  36.111  31.162  1.00  0.00     0.041 A 
ATOM     89  F   UNL A   1      44.961  33.903  31.915  1.00  0.00    -0.206 F 
ATOM     90  C   UNL A   1      44.990  37.064  30.160  1.00  0.00     0.022 A 
BRANCH  87  91
ATOM     91  S   UNL A   1      44.321  37.857  27.571  1.00  0.00     0.124 S 
ATOM     92  O   UNL A   1      45.607  37.609  26.929  1.00  0.00    -0.237 OA
ATOM     93  O   UNL A   1      43.144  37.409  26.833  1.00  0.00    -0.237 OA
ATOM     94  O   UNL A   1      44.190  39.162  28.215  1.00  0.00    -0.744 OA
ENDBRANCH  87  91
ENDBRANCH  61  84
ENDBRANCH  35  36
ENDBRANCH  27  30
ENDBRANCH  25  26
ENDBRANCH   1  25
TORSDOF 18
ENDMDL
MODEL 3
REMARK VINA RESULT:     -11.3      1.624      2.121
REMARK SMILES CCCN1C(=O)C[C@H](C(=O)NCCCCNC(=O)c2ccc(-c3c4nc(c(-c5cc(S(=O)(=O)[O-])ccc5F)c5ccc([nH]5)c(-c5cc(S(=O)(=O)[O-])ccc5F)c5nc(c(-c6cc(S(=O)(=O)[O-])ccc6F)c6ccc3[nH]6)C=C5)C=C4)cc2)[C@@H]1c1cncn1C1CC1
REMARK SMILES IDX 14 1 13 2 12 3 11 4 9 5 10 6 8 8 4 9 5 10 82 11 6 12 7 13
REMARK SMILES IDX 3 14 2 15 1 16 83 17 84 18 87 19 85 20 86 21 88 22 89 23
REMARK SMILES IDX 90 24 15 25 16 26 17 27 18 29 19 30 20 31 81 32 21 33 80 34
REMARK SMILES IDX 22 35 23 36 24 37 74 38 25 39 79 40 73 41 75 42 26 43 78 44
REMARK SMILES IDX 72 45 71 46 27 48 59 49 39 50 58 51 40 52 43 53 57 54 76 55
REMARK SMILES IDX 41 56 42 57 56 59 77 60 44 61 28 62 29 63 37 64 30 65 36 66
REMARK SMILES IDX 38 67 35 68 31 69 32 70 33 71 34 72 60 73 61 74 69 75 62 76
REMARK SMILES IDX 68 77 70 78 67 79 63 80 64 81 65 82 66 83 45 84 46 85 54 86
REMARK SMILES IDX 47 87 53 88 55 89 52 90 48 91 49 92 50 93 51 94
REMARK H PARENT 11 7 16 28 75 47 43 58
REMARK Flexibility Score: inf
ROOT
ATOM      1  C   UNL A   1      32.202  29.718  27.041  1.00  0.00     0.023 C 
ENDROOT
BRANCH   1   2
ATOM      2  C   UNL A   1      32.839  28.339  27.171  1.00  0.00     0.023 C 
BRANCH   2   3
ATOM      3  C   UNL A   1      33.735  27.951  26.009  1.00  0.00     0.116 C 
BRANCH   3   4
ATOM      4  N   UNL A   1      33.044  27.430  24.858  1.00  0.00    -0.356 N 
ATOM      5  C   UNL A   1      32.142  26.416  24.806  1.00  0.00     0.226 C 
ATOM      6  O   UNL A   1      31.457  26.318  23.783  1.00  0.00    -0.275 OA
ATOM      7  H   UNL A   1      33.252  27.864  24.000  1.00  0.00     0.163 HD
BRANCH   5   8
ATOM      8  C   UNL A   1      31.973  25.388  25.913  1.00  0.00     0.116 C 
ATOM      9  N   UNL A   1      32.281  23.237  26.851  1.00  0.00    -0.333 N 
ATOM     10  C   UNL A   1      30.911  23.527  26.873  1.00  0.00     0.224 C 
ATOM     11  C   UNL A   1      33.015  24.294  26.182  1.00  0.00     0.146 C 
ATOM     12  O   UNL A   1      30.040  22.980  27.521  1.00  0.00    -0.275 OA
ATOM     13  C   UNL A   1      30.635  24.674  25.939  1.00  0.00     0.116 C 
BRANCH   9  14
ATOM     14  C   UNL A   1      32.966  22.354  27.806  1.00  0.00     0.120 C 
BRANCH  14  15
ATOM     15  C   UNL A   1      33.812  21.185  27.274  1.00  0.00     0.018 C 
ATOM     16  C   UNL A   1      33.354  20.540  25.973  1.00  0.00     0.006 C 
ENDBRANCH  14  15
ENDBRANCH   9  14
BRANCH  11  17
ATOM     17  C   UNL A   1      34.004  23.958  25.108  1.00  0.00     0.061 A 
ATOM     18  C   UNL A   1      35.378  24.083  25.345  1.00  0.00     0.136 A 
ATOM     19  N   UNL A   1      33.965  23.472  23.804  1.00  0.00    -0.330 N 
ATOM     20  N   UNL A   1      36.138  23.720  24.284  1.00  0.00    -0.245 NA
ATOM     21  C   UNL A   1      35.273  23.346  23.381  1.00  0.00     0.199 A 
BRANCH  19  22
ATOM     22  C   UNL A   1      32.946  23.134  22.824  1.00  0.00     0.088 C 
ATOM     23  C   UNL A   1      32.391  21.794  22.460  1.00  0.00     0.027 C 
ATOM     24  C   UNL A   1      31.511  22.767  23.153  1.00  0.00     0.027 C 
ENDBRANCH  19  22
ENDBRANCH  11  17
ENDBRANCH   5   8
ENDBRANCH   3   4
ENDBRANCH   2   3
ENDBRANCH   1   2
BRANCH   1  25
ATOM     25  C   UNL A   1      33.068  30.783  26.373  1.00  0.00     0.116 C 
BRANCH  25  26
ATOM     26  N   UNL A   1      32.927  32.102  26.972  1.00  0.00    -0.352 N 
ATOM     27  C   UNL A   1      33.753  32.727  27.880  1.00  0.00     0.251 C 
ATOM     28  H   UNL A   1      32.136  32.616  26.692  1.00  0.00     0.163 HD
ATOM     29  O   UNL A   1      33.418  33.801  28.370  1.00  0.00    -0.269 OA
BRANCH  27  30
ATOM     30  C   UNL A   1      35.016  32.070  28.284  1.00  0.00     0.039 A 
ATOM     31  C   UNL A   1      36.201  32.807  28.257  1.00  0.00     0.014 A 
ATOM     32  C   UNL A   1      35.021  30.749  28.739  1.00  0.00     0.014 A 
ATOM     33  C   UNL A   1      37.376  32.241  28.758  1.00  0.00     0.010 A 
ATOM     34  C   UNL A   1      36.172  30.220  29.319  1.00  0.00     0.010 A 
ATOM     35  C   UNL A   1      37.365  30.958  29.334  1.00  0.00    -0.014 A 
BRANCH  35  36
ATOM     36  C   UNL A   1      38.596  30.385  29.946  1.00  0.00     0.031 A 
ATOM     37  C   UNL A   1      39.040  30.830  31.314  1.00  0.00     0.074 A 
ATOM     38  C   UNL A   1      39.325  29.480  29.261  1.00  0.00     0.049 A 
ATOM     39  N   UNL A   1      40.088  30.458  32.007  1.00  0.00    -0.248 NA
ATOM     40  C   UNL A   1      38.212  31.846  31.985  1.00  0.00     0.031 C 
ATOM     41  C   UNL A   1      39.029  29.003  27.908  1.00  0.00     0.029 A 
ATOM     42  N   UNL A   1      40.464  28.792  29.607  1.00  0.00    -0.354 N 
ATOM     43  C   UNL A   1      40.037  31.181  33.194  1.00  0.00     0.074 A 
ATOM     44  C   UNL A   1      38.905  32.076  33.090  1.00  0.00     0.031 C 
ATOM     45  C   UNL A   1      39.934  28.075  27.557  1.00  0.00     0.029 A 
ATOM     46  C   UNL A   1      40.905  27.921  28.636  1.00  0.00     0.049 A 
ATOM     47  H   UNL A   1      40.921  28.912  30.469  1.00  0.00     0.167 HD
ATOM     48  C   UNL A   1      40.834  31.083  34.286  1.00  0.00     0.034 A 
ATOM     49  C   UNL A   1      41.970  27.095  28.616  1.00  0.00     0.034 A 
ATOM     50  C   UNL A   1      41.962  30.190  34.381  1.00  0.00     0.049 A 
ATOM     51  C   UNL A   1      42.863  27.034  29.833  1.00  0.00     0.074 A 
ATOM     52  C   UNL A   1      42.834  30.011  35.442  1.00  0.00     0.029 A 
ATOM     53  N   UNL A   1      42.377  29.323  33.379  1.00  0.00    -0.354 N 
ATOM     54  N   UNL A   1      42.769  27.697  30.964  1.00  0.00    -0.248 NA
ATOM     55  C   UNL A   1      43.988  26.094  29.781  1.00  0.00     0.031 C 
ATOM     56  C   UNL A   1      43.807  29.079  35.062  1.00  0.00     0.029 A 
ATOM     57  C   UNL A   1      43.496  28.615  33.794  1.00  0.00     0.049 A 
ATOM     58  H   UNL A   1      41.940  29.222  32.503  1.00  0.00     0.167 HD
ATOM     59  C   UNL A   1      43.800  27.216  31.770  1.00  0.00     0.074 A 
ATOM     60  C   UNL A   1      44.477  26.189  31.006  1.00  0.00     0.031 C 
ATOM     61  C   UNL A   1      44.160  27.591  33.025  1.00  0.00     0.034 A 
BRANCH  48  62
ATOM     62  C   UNL A   1      40.505  31.966  35.466  1.00  0.00     0.023 A 
ATOM     63  C   UNL A   1      39.407  31.689  36.301  1.00  0.00     0.031 A 
ATOM     64  C   UNL A   1      41.288  33.094  35.764  1.00  0.00     0.131 A 
ATOM     65  C   UNL A   1      39.088  32.560  37.353  1.00  0.00     0.055 A 
ATOM     66  C   UNL A   1      41.012  33.913  36.861  1.00  0.00     0.041 A 
ATOM     67  F   UNL A   1      42.335  33.423  34.991  1.00  0.00    -0.206 F 
ATOM     68  C   UNL A   1      39.899  33.655  37.656  1.00  0.00     0.022 A 
BRANCH  65  69
ATOM     69  S   UNL A   1      37.528  32.308  38.244  1.00  0.00     0.124 S 
ATOM     70  O   UNL A   1      37.849  32.858  39.559  1.00  0.00    -0.237 OA
ATOM     71  O   UNL A   1      36.580  33.076  37.446  1.00  0.00    -0.237 OA
ATOM     72  O   UNL A   1      37.344  30.859  38.209  1.00  0.00    -0.744 OA
ENDBRANCH  65  69
ENDBRANCH  48  62
BRANCH  49  73
ATOM     73  C   UNL A   1      42.276  26.256  27.417  1.00  0.00     0.023 A 
ATOM     74  C   UNL A   1      41.849  24.919  27.340  1.00  0.00     0.031 A 
ATOM     75  C   UNL A   1      43.087  26.743  26.377  1.00  0.00     0.131 A 
ATOM     76  C   UNL A   1      42.306  24.095  26.300  1.00  0.00     0.055 A 
ATOM     77  C   UNL A   1      43.476  25.941  25.304  1.00  0.00     0.041 A 
ATOM     78  F   UNL A   1      43.522  28.014  26.393  1.00  0.00    -0.206 F 
ATOM     79  C   UNL A   1      43.106  24.600  25.274  1.00  0.00     0.022 A 
BRANCH  76  80
ATOM     80  S   UNL A   1      41.966  22.314  26.393  1.00  0.00     0.124 S 
ATOM     81  O   UNL A   1      42.563  21.966  27.677  1.00  0.00    -0.237 OA
ATOM     82  O   UNL A   1      40.508  22.283  26.332  1.00  0.00    -0.237 OA
ATOM     83  O   UNL A   1      42.650  21.777  25.218  1.00  0.00    -0.744 OA
ENDBRANCH  76  80
ENDBRANCH  49  73
BRANCH  61  84
ATOM     84  C   UNL A   1      45.298  26.828  33.664  1.00  0.00     0.023 A 
ATOM     85  C   UNL A   1      45.083  25.647  34.396  1.00  0.00     0.031 A 
ATOM     86  C   UNL A   1      46.613  27.323  33.584  1.00  0.00     0.131 A 
ATOM     87  C   UNL A   1      46.145  25.054  35.096  1.00  0.00     0.055 A 
ATOM     88  C   UNL A   1      47.680  26.683  34.216  1.00  0.00     0.041 A 
ATOM     89  F   UNL A   1      46.882  28.445  32.899  1.00  0.00    -0.206 F 
ATOM     90  C   UNL A   1      47.446  25.554  34.997  1.00  0.00     0.022 A 
BRANCH  87  91
ATOM     91  S   UNL A   1      45.774  23.711  36.257  1.00  0.00     0.124 S 
ATOM     92  O   UNL A   1      44.980  22.808  35.433  1.00  0.00    -0.237 OA
ATOM     93  O   UNL A   1      47.107  23.237  36.618  1.00  0.00    -0.237 OA
ATOM     94  O   UNL A   1      45.043  24.379  37.332  1.00  0.00    -0.744 OA
ENDBRANCH  87  91
ENDBRANCH  61  84
ENDBRANCH  35  36
ENDBRANCH  27  30
ENDBRANCH  25  26
ENDBRANCH   1  25
TORSDOF 18
ENDMDL
