MODEL 1
REMARK VINA RESULT:     -10.1      0.000      0.000
REMARK SMILES CSc1ccc(C[C@H]([NH3+])C(=O)NCCCCNC(=O)c2ccc(-c3c4nc(c(-c5cc(S(=O)(=O)[O-])ccc5F)c5ccc([nH]5)c(-c5cc(S(=O)(=O)[O-])ccc5F)c5nc(c(-c6cc(S(=O)(=O)[O-])ccc6F)c6ccc3[nH]6)C=C5)C=C4)cc2)cc1
REMARK SMILES IDX 14 1 13 2 12 3 10 4 11 5 8 7 7 8 6 9 3 10 4 11 84 12 5 13
REMARK SMILES IDX 83 14 2 15 1 16 9 17 15 21 16 22 17 23 18 24 19 26 20 27
REMARK SMILES IDX 21 28 82 29 22 30 81 31 23 32 24 33 25 34 75 35 26 36 80 37
REMARK SMILES IDX 74 38 76 39 27 40 79 41 73 42 72 43 28 45 60 46 40 47 59 48
REMARK SMILES IDX 41 49 44 50 58 51 77 52 42 53 43 54 57 56 78 57 45 58 29 59
REMARK SMILES IDX 30 60 38 61 31 62 37 63 39 64 36 65 32 66 33 67 34 68 35 69
REMARK SMILES IDX 61 70 62 71 70 72 63 73 69 74 71 75 68 76 64 77 65 78 66 79
REMARK SMILES IDX 67 80 46 81 47 82 55 83 48 84 54 85 56 86 53 87 49 88 50 89
REMARK SMILES IDX 51 90 52 91
REMARK H PARENT 12 6 9 18 9 19 9 20 17 25 76 44 44 55
REMARK Flexibility Score: inf
ROOT
ATOM      1  C   UNL A   1      41.957  19.520  26.347  1.00  0.00     0.023 C 
ENDROOT
BRANCH   1   2
ATOM      2  C   UNL A   1      43.259  20.009  25.737  1.00  0.00     0.116 C 
BRANCH   2   3
ATOM      3  N   UNL A   1      43.166  21.253  25.011  1.00  0.00    -0.351 N 
ATOM      4  C   UNL A   1      44.162  22.098  24.612  1.00  0.00     0.278 C 
ATOM      5  O   UNL A   1      43.859  22.981  23.802  1.00  0.00    -0.268 OA
ATOM      6  H   UNL A   1      42.254  21.534  24.769  1.00  0.00     0.163 HD
BRANCH   4   7
ATOM      7  C   UNL A   1      45.607  22.035  25.178  1.00  0.00     0.275 C 
BRANCH   7   8
ATOM      8  C   UNL A   1      46.208  23.370  25.686  1.00  0.00     0.111 C 
BRANCH   8   9
ATOM      9  C   UNL A   1      45.820  23.881  27.055  1.00  0.00    -0.041 A 
ATOM     10  C   UNL A   1      45.265  24.637  29.723  1.00  0.00     0.007 A 
ATOM     11  C   UNL A   1      44.427  23.746  29.049  1.00  0.00     0.015 A 
ATOM     12  C   UNL A   1      46.337  25.206  29.026  1.00  0.00     0.015 A 
ATOM     13  C   UNL A   1      44.691  23.384  27.721  1.00  0.00     0.005 A 
ATOM     14  C   UNL A   1      46.612  24.836  27.704  1.00  0.00     0.005 A 
BRANCH  10  15
ATOM     15  S   UNL A   1      45.034  25.123  31.422  1.00  0.00    -0.130 SA
ATOM     16  C   UNL A   1      44.161  23.699  32.131  1.00  0.00     0.091 C 
ENDBRANCH  10  15
ENDBRANCH   8   9
ENDBRANCH   7   8
BRANCH   7  17
ATOM     17  N   UNL A   1      46.485  21.190  24.331  1.00  0.00    -0.347 N 
ATOM     18  H   UNL A   1      46.164  20.222  24.369  1.00  0.00     0.345 HD
ATOM     19  H   UNL A   1      47.443  21.243  24.676  1.00  0.00     0.345 HD
ATOM     20  H   UNL A   1      46.450  21.522  23.368  1.00  0.00     0.345 HD
ENDBRANCH   7  17
ENDBRANCH   4   7
ENDBRANCH   2   3
ENDBRANCH   1   2
BRANCH   1  21
ATOM     21  C   UNL A   1      41.583  20.167  27.674  1.00  0.00     0.023 C 
BRANCH  21  22
ATOM     22  C   UNL A   1      40.876  21.515  27.576  1.00  0.00     0.116 C 
BRANCH  22  23
ATOM     23  N   UNL A   1      39.722  21.511  26.688  1.00  0.00    -0.352 N 
ATOM     24  C   UNL A   1      38.900  22.556  26.331  1.00  0.00     0.251 C 
ATOM     25  H   UNL A   1      39.500  20.640  26.286  1.00  0.00     0.163 HD
ATOM     26  O   UNL A   1      37.864  22.331  25.709  1.00  0.00    -0.269 OA
BRANCH  24  27
ATOM     27  C   UNL A   1      39.244  23.937  26.740  1.00  0.00     0.039 A 
ATOM     28  C   UNL A   1      38.917  24.366  28.027  1.00  0.00     0.014 A 
ATOM     29  C   UNL A   1      39.912  24.800  25.867  1.00  0.00     0.014 A 
ATOM     30  C   UNL A   1      39.326  25.629  28.461  1.00  0.00     0.010 A 
ATOM     31  C   UNL A   1      40.412  26.010  26.334  1.00  0.00     0.010 A 
ATOM     32  C   UNL A   1      40.112  26.447  27.632  1.00  0.00    -0.014 A 
BRANCH  32  33
ATOM     33  C   UNL A   1      40.593  27.773  28.102  1.00  0.00     0.031 A 
ATOM     34  C   UNL A   1      42.060  28.107  28.045  1.00  0.00     0.074 A 
ATOM     35  C   UNL A   1      39.717  28.655  28.621  1.00  0.00     0.049 A 
ATOM     36  N   UNL A   1      42.677  29.200  28.412  1.00  0.00    -0.248 NA
ATOM     37  C   UNL A   1      42.953  27.052  27.547  1.00  0.00     0.031 C 
ATOM     38  C   UNL A   1      38.284  28.416  28.802  1.00  0.00     0.029 A 
ATOM     39  N   UNL A   1      39.902  29.930  29.093  1.00  0.00    -0.354 N 
ATOM     40  C   UNL A   1      44.031  28.959  28.197  1.00  0.00     0.074 A 
ATOM     41  C   UNL A   1      44.145  27.583  27.764  1.00  0.00     0.031 C 
ATOM     42  C   UNL A   1      37.715  29.521  29.310  1.00  0.00     0.029 A 
ATOM     43  C   UNL A   1      38.743  30.534  29.524  1.00  0.00     0.049 A 
ATOM     44  H   UNL A   1      40.781  30.372  29.121  1.00  0.00     0.167 HD
ATOM     45  C   UNL A   1      45.078  29.815  28.312  1.00  0.00     0.034 A 
ATOM     46  C   UNL A   1      38.534  31.764  30.030  1.00  0.00     0.034 A 
ATOM     47  C   UNL A   1      44.940  31.184  28.748  1.00  0.00     0.049 A 
ATOM     48  C   UNL A   1      39.701  32.711  30.138  1.00  0.00     0.074 A 
ATOM     49  C   UNL A   1      45.916  32.158  28.870  1.00  0.00     0.029 A 
ATOM     50  N   UNL A   1      43.744  31.773  29.147  1.00  0.00    -0.354 N 
ATOM     51  N   UNL A   1      40.968  32.494  29.866  1.00  0.00    -0.248 NA
ATOM     52  C   UNL A   1      39.404  34.072  30.591  1.00  0.00     0.031 C 
ATOM     53  C   UNL A   1      45.323  33.309  29.404  1.00  0.00     0.029 A 
ATOM     54  C   UNL A   1      43.962  33.087  29.535  1.00  0.00     0.049 A 
ATOM     55  H   UNL A   1      42.869  31.322  29.153  1.00  0.00     0.167 HD
ATOM     56  C   UNL A   1      41.616  33.706  30.088  1.00  0.00     0.074 A 
ATOM     57  C   UNL A   1      40.593  34.649  30.497  1.00  0.00     0.031 C 
ATOM     58  C   UNL A   1      42.934  34.013  29.960  1.00  0.00     0.034 A 
BRANCH  45  59
ATOM     59  C   UNL A   1      46.451  29.267  27.980  1.00  0.00     0.023 A 
ATOM     60  C   UNL A   1      46.846  29.022  26.650  1.00  0.00     0.031 A 
ATOM     61  C   UNL A   1      47.345  28.901  29.001  1.00  0.00     0.131 A 
ATOM     62  C   UNL A   1      48.032  28.325  26.385  1.00  0.00     0.055 A 
ATOM     63  C   UNL A   1      48.577  28.303  28.722  1.00  0.00     0.041 A 
ATOM     64  F   UNL A   1      47.027  29.088  30.291  1.00  0.00    -0.206 F 
ATOM     65  C   UNL A   1      48.916  27.987  27.410  1.00  0.00     0.022 A 
BRANCH  62  66
ATOM     66  S   UNL A   1      48.298  27.682  24.707  1.00  0.00     0.124 S 
ATOM     67  O   UNL A   1      47.179  28.282  23.983  1.00  0.00    -0.237 OA
ATOM     68  O   UNL A   1      49.622  28.195  24.379  1.00  0.00    -0.237 OA
ATOM     69  O   UNL A   1      48.211  26.233  24.878  1.00  0.00    -0.744 OA
ENDBRANCH  62  66
ENDBRANCH  45  59
BRANCH  46  70
ATOM     70  C   UNL A   1      37.164  32.171  30.455  1.00  0.00     0.023 A 
ATOM     71  C   UNL A   1      36.267  32.774  29.560  1.00  0.00     0.031 A 
ATOM     72  C   UNL A   1      36.732  31.957  31.777  1.00  0.00     0.131 A 
ATOM     73  C   UNL A   1      34.994  33.170  30.002  1.00  0.00     0.055 A 
ATOM     74  C   UNL A   1      35.450  32.310  32.201  1.00  0.00     0.041 A 
ATOM     75  F   UNL A   1      37.546  31.373  32.671  1.00  0.00    -0.206 F 
ATOM     76  C   UNL A   1      34.577  32.930  31.314  1.00  0.00     0.022 A 
BRANCH  73  77
ATOM     77  S   UNL A   1      33.904  34.052  28.852  1.00  0.00     0.124 S 
ATOM     78  O   UNL A   1      33.456  32.975  27.978  1.00  0.00    -0.237 OA
ATOM     79  O   UNL A   1      32.900  34.609  29.752  1.00  0.00    -0.237 OA
ATOM     80  O   UNL A   1      34.790  35.035  28.230  1.00  0.00    -0.744 OA
ENDBRANCH  73  77
ENDBRANCH  46  70
BRANCH  58  81
ATOM     81  C   UNL A   1      43.329  35.448  30.224  1.00  0.00     0.023 A 
ATOM     82  C   UNL A   1      43.302  36.425  29.214  1.00  0.00     0.031 A 
ATOM     83  C   UNL A   1      43.773  35.833  31.502  1.00  0.00     0.131 A 
ATOM     84  C   UNL A   1      43.786  37.716  29.476  1.00  0.00     0.055 A 
ATOM     85  C   UNL A   1      44.184  37.139  31.776  1.00  0.00     0.041 A 
ATOM     86  F   UNL A   1      43.825  34.944  32.506  1.00  0.00    -0.206 F 
ATOM     87  C   UNL A   1      44.210  38.085  30.755  1.00  0.00     0.022 A 
BRANCH  84  88
ATOM     88  S   UNL A   1      43.982  38.870  28.089  1.00  0.00     0.124 S 
ATOM     89  O   UNL A   1      45.421  39.119  28.103  1.00  0.00    -0.237 OA
ATOM     90  O   UNL A   1      43.481  38.089  26.962  1.00  0.00    -0.237 OA
ATOM     91  O   UNL A   1      43.152  40.010  28.472  1.00  0.00    -0.744 OA
ENDBRANCH  84  88
ENDBRANCH  58  81
ENDBRANCH  32  33
ENDBRANCH  24  27
ENDBRANCH  22  23
ENDBRANCH  21  22
ENDBRANCH   1  21
TORSDOF 18
ENDMDL
MODEL 2
REMARK VINA RESULT:      -9.9      5.858     11.499
REMARK SMILES CSc1ccc(C[C@H]([NH3+])C(=O)NCCCCNC(=O)c2ccc(-c3c4nc(c(-c5cc(S(=O)(=O)[O-])ccc5F)c5ccc([nH]5)c(-c5cc(S(=O)(=O)[O-])ccc5F)c5nc(c(-c6cc(S(=O)(=O)[O-])ccc6F)c6ccc3[nH]6)C=C5)C=C4)cc2)cc1
REMARK SMILES IDX 14 1 13 2 12 3 10 4 11 5 8 7 7 8 6 9 3 10 4 11 84 12 5 13
REMARK SMILES IDX 83 14 2 15 1 16 9 17 15 21 16 22 17 23 18 24 19 26 20 27
REMARK SMILES IDX 21 28 82 29 22 30 81 31 23 32 24 33 25 34 75 35 26 36 80 37
REMARK SMILES IDX 74 38 76 39 27 40 79 41 73 42 72 43 28 45 60 46 40 47 59 48
REMARK SMILES IDX 41 49 44 50 58 51 77 52 42 53 43 54 57 56 78 57 45 58 29 59
REMARK SMILES IDX 30 60 38 61 31 62 37 63 39 64 36 65 32 66 33 67 34 68 35 69
REMARK SMILES IDX 61 70 62 71 70 72 63 73 69 74 71 75 68 76 64 77 65 78 66 79
REMARK SMILES IDX 67 80 46 81 47 82 55 83 48 84 54 85 56 86 53 87 49 88 50 89
REMARK SMILES IDX 51 90 52 91
REMARK H PARENT 12 6 9 18 9 19 9 20 17 25 76 44 44 55
REMARK Flexibility Score: inf
ROOT
ATOM      1  C   UNL A   1      31.301  27.797  25.090  1.00  0.00     0.023 C 
ENDROOT
BRANCH   1   2
ATOM      2  C   UNL A   1      31.987  26.441  25.087  1.00  0.00     0.116 C 
BRANCH   2   3
ATOM      3  N   UNL A   1      31.664  25.589  26.206  1.00  0.00    -0.351 N 
ATOM      4  C   UNL A   1      31.584  24.227  26.261  1.00  0.00     0.278 C 
ATOM      5  O   UNL A   1      31.522  23.713  27.384  1.00  0.00    -0.268 OA
ATOM      6  H   UNL A   1      31.476  26.057  27.053  1.00  0.00     0.163 HD
BRANCH   4   7
ATOM      7  C   UNL A   1      31.497  23.330  24.997  1.00  0.00     0.275 C 
BRANCH   7   8
ATOM      8  C   UNL A   1      32.843  22.939  24.335  1.00  0.00     0.111 C 
BRANCH   8   9
ATOM      9  C   UNL A   1      33.257  21.485  24.308  1.00  0.00    -0.041 A 
ATOM     10  C   UNL A   1      33.927  18.746  24.518  1.00  0.00     0.007 A 
ATOM     11  C   UNL A   1      34.864  19.732  24.837  1.00  0.00     0.015 A 
ATOM     12  C   UNL A   1      32.681  19.142  24.020  1.00  0.00     0.015 A 
ATOM     13  C   UNL A   1      34.539  21.089  24.716  1.00  0.00     0.005 A 
ATOM     14  C   UNL A   1      32.348  20.497  23.911  1.00  0.00     0.005 A 
BRANCH  10  15
ATOM     15  S   UNL A   1      34.234  16.997  24.680  1.00  0.00    -0.130 SA
ATOM     16  C   UNL A   1      32.666  16.375  25.349  1.00  0.00     0.091 C 
ENDBRANCH  10  15
ENDBRANCH   8   9
ENDBRANCH   7   8
BRANCH   7  17
ATOM     17  N   UNL A   1      30.414  23.778  24.088  1.00  0.00    -0.347 N 
ATOM     18  H   UNL A   1      30.450  24.792  23.990  1.00  0.00     0.345 HD
ATOM     19  H   UNL A   1      29.511  23.506  24.476  1.00  0.00     0.345 HD
ATOM     20  H   UNL A   1      30.535  23.343  23.173  1.00  0.00     0.345 HD
ENDBRANCH   7  17
ENDBRANCH   4   7
ENDBRANCH   2   3
ENDBRANCH   1   2
BRANCH   1  21
ATOM     21  C   UNL A   1      31.739  28.739  26.203  1.00  0.00     0.023 C 
BRANCH  21  22
ATOM     22  C   UNL A   1      32.842  29.727  25.837  1.00  0.00     0.116 C 
BRANCH  22  23
ATOM     23  N   UNL A   1      32.566  31.096  26.250  1.00  0.00    -0.352 N 
ATOM     24  C   UNL A   1      33.240  31.878  27.160  1.00  0.00     0.251 C 
ATOM     25  H   UNL A   1      31.791  31.521  25.817  1.00  0.00     0.163 HD
ATOM     26  O   UNL A   1      32.756  32.951  27.516  1.00  0.00    -0.269 OA
BRANCH  24  27
ATOM     27  C   UNL A   1      34.516  31.402  27.740  1.00  0.00     0.039 A 
ATOM     28  C   UNL A   1      35.563  32.308  27.913  1.00  0.00     0.014 A 
ATOM     29  C   UNL A   1      34.672  30.071  28.139  1.00  0.00     0.014 A 
ATOM     30  C   UNL A   1      36.735  31.897  28.552  1.00  0.00     0.010 A 
ATOM     31  C   UNL A   1      35.792  29.693  28.871  1.00  0.00     0.010 A 
ATOM     32  C   UNL A   1      36.845  30.596  29.073  1.00  0.00    -0.014 A 
BRANCH  32  33
ATOM     33  C   UNL A   1      38.068  30.164  29.798  1.00  0.00     0.031 A 
ATOM     34  C   UNL A   1      38.329  30.655  31.197  1.00  0.00     0.074 A 
ATOM     35  C   UNL A   1      38.965  29.370  29.181  1.00  0.00     0.049 A 
ATOM     36  N   UNL A   1      39.337  30.401  31.991  1.00  0.00    -0.248 NA
ATOM     37  C   UNL A   1      37.344  31.589  31.758  1.00  0.00     0.031 C 
ATOM     38  C   UNL A   1      38.862  28.894  27.799  1.00  0.00     0.029 A 
ATOM     39  N   UNL A   1      40.138  28.822  29.633  1.00  0.00    -0.354 N 
ATOM     40  C   UNL A   1      39.109  31.150  33.141  1.00  0.00     0.074 A 
ATOM     41  C   UNL A   1      37.923  31.941  32.894  1.00  0.00     0.031 C 
ATOM     42  C   UNL A   1      39.908  28.096  27.530  1.00  0.00     0.029 A 
ATOM     43  C   UNL A   1      40.774  28.031  28.703  1.00  0.00     0.049 A 
ATOM     44  H   UNL A   1      40.494  28.980  30.537  1.00  0.00     0.167 HD
ATOM     45  C   UNL A   1      39.801  31.152  34.309  1.00  0.00     0.034 A 
ATOM     46  C   UNL A   1      41.920  27.329  28.789  1.00  0.00     0.034 A 
ATOM     47  C   UNL A   1      40.984  30.356  34.532  1.00  0.00     0.049 A 
ATOM     48  C   UNL A   1      42.671  27.326  30.095  1.00  0.00     0.074 A 
ATOM     49  C   UNL A   1      41.750  30.243  35.679  1.00  0.00     0.029 A 
ATOM     50  N   UNL A   1      41.582  29.540  33.577  1.00  0.00    -0.354 N 
ATOM     51  N   UNL A   1      42.408  27.986  31.201  1.00  0.00    -0.248 NA
ATOM     52  C   UNL A   1      43.853  26.463  30.173  1.00  0.00     0.031 C 
ATOM     53  C   UNL A   1      42.844  29.415  35.397  1.00  0.00     0.029 A 
ATOM     54  C   UNL A   1      42.718  28.939  34.102  1.00  0.00     0.049 A 
ATOM     55  H   UNL A   1      41.249  29.408  32.661  1.00  0.00     0.167 HD
ATOM     56  C   UNL A   1      43.379  27.592  32.117  1.00  0.00     0.074 A 
ATOM     57  C   UNL A   1      44.217  26.625  31.436  1.00  0.00     0.031 C 
ATOM     58  C   UNL A   1      43.558  27.989  33.405  1.00  0.00     0.034 A 
BRANCH  45  59
ATOM     59  C   UNL A   1      39.292  32.065  35.405  1.00  0.00     0.023 A 
ATOM     60  C   UNL A   1      39.712  33.407  35.502  1.00  0.00     0.031 A 
ATOM     61  C   UNL A   1      38.448  31.575  36.416  1.00  0.00     0.131 A 
ATOM     62  C   UNL A   1      39.392  34.165  36.636  1.00  0.00     0.055 A 
ATOM     63  C   UNL A   1      38.044  32.372  37.491  1.00  0.00     0.041 A 
ATOM     64  F   UNL A   1      38.024  30.302  36.398  1.00  0.00    -0.206 F 
ATOM     65  C   UNL A   1      38.537  33.667  37.620  1.00  0.00     0.022 A 
BRANCH  62  66
ATOM     66  S   UNL A   1      40.278  35.727  36.908  1.00  0.00     0.124 S 
ATOM     67  O   UNL A   1      41.663  35.323  36.672  1.00  0.00    -0.237 OA
ATOM     68  O   UNL A   1      39.687  36.603  35.904  1.00  0.00    -0.237 OA
ATOM     69  O   UNL A   1      39.965  36.061  38.295  1.00  0.00    -0.744 OA
ENDBRANCH  62  66
ENDBRANCH  45  59
BRANCH  46  70
ATOM     70  C   UNL A   1      42.415  26.563  27.609  1.00  0.00     0.023 A 
ATOM     71  C   UNL A   1      42.102  25.206  27.433  1.00  0.00     0.031 A 
ATOM     72  C   UNL A   1      43.212  27.189  26.633  1.00  0.00     0.131 A 
ATOM     73  C   UNL A   1      42.608  24.509  26.324  1.00  0.00     0.055 A 
ATOM     74  C   UNL A   1      43.675  26.503  25.509  1.00  0.00     0.041 A 
ATOM     75  F   UNL A   1      43.530  28.488  26.747  1.00  0.00    -0.206 F 
ATOM     76  C   UNL A   1      43.382  25.153  25.355  1.00  0.00     0.022 A 
BRANCH  73  77
ATOM     77  S   UNL A   1      42.284  22.729  26.188  1.00  0.00     0.124 S 
ATOM     78  O   UNL A   1      40.836  22.677  26.347  1.00  0.00    -0.237 OA
ATOM     79  O   UNL A   1      42.796  22.428  24.855  1.00  0.00    -0.237 OA
ATOM     80  O   UNL A   1      43.055  22.158  27.291  1.00  0.00    -0.744 OA
ENDBRANCH  73  77
ENDBRANCH  46  70
BRANCH  58  81
ATOM     81  C   UNL A   1      44.683  27.332  34.171  1.00  0.00     0.023 A 
ATOM     82  C   UNL A   1      44.486  26.164  34.927  1.00  0.00     0.031 A 
ATOM     83  C   UNL A   1      45.966  27.908  34.171  1.00  0.00     0.131 A 
ATOM     84  C   UNL A   1      45.530  25.654  35.713  1.00  0.00     0.055 A 
ATOM     85  C   UNL A   1      47.022  27.355  34.897  1.00  0.00     0.041 A 
ATOM     86  F   UNL A   1      46.215  29.027  33.472  1.00  0.00    -0.206 F 
ATOM     87  C   UNL A   1      46.802  26.231  35.689  1.00  0.00     0.022 A 
BRANCH  84  88
ATOM     88  S   UNL A   1      45.168  24.306  36.874  1.00  0.00     0.124 S 
ATOM     89  O   UNL A   1      46.464  24.104  37.516  1.00  0.00    -0.237 OA
ATOM     90  O   UNL A   1      44.125  24.889  37.710  1.00  0.00    -0.237 OA
ATOM     91  O   UNL A   1      44.732  23.215  36.005  1.00  0.00    -0.744 OA
ENDBRANCH  84  88
ENDBRANCH  58  81
ENDBRANCH  32  33
ENDBRANCH  24  27
ENDBRANCH  22  23
ENDBRANCH  21  22
ENDBRANCH   1  21
TORSDOF 18
ENDMDL
MODEL 3
REMARK VINA RESULT:      -9.9      5.718     11.589
REMARK SMILES CSc1ccc(C[C@H]([NH3+])C(=O)NCCCCNC(=O)c2ccc(-c3c4nc(c(-c5cc(S(=O)(=O)[O-])ccc5F)c5ccc([nH]5)c(-c5cc(S(=O)(=O)[O-])ccc5F)c5nc(c(-c6cc(S(=O)(=O)[O-])ccc6F)c6ccc3[nH]6)C=C5)C=C4)cc2)cc1
REMARK SMILES IDX 14 1 13 2 12 3 10 4 11 5 8 7 7 8 6 9 3 10 4 11 84 12 5 13
REMARK SMILES IDX 83 14 2 15 1 16 9 17 15 21 16 22 17 23 18 24 19 26 20 27
REMARK SMILES IDX 21 28 82 29 22 30 81 31 23 32 24 33 25 34 75 35 26 36 80 37
REMARK SMILES IDX 74 38 76 39 27 40 79 41 73 42 72 43 28 45 60 46 40 47 59 48
REMARK SMILES IDX 41 49 44 50 58 51 77 52 42 53 43 54 57 56 78 57 45 58 29 59
REMARK SMILES IDX 30 60 38 61 31 62 37 63 39 64 36 65 32 66 33 67 34 68 35 69
REMARK SMILES IDX 61 70 62 71 70 72 63 73 69 74 71 75 68 76 64 77 65 78 66 79
REMARK SMILES IDX 67 80 46 81 47 82 55 83 48 84 54 85 56 86 53 87 49 88 50 89
REMARK SMILES IDX 51 90 52 91
REMARK H PARENT 12 6 9 18 9 19 9 20 17 25 76 44 44 55
REMARK Flexibility Score: inf
ROOT
ATOM      1  C   UNL A   1      31.179  27.600  26.660  1.00  0.00     0.023 C 
ENDROOT
BRANCH   1   2
ATOM      2  C   UNL A   1      31.795  26.299  26.175  1.00  0.00     0.116 C 
BRANCH   2   3
ATOM      3  N   UNL A   1      31.376  25.118  26.892  1.00  0.00    -0.351 N 
ATOM      4  C   UNL A   1      31.207  23.843  26.434  1.00  0.00     0.278 C 
ATOM      5  O   UNL A   1      31.069  22.955  27.283  1.00  0.00    -0.268 OA
ATOM      6  H   UNL A   1      31.185  25.250  27.850  1.00  0.00     0.163 HD
BRANCH   4   7
ATOM      7  C   UNL A   1      31.112  23.488  24.925  1.00  0.00     0.275 C 
BRANCH   7   8
ATOM      8  C   UNL A   1      32.452  23.218  24.195  1.00  0.00     0.111 C 
BRANCH   8   9
ATOM      9  C   UNL A   1      33.033  21.822  24.210  1.00  0.00    -0.041 A 
ATOM     10  C   UNL A   1      33.987  19.174  24.485  1.00  0.00     0.007 A 
ATOM     11  C   UNL A   1      34.762  20.255  24.911  1.00  0.00     0.015 A 
ATOM     12  C   UNL A   1      32.767  19.433  23.850  1.00  0.00     0.015 A 
ATOM     13  C   UNL A   1      34.298  21.569  24.758  1.00  0.00     0.005 A 
ATOM     14  C   UNL A   1      32.294  20.742  23.709  1.00  0.00     0.005 A 
BRANCH  10  15
ATOM     15  S   UNL A   1      34.475  17.470  24.674  1.00  0.00    -0.130 SA
ATOM     16  C   UNL A   1      33.978  16.733  23.092  1.00  0.00     0.091 C 
ENDBRANCH  10  15
ENDBRANCH   8   9
ENDBRANCH   7   8
BRANCH   7  17
ATOM     17  N   UNL A   1      30.136  24.358  24.224  1.00  0.00    -0.347 N 
ATOM     18  H   UNL A   1      30.605  25.204  23.901  1.00  0.00     0.345 HD
ATOM     19  H   UNL A   1      29.384  24.610  24.865  1.00  0.00     0.345 HD
ATOM     20  H   UNL A   1      29.748  23.858  23.424  1.00  0.00     0.345 HD
ENDBRANCH   7  17
ENDBRANCH   4   7
ENDBRANCH   2   3
ENDBRANCH   1   2
BRANCH   1  21
ATOM     21  C   UNL A   1      32.038  28.399  27.629  1.00  0.00     0.023 C 
BRANCH  21  22
ATOM     22  C   UNL A   1      33.323  28.982  27.048  1.00  0.00     0.116 C 
BRANCH  22  23
ATOM     23  N   UNL A   1      33.442  30.424  27.216  1.00  0.00    -0.352 N 
ATOM     24  C   UNL A   1      34.449  31.145  27.818  1.00  0.00     0.251 C 
ATOM     25  H   UNL A   1      32.701  30.956  26.847  1.00  0.00     0.163 HD
ATOM     26  O   UNL A   1      34.295  32.347  28.027  1.00  0.00    -0.269 OA
BRANCH  24  27
ATOM     27  C   UNL A   1      35.688  30.461  28.252  1.00  0.00     0.039 A 
ATOM     28  C   UNL A   1      36.842  30.591  27.479  1.00  0.00     0.014 A 
ATOM     29  C   UNL A   1      35.720  29.714  29.433  1.00  0.00     0.014 A 
ATOM     30  C   UNL A   1      38.043  30.038  27.930  1.00  0.00     0.010 A 
ATOM     31  C   UNL A   1      36.935  29.258  29.933  1.00  0.00     0.010 A 
ATOM     32  C   UNL A   1      38.109  29.400  29.180  1.00  0.00    -0.014 A 
BRANCH  32  33
ATOM     33  C   UNL A   1      39.392  28.850  29.690  1.00  0.00     0.031 A 
ATOM     34  C   UNL A   1      40.061  29.478  30.883  1.00  0.00     0.074 A 
ATOM     35  C   UNL A   1      39.977  27.817  29.052  1.00  0.00     0.049 A 
ATOM     36  N   UNL A   1      41.182  29.153  31.474  1.00  0.00    -0.248 NA
ATOM     37  C   UNL A   1      39.399  30.656  31.461  1.00  0.00     0.031 C 
ATOM     38  C   UNL A   1      39.466  27.175  27.839  1.00  0.00     0.029 A 
ATOM     39  N   UNL A   1      41.127  27.124  29.333  1.00  0.00    -0.354 N 
ATOM     40  C   UNL A   1      41.362  30.090  32.486  1.00  0.00     0.074 A 
ATOM     41  C   UNL A   1      40.287  31.050  32.359  1.00  0.00     0.031 C 
ATOM     42  C   UNL A   1      40.278  26.161  27.503  1.00  0.00     0.029 A 
ATOM     43  C   UNL A   1      41.385  26.100  28.452  1.00  0.00     0.049 A 
ATOM     44  H   UNL A   1      41.714  27.341  30.093  1.00  0.00     0.167 HD
ATOM     45  C   UNL A   1      42.312  30.128  33.455  1.00  0.00     0.034 A 
ATOM     46  C   UNL A   1      42.396  25.211  28.415  1.00  0.00     0.034 A 
ATOM     47  C   UNL A   1      43.377  29.160  33.560  1.00  0.00     0.049 A 
ATOM     48  C   UNL A   1      43.436  25.253  29.505  1.00  0.00     0.074 A 
ATOM     49  C   UNL A   1      44.375  29.068  34.514  1.00  0.00     0.029 A 
ATOM     50  N   UNL A   1      43.590  28.114  32.667  1.00  0.00    -0.354 N 
ATOM     51  N   UNL A   1      43.557  26.104  30.499  1.00  0.00    -0.248 NA
ATOM     52  C   UNL A   1      44.454  24.198  29.484  1.00  0.00     0.031 C 
ATOM     53  C   UNL A   1      45.226  28.013  34.161  1.00  0.00     0.029 A 
ATOM     54  C   UNL A   1      44.713  27.389  33.036  1.00  0.00     0.049 A 
ATOM     55  H   UNL A   1      43.025  27.917  31.886  1.00  0.00     0.167 HD
ATOM     56  C   UNL A   1      44.652  25.667  31.240  1.00  0.00     0.074 A 
ATOM     57  C   UNL A   1      45.138  24.468  30.586  1.00  0.00     0.031 C 
ATOM     58  C   UNL A   1      45.200  26.204  32.362  1.00  0.00     0.034 A 
BRANCH  45  59
ATOM     59  C   UNL A   1      42.235  31.271  34.446  1.00  0.00     0.023 A 
ATOM     60  C   UNL A   1      41.281  31.284  35.483  1.00  0.00     0.031 A 
ATOM     61  C   UNL A   1      43.060  32.400  34.307  1.00  0.00     0.131 A 
ATOM     62  C   UNL A   1      41.094  32.440  36.253  1.00  0.00     0.055 A 
ATOM     63  C   UNL A   1      42.939  33.509  35.150  1.00  0.00     0.041 A 
ATOM     64  F   UNL A   1      43.977  32.464  33.330  1.00  0.00    -0.206 F 
ATOM     65  C   UNL A   1      41.935  33.545  36.113  1.00  0.00     0.022 A 
BRANCH  62  66
ATOM     66  S   UNL A   1      39.606  32.556  37.288  1.00  0.00     0.124 S 
ATOM     67  O   UNL A   1      39.016  33.806  36.812  1.00  0.00    -0.237 OA
ATOM     68  O   UNL A   1      38.887  31.336  36.942  1.00  0.00    -0.237 OA
ATOM     69  O   UNL A   1      40.137  32.607  38.648  1.00  0.00    -0.744 OA
ENDBRANCH  62  66
ENDBRANCH  45  59
BRANCH  46  70
ATOM     70  C   UNL A   1      42.462  24.201  27.320  1.00  0.00     0.023 A 
ATOM     71  C   UNL A   1      41.710  23.017  27.369  1.00  0.00     0.031 A 
ATOM     72  C   UNL A   1      43.285  24.414  26.199  1.00  0.00     0.131 A 
ATOM     73  C   UNL A   1      41.818  22.076  26.332  1.00  0.00     0.055 A 
ATOM     74  C   UNL A   1      43.354  23.497  25.150  1.00  0.00     0.041 A 
ATOM     75  F   UNL A   1      44.016  25.536  26.097  1.00  0.00    -0.206 F 
ATOM     76  C   UNL A   1      42.625  22.315  25.217  1.00  0.00     0.022 A 
BRANCH  73  77
ATOM     77  S   UNL A   1      40.924  20.504  26.482  1.00  0.00     0.124 S 
ATOM     78  O   UNL A   1      39.608  20.858  25.963  1.00  0.00    -0.237 OA
ATOM     79  O   UNL A   1      41.728  19.617  25.648  1.00  0.00    -0.237 OA
ATOM     80  O   UNL A   1      40.975  20.220  27.915  1.00  0.00    -0.744 OA
ENDBRANCH  73  77
ENDBRANCH  46  70
BRANCH  58  81
ATOM     81  C   UNL A   1      46.365  25.460  32.975  1.00  0.00     0.023 A 
ATOM     82  C   UNL A   1      46.183  24.475  33.961  1.00  0.00     0.031 A 
ATOM     83  C   UNL A   1      47.681  25.771  32.589  1.00  0.00     0.131 A 
ATOM     84  C   UNL A   1      47.299  23.893  34.582  1.00  0.00     0.055 A 
ATOM     85  C   UNL A   1      48.785  25.136  33.158  1.00  0.00     0.041 A 
ATOM     86  F   UNL A   1      47.919  26.706  31.655  1.00  0.00    -0.206 F 
ATOM     87  C   UNL A   1      48.599  24.204  34.175  1.00  0.00     0.022 A 
BRANCH  84  88
ATOM     88  S   UNL A   1      47.032  22.824  36.025  1.00  0.00     0.124 S 
ATOM     89  O   UNL A   1      48.049  23.311  36.954  1.00  0.00    -0.237 OA
ATOM     90  O   UNL A   1      45.648  23.122  36.380  1.00  0.00    -0.237 OA
ATOM     91  O   UNL A   1      47.264  21.479  35.502  1.00  0.00    -0.744 OA
ENDBRANCH  84  88
ENDBRANCH  58  81
ENDBRANCH  32  33
ENDBRANCH  24  27
ENDBRANCH  22  23
ENDBRANCH  21  22
ENDBRANCH   1  21
TORSDOF 18
ENDMDL
