MODEL 1
REMARK VINA RESULT:     -12.3      0.000      0.000
REMARK SMILES CCOc1cc2c(cc1OCC)[C@@H](C(=O)NCCCCNC(=O)c1ccc(-c3c4nc(c(-c5cc(S(=O)(=O)[O-])ccc5F)c5ccc([nH]5)c(-c5cc(S(=O)(=O)[O-])ccc5F)c5nc(c(-c6cc(S(=O)(=O)[O-])ccc6F)c6ccc3[nH]6)C=C5)C=C4)cc1)[C@H](c1ccc(F)cc1Cl)N(C)C2=O
REMARK SMILES IDX 19 1 18 2 17 3 16 4 14 5 15 6 13 8 4 9 5 10 9 11 6 12 8 13
REMARK SMILES IDX 7 14 98 15 96 16 99 17 87 18 97 19 3 20 2 21 1 22 10 23
REMARK SMILES IDX 11 24 12 25 88 26 89 27 94 28 90 29 93 30 95 31 91 32 92 33
REMARK SMILES IDX 20 34 21 35 22 36 23 38 24 39 25 40 86 41 26 42 85 43 27 44
REMARK SMILES IDX 28 45 29 46 79 47 30 48 84 49 78 50 80 51 31 52 83 53 77 54
REMARK SMILES IDX 76 55 32 57 64 58 44 59 63 60 45 61 48 62 62 63 81 64 46 65
REMARK SMILES IDX 47 66 61 68 82 69 49 70 33 71 34 72 42 73 35 74 41 75 43 76
REMARK SMILES IDX 40 77 36 78 37 79 38 80 39 81 65 82 66 83 74 84 67 85 73 86
REMARK SMILES IDX 75 87 72 88 68 89 69 90 70 91 71 92 50 93 51 94 59 95 52 96
REMARK SMILES IDX 58 97 60 98 57 99 53 100 54 101 55 102 56 103
REMARK H PARENT 16 7 21 37 80 56 48 67
REMARK Flexibility Score: inf
ROOT
ATOM      1  C   UNL A   1      31.875  28.610  27.328  1.00  0.00     0.023 C 
ENDROOT
BRANCH   1   2
ATOM      2  C   UNL A   1      32.167  27.143  27.041  1.00  0.00     0.023 C 
BRANCH   2   3
ATOM      3  C   UNL A   1      31.070  26.396  26.282  1.00  0.00     0.116 C 
BRANCH   3   4
ATOM      4  N   UNL A   1      30.910  25.044  26.790  1.00  0.00    -0.355 N 
ATOM      5  C   UNL A   1      31.565  23.879  26.578  1.00  0.00     0.230 C 
ATOM      6  O   UNL A   1      31.050  22.876  27.098  1.00  0.00    -0.274 OA
ATOM      7  H   UNL A   1      30.164  24.957  27.427  1.00  0.00     0.163 HD
BRANCH   5   8
ATOM      8  C   UNL A   1      32.821  23.675  25.737  1.00  0.00     0.136 C 
ATOM      9  C   UNL A   1      33.050  24.815  21.591  1.00  0.00     0.161 A 
ATOM     10  C   UNL A   1      32.855  23.477  21.957  1.00  0.00     0.064 A 
ATOM     11  C   UNL A   1      33.161  25.804  22.577  1.00  0.00     0.161 A 
ATOM     12  C   UNL A   1      32.730  23.115  23.297  1.00  0.00     0.048 A 
ATOM     13  C   UNL A   1      33.006  25.430  23.920  1.00  0.00     0.056 A 
ATOM     14  C   UNL A   1      32.806  24.092  24.291  1.00  0.00    -0.016 A 
ATOM     15  C   UNL A   1      32.486  21.693  23.659  1.00  0.00     0.254 C 
ATOM     16  N   UNL A   1      32.770  21.323  24.972  1.00  0.00    -0.333 N 
ATOM     17  O   UNL A   1      32.017  20.936  22.816  1.00  0.00    -0.269 OA
ATOM     18  C   UNL A   1      33.432  22.248  25.892  1.00  0.00     0.134 C 
ATOM     19  C   UNL A   1      32.501  19.967  25.430  1.00  0.00     0.147 C 
BRANCH   9  20
ATOM     20  O   UNL A   1      33.235  25.080  20.261  1.00  0.00    -0.490 OA
BRANCH  20  21
ATOM     21  C   UNL A   1      32.094  25.712  19.662  1.00  0.00     0.226 C 
ATOM     22  C   UNL A   1      31.905  25.272  18.220  1.00  0.00     0.049 C 
ENDBRANCH  20  21
ENDBRANCH   9  20
BRANCH  11  23
ATOM     23  O   UNL A   1      33.431  27.137  22.448  1.00  0.00    -0.490 OA
BRANCH  23  24
ATOM     24  C   UNL A   1      32.766  28.107  23.247  1.00  0.00     0.226 C 
ATOM     25  C   UNL A   1      31.400  28.467  22.686  1.00  0.00     0.049 C 
ENDBRANCH  23  24
ENDBRANCH  11  23
BRANCH  18  26
ATOM     26  C   UNL A   1      34.983  22.286  25.798  1.00  0.00    -0.005 A 
ATOM     27  C   UNL A   1      35.584  23.495  26.243  1.00  0.00     0.010 A 
ATOM     28  C   UNL A   1      35.860  21.298  25.296  1.00  0.00     0.049 A 
ATOM     29  C   UNL A   1      36.952  23.742  26.106  1.00  0.00     0.040 A 
ATOM     30  C   UNL A   1      37.236  21.551  25.170  1.00  0.00     0.060 A 
ATOM     31  Cl  UNL A   1      35.428  19.696  24.815  1.00  0.00    -0.084 Cl
ATOM     32  C   UNL A   1      37.764  22.769  25.555  1.00  0.00     0.124 A 
ATOM     33  F   UNL A   1      39.073  23.000  25.406  1.00  0.00    -0.207 F 
ENDBRANCH  18  26
ENDBRANCH   5   8
ENDBRANCH   3   4
ENDBRANCH   2   3
ENDBRANCH   1   2
BRANCH   1  34
ATOM     34  C   UNL A   1      32.766  29.597  26.586  1.00  0.00     0.116 C 
BRANCH  34  35
ATOM     35  N   UNL A   1      32.553  30.993  26.943  1.00  0.00    -0.352 N 
ATOM     36  C   UNL A   1      33.452  31.872  27.519  1.00  0.00     0.251 C 
ATOM     37  H   UNL A   1      31.658  31.356  26.751  1.00  0.00     0.163 HD
ATOM     38  O   UNL A   1      33.123  33.011  27.805  1.00  0.00    -0.269 OA
BRANCH  36  39
ATOM     39  C   UNL A   1      34.809  31.377  27.845  1.00  0.00     0.039 A 
ATOM     40  C   UNL A   1      35.858  32.296  27.925  1.00  0.00     0.014 A 
ATOM     41  C   UNL A   1      35.010  30.040  28.192  1.00  0.00     0.014 A 
ATOM     42  C   UNL A   1      37.079  31.896  28.472  1.00  0.00     0.010 A 
ATOM     43  C   UNL A   1      36.196  29.667  28.817  1.00  0.00     0.010 A 
ATOM     44  C   UNL A   1      37.234  30.598  28.986  1.00  0.00    -0.014 A 
BRANCH  44  45
ATOM     45  C   UNL A   1      38.449  30.202  29.746  1.00  0.00     0.031 A 
ATOM     46  C   UNL A   1      39.367  29.142  29.204  1.00  0.00     0.074 A 
ATOM     47  C   UNL A   1      38.669  30.724  30.970  1.00  0.00     0.049 A 
ATOM     48  N   UNL A   1      40.402  28.574  29.766  1.00  0.00    -0.248 NA
ATOM     49  C   UNL A   1      39.049  28.623  27.865  1.00  0.00     0.031 C 
ATOM     50  C   UNL A   1      37.815  31.714  31.636  1.00  0.00     0.029 A 
ATOM     51  N   UNL A   1      39.665  30.485  31.885  1.00  0.00    -0.354 N 
ATOM     52  C   UNL A   1      40.847  27.617  28.862  1.00  0.00     0.074 A 
ATOM     53  C   UNL A   1      39.927  27.641  27.742  1.00  0.00     0.031 C 
ATOM     54  C   UNL A   1      38.340  32.015  32.835  1.00  0.00     0.029 A 
ATOM     55  C   UNL A   1      39.536  31.208  33.048  1.00  0.00     0.049 A 
ATOM     56  H   UNL A   1      40.404  29.854  31.721  1.00  0.00     0.167 HD
ATOM     57  C   UNL A   1      41.934  26.811  28.944  1.00  0.00     0.034 A 
ATOM     58  C   UNL A   1      40.290  31.213  34.166  1.00  0.00     0.034 A 
ATOM     59  C   UNL A   1      42.855  26.818  30.055  1.00  0.00     0.049 A 
ATOM     60  C   UNL A   1      41.494  30.310  34.235  1.00  0.00     0.074 A 
ATOM     61  C   UNL A   1      44.030  26.103  30.206  1.00  0.00     0.029 A 
ATOM     62  N   UNL A   1      42.702  27.577  31.208  1.00  0.00    -0.354 N 
ATOM     63  N   UNL A   1      41.934  29.452  33.345  1.00  0.00    -0.248 NA
ATOM     64  C   UNL A   1      42.304  30.381  35.458  1.00  0.00     0.031 C 
ATOM     65  C   UNL A   1      44.556  26.385  31.473  1.00  0.00     0.029 A 
ATOM     66  C   UNL A   1      43.744  27.323  32.088  1.00  0.00     0.049 A 
ATOM     67  H   UNL A   1      41.961  28.203  31.378  1.00  0.00     0.167 HD
ATOM     68  C   UNL A   1      43.085  28.895  33.893  1.00  0.00     0.074 A 
ATOM     69  C   UNL A   1      43.280  29.528  35.182  1.00  0.00     0.031 C 
ATOM     70  C   UNL A   1      43.911  27.949  33.378  1.00  0.00     0.034 A 
BRANCH  57  71
ATOM     71  C   UNL A   1      42.165  25.845  27.808  1.00  0.00     0.023 A 
ATOM     72  C   UNL A   1      41.735  24.508  27.879  1.00  0.00     0.031 A 
ATOM     73  C   UNL A   1      42.860  26.252  26.655  1.00  0.00     0.131 A 
ATOM     74  C   UNL A   1      42.078  23.607  26.861  1.00  0.00     0.055 A 
ATOM     75  C   UNL A   1      43.124  25.369  25.605  1.00  0.00     0.041 A 
ATOM     76  F   UNL A   1      43.311  27.510  26.537  1.00  0.00    -0.206 F 
ATOM     77  C   UNL A   1      42.748  24.033  25.712  1.00  0.00     0.022 A 
BRANCH  74  78
ATOM     78  S   UNL A   1      41.767  21.840  27.130  1.00  0.00     0.124 S 
ATOM     79  O   UNL A   1      41.843  21.317  25.768  1.00  0.00    -0.237 OA
ATOM     80  O   UNL A   1      42.855  21.460  28.023  1.00  0.00    -0.237 OA
ATOM     81  O   UNL A   1      40.432  21.815  27.725  1.00  0.00    -0.744 OA
ENDBRANCH  74  78
ENDBRANCH  57  71
BRANCH  58  82
ATOM     82  C   UNL A   1      39.929  32.087  35.318  1.00  0.00     0.023 A 
ATOM     83  C   UNL A   1      39.066  31.630  36.327  1.00  0.00     0.031 A 
ATOM     84  C   UNL A   1      40.410  33.405  35.407  1.00  0.00     0.131 A 
ATOM     85  C   UNL A   1      38.676  32.497  37.359  1.00  0.00     0.055 A 
ATOM     86  C   UNL A   1      40.056  34.249  36.461  1.00  0.00     0.041 A 
ATOM     87  F   UNL A   1      41.244  33.887  34.473  1.00  0.00    -0.206 F 
ATOM     88  C   UNL A   1      39.173  33.799  37.439  1.00  0.00     0.022 A 
BRANCH  85  89
ATOM     89  S   UNL A   1      37.447  31.918  38.561  1.00  0.00     0.124 S 
ATOM     90  O   UNL A   1      36.343  32.841  38.327  1.00  0.00    -0.237 OA
ATOM     91  O   UNL A   1      37.233  30.539  38.133  1.00  0.00    -0.237 OA
ATOM     92  O   UNL A   1      38.129  32.071  39.845  1.00  0.00    -0.744 OA
ENDBRANCH  85  89
ENDBRANCH  58  82
BRANCH  70  93
ATOM     93  C   UNL A   1      45.111  27.570  34.207  1.00  0.00     0.023 A 
ATOM     94  C   UNL A   1      45.060  26.512  35.132  1.00  0.00     0.031 A 
ATOM     95  C   UNL A   1      46.313  28.288  34.082  1.00  0.00     0.131 A 
ATOM     96  C   UNL A   1      46.178  26.234  35.933  1.00  0.00     0.055 A 
ATOM     97  C   UNL A   1      47.438  27.971  34.843  1.00  0.00     0.041 A 
ATOM     98  F   UNL A   1      46.412  29.308  33.215  1.00  0.00    -0.206 F 
ATOM     99  C   UNL A   1      47.370  26.947  35.784  1.00  0.00     0.022 A 
BRANCH  96 100
ATOM    100  S   UNL A   1      46.027  24.975  37.230  1.00  0.00     0.124 S 
ATOM    101  O   UNL A   1      45.010  24.087  36.676  1.00  0.00    -0.237 OA
ATOM    102  O   UNL A   1      47.380  24.431  37.298  1.00  0.00    -0.237 OA
ATOM    103  O   UNL A   1      45.610  25.740  38.404  1.00  0.00    -0.744 OA
ENDBRANCH  96 100
ENDBRANCH  70  93
ENDBRANCH  44  45
ENDBRANCH  36  39
ENDBRANCH  34  35
ENDBRANCH   1  34
TORSDOF 19
ENDMDL
MODEL 2
REMARK VINA RESULT:     -12.3      1.746      7.268
REMARK SMILES CCOc1cc2c(cc1OCC)[C@@H](C(=O)NCCCCNC(=O)c1ccc(-c3c4nc(c(-c5cc(S(=O)(=O)[O-])ccc5F)c5ccc([nH]5)c(-c5cc(S(=O)(=O)[O-])ccc5F)c5nc(c(-c6cc(S(=O)(=O)[O-])ccc6F)c6ccc3[nH]6)C=C5)C=C4)cc1)[C@H](c1ccc(F)cc1Cl)N(C)C2=O
REMARK SMILES IDX 19 1 18 2 17 3 16 4 14 5 15 6 13 8 4 9 5 10 9 11 6 12 8 13
REMARK SMILES IDX 7 14 98 15 96 16 99 17 87 18 97 19 3 20 2 21 1 22 10 23
REMARK SMILES IDX 11 24 12 25 88 26 89 27 94 28 90 29 93 30 95 31 91 32 92 33
REMARK SMILES IDX 20 34 21 35 22 36 23 38 24 39 25 40 86 41 26 42 85 43 27 44
REMARK SMILES IDX 28 45 29 46 79 47 30 48 84 49 78 50 80 51 31 52 83 53 77 54
REMARK SMILES IDX 76 55 32 57 64 58 44 59 63 60 45 61 48 62 62 63 81 64 46 65
REMARK SMILES IDX 47 66 61 68 82 69 49 70 33 71 34 72 42 73 35 74 41 75 43 76
REMARK SMILES IDX 40 77 36 78 37 79 38 80 39 81 65 82 66 83 74 84 67 85 73 86
REMARK SMILES IDX 75 87 72 88 68 89 69 90 70 91 71 92 50 93 51 94 59 95 52 96
REMARK SMILES IDX 58 97 60 98 57 99 53 100 54 101 55 102 56 103
REMARK H PARENT 16 7 21 37 80 56 48 67
REMARK Flexibility Score: inf
ROOT
ATOM      1  C   UNL A   1      31.950  28.949  27.077  1.00  0.00     0.023 C 
ENDROOT
BRANCH   1   2
ATOM      2  C   UNL A   1      31.987  27.462  27.399  1.00  0.00     0.023 C 
BRANCH   2   3
ATOM      3  C   UNL A   1      31.397  26.547  26.325  1.00  0.00     0.116 C 
BRANCH   3   4
ATOM      4  N   UNL A   1      31.167  25.210  26.845  1.00  0.00    -0.355 N 
ATOM      5  C   UNL A   1      31.756  24.009  26.639  1.00  0.00     0.230 C 
ATOM      6  O   UNL A   1      31.190  23.040  27.171  1.00  0.00    -0.274 OA
ATOM      7  H   UNL A   1      30.421  25.169  27.487  1.00  0.00     0.163 HD
BRANCH   5   8
ATOM      8  C   UNL A   1      32.995  23.730  25.793  1.00  0.00     0.136 C 
ATOM      9  C   UNL A   1      33.146  24.533  21.565  1.00  0.00     0.161 A 
ATOM     10  C   UNL A   1      32.952  23.229  22.041  1.00  0.00     0.064 A 
ATOM     11  C   UNL A   1      33.281  25.597  22.466  1.00  0.00     0.161 A 
ATOM     12  C   UNL A   1      32.852  22.977  23.407  1.00  0.00     0.048 A 
ATOM     13  C   UNL A   1      33.152  25.332  23.838  1.00  0.00     0.056 A 
ATOM     14  C   UNL A   1      32.953  24.030  24.319  1.00  0.00    -0.016 A 
ATOM     15  C   UNL A   1      32.608  21.590  23.887  1.00  0.00     0.254 C 
ATOM     16  N   UNL A   1      32.917  21.325  25.221  1.00  0.00    -0.333 N 
ATOM     17  O   UNL A   1      32.119  20.771  23.117  1.00  0.00    -0.269 OA
ATOM     18  C   UNL A   1      33.601  22.316  26.050  1.00  0.00     0.134 C 
ATOM     19  C   UNL A   1      32.650  20.011  25.791  1.00  0.00     0.147 C 
BRANCH   9  20
ATOM     20  O   UNL A   1      33.305  24.689  20.214  1.00  0.00    -0.490 OA
BRANCH  20  21
ATOM     21  C   UNL A   1      32.482  25.736  19.680  1.00  0.00     0.226 C 
ATOM     22  C   UNL A   1      31.794  25.304  18.396  1.00  0.00     0.049 C 
ENDBRANCH  20  21
ENDBRANCH   9  20
BRANCH  11  23
ATOM     23  O   UNL A   1      33.556  26.914  22.225  1.00  0.00    -0.490 OA
BRANCH  23  24
ATOM     24  C   UNL A   1      33.648  27.856  23.286  1.00  0.00     0.226 C 
ATOM     25  C   UNL A   1      32.536  28.891  23.227  1.00  0.00     0.049 C 
ENDBRANCH  23  24
ENDBRANCH  11  23
BRANCH  18  26
ATOM     26  C   UNL A   1      35.150  22.337  25.923  1.00  0.00    -0.005 A 
ATOM     27  C   UNL A   1      35.775  23.538  26.357  1.00  0.00     0.010 A 
ATOM     28  C   UNL A   1      36.005  21.339  25.401  1.00  0.00     0.049 A 
ATOM     29  C   UNL A   1      37.142  23.769  26.191  1.00  0.00     0.040 A 
ATOM     30  C   UNL A   1      37.380  21.576  25.246  1.00  0.00     0.060 A 
ATOM     31  Cl  UNL A   1      35.544  19.744  24.927  1.00  0.00    -0.084 Cl
ATOM     32  C   UNL A   1      37.930  22.787  25.622  1.00  0.00     0.124 A 
ATOM     33  F   UNL A   1      39.239  23.003  25.445  1.00  0.00    -0.207 F 
ENDBRANCH  18  26
ENDBRANCH   5   8
ENDBRANCH   3   4
ENDBRANCH   2   3
ENDBRANCH   1   2
BRANCH   1  34
ATOM     34  C   UNL A   1      33.308  29.578  26.795  1.00  0.00     0.116 C 
BRANCH  34  35
ATOM     35  N   UNL A   1      33.481  30.917  27.341  1.00  0.00    -0.352 N 
ATOM     36  C   UNL A   1      34.557  31.414  28.053  1.00  0.00     0.251 C 
ATOM     37  H   UNL A   1      32.741  31.547  27.183  1.00  0.00     0.163 HD
ATOM     38  O   UNL A   1      34.551  32.553  28.490  1.00  0.00    -0.269 OA
BRANCH  36  39
ATOM     39  C   UNL A   1      35.694  30.507  28.334  1.00  0.00     0.039 A 
ATOM     40  C   UNL A   1      36.795  30.524  27.475  1.00  0.00     0.014 A 
ATOM     41  C   UNL A   1      35.720  29.747  29.505  1.00  0.00     0.014 A 
ATOM     42  C   UNL A   1      37.971  29.873  27.855  1.00  0.00     0.010 A 
ATOM     43  C   UNL A   1      36.917  29.174  29.921  1.00  0.00     0.010 A 
ATOM     44  C   UNL A   1      38.062  29.253  29.112  1.00  0.00    -0.014 A 
BRANCH  44  45
ATOM     45  C   UNL A   1      39.353  28.722  29.626  1.00  0.00     0.031 A 
ATOM     46  C   UNL A   1      40.079  29.440  30.728  1.00  0.00     0.074 A 
ATOM     47  C   UNL A   1      39.918  27.653  29.028  1.00  0.00     0.049 A 
ATOM     48  N   UNL A   1      41.265  29.209  31.228  1.00  0.00    -0.248 NA
ATOM     49  C   UNL A   1      39.393  30.600  31.318  1.00  0.00     0.031 C 
ATOM     50  C   UNL A   1      39.343  26.906  27.905  1.00  0.00     0.029 A 
ATOM     51  N   UNL A   1      41.110  27.014  29.268  1.00  0.00    -0.354 N 
ATOM     52  C   UNL A   1      41.479  30.205  32.174  1.00  0.00     0.074 A 
ATOM     53  C   UNL A   1      40.323  31.077  32.130  1.00  0.00     0.031 C 
ATOM     54  C   UNL A   1      40.168  25.900  27.574  1.00  0.00     0.029 A 
ATOM     55  C   UNL A   1      41.352  25.954  28.424  1.00  0.00     0.049 A 
ATOM     56  H   UNL A   1      41.733  27.290  29.979  1.00  0.00     0.167 HD
ATOM     57  C   UNL A   1      42.528  30.364  33.018  1.00  0.00     0.034 A 
ATOM     58  C   UNL A   1      42.413  25.127  28.337  1.00  0.00     0.034 A 
ATOM     59  C   UNL A   1      43.660  29.470  33.067  1.00  0.00     0.049 A 
ATOM     60  C   UNL A   1      43.567  25.321  29.286  1.00  0.00     0.074 A 
ATOM     61  C   UNL A   1      44.738  29.490  33.935  1.00  0.00     0.029 A 
ATOM     62  N   UNL A   1      43.862  28.397  32.209  1.00  0.00    -0.354 N 
ATOM     63  N   UNL A   1      43.726  26.235  30.215  1.00  0.00    -0.248 NA
ATOM     64  C   UNL A   1      44.680  24.370  29.176  1.00  0.00     0.031 C 
ATOM     65  C   UNL A   1      45.619  28.467  33.565  1.00  0.00     0.029 A 
ATOM     66  C   UNL A   1      45.062  27.768  32.507  1.00  0.00     0.049 A 
ATOM     67  H   UNL A   1      43.245  28.123  31.493  1.00  0.00     0.167 HD
ATOM     68  C   UNL A   1      44.950  25.955  30.815  1.00  0.00     0.074 A 
ATOM     69  C   UNL A   1      45.477  24.777  30.154  1.00  0.00     0.031 C 
ATOM     70  C   UNL A   1      45.582  26.608  31.823  1.00  0.00     0.034 A 
BRANCH  57  71
ATOM     71  C   UNL A   1      42.499  31.560  33.937  1.00  0.00     0.023 A 
ATOM     72  C   UNL A   1      41.843  31.518  35.181  1.00  0.00     0.031 A 
ATOM     73  C   UNL A   1      43.099  32.772  33.552  1.00  0.00     0.131 A 
ATOM     74  C   UNL A   1      41.727  32.684  35.951  1.00  0.00     0.055 A 
ATOM     75  C   UNL A   1      43.053  33.907  34.364  1.00  0.00     0.041 A 
ATOM     76  F   UNL A   1      43.724  32.879  32.369  1.00  0.00    -0.206 F 
ATOM     77  C   UNL A   1      42.348  33.872  35.564  1.00  0.00     0.022 A 
BRANCH  74  78
ATOM     78  S   UNL A   1      40.625  32.659  37.392  1.00  0.00     0.124 S 
ATOM     79  O   UNL A   1      39.502  31.870  36.890  1.00  0.00    -0.237 OA
ATOM     80  O   UNL A   1      41.451  32.020  38.410  1.00  0.00    -0.237 OA
ATOM     81  O   UNL A   1      40.331  34.071  37.623  1.00  0.00    -0.744 OA
ENDBRANCH  74  78
ENDBRANCH  57  71
BRANCH  58  82
ATOM     82  C   UNL A   1      42.448  24.048  27.310  1.00  0.00     0.023 A 
ATOM     83  C   UNL A   1      41.877  22.790  27.567  1.00  0.00     0.031 A 
ATOM     84  C   UNL A   1      43.085  24.243  26.073  1.00  0.00     0.131 A 
ATOM     85  C   UNL A   1      41.992  21.763  26.618  1.00  0.00     0.055 A 
ATOM     86  C   UNL A   1      43.157  23.232  25.113  1.00  0.00     0.041 A 
ATOM     87  F   UNL A   1      43.639  25.429  25.776  1.00  0.00    -0.206 F 
ATOM     88  C   UNL A   1      42.619  21.979  25.389  1.00  0.00     0.022 A 
BRANCH  85  89
ATOM     89  S   UNL A   1      41.372  20.112  27.044  1.00  0.00     0.124 S 
ATOM     90  O   UNL A   1      40.383  19.886  25.997  1.00  0.00    -0.237 OA
ATOM     91  O   UNL A   1      42.585  19.306  26.968  1.00  0.00    -0.237 OA
ATOM     92  O   UNL A   1      40.828  20.291  28.389  1.00  0.00    -0.744 OA
ENDBRANCH  85  89
ENDBRANCH  58  82
BRANCH  70  93
ATOM     93  C   UNL A   1      46.899  26.037  32.281  1.00  0.00     0.023 A 
ATOM     94  C   UNL A   1      46.971  25.113  33.338  1.00  0.00     0.031 A 
ATOM     95  C   UNL A   1      48.097  26.436  31.663  1.00  0.00     0.131 A 
ATOM     96  C   UNL A   1      48.222  24.656  33.780  1.00  0.00     0.055 A 
ATOM     97  C   UNL A   1      49.333  25.936  32.072  1.00  0.00     0.041 A 
ATOM     98  F   UNL A   1      48.082  27.317  30.650  1.00  0.00    -0.206 F 
ATOM     99  C   UNL A   1      49.402  25.051  33.144  1.00  0.00     0.022 A 
BRANCH  96 100
ATOM    100  S   UNL A   1      48.293  23.598  35.250  1.00  0.00     0.124 S 
ATOM    101  O   UNL A   1      48.795  24.518  36.265  1.00  0.00    -0.237 OA
ATOM    102  O   UNL A   1      46.903  23.178  35.402  1.00  0.00    -0.237 OA
ATOM    103  O   UNL A   1      49.219  22.535  34.864  1.00  0.00    -0.744 OA
ENDBRANCH  96 100
ENDBRANCH  70  93
ENDBRANCH  44  45
ENDBRANCH  36  39
ENDBRANCH  34  35
ENDBRANCH   1  34
TORSDOF 19
ENDMDL
MODEL 3
REMARK VINA RESULT:     -11.6      1.427      7.272
REMARK SMILES CCOc1cc2c(cc1OCC)[C@@H](C(=O)NCCCCNC(=O)c1ccc(-c3c4nc(c(-c5cc(S(=O)(=O)[O-])ccc5F)c5ccc([nH]5)c(-c5cc(S(=O)(=O)[O-])ccc5F)c5nc(c(-c6cc(S(=O)(=O)[O-])ccc6F)c6ccc3[nH]6)C=C5)C=C4)cc1)[C@H](c1ccc(F)cc1Cl)N(C)C2=O
REMARK SMILES IDX 19 1 18 2 17 3 16 4 14 5 15 6 13 8 4 9 5 10 9 11 6 12 8 13
REMARK SMILES IDX 7 14 98 15 96 16 99 17 87 18 97 19 3 20 2 21 1 22 10 23
REMARK SMILES IDX 11 24 12 25 88 26 89 27 94 28 90 29 93 30 95 31 91 32 92 33
REMARK SMILES IDX 20 34 21 35 22 36 23 38 24 39 25 40 86 41 26 42 85 43 27 44
REMARK SMILES IDX 28 45 29 46 79 47 30 48 84 49 78 50 80 51 31 52 83 53 77 54
REMARK SMILES IDX 76 55 32 57 64 58 44 59 63 60 45 61 48 62 62 63 81 64 46 65
REMARK SMILES IDX 47 66 61 68 82 69 49 70 33 71 34 72 42 73 35 74 41 75 43 76
REMARK SMILES IDX 40 77 36 78 37 79 38 80 39 81 65 82 66 83 74 84 67 85 73 86
REMARK SMILES IDX 75 87 72 88 68 89 69 90 70 91 71 92 50 93 51 94 59 95 52 96
REMARK SMILES IDX 58 97 60 98 57 99 53 100 54 101 55 102 56 103
REMARK H PARENT 16 7 21 37 80 56 48 67
REMARK Flexibility Score: inf
ROOT
ATOM      1  C   UNL A   1      31.500  28.794  26.577  1.00  0.00     0.023 C 
ENDROOT
BRANCH   1   2
ATOM      2  C   UNL A   1      31.568  27.334  27.002  1.00  0.00     0.023 C 
BRANCH   2   3
ATOM      3  C   UNL A   1      30.715  26.373  26.173  1.00  0.00     0.116 C 
BRANCH   3   4
ATOM      4  N   UNL A   1      30.685  25.050  26.773  1.00  0.00    -0.355 N 
ATOM      5  C   UNL A   1      31.447  23.940  26.636  1.00  0.00     0.230 C 
ATOM      6  O   UNL A   1      31.029  22.930  27.227  1.00  0.00    -0.274 OA
ATOM      7  H   UNL A   1      29.951  24.936  27.420  1.00  0.00     0.163 HD
BRANCH   5   8
ATOM      8  C   UNL A   1      32.716  23.798  25.802  1.00  0.00     0.136 C 
ATOM      9  C   UNL A   1      33.066  25.398  21.819  1.00  0.00     0.161 A 
ATOM     10  C   UNL A   1      32.829  24.032  22.024  1.00  0.00     0.064 A 
ATOM     11  C   UNL A   1      33.180  26.264  22.914  1.00  0.00     0.161 A 
ATOM     12  C   UNL A   1      32.665  23.524  23.311  1.00  0.00     0.048 A 
ATOM     13  C   UNL A   1      32.986  25.743  24.202  1.00  0.00     0.056 A 
ATOM     14  C   UNL A   1      32.744  24.378  24.413  1.00  0.00    -0.016 A 
ATOM     15  C   UNL A   1      32.377  22.076  23.503  1.00  0.00     0.254 C 
ATOM     16  N   UNL A   1      32.622  21.551  24.771  1.00  0.00    -0.333 N 
ATOM     17  O   UNL A   1      31.907  21.434  22.570  1.00  0.00    -0.269 OA
ATOM     18  C   UNL A   1      33.286  22.346  25.803  1.00  0.00     0.134 C 
ATOM     19  C   UNL A   1      32.308  20.159  25.065  1.00  0.00     0.147 C 
BRANCH   9  20
ATOM     20  O   UNL A   1      33.287  25.807  20.531  1.00  0.00    -0.490 OA
BRANCH  20  21
ATOM     21  C   UNL A   1      32.826  24.853  19.564  1.00  0.00     0.226 C 
ATOM     22  C   UNL A   1      31.898  25.495  18.546  1.00  0.00     0.049 C 
ENDBRANCH  20  21
ENDBRANCH   9  20
BRANCH  11  23
ATOM     23  O   UNL A   1      33.487  27.595  22.944  1.00  0.00    -0.490 OA
BRANCH  23  24
ATOM     24  C   UNL A   1      32.470  28.588  22.983  1.00  0.00     0.226 C 
ATOM     25  C   UNL A   1      31.092  28.002  22.721  1.00  0.00     0.049 C 
ENDBRANCH  23  24
ENDBRANCH  11  23
BRANCH  18  26
ATOM     26  C   UNL A   1      34.839  22.352  25.744  1.00  0.00    -0.005 A 
ATOM     27  C   UNL A   1      35.454  23.565  26.158  1.00  0.00     0.010 A 
ATOM     28  C   UNL A   1      35.708  21.328  25.300  1.00  0.00     0.049 A 
ATOM     29  C   UNL A   1      36.830  23.780  26.043  1.00  0.00     0.040 A 
ATOM     30  C   UNL A   1      37.091  21.550  25.197  1.00  0.00     0.060 A 
ATOM     31  Cl  UNL A   1      35.255  19.718  24.870  1.00  0.00    -0.084 Cl
ATOM     32  C   UNL A   1      37.634  22.772  25.548  1.00  0.00     0.124 A 
ATOM     33  F   UNL A   1      38.951  22.972  25.421  1.00  0.00    -0.207 F 
ENDBRANCH  18  26
ENDBRANCH   5   8
ENDBRANCH   3   4
ENDBRANCH   2   3
ENDBRANCH   1   2
BRANCH   1  34
ATOM     34  C   UNL A   1      32.788  29.581  26.779  1.00  0.00     0.116 C 
BRANCH  34  35
ATOM     35  N   UNL A   1      32.598  31.008  27.000  1.00  0.00    -0.352 N 
ATOM     36  C   UNL A   1      33.527  31.932  27.441  1.00  0.00     0.251 C 
ATOM     37  H   UNL A   1      31.697  31.358  26.810  1.00  0.00     0.163 HD
ATOM     38  O   UNL A   1      33.217  33.099  27.622  1.00  0.00    -0.269 OA
BRANCH  36  39
ATOM     39  C   UNL A   1      34.895  31.460  27.755  1.00  0.00     0.039 A 
ATOM     40  C   UNL A   1      35.883  32.406  28.043  1.00  0.00     0.014 A 
ATOM     41  C   UNL A   1      35.160  30.097  27.889  1.00  0.00     0.014 A 
ATOM     42  C   UNL A   1      37.099  31.983  28.583  1.00  0.00     0.010 A 
ATOM     43  C   UNL A   1      36.336  29.686  28.508  1.00  0.00     0.010 A 
ATOM     44  C   UNL A   1      37.307  30.627  28.885  1.00  0.00    -0.014 A 
BRANCH  44  45
ATOM     45  C   UNL A   1      38.508  30.172  29.635  1.00  0.00     0.031 A 
ATOM     46  C   UNL A   1      38.749  30.656  31.038  1.00  0.00     0.074 A 
ATOM     47  C   UNL A   1      39.431  29.408  29.016  1.00  0.00     0.049 A 
ATOM     48  N   UNL A   1      39.788  30.473  31.811  1.00  0.00    -0.248 NA
ATOM     49  C   UNL A   1      37.694  31.490  31.633  1.00  0.00     0.031 C 
ATOM     50  C   UNL A   1      39.344  28.927  27.633  1.00  0.00     0.029 A 
ATOM     51  N   UNL A   1      40.633  28.913  29.459  1.00  0.00    -0.354 N 
ATOM     52  C   UNL A   1      39.524  31.187  32.974  1.00  0.00     0.074 A 
ATOM     53  C   UNL A   1      38.254  31.855  32.776  1.00  0.00     0.031 C 
ATOM     54  C   UNL A   1      40.429  28.187  27.354  1.00  0.00     0.029 A 
ATOM     55  C   UNL A   1      41.312  28.178  28.515  1.00  0.00     0.049 A 
ATOM     56  H   UNL A   1      40.975  29.069  30.369  1.00  0.00     0.167 HD
ATOM     57  C   UNL A   1      40.259  31.259  34.112  1.00  0.00     0.034 A 
ATOM     58  C   UNL A   1      42.517  27.575  28.573  1.00  0.00     0.034 A 
ATOM     59  C   UNL A   1      41.510  30.566  34.303  1.00  0.00     0.049 A 
ATOM     60  C   UNL A   1      43.316  27.667  29.847  1.00  0.00     0.074 A 
ATOM     61  C   UNL A   1      42.297  30.504  35.440  1.00  0.00     0.029 A 
ATOM     62  N   UNL A   1      42.160  29.817  33.330  1.00  0.00    -0.354 N 
ATOM     63  N   UNL A   1      43.024  28.299  30.960  1.00  0.00    -0.248 NA
ATOM     64  C   UNL A   1      44.602  26.961  29.873  1.00  0.00     0.031 C 
ATOM     65  C   UNL A   1      43.449  29.767  35.138  1.00  0.00     0.029 A 
ATOM     66  C   UNL A   1      43.352  29.315  33.831  1.00  0.00     0.049 A 
ATOM     67  H   UNL A   1      41.823  29.664  32.418  1.00  0.00     0.167 HD
ATOM     68  C   UNL A   1      44.084  28.049  31.826  1.00  0.00     0.074 A 
ATOM     69  C   UNL A   1      45.011  27.194  31.111  1.00  0.00     0.031 C 
ATOM     70  C   UNL A   1      44.274  28.482  33.098  1.00  0.00     0.034 A 
BRANCH  57  71
ATOM     71  C   UNL A   1      39.730  32.135  35.221  1.00  0.00     0.023 A 
ATOM     72  C   UNL A   1      40.180  33.457  35.395  1.00  0.00     0.031 A 
ATOM     73  C   UNL A   1      38.795  31.633  36.143  1.00  0.00     0.131 A 
ATOM     74  C   UNL A   1      39.764  34.198  36.509  1.00  0.00     0.055 A 
ATOM     75  C   UNL A   1      38.319  32.407  37.204  1.00  0.00     0.041 A 
ATOM     76  F   UNL A   1      38.343  30.374  36.041  1.00  0.00    -0.206 F 
ATOM     77  C   UNL A   1      38.817  33.692  37.402  1.00  0.00     0.022 A 
BRANCH  74  78
ATOM     78  S   UNL A   1      40.591  35.774  36.856  1.00  0.00     0.124 S 
ATOM     79  O   UNL A   1      39.693  36.727  36.205  1.00  0.00    -0.237 OA
ATOM     80  O   UNL A   1      40.611  35.807  38.313  1.00  0.00    -0.237 OA
ATOM     81  O   UNL A   1      41.896  35.624  36.217  1.00  0.00    -0.744 OA
ENDBRANCH  74  78
ENDBRANCH  57  71
BRANCH  58  82
ATOM     82  C   UNL A   1      43.053  26.841  27.392  1.00  0.00     0.023 A 
ATOM     83  C   UNL A   1      42.777  25.477  27.204  1.00  0.00     0.031 A 
ATOM     84  C   UNL A   1      43.880  27.483  26.454  1.00  0.00     0.131 A 
ATOM     85  C   UNL A   1      43.358  24.787  26.130  1.00  0.00     0.055 A 
ATOM     86  C   UNL A   1      44.420  26.803  25.360  1.00  0.00     0.041 A 
ATOM     87  F   UNL A   1      44.168  28.788  26.583  1.00  0.00    -0.206 F 
ATOM     88  C   UNL A   1      44.169  25.443  25.201  1.00  0.00     0.022 A 
BRANCH  85  89
ATOM     89  S   UNL A   1      43.097  22.996  26.004  1.00  0.00     0.124 S 
ATOM     90  O   UNL A   1      42.966  22.815  24.563  1.00  0.00    -0.237 OA
ATOM     91  O   UNL A   1      44.317  22.471  26.610  1.00  0.00    -0.237 OA
ATOM     92  O   UNL A   1      41.876  22.776  26.776  1.00  0.00    -0.744 OA
ENDBRANCH  85  89
ENDBRANCH  58  82
BRANCH  70  93
ATOM     93  C   UNL A   1      45.523  28.009  33.797  1.00  0.00     0.023 A 
ATOM     94  C   UNL A   1      45.544  26.810  34.531  1.00  0.00     0.031 A 
ATOM     95  C   UNL A   1      46.699  28.776  33.740  1.00  0.00     0.131 A 
ATOM     96  C   UNL A   1      46.706  26.438  35.223  1.00  0.00     0.055 A 
ATOM     97  C   UNL A   1      47.868  28.373  34.386  1.00  0.00     0.041 A 
ATOM     98  F   UNL A   1      46.730  29.929  33.054  1.00  0.00    -0.206 F 
ATOM     99  C   UNL A   1      47.872  27.204  35.143  1.00  0.00     0.022 A 
BRANCH  96 100
ATOM    100  S   UNL A   1      46.651  24.977  36.295  1.00  0.00     0.124 S 
ATOM    101  O   UNL A   1      46.612  25.576  37.625  1.00  0.00    -0.237 OA
ATOM    102  O   UNL A   1      45.426  24.314  35.858  1.00  0.00    -0.237 OA
ATOM    103  O   UNL A   1      47.887  24.266  35.970  1.00  0.00    -0.744 OA
ENDBRANCH  96 100
ENDBRANCH  70  93
ENDBRANCH  44  45
ENDBRANCH  36  39
ENDBRANCH  34  35
ENDBRANCH   1  34
TORSDOF 19
ENDMDL
