MODEL 1
REMARK VINA RESULT:     -11.8      0.000      0.000
REMARK SMILES CCOc1ccc(-c2nn(-c3ccccc3)cc2/C=C2/SC(=S)N(CC(=O)NCCCCNC(=O)c3ccc(-c4c5nc(c(-c6cc(S(=O)(=O)[O-])ccc6F)c6ccc([nH]6)c(-c6cc(S(=O)(=O)[O-])ccc6F)c6nc(c(-c7cc(S(=O)(=O)[O-])ccc7F)c7ccc4[nH]7)C=C6)C=C5)cc3)C2=O)cc1F
REMARK SMILES IDX 29 1 28 2 26 3 27 4 25 6 24 7 19 8 20 9 21 10 99 11 22 12
REMARK SMILES IDX 100 13 23 14 18 15 8 16 9 17 10 18 17 19 7 20 4 21 5 22
REMARK SMILES IDX 102 23 6 24 101 25 103 26 3 27 2 28 1 29 11 30 12 31 16 32
REMARK SMILES IDX 13 33 15 34 14 35 30 36 31 37 32 38 33 39 34 40 35 42 36 43
REMARK SMILES IDX 37 44 98 45 38 46 97 47 39 48 40 49 41 50 91 51 42 52 96 53
REMARK SMILES IDX 90 54 92 55 43 56 95 57 89 58 88 59 44 61 76 62 56 63 75 64
REMARK SMILES IDX 57 65 60 66 74 67 93 68 58 69 59 70 73 72 94 73 61 74 45 75
REMARK SMILES IDX 46 76 54 77 47 78 53 79 55 80 52 81 48 82 49 83 50 84 51 85
REMARK SMILES IDX 77 86 78 87 86 88 79 89 85 90 87 91 84 92 80 93 81 94 82 95
REMARK SMILES IDX 83 96 62 97 63 98 71 99 64 100 70 101 72 102 69 103 65 104
REMARK SMILES IDX 66 105 67 106 68 107
REMARK H PARENT 28 5 33 41 92 60 60 71
REMARK Flexibility Score: inf
ROOT
ATOM      1  C   UNL A   1      35.415  34.753  33.111  1.00  0.00     0.116 C 
ENDROOT
BRANCH   1   2
ATOM      2  N   UNL A   1      34.684  35.983  32.893  1.00  0.00    -0.355 N 
ATOM      3  C   UNL A   1      33.533  36.208  32.193  1.00  0.00     0.240 C 
ATOM      4  O   UNL A   1      32.953  37.280  32.383  1.00  0.00    -0.273 OA
ATOM      5  H   UNL A   1      35.077  36.781  33.315  1.00  0.00     0.163 HD
BRANCH   3   6
ATOM      6  C   UNL A   1      32.906  35.124  31.302  1.00  0.00     0.227 C 
BRANCH   6   7
ATOM      7  N   UNL A   1      33.568  35.016  30.001  1.00  0.00    -0.283 N 
ATOM      8  C   UNL A   1      35.306  32.775  27.727  1.00  0.00     0.033 C 
ATOM      9  C   UNL A   1      34.759  33.832  28.349  1.00  0.00     0.081 C 
ATOM     10  S   UNL A   1      34.514  35.374  27.630  1.00  0.00    -0.054 SA
ATOM     11  C   UNL A   1      34.265  33.853  29.751  1.00  0.00     0.266 C 
ATOM     12  C   UNL A   1      33.708  36.015  29.065  1.00  0.00     0.148 C 
ATOM     13  O   UNL A   1      34.487  32.978  30.582  1.00  0.00    -0.268 OA
ATOM     14  S   UNL A   1      33.252  37.614  29.175  1.00  0.00    -0.052 S 
BRANCH   8  15
ATOM     15  C   UNL A   1      35.508  31.515  28.352  1.00  0.00     0.022 A 
ATOM     16  C   UNL A   1      35.006  30.243  27.979  1.00  0.00     0.100 A 
ATOM     17  N   UNL A   1      35.594  29.272  28.692  1.00  0.00    -0.167 NA
ATOM     18  N   UNL A   1      36.405  29.919  29.563  1.00  0.00    -0.240 N 
ATOM     19  C   UNL A   1      36.309  31.286  29.446  1.00  0.00     0.123 A 
BRANCH  16  20
ATOM     20  C   UNL A   1      33.956  29.925  27.022  1.00  0.00     0.006 A 
ATOM     21  C   UNL A   1      31.960  29.151  25.217  1.00  0.00     0.154 A 
ATOM     22  C   UNL A   1      31.725  30.205  26.102  1.00  0.00     0.050 A 
ATOM     23  C   UNL A   1      33.207  28.531  25.201  1.00  0.00     0.165 A 
ATOM     24  C   UNL A   1      32.723  30.591  27.009  1.00  0.00     0.014 A 
ATOM     25  C   UNL A   1      34.194  28.897  26.103  1.00  0.00     0.053 A 
ATOM     26  F   UNL A   1      33.492  27.578  24.302  1.00  0.00    -0.203 F 
BRANCH  21  27
ATOM     27  O   UNL A   1      30.997  28.841  24.296  1.00  0.00    -0.491 OA
BRANCH  27  28
ATOM     28  C   UNL A   1      30.207  29.972  23.906  1.00  0.00     0.226 C 
ATOM     29  C   UNL A   1      29.702  29.867  22.475  1.00  0.00     0.049 C 
ENDBRANCH  27  28
ENDBRANCH  21  27
ENDBRANCH  16  20
BRANCH  18  30
ATOM     30  C   UNL A   1      37.188  29.200  30.491  1.00  0.00     0.065 A 
ATOM     31  C   UNL A   1      37.156  29.567  31.841  1.00  0.00     0.028 A 
ATOM     32  C   UNL A   1      37.986  28.132  30.063  1.00  0.00     0.028 A 
ATOM     33  C   UNL A   1      37.905  28.843  32.770  1.00  0.00     0.002 A 
ATOM     34  C   UNL A   1      38.775  27.452  30.991  1.00  0.00     0.002 A 
ATOM     35  C   UNL A   1      38.725  27.798  32.342  1.00  0.00     0.000 A 
ENDBRANCH  18  30
ENDBRANCH   8  15
ENDBRANCH   6   7
ENDBRANCH   3   6
ENDBRANCH   1   2
BRANCH   1  36
ATOM     36  C   UNL A   1      36.857  34.817  32.603  1.00  0.00     0.023 C 
BRANCH  36  37
ATOM     37  C   UNL A   1      37.955  34.750  33.673  1.00  0.00     0.023 C 
BRANCH  37  38
ATOM     38  C   UNL A   1      39.213  33.989  33.272  1.00  0.00     0.116 C 
BRANCH  38  39
ATOM     39  N   UNL A   1      39.882  34.551  32.104  1.00  0.00    -0.352 N 
ATOM     40  C   UNL A   1      40.954  34.011  31.413  1.00  0.00     0.251 C 
ATOM     41  H   UNL A   1      39.533  35.409  31.770  1.00  0.00     0.163 HD
ATOM     42  O   UNL A   1      41.709  34.749  30.788  1.00  0.00    -0.269 OA
BRANCH  40  43
ATOM     43  C   UNL A   1      41.174  32.547  31.446  1.00  0.00     0.039 A 
ATOM     44  C   UNL A   1      40.427  31.684  30.645  1.00  0.00     0.014 A 
ATOM     45  C   UNL A   1      42.156  32.035  32.296  1.00  0.00     0.014 A 
ATOM     46  C   UNL A   1      40.745  30.323  30.646  1.00  0.00     0.010 A 
ATOM     47  C   UNL A   1      42.557  30.718  32.200  1.00  0.00     0.010 A 
ATOM     48  C   UNL A   1      41.840  29.844  31.397  1.00  0.00    -0.014 A 
BRANCH  48  49
ATOM     49  C   UNL A   1      42.362  28.489  31.174  1.00  0.00     0.031 A 
ATOM     50  C   UNL A   1      42.849  27.864  32.429  1.00  0.00     0.074 A 
ATOM     51  C   UNL A   1      42.300  27.771  30.026  1.00  0.00     0.049 A 
ATOM     52  N   UNL A   1      44.082  27.771  32.799  1.00  0.00    -0.248 NA
ATOM     53  C   UNL A   1      41.888  27.506  33.486  1.00  0.00     0.031 C 
ATOM     54  C   UNL A   1      41.664  28.135  28.758  1.00  0.00     0.029 A 
ATOM     55  N   UNL A   1      42.763  26.509  29.765  1.00  0.00    -0.354 N 
ATOM     56  C   UNL A   1      44.065  27.073  33.996  1.00  0.00     0.074 A 
ATOM     57  C   UNL A   1      42.711  27.147  34.476  1.00  0.00     0.031 C 
ATOM     58  C   UNL A   1      41.606  27.055  27.940  1.00  0.00     0.029 A 
ATOM     59  C   UNL A   1      42.338  25.957  28.551  1.00  0.00     0.049 A 
ATOM     60  H   UNL A   1      43.354  26.025  30.387  1.00  0.00     0.167 HD
ATOM     61  C   UNL A   1      45.104  26.255  34.317  1.00  0.00     0.034 A 
ATOM     62  C   UNL A   1      42.618  24.718  28.041  1.00  0.00     0.034 A 
ATOM     63  C   UNL A   1      46.265  26.550  33.503  1.00  0.00     0.049 A 
ATOM     64  C   UNL A   1      43.905  24.316  28.651  1.00  0.00     0.074 A 
ATOM     65  C   UNL A   1      47.015  27.687  33.259  1.00  0.00     0.029 A 
ATOM     66  N   UNL A   1      46.544  25.696  32.460  1.00  0.00    -0.354 N 
ATOM     67  N   UNL A   1      45.026  24.945  28.429  1.00  0.00    -0.248 NA
ATOM     68  C   UNL A   1      43.853  23.534  29.875  1.00  0.00     0.031 C 
ATOM     69  C   UNL A   1      47.287  27.654  31.858  1.00  0.00     0.029 A 
ATOM     70  C   UNL A   1      46.783  26.458  31.343  1.00  0.00     0.049 A 
ATOM     71  H   UNL A   1      46.568  24.713  32.506  1.00  0.00     0.167 HD
ATOM     72  C   UNL A   1      45.633  25.018  29.672  1.00  0.00     0.074 A 
ATOM     73  C   UNL A   1      44.907  24.059  30.506  1.00  0.00     0.031 C 
ATOM     74  C   UNL A   1      46.479  26.041  29.987  1.00  0.00     0.034 A 
BRANCH  61  75
ATOM     75  C   UNL A   1      44.948  24.938  35.039  1.00  0.00     0.023 A 
ATOM     76  C   UNL A   1      45.723  24.740  36.197  1.00  0.00     0.031 A 
ATOM     77  C   UNL A   1      44.330  23.784  34.504  1.00  0.00     0.131 A 
ATOM     78  C   UNL A   1      45.927  23.449  36.714  1.00  0.00     0.055 A 
ATOM     79  C   UNL A   1      44.487  22.512  35.058  1.00  0.00     0.041 A 
ATOM     80  F   UNL A   1      43.622  23.799  33.368  1.00  0.00    -0.206 F 
ATOM     81  C   UNL A   1      45.313  22.333  36.153  1.00  0.00     0.022 A 
BRANCH  78  82
ATOM     82  S   UNL A   1      47.123  23.239  38.055  1.00  0.00     0.124 S 
ATOM     83  O   UNL A   1      47.383  24.623  38.434  1.00  0.00    -0.237 OA
ATOM     84  O   UNL A   1      46.365  22.441  39.013  1.00  0.00    -0.237 OA
ATOM     85  O   UNL A   1      48.235  22.545  37.410  1.00  0.00    -0.744 OA
ENDBRANCH  78  82
ENDBRANCH  61  75
BRANCH  62  86
ATOM     86  C   UNL A   1      41.720  23.742  27.337  1.00  0.00     0.023 A 
ATOM     87  C   UNL A   1      42.144  22.436  26.960  1.00  0.00     0.031 A 
ATOM     88  C   UNL A   1      40.332  23.982  27.275  1.00  0.00     0.131 A 
ATOM     89  C   UNL A   1      41.199  21.449  26.572  1.00  0.00     0.055 A 
ATOM     90  C   UNL A   1      39.405  23.001  26.901  1.00  0.00     0.041 A 
ATOM     91  F   UNL A   1      39.813  25.155  27.665  1.00  0.00    -0.206 F 
ATOM     92  C   UNL A   1      39.832  21.727  26.560  1.00  0.00     0.022 A 
BRANCH  89  93
ATOM     93  S   UNL A   1      41.713  19.736  26.183  1.00  0.00     0.124 S 
ATOM     94  O   UNL A   1      42.151  19.244  27.485  1.00  0.00    -0.237 OA
ATOM     95  O   UNL A   1      40.492  19.148  25.645  1.00  0.00    -0.237 OA
ATOM     96  O   UNL A   1      42.786  19.916  25.203  1.00  0.00    -0.744 OA
ENDBRANCH  89  93
ENDBRANCH  62  86
BRANCH  74  97
ATOM     97  C   UNL A   1      47.026  26.915  28.876  1.00  0.00     0.023 A 
ATOM     98  C   UNL A   1      46.364  28.020  28.291  1.00  0.00     0.031 A 
ATOM     99  C   UNL A   1      48.369  26.693  28.525  1.00  0.00     0.131 A 
ATOM    100  C   UNL A   1      47.066  28.862  27.398  1.00  0.00     0.055 A 
ATOM    101  C   UNL A   1      49.063  27.539  27.664  1.00  0.00     0.041 A 
ATOM    102  F   UNL A   1      49.052  25.670  29.067  1.00  0.00    -0.206 F 
ATOM    103  C   UNL A   1      48.414  28.629  27.099  1.00  0.00     0.022 A 
BRANCH 100 104
ATOM    104  S   UNL A   1      46.254  30.311  26.641  1.00  0.00     0.124 S 
ATOM    105  O   UNL A   1      46.353  30.037  25.212  1.00  0.00    -0.237 OA
ATOM    106  O   UNL A   1      44.911  30.268  27.211  1.00  0.00    -0.237 OA
ATOM    107  O   UNL A   1      47.067  31.440  27.099  1.00  0.00    -0.744 OA
ENDBRANCH 100 104
ENDBRANCH  74  97
ENDBRANCH  48  49
ENDBRANCH  40  43
ENDBRANCH  38  39
ENDBRANCH  37  38
ENDBRANCH  36  37
ENDBRANCH   1  36
TORSDOF 20
ENDMDL
MODEL 2
REMARK VINA RESULT:     -11.4      3.801     11.902
REMARK SMILES CCOc1ccc(-c2nn(-c3ccccc3)cc2/C=C2/SC(=S)N(CC(=O)NCCCCNC(=O)c3ccc(-c4c5nc(c(-c6cc(S(=O)(=O)[O-])ccc6F)c6ccc([nH]6)c(-c6cc(S(=O)(=O)[O-])ccc6F)c6nc(c(-c7cc(S(=O)(=O)[O-])ccc7F)c7ccc4[nH]7)C=C6)C=C5)cc3)C2=O)cc1F
REMARK SMILES IDX 29 1 28 2 26 3 27 4 25 6 24 7 19 8 20 9 21 10 99 11 22 12
REMARK SMILES IDX 100 13 23 14 18 15 8 16 9 17 10 18 17 19 7 20 4 21 5 22
REMARK SMILES IDX 102 23 6 24 101 25 103 26 3 27 2 28 1 29 11 30 12 31 16 32
REMARK SMILES IDX 13 33 15 34 14 35 30 36 31 37 32 38 33 39 34 40 35 42 36 43
REMARK SMILES IDX 37 44 98 45 38 46 97 47 39 48 40 49 41 50 91 51 42 52 96 53
REMARK SMILES IDX 90 54 92 55 43 56 95 57 89 58 88 59 44 61 76 62 56 63 75 64
REMARK SMILES IDX 57 65 60 66 74 67 93 68 58 69 59 70 73 72 94 73 61 74 45 75
REMARK SMILES IDX 46 76 54 77 47 78 53 79 55 80 52 81 48 82 49 83 50 84 51 85
REMARK SMILES IDX 77 86 78 87 86 88 79 89 85 90 87 91 84 92 80 93 81 94 82 95
REMARK SMILES IDX 83 96 62 97 63 98 71 99 64 100 70 101 72 102 69 103 65 104
REMARK SMILES IDX 66 105 67 106 68 107
REMARK H PARENT 28 5 33 41 92 60 60 71
REMARK Flexibility Score: inf
ROOT
ATOM      1  C   UNL A   1      46.595  25.836  25.322  1.00  0.00     0.116 C 
ENDROOT
BRANCH   1   2
ATOM      2  N   UNL A   1      47.665  25.133  25.999  1.00  0.00    -0.355 N 
ATOM      3  C   UNL A   1      48.357  25.467  27.129  1.00  0.00     0.240 C 
ATOM      4  O   UNL A   1      49.024  24.580  27.668  1.00  0.00    -0.273 OA
ATOM      5  H   UNL A   1      47.935  24.284  25.581  1.00  0.00     0.163 HD
BRANCH   3   6
ATOM      6  C   UNL A   1      48.213  26.849  27.785  1.00  0.00     0.227 C 
BRANCH   6   7
ATOM      7  N   UNL A   1      46.814  27.226  27.996  1.00  0.00    -0.283 N 
ATOM      8  C   UNL A   1      43.808  26.538  29.920  1.00  0.00     0.033 C 
ATOM      9  C   UNL A   1      44.714  26.985  29.037  1.00  0.00     0.081 C 
ATOM     10  S   UNL A   1      44.490  28.339  28.001  1.00  0.00    -0.054 SA
ATOM     11  C   UNL A   1      46.062  26.401  28.805  1.00  0.00     0.266 C 
ATOM     12  C   UNL A   1      46.124  28.222  27.345  1.00  0.00     0.148 C 
ATOM     13  O   UNL A   1      46.434  25.314  29.236  1.00  0.00    -0.268 OA
ATOM     14  S   UNL A   1      46.643  29.204  26.102  1.00  0.00    -0.052 S 
BRANCH   8  15
ATOM     15  C   UNL A   1      44.018  25.407  30.755  1.00  0.00     0.022 A 
ATOM     16  C   UNL A   1      43.968  24.030  30.422  1.00  0.00     0.100 A 
ATOM     17  N   UNL A   1      44.432  23.280  31.431  1.00  0.00    -0.167 NA
ATOM     18  N   UNL A   1      44.705  24.158  32.425  1.00  0.00    -0.240 N 
ATOM     19  C   UNL A   1      44.378  25.450  32.081  1.00  0.00     0.123 A 
BRANCH  16  20
ATOM     20  C   UNL A   1      43.444  23.405  29.216  1.00  0.00     0.006 A 
ATOM     21  C   UNL A   1      42.553  22.083  26.914  1.00  0.00     0.154 A 
ATOM     22  C   UNL A   1      41.629  22.537  27.856  1.00  0.00     0.050 A 
ATOM     23  C   UNL A   1      43.909  22.342  27.101  1.00  0.00     0.165 A 
ATOM     24  C   UNL A   1      42.074  23.196  29.011  1.00  0.00     0.014 A 
ATOM     25  C   UNL A   1      44.359  22.981  28.246  1.00  0.00     0.053 A 
ATOM     26  F   UNL A   1      44.811  21.999  26.170  1.00  0.00    -0.203 F 
BRANCH  21  27
ATOM     27  O   UNL A   1      42.089  21.506  25.764  1.00  0.00    -0.491 OA
BRANCH  27  28
ATOM     28  C   UNL A   1      41.573  20.183  25.967  1.00  0.00     0.226 C 
ATOM     29  C   UNL A   1      42.652  19.115  25.879  1.00  0.00     0.049 C 
ENDBRANCH  27  28
ENDBRANCH  21  27
ENDBRANCH  16  20
BRANCH  18  30
ATOM     30  C   UNL A   1      45.213  23.713  33.664  1.00  0.00     0.065 A 
ATOM     31  C   UNL A   1      44.329  23.203  34.621  1.00  0.00     0.028 A 
ATOM     32  C   UNL A   1      46.586  23.782  33.928  1.00  0.00     0.028 A 
ATOM     33  C   UNL A   1      44.827  22.733  35.838  1.00  0.00     0.002 A 
ATOM     34  C   UNL A   1      47.066  23.363  35.170  1.00  0.00     0.002 A 
ATOM     35  C   UNL A   1      46.191  22.829  36.116  1.00  0.00     0.000 A 
ENDBRANCH  18  30
ENDBRANCH   8  15
ENDBRANCH   6   7
ENDBRANCH   3   6
ENDBRANCH   1   2
BRANCH   1  36
ATOM     36  C   UNL A   1      45.242  25.132  25.453  1.00  0.00     0.023 C 
BRANCH  36  37
ATOM     37  C   UNL A   1      44.002  26.000  25.198  1.00  0.00     0.023 C 
BRANCH  37  38
ATOM     38  C   UNL A   1      42.898  25.884  26.242  1.00  0.00     0.116 C 
BRANCH  38  39
ATOM     39  N   UNL A   1      41.626  25.427  25.691  1.00  0.00    -0.352 N 
ATOM     40  C   UNL A   1      40.381  25.492  26.294  1.00  0.00     0.251 C 
ATOM     41  H   UNL A   1      41.656  25.029  24.791  1.00  0.00     0.163 HD
ATOM     42  O   UNL A   1      39.509  24.690  25.976  1.00  0.00    -0.269 OA
BRANCH  40  43
ATOM     43  C   UNL A   1      40.126  26.529  27.320  1.00  0.00     0.039 A 
ATOM     44  C   UNL A   1      39.684  26.191  28.598  1.00  0.00     0.014 A 
ATOM     45  C   UNL A   1      40.341  27.868  26.987  1.00  0.00     0.014 A 
ATOM     46  C   UNL A   1      39.554  27.203  29.553  1.00  0.00     0.010 A 
ATOM     47  C   UNL A   1      40.340  28.846  27.961  1.00  0.00     0.010 A 
ATOM     48  C   UNL A   1      39.921  28.531  29.244  1.00  0.00    -0.014 A 
BRANCH  48  49
ATOM     49  C   UNL A   1      40.072  29.529  30.311  1.00  0.00     0.031 A 
ATOM     50  C   UNL A   1      38.810  30.271  30.565  1.00  0.00     0.074 A 
ATOM     51  C   UNL A   1      41.148  29.706  31.115  1.00  0.00     0.049 A 
ATOM     52  N   UNL A   1      38.531  31.456  30.138  1.00  0.00    -0.248 NA
ATOM     53  C   UNL A   1      37.657  29.567  31.150  1.00  0.00     0.031 C 
ATOM     54  C   UNL A   1      42.389  28.930  31.159  1.00  0.00     0.029 A 
ATOM     55  N   UNL A   1      41.340  30.614  32.123  1.00  0.00    -0.354 N 
ATOM     56  C   UNL A   1      37.283  31.759  30.658  1.00  0.00     0.074 A 
ATOM     57  C   UNL A   1      36.708  30.503  31.059  1.00  0.00     0.031 C 
ATOM     58  C   UNL A   1      43.108  29.265  32.259  1.00  0.00     0.029 A 
ATOM     59  C   UNL A   1      42.468  30.389  32.921  1.00  0.00     0.049 A 
ATOM     60  H   UNL A   1      40.727  31.370  32.274  1.00  0.00     0.167 HD
ATOM     61  C   UNL A   1      36.977  33.046  30.977  1.00  0.00     0.034 A 
ATOM     62  C   UNL A   1      42.894  31.109  34.004  1.00  0.00     0.034 A 
ATOM     63  C   UNL A   1      37.900  33.968  30.347  1.00  0.00     0.049 A 
ATOM     64  C   UNL A   1      42.354  32.474  33.815  1.00  0.00     0.074 A 
ATOM     65  C   UNL A   1      38.294  34.206  29.042  1.00  0.00     0.029 A 
ATOM     66  N   UNL A   1      38.888  34.516  31.134  1.00  0.00    -0.354 N 
ATOM     67  N   UNL A   1      42.713  33.253  32.831  1.00  0.00    -0.248 NA
ATOM     68  C   UNL A   1      41.070  32.779  34.423  1.00  0.00     0.031 C 
ATOM     69  C   UNL A   1      39.704  34.414  29.116  1.00  0.00     0.029 A 
ATOM     70  C   UNL A   1      40.079  34.395  30.461  1.00  0.00     0.049 A 
ATOM     71  H   UNL A   1      38.763  34.923  32.021  1.00  0.00     0.167 HD
ATOM     72  C   UNL A   1      41.531  33.832  32.400  1.00  0.00     0.074 A 
ATOM     73  C   UNL A   1      40.568  33.569  33.470  1.00  0.00     0.031 C 
ATOM     74  C   UNL A   1      41.368  34.224  31.104  1.00  0.00     0.034 A 
BRANCH  61  75
ATOM     75  C   UNL A   1      36.139  33.444  32.169  1.00  0.00     0.023 A 
ATOM     76  C   UNL A   1      35.024  34.267  31.929  1.00  0.00     0.031 A 
ATOM     77  C   UNL A   1      36.534  33.316  33.521  1.00  0.00     0.131 A 
ATOM     78  C   UNL A   1      34.416  34.979  32.977  1.00  0.00     0.055 A 
ATOM     79  C   UNL A   1      35.888  33.979  34.567  1.00  0.00     0.041 A 
ATOM     80  F   UNL A   1      37.617  32.628  33.900  1.00  0.00    -0.206 F 
ATOM     81  C   UNL A   1      34.840  34.839  34.295  1.00  0.00     0.022 A 
BRANCH  78  82
ATOM     82  S   UNL A   1      33.145  36.199  32.565  1.00  0.00     0.124 S 
ATOM     83  O   UNL A   1      31.942  35.375  32.552  1.00  0.00    -0.237 OA
ATOM     84  O   UNL A   1      33.265  37.145  33.669  1.00  0.00    -0.237 OA
ATOM     85  O   UNL A   1      33.573  36.706  31.263  1.00  0.00    -0.744 OA
ENDBRANCH  78  82
ENDBRANCH  61  75
BRANCH  62  86
ATOM     86  C   UNL A   1      43.444  30.635  35.318  1.00  0.00     0.023 A 
ATOM     87  C   UNL A   1      43.265  29.307  35.797  1.00  0.00     0.031 A 
ATOM     88  C   UNL A   1      44.404  31.411  35.999  1.00  0.00     0.131 A 
ATOM     89  C   UNL A   1      44.038  28.815  36.882  1.00  0.00     0.055 A 
ATOM     90  C   UNL A   1      45.170  30.917  37.062  1.00  0.00     0.041 A 
ATOM     91  F   UNL A   1      44.701  32.656  35.597  1.00  0.00    -0.206 F 
ATOM     92  C   UNL A   1      45.000  29.613  37.501  1.00  0.00     0.022 A 
BRANCH  89  93
ATOM     93  S   UNL A   1      43.897  27.079  37.446  1.00  0.00     0.124 S 
ATOM     94  O   UNL A   1      44.493  27.139  38.776  1.00  0.00    -0.237 OA
ATOM     95  O   UNL A   1      42.460  26.838  37.390  1.00  0.00    -0.237 OA
ATOM     96  O   UNL A   1      44.679  26.334  36.457  1.00  0.00    -0.744 OA
ENDBRANCH  89  93
ENDBRANCH  62  86
BRANCH  74  97
ATOM     97  C   UNL A   1      42.586  34.343  30.210  1.00  0.00     0.023 A 
ATOM     98  C   UNL A   1      42.944  33.448  29.176  1.00  0.00     0.031 A 
ATOM     99  C   UNL A   1      43.319  35.538  30.327  1.00  0.00     0.131 A 
ATOM    100  C   UNL A   1      44.000  33.781  28.297  1.00  0.00     0.055 A 
ATOM    101  C   UNL A   1      44.342  35.873  29.444  1.00  0.00     0.041 A 
ATOM    102  F   UNL A   1      43.008  36.434  31.278  1.00  0.00    -0.206 F 
ATOM    103  C   UNL A   1      44.684  34.996  28.422  1.00  0.00     0.022 A 
BRANCH 100 104
ATOM    104  S   UNL A   1      44.476  32.662  26.935  1.00  0.00     0.124 S 
ATOM    105  O   UNL A   1      43.854  31.398  27.312  1.00  0.00    -0.237 OA
ATOM    106  O   UNL A   1      43.920  33.324  25.758  1.00  0.00    -0.237 OA
ATOM    107  O   UNL A   1      45.940  32.657  26.989  1.00  0.00    -0.744 OA
ENDBRANCH 100 104
ENDBRANCH  74  97
ENDBRANCH  48  49
ENDBRANCH  40  43
ENDBRANCH  38  39
ENDBRANCH  37  38
ENDBRANCH  36  37
ENDBRANCH   1  36
TORSDOF 20
ENDMDL
MODEL 3
REMARK VINA RESULT:     -11.3      3.309      5.200
REMARK SMILES CCOc1ccc(-c2nn(-c3ccccc3)cc2/C=C2/SC(=S)N(CC(=O)NCCCCNC(=O)c3ccc(-c4c5nc(c(-c6cc(S(=O)(=O)[O-])ccc6F)c6ccc([nH]6)c(-c6cc(S(=O)(=O)[O-])ccc6F)c6nc(c(-c7cc(S(=O)(=O)[O-])ccc7F)c7ccc4[nH]7)C=C6)C=C5)cc3)C2=O)cc1F
REMARK SMILES IDX 29 1 28 2 26 3 27 4 25 6 24 7 19 8 20 9 21 10 99 11 22 12
REMARK SMILES IDX 100 13 23 14 18 15 8 16 9 17 10 18 17 19 7 20 4 21 5 22
REMARK SMILES IDX 102 23 6 24 101 25 103 26 3 27 2 28 1 29 11 30 12 31 16 32
REMARK SMILES IDX 13 33 15 34 14 35 30 36 31 37 32 38 33 39 34 40 35 42 36 43
REMARK SMILES IDX 37 44 98 45 38 46 97 47 39 48 40 49 41 50 91 51 42 52 96 53
REMARK SMILES IDX 90 54 92 55 43 56 95 57 89 58 88 59 44 61 76 62 56 63 75 64
REMARK SMILES IDX 57 65 60 66 74 67 93 68 58 69 59 70 73 72 94 73 61 74 45 75
REMARK SMILES IDX 46 76 54 77 47 78 53 79 55 80 52 81 48 82 49 83 50 84 51 85
REMARK SMILES IDX 77 86 78 87 86 88 79 89 85 90 87 91 84 92 80 93 81 94 82 95
REMARK SMILES IDX 83 96 62 97 63 98 71 99 64 100 70 101 72 102 69 103 65 104
REMARK SMILES IDX 66 105 67 106 68 107
REMARK H PARENT 28 5 33 41 92 60 60 71
REMARK Flexibility Score: inf
ROOT
ATOM      1  C   UNL A   1      43.251  34.166  31.330  1.00  0.00     0.116 C 
ENDROOT
BRANCH   1   2
ATOM      2  N   UNL A   1      41.867  34.492  31.604  1.00  0.00    -0.355 N 
ATOM      3  C   UNL A   1      40.923  33.794  32.303  1.00  0.00     0.240 C 
ATOM      4  O   UNL A   1      39.902  34.400  32.639  1.00  0.00    -0.273 OA
ATOM      5  H   UNL A   1      41.559  35.349  31.231  1.00  0.00     0.163 HD
BRANCH   3   6
ATOM      6  C   UNL A   1      41.167  32.350  32.770  1.00  0.00     0.227 C 
BRANCH   6   7
ATOM      7  N   UNL A   1      39.932  31.567  32.839  1.00  0.00    -0.283 N 
ATOM      8  C   UNL A   1      37.713  29.347  31.007  1.00  0.00     0.033 C 
ATOM      9  C   UNL A   1      38.290  30.159  31.907  1.00  0.00     0.081 C 
ATOM     10  S   UNL A   1      37.783  30.331  33.541  1.00  0.00    -0.054 SA
ATOM     11  C   UNL A   1      39.462  31.039  31.657  1.00  0.00     0.266 C 
ATOM     12  C   UNL A   1      39.101  31.439  33.928  1.00  0.00     0.148 C 
ATOM     13  O   UNL A   1      39.917  31.294  30.546  1.00  0.00    -0.268 OA
ATOM     14  S   UNL A   1      39.213  32.184  35.415  1.00  0.00    -0.052 S 
BRANCH   8  15
ATOM     15  C   UNL A   1      38.147  29.236  29.659  1.00  0.00     0.022 A 
ATOM     16  C   UNL A   1      37.812  30.044  28.543  1.00  0.00     0.100 A 
ATOM     17  N   UNL A   1      38.591  29.750  27.493  1.00  0.00    -0.167 NA
ATOM     18  N   UNL A   1      39.362  28.716  27.905  1.00  0.00    -0.240 N 
ATOM     19  C   UNL A   1      39.055  28.318  29.186  1.00  0.00     0.123 A 
BRANCH  16  20
ATOM     20  C   UNL A   1      36.751  31.033  28.424  1.00  0.00     0.006 A 
ATOM     21  C   UNL A   1      34.607  32.829  28.275  1.00  0.00     0.154 A 
ATOM     22  C   UNL A   1      35.866  33.281  28.673  1.00  0.00     0.050 A 
ATOM     23  C   UNL A   1      34.443  31.497  27.900  1.00  0.00     0.165 A 
ATOM     24  C   UNL A   1      36.940  32.383  28.752  1.00  0.00     0.014 A 
ATOM     25  C   UNL A   1      35.495  30.599  27.988  1.00  0.00     0.053 A 
ATOM     26  F   UNL A   1      33.269  31.054  27.427  1.00  0.00    -0.203 F 
BRANCH  21  27
ATOM     27  O   UNL A   1      33.595  33.738  28.139  1.00  0.00    -0.491 OA
BRANCH  27  28
ATOM     28  C   UNL A   1      33.436  34.579  29.290  1.00  0.00     0.226 C 
ATOM     29  C   UNL A   1      33.156  36.028  28.922  1.00  0.00     0.049 C 
ENDBRANCH  27  28
ENDBRANCH  21  27
ENDBRANCH  16  20
BRANCH  18  30
ATOM     30  C   UNL A   1      40.311  28.133  27.040  1.00  0.00     0.065 A 
ATOM     31  C   UNL A   1      40.354  26.740  26.912  1.00  0.00     0.028 A 
ATOM     32  C   UNL A   1      41.199  28.940  26.320  1.00  0.00     0.028 A 
ATOM     33  C   UNL A   1      41.271  26.156  26.036  1.00  0.00     0.002 A 
ATOM     34  C   UNL A   1      42.150  28.344  25.491  1.00  0.00     0.002 A 
ATOM     35  C   UNL A   1      42.177  26.956  25.340  1.00  0.00     0.000 A 
ENDBRANCH  18  30
ENDBRANCH   8  15
ENDBRANCH   6   7
ENDBRANCH   3   6
ENDBRANCH   1   2
BRANCH   1  36
ATOM     36  C   UNL A   1      43.973  35.253  30.531  1.00  0.00     0.023 C 
BRANCH  36  37
ATOM     37  C   UNL A   1      43.092  36.117  29.617  1.00  0.00     0.023 C 
BRANCH  37  38
ATOM     38  C   UNL A   1      42.662  35.459  28.311  1.00  0.00     0.116 C 
BRANCH  38  39
ATOM     39  N   UNL A   1      43.439  35.901  27.158  1.00  0.00    -0.352 N 
ATOM     40  C   UNL A   1      44.638  35.377  26.705  1.00  0.00     0.251 C 
ATOM     41  H   UNL A   1      43.069  36.656  26.644  1.00  0.00     0.163 HD
ATOM     42  O   UNL A   1      45.408  36.085  26.064  1.00  0.00    -0.269 OA
BRANCH  40  43
ATOM     43  C   UNL A   1      44.973  33.967  27.009  1.00  0.00     0.039 A 
ATOM     44  C   UNL A   1      46.011  33.640  27.881  1.00  0.00     0.014 A 
ATOM     45  C   UNL A   1      44.222  32.955  26.408  1.00  0.00     0.014 A 
ATOM     46  C   UNL A   1      46.218  32.296  28.205  1.00  0.00     0.010 A 
ATOM     47  C   UNL A   1      44.339  31.645  26.827  1.00  0.00     0.010 A 
ATOM     48  C   UNL A   1      45.353  31.298  27.707  1.00  0.00    -0.014 A 
BRANCH  48  49
ATOM     49  C   UNL A   1      45.376  29.942  28.272  1.00  0.00     0.031 A 
ATOM     50  C   UNL A   1      45.009  29.931  29.711  1.00  0.00     0.074 A 
ATOM     51  C   UNL A   1      45.549  28.780  27.597  1.00  0.00     0.049 A 
ATOM     52  N   UNL A   1      45.833  29.852  30.701  1.00  0.00    -0.248 NA
ATOM     53  C   UNL A   1      43.632  30.263  30.114  1.00  0.00     0.031 C 
ATOM     54  C   UNL A   1      45.703  28.580  26.154  1.00  0.00     0.029 A 
ATOM     55  N   UNL A   1      45.574  27.495  28.071  1.00  0.00    -0.354 N 
ATOM     56  C   UNL A   1      45.048  29.822  31.843  1.00  0.00     0.074 A 
ATOM     57  C   UNL A   1      43.754  30.308  31.444  1.00  0.00     0.031 C 
ATOM     58  C   UNL A   1      45.603  27.261  25.855  1.00  0.00     0.029 A 
ATOM     59  C   UNL A   1      45.538  26.497  27.090  1.00  0.00     0.049 A 
ATOM     60  H   UNL A   1      45.616  27.290  29.034  1.00  0.00     0.167 HD
ATOM     61  C   UNL A   1      45.464  29.118  32.931  1.00  0.00     0.034 A 
ATOM     62  C   UNL A   1      45.527  25.140  27.265  1.00  0.00     0.034 A 
ATOM     63  C   UNL A   1      46.879  28.819  32.844  1.00  0.00     0.049 A 
ATOM     64  C   UNL A   1      46.178  24.900  28.573  1.00  0.00     0.074 A 
ATOM     65  C   UNL A   1      48.023  29.582  32.689  1.00  0.00     0.029 A 
ATOM     66  N   UNL A   1      47.237  27.541  32.482  1.00  0.00    -0.354 N 
ATOM     67  N   UNL A   1      47.431  25.180  28.807  1.00  0.00    -0.248 NA
ATOM     68  C   UNL A   1      45.322  24.814  29.744  1.00  0.00     0.031 C 
ATOM     69  C   UNL A   1      48.833  28.845  31.775  1.00  0.00     0.029 A 
ATOM     70  C   UNL A   1      48.195  27.634  31.502  1.00  0.00     0.049 A 
ATOM     71  H   UNL A   1      46.873  26.708  32.858  1.00  0.00     0.167 HD
ATOM     72  C   UNL A   1      47.427  25.751  30.069  1.00  0.00     0.074 A 
ATOM     73  C   UNL A   1      46.116  25.421  30.630  1.00  0.00     0.031 C 
ATOM     74  C   UNL A   1      48.369  26.667  30.434  1.00  0.00     0.034 A 
BRANCH  61  75
ATOM     75  C   UNL A   1      44.537  28.344  33.839  1.00  0.00     0.023 A 
ATOM     76  C   UNL A   1      44.753  28.450  35.225  1.00  0.00     0.031 A 
ATOM     77  C   UNL A   1      43.676  27.301  33.425  1.00  0.00     0.131 A 
ATOM     78  C   UNL A   1      44.206  27.508  36.112  1.00  0.00     0.055 A 
ATOM     79  C   UNL A   1      43.086  26.404  34.318  1.00  0.00     0.041 A 
ATOM     80  F   UNL A   1      43.431  27.028  32.138  1.00  0.00    -0.206 F 
ATOM     81  C   UNL A   1      43.372  26.486  35.668  1.00  0.00     0.022 A 
BRANCH  78  82
ATOM     82  S   UNL A   1      44.717  27.563  37.847  1.00  0.00     0.124 S 
ATOM     83  O   UNL A   1      43.773  26.635  38.460  1.00  0.00    -0.237 OA
ATOM     84  O   UNL A   1      46.103  27.111  37.768  1.00  0.00    -0.237 OA
ATOM     85  O   UNL A   1      44.541  28.968  38.207  1.00  0.00    -0.744 OA
ENDBRANCH  78  82
ENDBRANCH  61  75
BRANCH  62  86
ATOM     86  C   UNL A   1      44.726  24.085  26.558  1.00  0.00     0.023 A 
ATOM     87  C   UNL A   1      43.549  23.508  27.112  1.00  0.00     0.031 A 
ATOM     88  C   UNL A   1      44.953  23.829  25.191  1.00  0.00     0.131 A 
ATOM     89  C   UNL A   1      42.664  22.745  26.305  1.00  0.00     0.055 A 
ATOM     90  C   UNL A   1      44.072  23.084  24.398  1.00  0.00     0.041 A 
ATOM     91  F   UNL A   1      45.998  24.372  24.548  1.00  0.00    -0.206 F 
ATOM     92  C   UNL A   1      42.917  22.549  24.948  1.00  0.00     0.022 A 
BRANCH  89  93
ATOM     93  S   UNL A   1      41.094  22.082  26.972  1.00  0.00     0.124 S 
ATOM     94  O   UNL A   1      40.850  20.937  26.103  1.00  0.00    -0.237 OA
ATOM     95  O   UNL A   1      41.433  21.784  28.358  1.00  0.00    -0.237 OA
ATOM     96  O   UNL A   1      40.154  23.192  26.800  1.00  0.00    -0.744 OA
ENDBRANCH  89  93
ENDBRANCH  62  86
BRANCH  74  97
ATOM     97  C   UNL A   1      49.619  26.816  29.590  1.00  0.00     0.023 A 
ATOM     98  C   UNL A   1      49.757  27.650  28.456  1.00  0.00     0.031 A 
ATOM     99  C   UNL A   1      50.775  26.189  30.088  1.00  0.00     0.131 A 
ATOM    100  C   UNL A   1      51.033  27.837  27.877  1.00  0.00     0.055 A 
ATOM    101  C   UNL A   1      52.033  26.396  29.529  1.00  0.00     0.041 A 
ATOM    102  F   UNL A   1      50.704  25.403  31.176  1.00  0.00    -0.206 F 
ATOM    103  C   UNL A   1      52.168  27.223  28.422  1.00  0.00     0.022 A 
BRANCH 100 104
ATOM    104  S   UNL A   1      51.256  28.925  26.428  1.00  0.00     0.124 S 
ATOM    105  O   UNL A   1      52.254  29.886  26.884  1.00  0.00    -0.237 OA
ATOM    106  O   UNL A   1      51.689  27.997  25.387  1.00  0.00    -0.237 OA
ATOM    107  O   UNL A   1      49.922  29.492  26.214  1.00  0.00    -0.744 OA
ENDBRANCH 100 104
ENDBRANCH  74  97
ENDBRANCH  48  49
ENDBRANCH  40  43
ENDBRANCH  38  39
ENDBRANCH  37  38
ENDBRANCH  36  37
ENDBRANCH   1  36
TORSDOF 20
ENDMDL
