MODEL 1
REMARK VINA RESULT:     -12.1      0.000      0.000
REMARK SMILES Cn1c(=O)c2c(-c3ccc(Cl)cc3)n(CC(=O)NCCCCNC(=O)c3ccc(-c4c5nc(c(-c6cc(S(=O)(=O)[O-])ccc6F)c6ccc([nH]6)c(-c6cc(S(=O)(=O)[O-])ccc6F)c6nc(c(-c7cc(S(=O)(=O)[O-])ccc7F)c7ccc4[nH]7)C=C6)C=C5)cc3)cc2n(C)c1=O
REMARK SMILES IDX 21 1 20 2 19 3 18 4 16 5 17 6 15 8 14 9 1 10 2 11 3 12 93 13
REMARK SMILES IDX 4 14 5 15 91 16 94 17 6 18 90 19 92 20 89 21 7 22 8 23 13 24
REMARK SMILES IDX 9 25 12 26 10 27 11 28 22 29 23 30 24 31 25 33 26 34 27 35
REMARK SMILES IDX 88 36 28 37 87 38 29 39 30 40 31 41 81 42 32 43 86 44 80 45
REMARK SMILES IDX 82 46 33 47 85 48 79 49 78 50 34 52 66 53 46 54 65 55 47 56
REMARK SMILES IDX 50 57 64 58 83 59 48 60 49 61 63 63 84 64 51 65 35 66 36 67
REMARK SMILES IDX 44 68 37 69 43 70 45 71 42 72 38 73 39 74 40 75 41 76 67 77
REMARK SMILES IDX 68 78 76 79 69 80 75 81 77 82 74 83 70 84 71 85 72 86 73 87
REMARK SMILES IDX 52 88 53 89 61 90 54 91 60 92 62 93 59 94 55 95 56 96 57 97
REMARK SMILES IDX 58 98
REMARK H PARENT 18 7 23 32 82 51 50 62
REMARK Flexibility Score: inf
ROOT
ATOM      1  C   UNL A   1      37.099  19.979  24.896  1.00  0.00     0.023 C 
ENDROOT
BRANCH   1   2
ATOM      2  C   UNL A   1      35.886  20.656  25.547  1.00  0.00     0.023 C 
BRANCH   2   3
ATOM      3  C   UNL A   1      34.555  20.420  24.825  1.00  0.00     0.116 C 
BRANCH   3   4
ATOM      4  N   UNL A   1      33.420  20.763  25.660  1.00  0.00    -0.355 N 
ATOM      5  C   UNL A   1      32.373  21.594  25.374  1.00  0.00     0.239 C 
ATOM      6  O   UNL A   1      31.544  21.823  26.258  1.00  0.00    -0.273 OA
ATOM      7  H   UNL A   1      33.401  20.342  26.550  1.00  0.00     0.163 HD
BRANCH   5   8
ATOM      8  C   UNL A   1      32.213  22.180  23.982  1.00  0.00     0.222 C 
BRANCH   8   9
ATOM      9  N   UNL A   1      32.070  23.633  23.973  1.00  0.00    -0.335 N 
ATOM     10  C   UNL A   1      32.330  29.474  24.825  1.00  0.00     0.158 C 
ATOM     11  N   UNL A   1      31.911  28.126  24.500  1.00  0.00    -0.263 N 
ATOM     12  C   UNL A   1      32.903  27.135  24.563  1.00  0.00     0.265 A 
ATOM     13  C   UNL A   1      30.575  27.951  24.098  1.00  0.00     0.330 A 
ATOM     14  O   UNL A   1      34.071  27.364  24.837  1.00  0.00    -0.268 OA
ATOM     15  C   UNL A   1      32.405  25.810  24.264  1.00  0.00     0.090 A 
ATOM     16  N   UNL A   1      30.156  26.646  23.811  1.00  0.00    -0.295 N 
ATOM     17  O   UNL A   1      29.807  28.914  23.996  1.00  0.00    -0.248 OA
ATOM     18  C   UNL A   1      33.052  24.578  24.261  1.00  0.00     0.064 A 
ATOM     19  C   UNL A   1      31.067  25.608  23.904  1.00  0.00     0.076 A 
ATOM     20  C   UNL A   1      28.772  26.407  23.431  1.00  0.00     0.155 C 
ATOM     21  C   UNL A   1      30.879  24.268  23.688  1.00  0.00     0.114 A 
BRANCH  18  22
ATOM     22  C   UNL A   1      34.448  24.254  24.580  1.00  0.00    -0.001 A 
ATOM     23  C   UNL A   1      34.921  24.327  25.896  1.00  0.00     0.012 A 
ATOM     24  C   UNL A   1      35.338  23.884  23.560  1.00  0.00     0.012 A 
ATOM     25  C   UNL A   1      36.264  24.066  26.181  1.00  0.00     0.021 A 
ATOM     26  C   UNL A   1      36.681  23.626  23.842  1.00  0.00     0.021 A 
ATOM     27  C   UNL A   1      37.139  23.720  25.153  1.00  0.00     0.041 A 
ATOM     28  Cl  UNL A   1      38.791  23.399  25.508  1.00  0.00    -0.084 Cl
ENDBRANCH  18  22
ENDBRANCH   8   9
ENDBRANCH   5   8
ENDBRANCH   3   4
ENDBRANCH   2   3
ENDBRANCH   1   2
BRANCH   1  29
ATOM     29  C   UNL A   1      38.436  20.431  25.466  1.00  0.00     0.116 C 
BRANCH  29  30
ATOM     30  N   UNL A   1      39.349  19.315  25.697  1.00  0.00    -0.352 N 
ATOM     31  C   UNL A   1      40.701  19.387  25.972  1.00  0.00     0.251 C 
ATOM     32  H   UNL A   1      38.958  18.413  25.653  1.00  0.00     0.163 HD
ATOM     33  O   UNL A   1      41.431  18.431  25.748  1.00  0.00    -0.269 OA
BRANCH  31  34
ATOM     34  C   UNL A   1      41.235  20.633  26.552  1.00  0.00     0.039 A 
ATOM     35  C   UNL A   1      41.909  21.572  25.764  1.00  0.00     0.014 A 
ATOM     36  C   UNL A   1      41.045  20.848  27.918  1.00  0.00     0.014 A 
ATOM     37  C   UNL A   1      42.329  22.764  26.350  1.00  0.00     0.010 A 
ATOM     38  C   UNL A   1      41.363  22.063  28.471  1.00  0.00     0.010 A 
ATOM     39  C   UNL A   1      42.040  23.006  27.702  1.00  0.00    -0.014 A 
BRANCH  39  40
ATOM     40  C   UNL A   1      42.288  24.311  28.305  1.00  0.00     0.031 A 
ATOM     41  C   UNL A   1      41.224  25.317  28.021  1.00  0.00     0.074 A 
ATOM     42  C   UNL A   1      43.235  24.486  29.255  1.00  0.00     0.049 A 
ATOM     43  N   UNL A   1      41.333  26.429  27.375  1.00  0.00    -0.248 NA
ATOM     44  C   UNL A   1      39.829  24.975  28.360  1.00  0.00     0.031 C 
ATOM     45  C   UNL A   1      44.137  23.481  29.826  1.00  0.00     0.029 A 
ATOM     46  N   UNL A   1      43.512  25.584  30.008  1.00  0.00    -0.354 N 
ATOM     47  C   UNL A   1      40.082  27.037  27.437  1.00  0.00     0.074 A 
ATOM     48  C   UNL A   1      39.163  26.013  27.851  1.00  0.00     0.031 C 
ATOM     49  C   UNL A   1      44.674  23.950  30.975  1.00  0.00     0.029 A 
ATOM     50  C   UNL A   1      44.274  25.337  31.151  1.00  0.00     0.049 A 
ATOM     51  H   UNL A   1      43.200  26.485  29.764  1.00  0.00     0.167 HD
ATOM     52  C   UNL A   1      39.949  28.393  27.385  1.00  0.00     0.034 A 
ATOM     53  C   UNL A   1      44.522  26.196  32.182  1.00  0.00     0.034 A 
ATOM     54  C   UNL A   1      41.154  29.009  26.881  1.00  0.00     0.049 A 
ATOM     55  C   UNL A   1      44.304  27.560  31.628  1.00  0.00     0.074 A 
ATOM     56  C   UNL A   1      41.867  28.897  25.702  1.00  0.00     0.029 A 
ATOM     57  N   UNL A   1      42.031  29.550  27.795  1.00  0.00    -0.354 N 
ATOM     58  N   UNL A   1      45.020  28.053  30.649  1.00  0.00    -0.248 NA
ATOM     59  C   UNL A   1      42.979  28.145  31.783  1.00  0.00     0.031 C 
ATOM     60  C   UNL A   1      43.234  28.867  26.110  1.00  0.00     0.029 A 
ATOM     61  C   UNL A   1      43.282  29.068  27.492  1.00  0.00     0.049 A 
ATOM     62  H   UNL A   1      41.805  30.166  28.528  1.00  0.00     0.167 HD
ATOM     63  C   UNL A   1      44.105  28.680  29.815  1.00  0.00     0.074 A 
ATOM     64  C   UNL A   1      42.873  28.766  30.603  1.00  0.00     0.031 C 
ATOM     65  C   UNL A   1      44.322  28.801  28.471  1.00  0.00     0.034 A 
BRANCH  52  66
ATOM     66  C   UNL A   1      38.884  29.186  28.107  1.00  0.00     0.023 A 
ATOM     67  C   UNL A   1      38.910  29.195  29.515  1.00  0.00     0.031 A 
ATOM     68  C   UNL A   1      37.708  29.700  27.512  1.00  0.00     0.131 A 
ATOM     69  C   UNL A   1      37.795  29.626  30.257  1.00  0.00     0.055 A 
ATOM     70  C   UNL A   1      36.627  30.184  28.255  1.00  0.00     0.041 A 
ATOM     71  F   UNL A   1      37.494  29.674  26.192  1.00  0.00    -0.206 F 
ATOM     72  C   UNL A   1      36.655  30.125  29.635  1.00  0.00     0.022 A 
BRANCH  69  73
ATOM     73  S   UNL A   1      37.808  29.396  32.054  1.00  0.00     0.124 S 
ATOM     74  O   UNL A   1      38.029  27.959  32.166  1.00  0.00    -0.237 OA
ATOM     75  O   UNL A   1      38.916  30.253  32.461  1.00  0.00    -0.237 OA
ATOM     76  O   UNL A   1      36.483  29.857  32.464  1.00  0.00    -0.744 OA
ENDBRANCH  69  73
ENDBRANCH  52  66
BRANCH  53  77
ATOM     77  C   UNL A   1      44.567  25.872  33.648  1.00  0.00     0.023 A 
ATOM     78  C   UNL A   1      43.513  26.162  34.551  1.00  0.00     0.031 A 
ATOM     79  C   UNL A   1      45.597  25.042  34.152  1.00  0.00     0.131 A 
ATOM     80  C   UNL A   1      43.531  25.641  35.874  1.00  0.00     0.055 A 
ATOM     81  C   UNL A   1      45.610  24.537  35.455  1.00  0.00     0.041 A 
ATOM     82  F   UNL A   1      46.595  24.614  33.365  1.00  0.00    -0.206 F 
ATOM     83  C   UNL A   1      44.573  24.828  36.322  1.00  0.00     0.022 A 
BRANCH  80  84
ATOM     84  S   UNL A   1      42.138  25.927  37.025  1.00  0.00     0.124 S 
ATOM     85  O   UNL A   1      41.445  24.644  36.996  1.00  0.00    -0.237 OA
ATOM     86  O   UNL A   1      42.820  26.269  38.268  1.00  0.00    -0.237 OA
ATOM     87  O   UNL A   1      41.405  27.034  36.408  1.00  0.00    -0.744 OA
ENDBRANCH  80  84
ENDBRANCH  53  77
BRANCH  65  88
ATOM     88  C   UNL A   1      45.683  28.446  27.901  1.00  0.00     0.023 A 
ATOM     89  C   UNL A   1      46.026  27.196  27.330  1.00  0.00     0.031 A 
ATOM     90  C   UNL A   1      46.589  29.508  27.735  1.00  0.00     0.131 A 
ATOM     91  C   UNL A   1      47.234  27.059  26.611  1.00  0.00     0.055 A 
ATOM     92  C   UNL A   1      47.767  29.373  27.004  1.00  0.00     0.041 A 
ATOM     93  F   UNL A   1      46.300  30.726  28.224  1.00  0.00    -0.206 F 
ATOM     94  C   UNL A   1      48.093  28.148  26.435  1.00  0.00     0.022 A 
BRANCH  91  95
ATOM     95  S   UNL A   1      47.687  25.467  25.836  1.00  0.00     0.124 S 
ATOM     96  O   UNL A   1      49.080  25.670  25.457  1.00  0.00    -0.237 OA
ATOM     97  O   UNL A   1      47.444  24.504  26.906  1.00  0.00    -0.237 OA
ATOM     98  O   UNL A   1      46.760  25.360  24.707  1.00  0.00    -0.744 OA
ENDBRANCH  91  95
ENDBRANCH  65  88
ENDBRANCH  39  40
ENDBRANCH  31  34
ENDBRANCH  29  30
ENDBRANCH   1  29
TORSDOF 16
ENDMDL
MODEL 2
REMARK VINA RESULT:     -11.9      2.171      2.939
REMARK SMILES Cn1c(=O)c2c(-c3ccc(Cl)cc3)n(CC(=O)NCCCCNC(=O)c3ccc(-c4c5nc(c(-c6cc(S(=O)(=O)[O-])ccc6F)c6ccc([nH]6)c(-c6cc(S(=O)(=O)[O-])ccc6F)c6nc(c(-c7cc(S(=O)(=O)[O-])ccc7F)c7ccc4[nH]7)C=C6)C=C5)cc3)cc2n(C)c1=O
REMARK SMILES IDX 21 1 20 2 19 3 18 4 16 5 17 6 15 8 14 9 1 10 2 11 3 12 93 13
REMARK SMILES IDX 4 14 5 15 91 16 94 17 6 18 90 19 92 20 89 21 7 22 8 23 13 24
REMARK SMILES IDX 9 25 12 26 10 27 11 28 22 29 23 30 24 31 25 33 26 34 27 35
REMARK SMILES IDX 88 36 28 37 87 38 29 39 30 40 31 41 81 42 32 43 86 44 80 45
REMARK SMILES IDX 82 46 33 47 85 48 79 49 78 50 34 52 66 53 46 54 65 55 47 56
REMARK SMILES IDX 50 57 64 58 83 59 48 60 49 61 63 63 84 64 51 65 35 66 36 67
REMARK SMILES IDX 44 68 37 69 43 70 45 71 42 72 38 73 39 74 40 75 41 76 67 77
REMARK SMILES IDX 68 78 76 79 69 80 75 81 77 82 74 83 70 84 71 85 72 86 73 87
REMARK SMILES IDX 52 88 53 89 61 90 54 91 60 92 62 93 59 94 55 95 56 96 57 97
REMARK SMILES IDX 58 98
REMARK H PARENT 18 7 23 32 82 51 50 62
REMARK Flexibility Score: inf
ROOT
ATOM      1  C   UNL A   1      38.399  19.119  25.361  1.00  0.00     0.023 C 
ENDROOT
BRANCH   1   2
ATOM      2  C   UNL A   1      37.258  20.080  25.002  1.00  0.00     0.023 C 
BRANCH   2   3
ATOM      3  C   UNL A   1      37.636  21.566  25.037  1.00  0.00     0.116 C 
BRANCH   3   4
ATOM      4  N   UNL A   1      37.121  22.281  23.885  1.00  0.00    -0.355 N 
ATOM      5  C   UNL A   1      36.230  23.317  23.855  1.00  0.00     0.239 C 
ATOM      6  O   UNL A   1      35.851  23.735  22.759  1.00  0.00    -0.273 OA
ATOM      7  H   UNL A   1      37.457  21.980  23.010  1.00  0.00     0.163 HD
BRANCH   5   8
ATOM      8  C   UNL A   1      35.760  23.966  25.146  1.00  0.00     0.222 C 
BRANCH   8   9
ATOM      9  N   UNL A   1      34.476  24.650  25.020  1.00  0.00    -0.335 N 
ATOM     10  C   UNL A   1      28.999  26.487  23.776  1.00  0.00     0.158 C 
ATOM     11  N   UNL A   1      30.401  26.411  24.133  1.00  0.00    -0.263 N 
ATOM     12  C   UNL A   1      30.931  25.122  24.303  1.00  0.00     0.265 A 
ATOM     13  C   UNL A   1      31.077  27.628  24.333  1.00  0.00     0.330 A 
ATOM     14  O   UNL A   1      30.269  24.101  24.198  1.00  0.00    -0.268 OA
ATOM     15  C   UNL A   1      32.342  25.123  24.620  1.00  0.00     0.090 A 
ATOM     16  N   UNL A   1      32.439  27.563  24.649  1.00  0.00    -0.295 N 
ATOM     17  O   UNL A   1      30.486  28.710  24.240  1.00  0.00    -0.248 OA
ATOM     18  C   UNL A   1      33.227  24.067  24.819  1.00  0.00     0.064 A 
ATOM     19  C   UNL A   1      33.044  26.324  24.781  1.00  0.00     0.076 A 
ATOM     20  C   UNL A   1      33.193  28.795  24.825  1.00  0.00     0.155 C 
ATOM     21  C   UNL A   1      34.349  26.023  25.066  1.00  0.00     0.114 A 
BRANCH  18  22
ATOM     22  C   UNL A   1      32.988  22.620  24.749  1.00  0.00    -0.001 A 
ATOM     23  C   UNL A   1      33.006  21.831  25.906  1.00  0.00     0.012 A 
ATOM     24  C   UNL A   1      32.757  22.002  23.510  1.00  0.00     0.012 A 
ATOM     25  C   UNL A   1      32.827  20.447  25.821  1.00  0.00     0.021 A 
ATOM     26  C   UNL A   1      32.582  20.619  23.423  1.00  0.00     0.021 A 
ATOM     27  C   UNL A   1      32.620  19.847  24.580  1.00  0.00     0.041 A 
ATOM     28  Cl  UNL A   1      32.400  18.144  24.480  1.00  0.00    -0.084 Cl
ENDBRANCH  18  22
ENDBRANCH   8   9
ENDBRANCH   5   8
ENDBRANCH   3   4
ENDBRANCH   2   3
ENDBRANCH   1   2
BRANCH   1  29
ATOM     29  C   UNL A   1      39.596  19.800  26.008  1.00  0.00     0.116 C 
BRANCH  29  30
ATOM     30  N   UNL A   1      40.828  19.033  25.848  1.00  0.00    -0.352 N 
ATOM     31  C   UNL A   1      42.116  19.528  25.784  1.00  0.00     0.251 C 
ATOM     32  H   UNL A   1      40.729  18.056  25.778  1.00  0.00     0.163 HD
ATOM     33  O   UNL A   1      43.006  18.875  25.255  1.00  0.00    -0.269 OA
BRANCH  31  34
ATOM     34  C   UNL A   1      42.393  20.848  26.380  1.00  0.00     0.039 A 
ATOM     35  C   UNL A   1      42.627  21.972  25.580  1.00  0.00     0.014 A 
ATOM     36  C   UNL A   1      42.410  20.942  27.772  1.00  0.00     0.014 A 
ATOM     37  C   UNL A   1      42.812  23.207  26.196  1.00  0.00     0.010 A 
ATOM     38  C   UNL A   1      42.486  22.173  28.374  1.00  0.00     0.010 A 
ATOM     39  C   UNL A   1      42.727  23.300  27.593  1.00  0.00    -0.014 A 
BRANCH  39  40
ATOM     40  C   UNL A   1      42.721  24.595  28.265  1.00  0.00     0.031 A 
ATOM     41  C   UNL A   1      41.418  25.316  28.171  1.00  0.00     0.074 A 
ATOM     42  C   UNL A   1      43.704  24.956  29.121  1.00  0.00     0.049 A 
ATOM     43  N   UNL A   1      41.175  26.450  27.604  1.00  0.00    -0.248 NA
ATOM     44  C   UNL A   1      40.199  24.621  28.628  1.00  0.00     0.031 C 
ATOM     45  C   UNL A   1      44.885  24.182  29.517  1.00  0.00     0.029 A 
ATOM     46  N   UNL A   1      43.795  26.051  29.922  1.00  0.00    -0.354 N 
ATOM     47  C   UNL A   1      39.831  26.722  27.843  1.00  0.00     0.074 A 
ATOM     48  C   UNL A   1      39.245  25.483  28.272  1.00  0.00     0.031 C 
ATOM     49  C   UNL A   1      45.427  24.715  30.635  1.00  0.00     0.029 A 
ATOM     50  C   UNL A   1      44.726  25.947  30.958  1.00  0.00     0.049 A 
ATOM     51  H   UNL A   1      43.247  26.856  29.782  1.00  0.00     0.167 HD
ATOM     52  C   UNL A   1      39.368  28.003  27.909  1.00  0.00     0.034 A 
ATOM     53  C   UNL A   1      44.880  26.790  32.019  1.00  0.00     0.034 A 
ATOM     54  C   UNL A   1      40.318  28.924  27.330  1.00  0.00     0.049 A 
ATOM     55  C   UNL A   1      44.272  28.081  31.597  1.00  0.00     0.074 A 
ATOM     56  C   UNL A   1      40.890  29.051  26.078  1.00  0.00     0.029 A 
ATOM     57  N   UNL A   1      41.141  29.622  28.185  1.00  0.00    -0.354 N 
ATOM     58  N   UNL A   1      44.724  28.785  30.589  1.00  0.00    -0.248 NA
ATOM     59  C   UNL A   1      42.874  28.309  31.933  1.00  0.00     0.031 C 
ATOM     60  C   UNL A   1      42.261  29.343  26.337  1.00  0.00     0.029 A 
ATOM     61  C   UNL A   1      42.425  29.484  27.718  1.00  0.00     0.049 A 
ATOM     62  H   UNL A   1      40.861  30.127  28.983  1.00  0.00     0.167 HD
ATOM     63  C   UNL A   1      43.591  29.202  29.906  1.00  0.00     0.074 A 
ATOM     64  C   UNL A   1      42.479  28.940  30.823  1.00  0.00     0.031 C 
ATOM     65  C   UNL A   1      43.609  29.438  28.559  1.00  0.00     0.034 A 
BRANCH  52  66
ATOM     66  C   UNL A   1      38.237  28.469  28.797  1.00  0.00     0.023 A 
ATOM     67  C   UNL A   1      37.294  29.360  28.249  1.00  0.00     0.031 A 
ATOM     68  C   UNL A   1      38.184  28.306  30.201  1.00  0.00     0.131 A 
ATOM     69  C   UNL A   1      36.416  30.084  29.076  1.00  0.00     0.055 A 
ATOM     70  C   UNL A   1      37.267  28.982  31.012  1.00  0.00     0.041 A 
ATOM     71  F   UNL A   1      39.069  27.568  30.879  1.00  0.00    -0.206 F 
ATOM     72  C   UNL A   1      36.394  29.897  30.454  1.00  0.00     0.022 A 
BRANCH  69  73
ATOM     73  S   UNL A   1      35.391  31.379  28.331  1.00  0.00     0.124 S 
ATOM     74  O   UNL A   1      36.402  32.296  27.817  1.00  0.00    -0.237 OA
ATOM     75  O   UNL A   1      34.634  30.629  27.334  1.00  0.00    -0.237 OA
ATOM     76  O   UNL A   1      34.607  31.880  29.457  1.00  0.00    -0.744 OA
ENDBRANCH  69  73
ENDBRANCH  52  66
BRANCH  53  77
ATOM     77  C   UNL A   1      45.179  26.419  33.443  1.00  0.00     0.023 A 
ATOM     78  C   UNL A   1      45.003  25.113  33.970  1.00  0.00     0.031 A 
ATOM     79  C   UNL A   1      45.878  27.327  34.274  1.00  0.00     0.131 A 
ATOM     80  C   UNL A   1      45.503  24.781  35.259  1.00  0.00     0.055 A 
ATOM     81  C   UNL A   1      46.362  26.995  35.542  1.00  0.00     0.041 A 
ATOM     82  F   UNL A   1      46.195  28.559  33.847  1.00  0.00    -0.206 F 
ATOM     83  C   UNL A   1      46.184  25.717  36.039  1.00  0.00     0.022 A 
BRANCH  80  84
ATOM     84  S   UNL A   1      45.368  23.081  35.920  1.00  0.00     0.124 S 
ATOM     85  O   UNL A   1      46.581  22.453  35.408  1.00  0.00    -0.237 OA
ATOM     86  O   UNL A   1      45.310  23.303  37.359  1.00  0.00    -0.237 OA
ATOM     87  O   UNL A   1      44.124  22.582  35.329  1.00  0.00    -0.744 OA
ENDBRANCH  80  84
ENDBRANCH  53  77
BRANCH  65  88
ATOM     88  C   UNL A   1      44.937  29.462  27.825  1.00  0.00     0.023 A 
ATOM     89  C   UNL A   1      45.495  28.371  27.116  1.00  0.00     0.031 A 
ATOM     90  C   UNL A   1      45.538  30.723  27.659  1.00  0.00     0.131 A 
ATOM     91  C   UNL A   1      46.605  28.577  26.267  1.00  0.00     0.055 A 
ATOM     92  C   UNL A   1      46.618  30.924  26.802  1.00  0.00     0.041 A 
ATOM     93  F   UNL A   1      45.030  31.801  28.279  1.00  0.00    -0.206 F 
ATOM     94  C   UNL A   1      47.154  29.852  26.100  1.00  0.00     0.022 A 
BRANCH  91  95
ATOM     95  S   UNL A   1      47.326  27.194  25.316  1.00  0.00     0.124 S 
ATOM     96  O   UNL A   1      47.827  26.303  26.356  1.00  0.00    -0.237 OA
ATOM     97  O   UNL A   1      46.190  26.704  24.541  1.00  0.00    -0.237 OA
ATOM     98  O   UNL A   1      48.370  27.837  24.514  1.00  0.00    -0.744 OA
ENDBRANCH  91  95
ENDBRANCH  65  88
ENDBRANCH  39  40
ENDBRANCH  31  34
ENDBRANCH  29  30
ENDBRANCH   1  29
TORSDOF 16
ENDMDL
MODEL 3
REMARK VINA RESULT:     -11.5      4.340      5.862
REMARK SMILES Cn1c(=O)c2c(-c3ccc(Cl)cc3)n(CC(=O)NCCCCNC(=O)c3ccc(-c4c5nc(c(-c6cc(S(=O)(=O)[O-])ccc6F)c6ccc([nH]6)c(-c6cc(S(=O)(=O)[O-])ccc6F)c6nc(c(-c7cc(S(=O)(=O)[O-])ccc7F)c7ccc4[nH]7)C=C6)C=C5)cc3)cc2n(C)c1=O
REMARK SMILES IDX 21 1 20 2 19 3 18 4 16 5 17 6 15 8 14 9 1 10 2 11 3 12 93 13
REMARK SMILES IDX 4 14 5 15 91 16 94 17 6 18 90 19 92 20 89 21 7 22 8 23 13 24
REMARK SMILES IDX 9 25 12 26 10 27 11 28 22 29 23 30 24 31 25 33 26 34 27 35
REMARK SMILES IDX 88 36 28 37 87 38 29 39 30 40 31 41 81 42 32 43 86 44 80 45
REMARK SMILES IDX 82 46 33 47 85 48 79 49 78 50 34 52 66 53 46 54 65 55 47 56
REMARK SMILES IDX 50 57 64 58 83 59 48 60 49 61 63 63 84 64 51 65 35 66 36 67
REMARK SMILES IDX 44 68 37 69 43 70 45 71 42 72 38 73 39 74 40 75 41 76 67 77
REMARK SMILES IDX 68 78 76 79 69 80 75 81 77 82 74 83 70 84 71 85 72 86 73 87
REMARK SMILES IDX 52 88 53 89 61 90 54 91 60 92 62 93 59 94 55 95 56 96 57 97
REMARK SMILES IDX 58 98
REMARK H PARENT 18 7 23 32 82 51 50 62
REMARK Flexibility Score: inf
ROOT
ATOM      1  C   UNL A   1      39.529  22.626  27.064  1.00  0.00     0.023 C 
ENDROOT
BRANCH   1   2
ATOM      2  C   UNL A   1      39.378  21.699  25.851  1.00  0.00     0.023 C 
BRANCH   2   3
ATOM      3  C   UNL A   1      37.931  21.348  25.487  1.00  0.00     0.116 C 
BRANCH   3   4
ATOM      4  N   UNL A   1      37.462  22.107  24.344  1.00  0.00    -0.355 N 
ATOM      5  C   UNL A   1      36.521  23.097  24.308  1.00  0.00     0.239 C 
ATOM      6  O   UNL A   1      36.199  23.565  23.213  1.00  0.00    -0.273 OA
ATOM      7  H   UNL A   1      37.876  21.879  23.480  1.00  0.00     0.163 HD
BRANCH   5   8
ATOM      8  C   UNL A   1      35.924  23.639  25.596  1.00  0.00     0.222 C 
BRANCH   8   9
ATOM      9  N   UNL A   1      34.665  24.353  25.401  1.00  0.00    -0.335 N 
ATOM     10  C   UNL A   1      29.317  26.325  23.843  1.00  0.00     0.158 C 
ATOM     11  N   UNL A   1      30.692  26.214  24.285  1.00  0.00    -0.263 N 
ATOM     12  C   UNL A   1      31.183  24.912  24.470  1.00  0.00     0.265 A 
ATOM     13  C   UNL A   1      31.380  27.414  24.545  1.00  0.00     0.330 A 
ATOM     14  O   UNL A   1      30.508  23.907  24.309  1.00  0.00    -0.268 OA
ATOM     15  C   UNL A   1      32.571  24.878  24.874  1.00  0.00     0.090 A 
ATOM     16  N   UNL A   1      32.717  27.314  24.945  1.00  0.00    -0.295 N 
ATOM     17  O   UNL A   1      30.819  28.509  24.430  1.00  0.00    -0.248 OA
ATOM     18  C   UNL A   1      33.419  23.800  25.113  1.00  0.00     0.064 A 
ATOM     19  C   UNL A   1      33.287  26.061  25.096  1.00  0.00     0.076 A 
ATOM     20  C   UNL A   1      33.484  28.527  25.185  1.00  0.00     0.155 C 
ATOM     21  C   UNL A   1      34.565  25.727  25.457  1.00  0.00     0.114 A 
BRANCH  18  22
ATOM     22  C   UNL A   1      33.154  22.360  25.007  1.00  0.00    -0.001 A 
ATOM     23  C   UNL A   1      33.099  21.553  26.150  1.00  0.00     0.012 A 
ATOM     24  C   UNL A   1      32.973  21.766  23.749  1.00  0.00     0.012 A 
ATOM     25  C   UNL A   1      32.897  20.174  26.034  1.00  0.00     0.021 A 
ATOM     26  C   UNL A   1      32.774  20.389  23.631  1.00  0.00     0.021 A 
ATOM     27  C   UNL A   1      32.739  19.598  24.775  1.00  0.00     0.041 A 
ATOM     28  Cl  UNL A   1      32.490  17.902  24.636  1.00  0.00    -0.084 Cl
ENDBRANCH  18  22
ENDBRANCH   8   9
ENDBRANCH   5   8
ENDBRANCH   3   4
ENDBRANCH   2   3
ENDBRANCH   1   2
BRANCH   1  29
ATOM     29  C   UNL A   1      39.525  24.106  26.711  1.00  0.00     0.116 C 
BRANCH  29  30
ATOM     30  N   UNL A   1      40.691  24.495  25.923  1.00  0.00    -0.352 N 
ATOM     31  C   UNL A   1      41.238  25.758  25.810  1.00  0.00     0.251 C 
ATOM     32  H   UNL A   1      41.137  23.776  25.419  1.00  0.00     0.163 HD
ATOM     33  O   UNL A   1      41.930  26.049  24.843  1.00  0.00    -0.269 OA
BRANCH  31  34
ATOM     34  C   UNL A   1      40.979  26.735  26.883  1.00  0.00     0.039 A 
ATOM     35  C   UNL A   1      40.835  26.332  28.214  1.00  0.00     0.014 A 
ATOM     36  C   UNL A   1      40.885  28.082  26.527  1.00  0.00     0.014 A 
ATOM     37  C   UNL A   1      40.663  27.305  29.196  1.00  0.00     0.010 A 
ATOM     38  C   UNL A   1      40.823  29.044  27.502  1.00  0.00     0.010 A 
ATOM     39  C   UNL A   1      40.671  28.660  28.832  1.00  0.00    -0.014 A 
BRANCH  39  40
ATOM     40  C   UNL A   1      40.688  29.713  29.842  1.00  0.00     0.031 A 
ATOM     41  C   UNL A   1      39.376  30.402  30.014  1.00  0.00     0.074 A 
ATOM     42  C   UNL A   1      41.709  29.839  30.720  1.00  0.00     0.049 A 
ATOM     43  N   UNL A   1      39.096  31.644  29.802  1.00  0.00    -0.248 NA
ATOM     44  C   UNL A   1      38.187  29.580  30.310  1.00  0.00     0.031 C 
ATOM     45  C   UNL A   1      42.915  29.011  30.827  1.00  0.00     0.029 A 
ATOM     46  N   UNL A   1      41.830  30.666  31.793  1.00  0.00    -0.354 N 
ATOM     47  C   UNL A   1      37.763  31.809  30.168  1.00  0.00     0.074 A 
ATOM     48  C   UNL A   1      37.210  30.486  30.255  1.00  0.00     0.031 C 
ATOM     49  C   UNL A   1      43.506  29.219  32.025  1.00  0.00     0.029 A 
ATOM     50  C   UNL A   1      42.811  30.295  32.714  1.00  0.00     0.049 A 
ATOM     51  H   UNL A   1      41.269  31.466  31.911  1.00  0.00     0.167 HD
ATOM     52  C   UNL A   1      37.294  33.008  30.614  1.00  0.00     0.034 A 
ATOM     53  C   UNL A   1      43.011  30.808  33.962  1.00  0.00     0.034 A 
ATOM     54  C   UNL A   1      38.206  34.076  30.276  1.00  0.00     0.049 A 
ATOM     55  C   UNL A   1      42.373  32.152  33.950  1.00  0.00     0.074 A 
ATOM     56  C   UNL A   1      38.714  34.563  29.087  1.00  0.00     0.029 A 
ATOM     57  N   UNL A   1      39.064  34.523  31.256  1.00  0.00    -0.354 N 
ATOM     58  N   UNL A   1      42.768  33.120  33.162  1.00  0.00    -0.248 NA
ATOM     59  C   UNL A   1      40.990  32.245  34.399  1.00  0.00     0.031 C 
ATOM     60  C   UNL A   1      40.094  34.801  29.356  1.00  0.00     0.029 A 
ATOM     61  C   UNL A   1      40.325  34.550  30.712  1.00  0.00     0.049 A 
ATOM     62  H   UNL A   1      38.820  34.776  32.176  1.00  0.00     0.167 HD
ATOM     63  C   UNL A   1      41.600  33.689  32.676  1.00  0.00     0.074 A 
ATOM     64  C   UNL A   1      40.536  33.155  33.531  1.00  0.00     0.031 C 
ATOM     65  C   UNL A   1      41.549  34.295  31.452  1.00  0.00     0.034 A 
BRANCH  52  66
ATOM     66  C   UNL A   1      36.204  33.180  31.647  1.00  0.00     0.023 A 
ATOM     67  C   UNL A   1      35.144  34.059  31.346  1.00  0.00     0.031 A 
ATOM     68  C   UNL A   1      36.281  32.751  32.992  1.00  0.00     0.131 A 
ATOM     69  C   UNL A   1      34.277  34.520  32.354  1.00  0.00     0.055 A 
ATOM     70  C   UNL A   1      35.380  33.165  33.978  1.00  0.00     0.041 A 
ATOM     71  F   UNL A   1      37.282  31.992  33.454  1.00  0.00    -0.206 F 
ATOM     72  C   UNL A   1      34.387  34.074  33.668  1.00  0.00     0.022 A 
BRANCH  69  73
ATOM     73  S   UNL A   1      33.085  35.820  31.945  1.00  0.00     0.124 S 
ATOM     74  O   UNL A   1      33.290  35.967  30.508  1.00  0.00    -0.237 OA
ATOM     75  O   UNL A   1      31.823  35.214  32.357  1.00  0.00    -0.237 OA
ATOM     76  O   UNL A   1      33.525  36.952  32.758  1.00  0.00    -0.744 OA
ENDBRANCH  69  73
ENDBRANCH  52  66
BRANCH  53  77
ATOM     77  C   UNL A   1      43.382  30.056  35.208  1.00  0.00     0.023 A 
ATOM     78  C   UNL A   1      42.742  28.863  35.629  1.00  0.00     0.031 A 
ATOM     79  C   UNL A   1      44.566  30.397  35.907  1.00  0.00     0.131 A 
ATOM     80  C   UNL A   1      43.279  28.091  36.695  1.00  0.00     0.055 A 
ATOM     81  C   UNL A   1      45.086  29.636  36.958  1.00  0.00     0.041 A 
ATOM     82  F   UNL A   1      45.317  31.445  35.536  1.00  0.00    -0.206 F 
ATOM     83  C   UNL A   1      44.449  28.474  37.353  1.00  0.00     0.022 A 
BRANCH  80  84
ATOM     84  S   UNL A   1      42.520  26.503  37.194  1.00  0.00     0.124 S 
ATOM     85  O   UNL A   1      41.114  26.863  37.331  1.00  0.00    -0.237 OA
ATOM     86  O   UNL A   1      42.860  25.626  36.080  1.00  0.00    -0.237 OA
ATOM     87  O   UNL A   1      43.196  26.181  38.452  1.00  0.00    -0.744 OA
ENDBRANCH  80  84
ENDBRANCH  53  77
BRANCH  65  88
ATOM     88  C   UNL A   1      42.839  34.554  30.695  1.00  0.00     0.023 A 
ATOM     89  C   UNL A   1      43.294  33.806  29.583  1.00  0.00     0.031 A 
ATOM     90  C   UNL A   1      43.507  35.755  30.990  1.00  0.00     0.131 A 
ATOM     91  C   UNL A   1      44.373  34.285  28.807  1.00  0.00     0.055 A 
ATOM     92  C   UNL A   1      44.555  36.235  30.206  1.00  0.00     0.041 A 
ATOM     93  F   UNL A   1      43.096  36.525  32.012  1.00  0.00    -0.206 F 
ATOM     94  C   UNL A   1      44.990  35.503  29.109  1.00  0.00     0.022 A 
BRANCH  91  95
ATOM     95  S   UNL A   1      44.962  33.357  27.347  1.00  0.00     0.124 S 
ATOM     96  O   UNL A   1      44.565  34.209  26.233  1.00  0.00    -0.237 OA
ATOM     97  O   UNL A   1      46.397  33.242  27.591  1.00  0.00    -0.237 OA
ATOM     98  O   UNL A   1      44.234  32.088  27.431  1.00  0.00    -0.744 OA
ENDBRANCH  91  95
ENDBRANCH  65  88
ENDBRANCH  39  40
ENDBRANCH  31  34
ENDBRANCH  29  30
ENDBRANCH   1  29
TORSDOF 16
ENDMDL
