MODEL 1
REMARK VINA RESULT:     -11.3      0.000      0.000
REMARK SMILES CCC[N@H+]1CCC[C@H]([C@@H](C)Nc2cccc(C(=O)NCCCCNC(=O)c3ccc(-c4c5nc(c(-c6cc(S(=O)(=O)[O-])ccc6F)c6ccc([nH]6)c(-c6cc(S(=O)(=O)[O-])ccc6F)c6nc(c(-c7cc(S(=O)(=O)[O-])ccc7F)c7ccc4[nH]7)C=C6)C=C5)cc3)c2)C1
REMARK SMILES IDX 20 1 19 2 17 3 18 4 16 6 12 7 13 8 90 9 14 10 15 11 11 12
REMARK SMILES IDX 9 14 10 15 8 16 4 17 5 18 91 19 6 21 7 22 3 23 2 24 1 25
REMARK SMILES IDX 21 26 22 27 23 28 24 29 25 30 26 32 27 33 28 34 89 35 29 36
REMARK SMILES IDX 88 37 30 38 31 39 32 40 82 41 33 42 87 43 81 44 83 45 34 46
REMARK SMILES IDX 86 47 80 48 79 49 35 51 67 52 47 53 66 54 48 55 51 56 65 57
REMARK SMILES IDX 84 58 49 59 50 60 64 62 85 63 52 64 36 65 37 66 45 67 38 68
REMARK SMILES IDX 44 69 46 70 43 71 39 72 40 73 41 74 42 75 68 76 69 77 77 78
REMARK SMILES IDX 70 79 76 80 78 81 75 82 71 83 72 84 73 85 74 86 53 87 54 88
REMARK SMILES IDX 62 89 55 90 61 91 63 92 60 93 56 94 57 95 58 96 59 97
REMARK H PARENT 19 5 11 13 4 20 24 31 83 50 51 61
REMARK Flexibility Score: inf
ROOT
ATOM      1  C   UNL A   1      31.467  30.076  25.408  1.00  0.00     0.116 C 
ENDROOT
BRANCH   1   2
ATOM      2  N   UNL A   1      32.499  29.618  24.486  1.00  0.00    -0.352 N 
ATOM      3  C   UNL A   1      33.006  28.353  24.253  1.00  0.00     0.251 C 
ATOM      4  O   UNL A   1      33.888  28.206  23.409  1.00  0.00    -0.269 OA
ATOM      5  H   UNL A   1      32.902  30.328  23.937  1.00  0.00     0.163 HD
BRANCH   3   6
ATOM      6  C   UNL A   1      32.568  27.178  25.054  1.00  0.00     0.041 A 
ATOM      7  C   UNL A   1      33.091  24.989  25.981  1.00  0.00     0.035 A 
ATOM      8  C   UNL A   1      31.720  24.779  26.162  1.00  0.00     0.026 A 
ATOM      9  C   UNL A   1      33.487  26.260  25.563  1.00  0.00     0.039 A 
ATOM     10  C   UNL A   1      30.783  25.769  25.843  1.00  0.00     0.003 A 
ATOM     11  C   UNL A   1      31.205  26.957  25.251  1.00  0.00     0.014 A 
BRANCH   7  12
ATOM     12  N   UNL A   1      33.981  23.956  26.214  1.00  0.00    -0.382 N 
ATOM     13  H   UNL A   1      34.939  24.181  26.258  1.00  0.00     0.160 HD
BRANCH  12  14
ATOM     14  C   UNL A   1      33.601  22.553  26.402  1.00  0.00     0.084 C 
ATOM     15  C   UNL A   1      33.843  22.172  27.865  1.00  0.00     0.031 C 
BRANCH  14  16
ATOM     16  C   UNL A   1      34.390  21.662  25.403  1.00  0.00     0.066 C 
ATOM     17  N   UNL A   1      33.061  22.353  23.434  1.00  0.00    -0.335 N 
ATOM     18  C   UNL A   1      32.497  21.021  23.243  1.00  0.00     0.262 C 
ATOM     19  C   UNL A   1      34.415  22.294  23.993  1.00  0.00     0.267 C 
ATOM     20  H   UNL A   1      32.458  22.792  24.130  1.00  0.00     0.348 HD
ATOM     21  C   UNL A   1      32.439  20.253  24.568  1.00  0.00     0.062 C 
ATOM     22  C   UNL A   1      33.797  20.243  25.275  1.00  0.00     0.017 C 
BRANCH  17  23
ATOM     23  C   UNL A   1      32.951  23.259  22.290  1.00  0.00     0.261 C 
BRANCH  23  24
ATOM     24  C   UNL A   1      32.223  24.597  22.486  1.00  0.00     0.058 C 
ATOM     25  C   UNL A   1      32.537  25.632  21.415  1.00  0.00     0.010 C 
ENDBRANCH  23  24
ENDBRANCH  17  23
ENDBRANCH  14  16
ENDBRANCH  12  14
ENDBRANCH   7  12
ENDBRANCH   3   6
ENDBRANCH   1   2
BRANCH   1  26
ATOM     26  C   UNL A   1      31.980  30.705  26.696  1.00  0.00     0.023 C 
BRANCH  26  27
ATOM     27  C   UNL A   1      31.755  32.200  26.862  1.00  0.00     0.023 C 
BRANCH  27  28
ATOM     28  C   UNL A   1      32.928  33.001  27.418  1.00  0.00     0.116 C 
BRANCH  28  29
ATOM     29  N   UNL A   1      32.572  34.337  27.872  1.00  0.00    -0.352 N 
ATOM     30  C   UNL A   1      33.120  35.100  28.881  1.00  0.00     0.251 C 
ATOM     31  H   UNL A   1      31.828  34.760  27.384  1.00  0.00     0.163 HD
ATOM     32  O   UNL A   1      32.627  36.187  29.154  1.00  0.00    -0.269 OA
BRANCH  30  33
ATOM     33  C   UNL A   1      34.267  34.581  29.664  1.00  0.00     0.039 A 
ATOM     34  C   UNL A   1      34.015  33.902  30.859  1.00  0.00     0.014 A 
ATOM     35  C   UNL A   1      35.579  34.726  29.208  1.00  0.00     0.014 A 
ATOM     36  C   UNL A   1      35.068  33.286  31.544  1.00  0.00     0.010 A 
ATOM     37  C   UNL A   1      36.613  34.045  29.846  1.00  0.00     0.010 A 
ATOM     38  C   UNL A   1      36.368  33.307  31.015  1.00  0.00    -0.014 A 
BRANCH  38  39
ATOM     39  C   UNL A   1      37.482  32.557  31.657  1.00  0.00     0.031 A 
ATOM     40  C   UNL A   1      38.049  33.026  32.972  1.00  0.00     0.074 A 
ATOM     41  C   UNL A   1      38.039  31.506  31.018  1.00  0.00     0.049 A 
ATOM     42  N   UNL A   1      39.082  32.575  33.636  1.00  0.00    -0.248 NA
ATOM     43  C   UNL A   1      37.386  34.178  33.605  1.00  0.00     0.031 C 
ATOM     44  C   UNL A   1      37.613  30.985  29.716  1.00  0.00     0.029 A 
ATOM     45  N   UNL A   1      39.094  30.697  31.364  1.00  0.00    -0.354 N 
ATOM     46  C   UNL A   1      39.211  33.403  34.747  1.00  0.00     0.074 A 
ATOM     47  C   UNL A   1      38.177  34.409  34.643  1.00  0.00     0.031 C 
ATOM     48  C   UNL A   1      38.387  29.938  29.384  1.00  0.00     0.029 A 
ATOM     49  C   UNL A   1      39.394  29.738  30.421  1.00  0.00     0.049 A 
ATOM     50  H   UNL A   1      39.590  30.794  32.209  1.00  0.00     0.167 HD
ATOM     51  C   UNL A   1      40.102  33.321  35.766  1.00  0.00     0.034 A 
ATOM     52  C   UNL A   1      40.375  28.814  30.389  1.00  0.00     0.034 A 
ATOM     53  C   UNL A   1      41.102  32.288  35.879  1.00  0.00     0.049 A 
ATOM     54  C   UNL A   1      41.342  28.738  31.546  1.00  0.00     0.074 A 
ATOM     55  C   UNL A   1      41.989  32.062  36.916  1.00  0.00     0.029 A 
ATOM     56  N   UNL A   1      41.351  31.314  34.923  1.00  0.00    -0.354 N 
ATOM     57  N   UNL A   1      41.398  29.482  32.627  1.00  0.00    -0.248 NA
ATOM     58  C   UNL A   1      42.368  27.688  31.488  1.00  0.00     0.031 C 
ATOM     59  C   UNL A   1      42.816  30.991  36.560  1.00  0.00     0.029 A 
ATOM     60  C   UNL A   1      42.398  30.502  35.333  1.00  0.00     0.049 A 
ATOM     61  H   UNL A   1      40.857  31.213  34.077  1.00  0.00     0.167 HD
ATOM     62  C   UNL A   1      42.439  28.962  33.391  1.00  0.00     0.074 A 
ATOM     63  C   UNL A   1      42.971  27.834  32.658  1.00  0.00     0.031 C 
ATOM     64  C   UNL A   1      42.912  29.376  34.594  1.00  0.00     0.034 A 
BRANCH  51  65
ATOM     65  C   UNL A   1      40.053  34.387  36.831  1.00  0.00     0.023 A 
ATOM     66  C   UNL A   1      39.552  34.128  38.118  1.00  0.00     0.031 A 
ATOM     67  C   UNL A   1      40.531  35.681  36.556  1.00  0.00     0.131 A 
ATOM     68  C   UNL A   1      39.492  35.162  39.066  1.00  0.00     0.055 A 
ATOM     69  C   UNL A   1      40.534  36.686  37.525  1.00  0.00     0.041 A 
ATOM     70  F   UNL A   1      41.003  35.990  35.338  1.00  0.00    -0.206 F 
ATOM     71  C   UNL A   1      40.004  36.432  38.786  1.00  0.00     0.022 A 
BRANCH  68  72
ATOM     72  S   UNL A   1      38.646  34.851  40.639  1.00  0.00     0.124 S 
ATOM     73  O   UNL A   1      37.999  36.138  40.884  1.00  0.00    -0.237 OA
ATOM     74  O   UNL A   1      37.758  33.742  40.308  1.00  0.00    -0.237 OA
ATOM     75  O   UNL A   1      39.736  34.525  41.556  1.00  0.00    -0.744 OA
ENDBRANCH  68  72
ENDBRANCH  51  65
BRANCH  52  76
ATOM     76  C   UNL A   1      40.524  27.891  29.224  1.00  0.00     0.023 A 
ATOM     77  C   UNL A   1      41.443  28.166  28.198  1.00  0.00     0.031 A 
ATOM     78  C   UNL A   1      39.690  26.768  29.077  1.00  0.00     0.131 A 
ATOM     79  C   UNL A   1      41.457  27.373  27.039  1.00  0.00     0.055 A 
ATOM     80  C   UNL A   1      39.753  25.946  27.950  1.00  0.00     0.041 A 
ATOM     81  F   UNL A   1      38.796  26.455  30.028  1.00  0.00    -0.206 F 
ATOM     82  C   UNL A   1      40.627  26.258  26.912  1.00  0.00     0.022 A 
BRANCH  79  83
ATOM     83  S   UNL A   1      42.489  27.900  25.642  1.00  0.00     0.124 S 
ATOM     84  O   UNL A   1      41.858  29.160  25.265  1.00  0.00    -0.237 OA
ATOM     85  O   UNL A   1      43.806  28.002  26.263  1.00  0.00    -0.237 OA
ATOM     86  O   UNL A   1      42.337  26.812  24.678  1.00  0.00    -0.744 OA
ENDBRANCH  79  83
ENDBRANCH  52  76
BRANCH  64  87
ATOM     87  C   UNL A   1      44.020  28.562  35.214  1.00  0.00     0.023 A 
ATOM     88  C   UNL A   1      43.758  27.519  36.119  1.00  0.00     0.031 A 
ATOM     89  C   UNL A   1      45.362  28.847  34.901  1.00  0.00     0.131 A 
ATOM     90  C   UNL A   1      44.823  26.835  36.723  1.00  0.00     0.055 A 
ATOM     91  C   UNL A   1      46.416  28.122  35.459  1.00  0.00     0.041 A 
ATOM     92  F   UNL A   1      45.669  29.832  34.042  1.00  0.00    -0.206 F 
ATOM     93  C   UNL A   1      46.150  27.120  36.387  1.00  0.00     0.022 A 
BRANCH  90  94
ATOM     94  S   UNL A   1      44.456  25.626  38.025  1.00  0.00     0.124 S 
ATOM     95  O   UNL A   1      44.136  26.487  39.159  1.00  0.00    -0.237 OA
ATOM     96  O   UNL A   1      43.337  24.883  37.453  1.00  0.00    -0.237 OA
ATOM     97  O   UNL A   1      45.701  24.870  38.152  1.00  0.00    -0.744 OA
ENDBRANCH  90  94
ENDBRANCH  64  87
ENDBRANCH  38  39
ENDBRANCH  30  33
ENDBRANCH  28  29
ENDBRANCH  27  28
ENDBRANCH  26  27
ENDBRANCH   1  26
TORSDOF 19
ENDMDL
MODEL 2
REMARK VINA RESULT:     -11.1      5.602     11.275
REMARK SMILES CCC[N@H+]1CCC[C@H]([C@@H](C)Nc2cccc(C(=O)NCCCCNC(=O)c3ccc(-c4c5nc(c(-c6cc(S(=O)(=O)[O-])ccc6F)c6ccc([nH]6)c(-c6cc(S(=O)(=O)[O-])ccc6F)c6nc(c(-c7cc(S(=O)(=O)[O-])ccc7F)c7ccc4[nH]7)C=C6)C=C5)cc3)c2)C1
REMARK SMILES IDX 20 1 19 2 17 3 18 4 16 6 12 7 13 8 90 9 14 10 15 11 11 12
REMARK SMILES IDX 9 14 10 15 8 16 4 17 5 18 91 19 6 21 7 22 3 23 2 24 1 25
REMARK SMILES IDX 21 26 22 27 23 28 24 29 25 30 26 32 27 33 28 34 89 35 29 36
REMARK SMILES IDX 88 37 30 38 31 39 32 40 82 41 33 42 87 43 81 44 83 45 34 46
REMARK SMILES IDX 86 47 80 48 79 49 35 51 67 52 47 53 66 54 48 55 51 56 65 57
REMARK SMILES IDX 84 58 49 59 50 60 64 62 85 63 52 64 36 65 37 66 45 67 38 68
REMARK SMILES IDX 44 69 46 70 43 71 39 72 40 73 41 74 42 75 68 76 69 77 77 78
REMARK SMILES IDX 70 79 76 80 78 81 75 82 71 83 72 84 73 85 74 86 53 87 54 88
REMARK SMILES IDX 62 89 55 90 61 91 63 92 60 93 56 94 57 95 58 96 59 97
REMARK H PARENT 19 5 11 13 4 20 24 31 83 50 51 61
REMARK Flexibility Score: inf
ROOT
ATOM      1  C   UNL A   1      35.656  21.974  24.882  1.00  0.00     0.116 C 
ENDROOT
BRANCH   1   2
ATOM      2  N   UNL A   1      35.445  22.029  26.324  1.00  0.00    -0.352 N 
ATOM      3  C   UNL A   1      34.343  22.423  27.061  1.00  0.00     0.251 C 
ATOM      4  O   UNL A   1      34.397  22.379  28.288  1.00  0.00    -0.269 OA
ATOM      5  H   UNL A   1      36.215  21.736  26.862  1.00  0.00     0.163 HD
BRANCH   3   6
ATOM      6  C   UNL A   1      33.125  22.972  26.409  1.00  0.00     0.041 A 
ATOM      7  C   UNL A   1      31.513  24.786  26.219  1.00  0.00     0.035 A 
ATOM      8  C   UNL A   1      30.647  23.900  25.569  1.00  0.00     0.026 A 
ATOM      9  C   UNL A   1      32.802  24.327  26.491  1.00  0.00     0.039 A 
ATOM     10  C   UNL A   1      31.027  22.581  25.294  1.00  0.00     0.003 A 
ATOM     11  C   UNL A   1      32.254  22.104  25.750  1.00  0.00     0.014 A 
BRANCH   7  12
ATOM     12  N   UNL A   1      31.071  26.051  26.562  1.00  0.00    -0.382 N 
ATOM     13  H   UNL A   1      30.203  26.123  27.020  1.00  0.00     0.160 HD
BRANCH  12  14
ATOM     14  C   UNL A   1      31.804  27.292  26.294  1.00  0.00     0.084 C 
ATOM     15  C   UNL A   1      31.778  28.159  27.556  1.00  0.00     0.031 C 
BRANCH  14  16
ATOM     16  C   UNL A   1      31.190  28.003  25.056  1.00  0.00     0.066 C 
ATOM     17  N   UNL A   1      32.605  26.803  23.420  1.00  0.00    -0.335 N 
ATOM     18  C   UNL A   1      33.307  28.016  23.013  1.00  0.00     0.262 C 
ATOM     19  C   UNL A   1      31.221  27.084  23.814  1.00  0.00     0.267 C 
ATOM     20  H   UNL A   1      33.104  26.482  24.249  1.00  0.00     0.348 HD
ATOM     21  C   UNL A   1      33.328  29.046  24.147  1.00  0.00     0.062 C 
ATOM     22  C   UNL A   1      31.924  29.311  24.696  1.00  0.00     0.017 C 
BRANCH  17  23
ATOM     23  C   UNL A   1      32.723  25.665  22.507  1.00  0.00     0.261 C 
BRANCH  23  24
ATOM     24  C   UNL A   1      33.658  24.511  22.897  1.00  0.00     0.058 C 
ATOM     25  C   UNL A   1      33.272  23.172  22.284  1.00  0.00     0.010 C 
ENDBRANCH  23  24
ENDBRANCH  17  23
ENDBRANCH  14  16
ENDBRANCH  12  14
ENDBRANCH   7  12
ENDBRANCH   3   6
ENDBRANCH   1   2
BRANCH   1  26
ATOM     26  C   UNL A   1      37.100  21.766  24.445  1.00  0.00     0.023 C 
BRANCH  26  27
ATOM     27  C   UNL A   1      37.813  20.545  25.004  1.00  0.00     0.023 C 
BRANCH  27  28
ATOM     28  C   UNL A   1      39.025  20.818  25.889  1.00  0.00     0.116 C 
BRANCH  28  29
ATOM     29  N   UNL A   1      40.000  19.738  25.910  1.00  0.00    -0.352 N 
ATOM     30  C   UNL A   1      41.359  19.781  26.134  1.00  0.00     0.251 C 
ATOM     31  H   UNL A   1      39.633  18.840  25.738  1.00  0.00     0.163 HD
ATOM     32  O   UNL A   1      42.022  18.756  26.041  1.00  0.00    -0.269 OA
BRANCH  30  33
ATOM     33  C   UNL A   1      42.019  21.074  26.436  1.00  0.00     0.039 A 
ATOM     34  C   UNL A   1      42.376  21.912  25.375  1.00  0.00     0.014 A 
ATOM     35  C   UNL A   1      42.253  21.478  27.752  1.00  0.00     0.014 A 
ATOM     36  C   UNL A   1      42.874  23.192  25.639  1.00  0.00     0.010 A 
ATOM     37  C   UNL A   1      42.671  22.781  28.012  1.00  0.00     0.010 A 
ATOM     38  C   UNL A   1      42.977  23.658  26.960  1.00  0.00    -0.014 A 
BRANCH  38  39
ATOM     39  C   UNL A   1      43.386  25.057  27.263  1.00  0.00     0.031 A 
ATOM     40  C   UNL A   1      44.841  25.444  27.218  1.00  0.00     0.074 A 
ATOM     41  C   UNL A   1      42.460  25.954  27.661  1.00  0.00     0.049 A 
ATOM     42  N   UNL A   1      45.407  26.575  27.549  1.00  0.00    -0.248 NA
ATOM     43  C   UNL A   1      45.788  24.408  26.773  1.00  0.00     0.031 C 
ATOM     44  C   UNL A   1      41.024  25.688  27.795  1.00  0.00     0.029 A 
ATOM     45  N   UNL A   1      42.585  27.268  28.047  1.00  0.00    -0.354 N 
ATOM     46  C   UNL A   1      46.774  26.381  27.383  1.00  0.00     0.074 A 
ATOM     47  C   UNL A   1      46.954  25.008  26.961  1.00  0.00     0.031 C 
ATOM     48  C   UNL A   1      40.404  26.803  28.214  1.00  0.00     0.029 A 
ATOM     49  C   UNL A   1      41.396  27.853  28.424  1.00  0.00     0.049 A 
ATOM     50  H   UNL A   1      43.445  27.746  28.051  1.00  0.00     0.167 HD
ATOM     51  C   UNL A   1      47.784  27.270  27.552  1.00  0.00     0.034 A 
ATOM     52  C   UNL A   1      41.137  29.088  28.901  1.00  0.00     0.034 A 
ATOM     53  C   UNL A   1      47.587  28.646  27.932  1.00  0.00     0.049 A 
ATOM     54  C   UNL A   1      42.281  30.060  29.062  1.00  0.00     0.074 A 
ATOM     55  C   UNL A   1      48.533  29.651  28.039  1.00  0.00     0.029 A 
ATOM     56  N   UNL A   1      46.366  29.213  28.271  1.00  0.00    -0.354 N 
ATOM     57  N   UNL A   1      43.560  29.879  28.823  1.00  0.00    -0.248 NA
ATOM     58  C   UNL A   1      41.946  31.408  29.543  1.00  0.00     0.031 C 
ATOM     59  C   UNL A   1      47.895  30.807  28.503  1.00  0.00     0.029 A 
ATOM     60  C   UNL A   1      46.540  30.544  28.616  1.00  0.00     0.049 A 
ATOM     61  H   UNL A   1      45.503  28.738  28.267  1.00  0.00     0.167 HD
ATOM     62  C   UNL A   1      44.171  31.102  29.088  1.00  0.00     0.074 A 
ATOM     63  C   UNL A   1      43.121  32.015  29.487  1.00  0.00     0.031 C 
ATOM     64  C   UNL A   1      45.482  31.444  29.005  1.00  0.00     0.034 A 
BRANCH  51  65
ATOM     65  C   UNL A   1      49.195  26.779  27.349  1.00  0.00     0.023 A 
ATOM     66  C   UNL A   1      49.911  27.044  26.169  1.00  0.00     0.031 A 
ATOM     67  C   UNL A   1      49.840  26.047  28.362  1.00  0.00     0.131 A 
ATOM     68  C   UNL A   1      51.209  26.535  26.009  1.00  0.00     0.055 A 
ATOM     69  C   UNL A   1      51.156  25.604  28.226  1.00  0.00     0.041 A 
ATOM     70  F   UNL A   1      49.198  25.748  29.502  1.00  0.00    -0.206 F 
ATOM     71  C   UNL A   1      51.846  25.839  27.040  1.00  0.00     0.022 A 
BRANCH  68  72
ATOM     72  S   UNL A   1      52.020  26.711  24.397  1.00  0.00     0.124 S 
ATOM     73  O   UNL A   1      52.779  27.946  24.583  1.00  0.00    -0.237 OA
ATOM     74  O   UNL A   1      52.806  25.486  24.303  1.00  0.00    -0.237 OA
ATOM     75  O   UNL A   1      50.903  26.809  23.460  1.00  0.00    -0.744 OA
ENDBRANCH  68  72
ENDBRANCH  51  65
BRANCH  52  76
ATOM     76  C   UNL A   1      39.750  29.490  29.281  1.00  0.00     0.023 A 
ATOM     77  C   UNL A   1      39.366  29.566  30.631  1.00  0.00     0.031 A 
ATOM     78  C   UNL A   1      38.766  29.718  28.304  1.00  0.00     0.131 A 
ATOM     79  C   UNL A   1      38.021  29.792  30.965  1.00  0.00     0.055 A 
ATOM     80  C   UNL A   1      37.442  30.005  28.643  1.00  0.00     0.041 A 
ATOM     81  F   UNL A   1      39.077  29.662  26.999  1.00  0.00    -0.206 F 
ATOM     82  C   UNL A   1      37.059  30.023  29.981  1.00  0.00     0.022 A 
BRANCH  79  83
ATOM     83  S   UNL A   1      37.525  29.649  32.705  1.00  0.00     0.124 S 
ATOM     84  O   UNL A   1      36.274  30.400  32.720  1.00  0.00    -0.237 OA
ATOM     85  O   UNL A   1      37.408  28.203  32.866  1.00  0.00    -0.237 OA
ATOM     86  O   UNL A   1      38.635  30.268  33.426  1.00  0.00    -0.744 OA
ENDBRANCH  79  83
ENDBRANCH  52  76
BRANCH  64  87
ATOM     87  C   UNL A   1      45.837  32.881  29.293  1.00  0.00     0.023 A 
ATOM     88  C   UNL A   1      45.947  33.838  28.269  1.00  0.00     0.031 A 
ATOM     89  C   UNL A   1      46.083  33.293  30.615  1.00  0.00     0.131 A 
ATOM     90  C   UNL A   1      46.347  35.146  28.578  1.00  0.00     0.055 A 
ATOM     91  C   UNL A   1      46.423  34.611  30.922  1.00  0.00     0.041 A 
ATOM     92  F   UNL A   1      45.993  32.420  31.631  1.00  0.00    -0.206 F 
ATOM     93  C   UNL A   1      46.571  35.543  29.899  1.00  0.00     0.022 A 
BRANCH  90  94
ATOM     94  S   UNL A   1      46.661  36.304  27.217  1.00  0.00     0.124 S 
ATOM     95  O   UNL A   1      48.104  36.179  27.037  1.00  0.00    -0.237 OA
ATOM     96  O   UNL A   1      45.836  35.757  26.145  1.00  0.00    -0.237 OA
ATOM     97  O   UNL A   1      46.211  37.589  27.749  1.00  0.00    -0.744 OA
ENDBRANCH  90  94
ENDBRANCH  64  87
ENDBRANCH  38  39
ENDBRANCH  30  33
ENDBRANCH  28  29
ENDBRANCH  27  28
ENDBRANCH  26  27
ENDBRANCH   1  26
TORSDOF 19
ENDMDL
MODEL 3
REMARK VINA RESULT:     -11.1      1.509      7.795
REMARK SMILES CCC[N@H+]1CCC[C@H]([C@@H](C)Nc2cccc(C(=O)NCCCCNC(=O)c3ccc(-c4c5nc(c(-c6cc(S(=O)(=O)[O-])ccc6F)c6ccc([nH]6)c(-c6cc(S(=O)(=O)[O-])ccc6F)c6nc(c(-c7cc(S(=O)(=O)[O-])ccc7F)c7ccc4[nH]7)C=C6)C=C5)cc3)c2)C1
REMARK SMILES IDX 20 1 19 2 17 3 18 4 16 6 12 7 13 8 90 9 14 10 15 11 11 12
REMARK SMILES IDX 9 14 10 15 8 16 4 17 5 18 91 19 6 21 7 22 3 23 2 24 1 25
REMARK SMILES IDX 21 26 22 27 23 28 24 29 25 30 26 32 27 33 28 34 89 35 29 36
REMARK SMILES IDX 88 37 30 38 31 39 32 40 82 41 33 42 87 43 81 44 83 45 34 46
REMARK SMILES IDX 86 47 80 48 79 49 35 51 67 52 47 53 66 54 48 55 51 56 65 57
REMARK SMILES IDX 84 58 49 59 50 60 64 62 85 63 52 64 36 65 37 66 45 67 38 68
REMARK SMILES IDX 44 69 46 70 43 71 39 72 40 73 41 74 42 75 68 76 69 77 77 78
REMARK SMILES IDX 70 79 76 80 78 81 75 82 71 83 72 84 73 85 74 86 53 87 54 88
REMARK SMILES IDX 62 89 55 90 61 91 63 92 60 93 56 94 57 95 58 96 59 97
REMARK H PARENT 19 5 11 13 4 20 24 31 83 50 51 61
REMARK Flexibility Score: inf
ROOT
ATOM      1  C   UNL A   1      32.801  29.471  26.515  1.00  0.00     0.116 C 
ENDROOT
BRANCH   1   2
ATOM      2  N   UNL A   1      33.191  29.636  25.120  1.00  0.00    -0.352 N 
ATOM      3  C   UNL A   1      32.771  28.975  23.981  1.00  0.00     0.251 C 
ATOM      4  O   UNL A   1      33.247  29.294  22.893  1.00  0.00    -0.269 OA
ATOM      5  H   UNL A   1      33.865  30.336  24.963  1.00  0.00     0.163 HD
BRANCH   3   6
ATOM      6  C   UNL A   1      31.818  27.835  24.048  1.00  0.00     0.041 A 
ATOM      7  C   UNL A   1      31.430  25.442  23.840  1.00  0.00     0.035 A 
ATOM      8  C   UNL A   1      30.062  25.709  23.733  1.00  0.00     0.026 A 
ATOM      9  C   UNL A   1      32.265  26.517  24.146  1.00  0.00     0.039 A 
ATOM     10  C   UNL A   1      29.565  27.014  23.833  1.00  0.00     0.003 A 
ATOM     11  C   UNL A   1      30.449  28.085  23.951  1.00  0.00     0.014 A 
BRANCH   7  12
ATOM     12  N   UNL A   1      31.896  24.154  23.640  1.00  0.00    -0.382 N 
ATOM     13  H   UNL A   1      31.279  23.411  23.831  1.00  0.00     0.160 HD
BRANCH  12  14
ATOM     14  C   UNL A   1      33.242  23.818  23.165  1.00  0.00     0.084 C 
ATOM     15  C   UNL A   1      33.208  23.710  21.637  1.00  0.00     0.031 C 
BRANCH  14  16
ATOM     16  C   UNL A   1      33.728  22.514  23.856  1.00  0.00     0.066 C 
ATOM     17  N   UNL A   1      32.972  23.195  26.111  1.00  0.00    -0.335 N 
ATOM     18  C   UNL A   1      34.332  23.265  26.637  1.00  0.00     0.262 C 
ATOM     19  C   UNL A   1      32.844  22.166  25.075  1.00  0.00     0.267 C 
ATOM     20  H   UNL A   1      32.820  24.102  25.669  1.00  0.00     0.348 HD
ATOM     21  C   UNL A   1      35.337  23.574  25.522  1.00  0.00     0.062 C 
ATOM     22  C   UNL A   1      35.189  22.608  24.343  1.00  0.00     0.017 C 
BRANCH  17  23
ATOM     23  C   UNL A   1      31.907  23.138  27.113  1.00  0.00     0.261 C 
BRANCH  23  24
ATOM     24  C   UNL A   1      30.486  23.540  26.691  1.00  0.00     0.058 C 
ATOM     25  C   UNL A   1      29.389  22.765  27.407  1.00  0.00     0.010 C 
ENDBRANCH  23  24
ENDBRANCH  17  23
ENDBRANCH  14  16
ENDBRANCH  12  14
ENDBRANCH   7  12
ENDBRANCH   3   6
ENDBRANCH   1   2
BRANCH   1  26
ATOM     26  C   UNL A   1      31.521  30.189  26.922  1.00  0.00     0.023 C 
BRANCH  26  27
ATOM     27  C   UNL A   1      31.383  31.639  26.484  1.00  0.00     0.023 C 
BRANCH  27  28
ATOM     28  C   UNL A   1      32.617  32.517  26.658  1.00  0.00     0.116 C 
BRANCH  28  29
ATOM     29  N   UNL A   1      32.372  33.746  27.398  1.00  0.00    -0.352 N 
ATOM     30  C   UNL A   1      33.072  34.296  28.451  1.00  0.00     0.251 C 
ATOM     31  H   UNL A   1      31.588  34.263  27.102  1.00  0.00     0.163 HD
ATOM     32  O   UNL A   1      32.660  35.316  28.986  1.00  0.00    -0.269 OA
BRANCH  30  33
ATOM     33  C   UNL A   1      34.291  33.623  28.962  1.00  0.00     0.039 A 
ATOM     34  C   UNL A   1      35.508  34.309  28.917  1.00  0.00     0.014 A 
ATOM     35  C   UNL A   1      34.232  32.343  29.517  1.00  0.00     0.014 A 
ATOM     36  C   UNL A   1      36.642  33.751  29.515  1.00  0.00     0.010 A 
ATOM     37  C   UNL A   1      35.341  31.826  30.183  1.00  0.00     0.010 A 
ATOM     38  C   UNL A   1      36.557  32.528  30.200  1.00  0.00    -0.014 A 
BRANCH  38  39
ATOM     39  C   UNL A   1      37.716  31.972  30.950  1.00  0.00     0.031 A 
ATOM     40  C   UNL A   1      38.564  30.891  30.335  1.00  0.00     0.074 A 
ATOM     41  C   UNL A   1      37.953  32.380  32.215  1.00  0.00     0.049 A 
ATOM     42  N   UNL A   1      39.546  30.207  30.864  1.00  0.00    -0.248 NA
ATOM     43  C   UNL A   1      38.242  30.503  28.952  1.00  0.00     0.031 C 
ATOM     44  C   UNL A   1      37.172  33.384  32.942  1.00  0.00     0.029 A 
ATOM     45  N   UNL A   1      38.907  31.988  33.125  1.00  0.00    -0.354 N 
ATOM     46  C   UNL A   1      39.939  29.291  29.894  1.00  0.00     0.074 A 
ATOM     47  C   UNL A   1      39.061  29.479  28.759  1.00  0.00     0.031 C 
ATOM     48  C   UNL A   1      37.686  33.540  34.173  1.00  0.00     0.029 A 
ATOM     49  C   UNL A   1      38.804  32.617  34.346  1.00  0.00     0.049 A 
ATOM     50  H   UNL A   1      39.600  31.319  32.921  1.00  0.00     0.167 HD
ATOM     51  C   UNL A   1      40.949  28.388  29.940  1.00  0.00     0.034 A 
ATOM     52  C   UNL A   1      39.517  32.458  35.479  1.00  0.00     0.034 A 
ATOM     53  C   UNL A   1      41.844  28.240  31.060  1.00  0.00     0.049 A 
ATOM     54  C   UNL A   1      40.646  31.455  35.493  1.00  0.00     0.074 A 
ATOM     55  C   UNL A   1      42.955  27.421  31.170  1.00  0.00     0.029 A 
ATOM     56  N   UNL A   1      41.732  28.919  32.265  1.00  0.00    -0.354 N 
ATOM     57  N   UNL A   1      41.052  30.653  34.536  1.00  0.00    -0.248 NA
ATOM     58  C   UNL A   1      41.424  31.347  36.736  1.00  0.00     0.031 C 
ATOM     59  C   UNL A   1      43.476  27.559  32.461  1.00  0.00     0.029 A 
ATOM     60  C   UNL A   1      42.735  28.517  33.133  1.00  0.00     0.049 A 
ATOM     61  H   UNL A   1      41.041  29.590  32.472  1.00  0.00     0.167 HD
ATOM     62  C   UNL A   1      42.154  29.976  35.050  1.00  0.00     0.074 A 
ATOM     63  C   UNL A   1      42.360  30.475  36.393  1.00  0.00     0.031 C 
ATOM     64  C   UNL A   1      42.931  29.029  34.466  1.00  0.00     0.034 A 
BRANCH  51  65
ATOM     65  C   UNL A   1      41.130  27.473  28.755  1.00  0.00     0.023 A 
ATOM     66  C   UNL A   1      42.158  27.666  27.817  1.00  0.00     0.031 A 
ATOM     67  C   UNL A   1      40.266  26.378  28.571  1.00  0.00     0.131 A 
ATOM     68  C   UNL A   1      42.265  26.811  26.709  1.00  0.00     0.055 A 
ATOM     69  C   UNL A   1      40.421  25.488  27.507  1.00  0.00     0.041 A 
ATOM     70  F   UNL A   1      39.255  26.155  29.426  1.00  0.00    -0.206 F 
ATOM     71  C   UNL A   1      41.419  25.707  26.562  1.00  0.00     0.022 A 
BRANCH  68  72
ATOM     72  S   UNL A   1      43.463  27.215  25.410  1.00  0.00     0.124 S 
ATOM     73  O   UNL A   1      42.633  27.961  24.467  1.00  0.00    -0.237 OA
ATOM     74  O   UNL A   1      44.464  27.992  26.133  1.00  0.00    -0.237 OA
ATOM     75  O   UNL A   1      43.911  25.907  24.937  1.00  0.00    -0.744 OA
ENDBRANCH  68  72
ENDBRANCH  51  65
BRANCH  52  76
ATOM     76  C   UNL A   1      39.193  33.242  36.708  1.00  0.00     0.023 A 
ATOM     77  C   UNL A   1      39.781  34.496  36.940  1.00  0.00     0.031 A 
ATOM     78  C   UNL A   1      38.359  32.712  37.709  1.00  0.00     0.131 A 
ATOM     79  C   UNL A   1      39.587  35.145  38.170  1.00  0.00     0.055 A 
ATOM     80  C   UNL A   1      38.119  33.392  38.905  1.00  0.00     0.041 A 
ATOM     81  F   UNL A   1      37.767  31.519  37.539  1.00  0.00    -0.206 F 
ATOM     82  C   UNL A   1      38.751  34.607  39.149  1.00  0.00     0.022 A 
BRANCH  79  83
ATOM     83  S   UNL A   1      40.550  36.643  38.521  1.00  0.00     0.124 S 
ATOM     84  O   UNL A   1      41.415  36.193  39.606  1.00  0.00    -0.237 OA
ATOM     85  O   UNL A   1      41.202  36.888  37.239  1.00  0.00    -0.237 OA
ATOM     86  O   UNL A   1      39.531  37.620  38.899  1.00  0.00    -0.744 OA
ENDBRANCH  79  83
ENDBRANCH  52  76
BRANCH  64  87
ATOM     87  C   UNL A   1      44.111  28.523  35.259  1.00  0.00     0.023 A 
ATOM     88  C   UNL A   1      44.017  27.393  36.090  1.00  0.00     0.031 A 
ATOM     89  C   UNL A   1      45.345  29.194  35.190  1.00  0.00     0.131 A 
ATOM     90  C   UNL A   1      45.121  27.000  36.860  1.00  0.00     0.055 A 
ATOM     91  C   UNL A   1      46.457  28.763  35.913  1.00  0.00     0.041 A 
ATOM     92  F   UNL A   1      45.490  30.280  34.412  1.00  0.00    -0.206 F 
ATOM     93  C   UNL A   1      46.344  27.669  36.766  1.00  0.00     0.022 A 
BRANCH  90  94
ATOM     94  S   UNL A   1      44.911  25.656  38.060  1.00  0.00     0.124 S 
ATOM     95  O   UNL A   1      43.735  24.965  37.541  1.00  0.00    -0.237 OA
ATOM     96  O   UNL A   1      46.176  24.936  37.946  1.00  0.00    -0.237 OA
ATOM     97  O   UNL A   1      44.710  26.356  39.328  1.00  0.00    -0.744 OA
ENDBRANCH  90  94
ENDBRANCH  64  87
ENDBRANCH  38  39
ENDBRANCH  30  33
ENDBRANCH  28  29
ENDBRANCH  27  28
ENDBRANCH  26  27
ENDBRANCH   1  26
TORSDOF 19
ENDMDL
