MODEL 1
REMARK VINA RESULT:     -12.7      0.000      0.000
REMARK SMILES CC(=O)OCC1=C(C(=O)NCCCCNC(=O)c2ccc(-c3c4nc(c(-c5cc(S(=O)(=O)[O-])ccc5F)c5ccc([nH]5)c(-c5cc(S(=O)(=O)[O-])ccc5F)c5nc(c(-c6cc(S(=O)(=O)[O-])ccc6F)c6ccc3[nH]6)C=C5)C=C4)cc2)N2C(=O)[C@H](NC(=O)C3CCCCC3)[C@@H]2SC1
REMARK SMILES IDX 12 1 11 2 10 3 8 4 9 5 7 7 6 8 96 9 81 10 95 11 82 12 94 13
REMARK SMILES IDX 83 14 84 15 5 16 4 17 2 18 1 19 3 20 85 21 86 22 87 24 88 25
REMARK SMILES IDX 89 26 93 27 90 28 92 29 91 30 13 31 14 32 15 33 16 34 17 36
REMARK SMILES IDX 18 37 19 38 80 39 20 40 79 41 21 42 22 43 23 44 73 45 24 46
REMARK SMILES IDX 78 47 72 48 74 49 25 50 77 51 71 52 70 53 26 55 58 56 38 57
REMARK SMILES IDX 57 58 39 59 42 60 56 61 75 62 40 63 41 64 55 66 76 67 43 68
REMARK SMILES IDX 27 69 28 70 36 71 29 72 35 73 37 74 34 75 30 76 31 77 32 78
REMARK SMILES IDX 33 79 59 80 60 81 68 82 61 83 67 84 69 85 66 86 62 87 63 88
REMARK SMILES IDX 64 89 65 90 44 91 45 92 53 93 46 94 52 95 54 96 51 97 47 98
REMARK SMILES IDX 48 99 49 100 50 101
REMARK H PARENT 10 6 85 23 15 35 74 54 42 65
REMARK Flexibility Score: inf
ROOT
ATOM      1  C   UNL A   1      36.134  23.403  23.514  1.00  0.00     0.023 C 
ENDROOT
BRANCH   1   2
ATOM      2  C   UNL A   1      34.656  23.679  23.783  1.00  0.00     0.116 C 
BRANCH   2   3
ATOM      3  N   UNL A   1      33.732  22.731  23.193  1.00  0.00    -0.351 N 
ATOM      4  C   UNL A   1      32.360  22.721  23.099  1.00  0.00     0.268 C 
ATOM      5  O   UNL A   1      31.873  21.852  22.380  1.00  0.00    -0.268 OA
ATOM      6  H   UNL A   1      34.167  21.949  22.781  1.00  0.00     0.163 HD
BRANCH   4   7
ATOM      7  C   UNL A   1      31.491  23.648  23.944  1.00  0.00     0.114 C 
ATOM      8  C   UNL A   1      31.251  23.446  25.266  1.00  0.00     0.007 C 
ATOM      9  C   UNL A   1      30.161  24.191  26.002  1.00  0.00     0.108 C 
ATOM     10  N   UNL A   1      31.037  24.813  23.348  1.00  0.00    -0.290 N 
ATOM     11  S   UNL A   1      30.225  25.953  25.679  1.00  0.00    -0.129 SA
ATOM     12  C   UNL A   1      31.652  25.728  22.543  1.00  0.00     0.253 C 
ATOM     13  C   UNL A   1      30.047  25.733  23.887  1.00  0.00     0.181 C 
ATOM     14  O   UNL A   1      32.648  25.745  21.860  1.00  0.00    -0.272 OA
ATOM     15  C   UNL A   1      30.688  26.859  23.018  1.00  0.00     0.205 C 
BRANCH   8  16
ATOM     16  C   UNL A   1      32.060  22.589  26.219  1.00  0.00     0.267 C 
BRANCH  16  17
ATOM     17  O   UNL A   1      32.313  21.263  25.751  1.00  0.00    -0.461 OA
BRANCH  17  18
ATOM     18  C   UNL A   1      33.535  20.740  26.037  1.00  0.00     0.302 C 
ATOM     19  C   UNL A   1      33.896  19.701  25.019  1.00  0.00     0.139 C 
ATOM     20  O   UNL A   1      34.246  21.081  26.971  1.00  0.00    -0.253 OA
ENDBRANCH  17  18
ENDBRANCH  16  17
ENDBRANCH   8  16
BRANCH  15  21
ATOM     21  N   UNL A   1      31.356  27.976  23.752  1.00  0.00    -0.342 N 
ATOM     22  C   UNL A   1      30.971  29.270  23.951  1.00  0.00     0.223 C 
ATOM     23  H   UNL A   1      32.220  27.739  24.160  1.00  0.00     0.164 HD
ATOM     24  O   UNL A   1      31.689  30.000  24.637  1.00  0.00    -0.275 OA
BRANCH  22  25
ATOM     25  C   UNL A   1      29.652  29.756  23.370  1.00  0.00     0.078 C 
ATOM     26  C   UNL A   1      29.243  31.073  24.042  1.00  0.00     0.013 C 
ATOM     27  C   UNL A   1      29.768  29.953  21.850  1.00  0.00     0.013 C 
ATOM     28  C   UNL A   1      27.951  31.633  23.448  1.00  0.00     0.001 C 
ATOM     29  C   UNL A   1      28.464  30.478  21.258  1.00  0.00     0.001 C 
ATOM     30  C   UNL A   1      28.032  31.778  21.930  1.00  0.00     0.000 C 
ENDBRANCH  22  25
ENDBRANCH  15  21
ENDBRANCH   4   7
ENDBRANCH   2   3
ENDBRANCH   1   2
BRANCH   1  31
ATOM     31  C   UNL A   1      36.655  22.002  23.856  1.00  0.00     0.023 C 
BRANCH  31  32
ATOM     32  C   UNL A   1      37.040  21.718  25.310  1.00  0.00     0.116 C 
BRANCH  32  33
ATOM     33  N   UNL A   1      38.109  20.743  25.471  1.00  0.00    -0.352 N 
ATOM     34  C   UNL A   1      39.347  20.868  26.063  1.00  0.00     0.251 C 
ATOM     35  H   UNL A   1      37.916  19.852  25.099  1.00  0.00     0.163 HD
ATOM     36  O   UNL A   1      40.116  19.909  26.060  1.00  0.00    -0.269 OA
BRANCH  34  37
ATOM     37  C   UNL A   1      39.775  22.160  26.646  1.00  0.00     0.039 A 
ATOM     38  C   UNL A   1      40.776  22.155  27.623  1.00  0.00     0.014 A 
ATOM     39  C   UNL A   1      39.232  23.369  26.209  1.00  0.00     0.014 A 
ATOM     40  C   UNL A   1      41.319  23.365  28.068  1.00  0.00     0.010 A 
ATOM     41  C   UNL A   1      39.816  24.572  26.607  1.00  0.00     0.010 A 
ATOM     42  C   UNL A   1      40.889  24.580  27.512  1.00  0.00    -0.014 A 
BRANCH  42  43
ATOM     43  C   UNL A   1      41.592  25.858  27.806  1.00  0.00     0.031 A 
ATOM     44  C   UNL A   1      40.902  26.954  28.568  1.00  0.00     0.074 A 
ATOM     45  C   UNL A   1      42.820  26.070  27.288  1.00  0.00     0.049 A 
ATOM     46  N   UNL A   1      41.299  28.179  28.799  1.00  0.00    -0.248 NA
ATOM     47  C   UNL A   1      39.575  26.636  29.112  1.00  0.00     0.031 C 
ATOM     48  C   UNL A   1      43.579  25.105  26.487  1.00  0.00     0.029 A 
ATOM     49  N   UNL A   1      43.639  27.171  27.337  1.00  0.00    -0.354 N 
ATOM     50  C   UNL A   1      40.264  28.789  29.500  1.00  0.00     0.074 A 
ATOM     51  C   UNL A   1      39.203  27.806  29.611  1.00  0.00     0.031 C 
ATOM     52  C   UNL A   1      44.751  25.653  26.130  1.00  0.00     0.029 A 
ATOM     53  C   UNL A   1      44.813  27.020  26.636  1.00  0.00     0.049 A 
ATOM     54  H   UNL A   1      43.407  27.993  27.826  1.00  0.00     0.167 HD
ATOM     55  C   UNL A   1      40.209  30.042  30.016  1.00  0.00     0.034 A 
ATOM     56  C   UNL A   1      45.818  27.887  26.406  1.00  0.00     0.034 A 
ATOM     57  C   UNL A   1      41.279  31.005  29.913  1.00  0.00     0.049 A 
ATOM     58  C   UNL A   1      45.731  29.278  26.978  1.00  0.00     0.074 A 
ATOM     59  C   UNL A   1      41.354  32.274  30.460  1.00  0.00     0.029 A 
ATOM     60  N   UNL A   1      42.460  30.809  29.209  1.00  0.00    -0.354 N 
ATOM     61  N   UNL A   1      44.765  29.821  27.680  1.00  0.00    -0.248 NA
ATOM     62  C   UNL A   1      46.873  30.168  26.731  1.00  0.00     0.031 C 
ATOM     63  C   UNL A   1      42.554  32.864  30.044  1.00  0.00     0.029 A 
ATOM     64  C   UNL A   1      43.257  31.943  29.285  1.00  0.00     0.049 A 
ATOM     65  H   UNL A   1      42.699  29.985  28.726  1.00  0.00     0.167 HD
ATOM     66  C   UNL A   1      45.192  31.111  27.978  1.00  0.00     0.074 A 
ATOM     67  C   UNL A   1      46.508  31.260  27.388  1.00  0.00     0.031 C 
ATOM     68  C   UNL A   1      44.558  32.082  28.679  1.00  0.00     0.034 A 
BRANCH  55  69
ATOM     69  C   UNL A   1      38.933  30.445  30.713  1.00  0.00     0.023 A 
ATOM     70  C   UNL A   1      37.898  31.106  30.028  1.00  0.00     0.031 A 
ATOM     71  C   UNL A   1      38.761  30.197  32.086  1.00  0.00     0.131 A 
ATOM     72  C   UNL A   1      36.779  31.572  30.733  1.00  0.00     0.055 A 
ATOM     73  C   UNL A   1      37.607  30.592  32.766  1.00  0.00     0.041 A 
ATOM     74  F   UNL A   1      39.721  29.582  32.795  1.00  0.00    -0.206 F 
ATOM     75  C   UNL A   1      36.614  31.299  32.093  1.00  0.00     0.022 A 
BRANCH  72  76
ATOM     76  S   UNL A   1      35.613  32.664  29.875  1.00  0.00     0.124 S 
ATOM     77  O   UNL A   1      36.311  33.946  29.937  1.00  0.00    -0.237 OA
ATOM     78  O   UNL A   1      35.518  32.051  28.555  1.00  0.00    -0.237 OA
ATOM     79  O   UNL A   1      34.403  32.582  30.691  1.00  0.00    -0.744 OA
ENDBRANCH  72  76
ENDBRANCH  55  69
BRANCH  56  80
ATOM     80  C   UNL A   1      46.988  27.483  25.578  1.00  0.00     0.023 A 
ATOM     81  C   UNL A   1      47.090  27.874  24.235  1.00  0.00     0.031 A 
ATOM     82  C   UNL A   1      48.003  26.669  26.110  1.00  0.00     0.131 A 
ATOM     83  C   UNL A   1      48.164  27.420  23.455  1.00  0.00     0.055 A 
ATOM     84  C   UNL A   1      49.092  26.254  25.342  1.00  0.00     0.041 A 
ATOM     85  F   UNL A   1      47.956  26.277  27.393  1.00  0.00    -0.206 F 
ATOM     86  C   UNL A   1      49.171  26.620  24.002  1.00  0.00     0.022 A 
BRANCH  83  87
ATOM     87  S   UNL A   1      48.194  27.839  21.690  1.00  0.00     0.124 S 
ATOM     88  O   UNL A   1      48.587  26.569  21.089  1.00  0.00    -0.237 OA
ATOM     89  O   UNL A   1      46.817  28.261  21.457  1.00  0.00    -0.237 OA
ATOM     90  O   UNL A   1      49.192  28.903  21.610  1.00  0.00    -0.744 OA
ENDBRANCH  83  87
ENDBRANCH  56  80
BRANCH  68  91
ATOM     91  C   UNL A   1      45.305  33.376  28.877  1.00  0.00     0.023 A 
ATOM     92  C   UNL A   1      45.019  34.517  28.106  1.00  0.00     0.031 A 
ATOM     93  C   UNL A   1      46.323  33.462  29.841  1.00  0.00     0.131 A 
ATOM     94  C   UNL A   1      45.776  35.685  28.284  1.00  0.00     0.055 A 
ATOM     95  C   UNL A   1      47.041  34.642  30.045  1.00  0.00     0.041 A 
ATOM     96  F   UNL A   1      46.637  32.401  30.600  1.00  0.00    -0.206 F 
ATOM     97  C   UNL A   1      46.776  35.759  29.258  1.00  0.00     0.022 A 
BRANCH  94  98
ATOM     98  S   UNL A   1      45.482  37.092  27.177  1.00  0.00     0.124 S 
ATOM     99  O   UNL A   1      45.722  38.229  28.061  1.00  0.00    -0.237 OA
ATOM    100  O   UNL A   1      46.474  36.880  26.128  1.00  0.00    -0.237 OA
ATOM    101  O   UNL A   1      44.092  36.915  26.759  1.00  0.00    -0.744 OA
ENDBRANCH  94  98
ENDBRANCH  68  91
ENDBRANCH  42  43
ENDBRANCH  34  37
ENDBRANCH  32  33
ENDBRANCH  31  32
ENDBRANCH   1  31
TORSDOF 19
ENDMDL
MODEL 2
REMARK VINA RESULT:     -12.6      0.712      7.226
REMARK SMILES CC(=O)OCC1=C(C(=O)NCCCCNC(=O)c2ccc(-c3c4nc(c(-c5cc(S(=O)(=O)[O-])ccc5F)c5ccc([nH]5)c(-c5cc(S(=O)(=O)[O-])ccc5F)c5nc(c(-c6cc(S(=O)(=O)[O-])ccc6F)c6ccc3[nH]6)C=C5)C=C4)cc2)N2C(=O)[C@H](NC(=O)C3CCCCC3)[C@@H]2SC1
REMARK SMILES IDX 12 1 11 2 10 3 8 4 9 5 7 7 6 8 96 9 81 10 95 11 82 12 94 13
REMARK SMILES IDX 83 14 84 15 5 16 4 17 2 18 1 19 3 20 85 21 86 22 87 24 88 25
REMARK SMILES IDX 89 26 93 27 90 28 92 29 91 30 13 31 14 32 15 33 16 34 17 36
REMARK SMILES IDX 18 37 19 38 80 39 20 40 79 41 21 42 22 43 23 44 73 45 24 46
REMARK SMILES IDX 78 47 72 48 74 49 25 50 77 51 71 52 70 53 26 55 58 56 38 57
REMARK SMILES IDX 57 58 39 59 42 60 56 61 75 62 40 63 41 64 55 66 76 67 43 68
REMARK SMILES IDX 27 69 28 70 36 71 29 72 35 73 37 74 34 75 30 76 31 77 32 78
REMARK SMILES IDX 33 79 59 80 60 81 68 82 61 83 67 84 69 85 66 86 62 87 63 88
REMARK SMILES IDX 64 89 65 90 44 91 45 92 53 93 46 94 52 95 54 96 51 97 47 98
REMARK SMILES IDX 48 99 49 100 50 101
REMARK H PARENT 10 6 85 23 15 35 74 54 42 65
REMARK Flexibility Score: inf
ROOT
ATOM      1  C   UNL A   1      36.353  23.323  23.466  1.00  0.00     0.023 C 
ENDROOT
BRANCH   1   2
ATOM      2  C   UNL A   1      34.880  23.723  23.403  1.00  0.00     0.116 C 
BRANCH   2   3
ATOM      3  N   UNL A   1      34.004  22.760  22.764  1.00  0.00    -0.351 N 
ATOM      4  C   UNL A   1      32.634  22.656  22.713  1.00  0.00     0.268 C 
ATOM      5  O   UNL A   1      32.184  21.816  21.938  1.00  0.00    -0.268 OA
ATOM      6  H   UNL A   1      34.478  22.050  22.273  1.00  0.00     0.163 HD
BRANCH   4   7
ATOM      7  C   UNL A   1      31.734  23.443  23.661  1.00  0.00     0.114 C 
ATOM      8  C   UNL A   1      31.517  23.086  24.953  1.00  0.00     0.007 C 
ATOM      9  C   UNL A   1      30.403  23.694  25.774  1.00  0.00     0.108 C 
ATOM     10  N   UNL A   1      31.221  24.645  23.199  1.00  0.00    -0.290 N 
ATOM     11  S   UNL A   1      30.384  25.482  25.647  1.00  0.00    -0.129 SA
ATOM     12  C   UNL A   1      31.786  25.671  22.498  1.00  0.00     0.253 C 
ATOM     13  C   UNL A   1      30.196  25.453  23.843  1.00  0.00     0.181 C 
ATOM     14  O   UNL A   1      32.772  25.808  21.815  1.00  0.00    -0.272 OA
ATOM     15  C   UNL A   1      30.777  26.697  23.101  1.00  0.00     0.205 C 
BRANCH   8  16
ATOM     16  C   UNL A   1      32.375  22.167  25.801  1.00  0.00     0.267 C 
BRANCH  16  17
ATOM     17  O   UNL A   1      32.021  20.785  25.715  1.00  0.00    -0.461 OA
BRANCH  17  18
ATOM     18  C   UNL A   1      32.954  19.952  25.180  1.00  0.00     0.302 C 
ATOM     19  C   UNL A   1      32.524  18.527  25.354  1.00  0.00     0.139 C 
ATOM     20  O   UNL A   1      33.979  20.310  24.619  1.00  0.00    -0.253 OA
ENDBRANCH  17  18
ENDBRANCH  16  17
ENDBRANCH   8  16
BRANCH  15  21
ATOM     21  N   UNL A   1      31.402  27.755  23.950  1.00  0.00    -0.342 N 
ATOM     22  C   UNL A   1      31.047  29.056  24.161  1.00  0.00     0.223 C 
ATOM     23  H   UNL A   1      32.207  27.467  24.438  1.00  0.00     0.164 HD
ATOM     24  O   UNL A   1      31.711  29.727  24.952  1.00  0.00    -0.275 OA
BRANCH  22  25
ATOM     25  C   UNL A   1      29.818  29.619  23.463  1.00  0.00     0.078 C 
ATOM     26  C   UNL A   1      29.397  30.933  24.133  1.00  0.00     0.013 C 
ATOM     27  C   UNL A   1      30.102  29.854  21.971  1.00  0.00     0.013 C 
ATOM     28  C   UNL A   1      28.200  31.569  23.427  1.00  0.00     0.001 C 
ATOM     29  C   UNL A   1      28.891  30.457  21.264  1.00  0.00     0.001 C 
ATOM     30  C   UNL A   1      28.448  31.754  21.931  1.00  0.00     0.000 C 
ENDBRANCH  22  25
ENDBRANCH  15  21
ENDBRANCH   4   7
ENDBRANCH   2   3
ENDBRANCH   1   2
BRANCH   1  31
ATOM     31  C   UNL A   1      36.668  21.890  23.913  1.00  0.00     0.023 C 
BRANCH  31  32
ATOM     32  C   UNL A   1      37.054  21.667  25.377  1.00  0.00     0.116 C 
BRANCH  32  33
ATOM     33  N   UNL A   1      38.203  20.795  25.571  1.00  0.00    -0.352 N 
ATOM     34  C   UNL A   1      39.426  21.049  26.154  1.00  0.00     0.251 C 
ATOM     35  H   UNL A   1      38.088  19.877  25.232  1.00  0.00     0.163 HD
ATOM     36  O   UNL A   1      40.275  20.161  26.184  1.00  0.00    -0.269 OA
BRANCH  34  37
ATOM     37  C   UNL A   1      39.740  22.394  26.688  1.00  0.00     0.039 A 
ATOM     38  C   UNL A   1      40.735  22.511  27.663  1.00  0.00     0.014 A 
ATOM     39  C   UNL A   1      39.095  23.535  26.207  1.00  0.00     0.014 A 
ATOM     40  C   UNL A   1      41.171  23.779  28.062  1.00  0.00     0.010 A 
ATOM     41  C   UNL A   1      39.573  24.797  26.558  1.00  0.00     0.010 A 
ATOM     42  C   UNL A   1      40.640  24.931  27.462  1.00  0.00    -0.014 A 
BRANCH  42  43
ATOM     43  C   UNL A   1      41.229  26.275  27.706  1.00  0.00     0.031 A 
ATOM     44  C   UNL A   1      42.631  26.588  27.264  1.00  0.00     0.074 A 
ATOM     45  C   UNL A   1      40.534  27.180  28.426  1.00  0.00     0.049 A 
ATOM     46  N   UNL A   1      43.359  27.648  27.506  1.00  0.00    -0.248 NA
ATOM     47  C   UNL A   1      43.312  25.556  26.470  1.00  0.00     0.031 C 
ATOM     48  C   UNL A   1      39.183  26.981  28.957  1.00  0.00     0.029 A 
ATOM     49  N   UNL A   1      40.873  28.440  28.856  1.00  0.00    -0.354 N 
ATOM     50  C   UNL A   1      44.594  27.405  26.914  1.00  0.00     0.074 A 
ATOM     51  C   UNL A   1      44.524  26.074  26.341  1.00  0.00     0.031 C 
ATOM     52  C   UNL A   1      38.807  28.080  29.631  1.00  0.00     0.029 A 
ATOM     53  C   UNL A   1      39.902  29.044  29.620  1.00  0.00     0.049 A 
ATOM     54  H   UNL A   1      41.731  28.870  28.639  1.00  0.00     0.167 HD
ATOM     55  C   UNL A   1      45.676  28.220  26.839  1.00  0.00     0.034 A 
ATOM     56  C   UNL A   1      39.897  30.231  30.257  1.00  0.00     0.034 A 
ATOM     57  C   UNL A   1      45.725  29.549  27.397  1.00  0.00     0.049 A 
ATOM     58  C   UNL A   1      41.113  31.115  30.170  1.00  0.00     0.074 A 
ATOM     59  C   UNL A   1      46.745  30.482  27.316  1.00  0.00     0.029 A 
ATOM     60  N   UNL A   1      44.715  30.134  28.150  1.00  0.00    -0.354 N 
ATOM     61  N   UNL A   1      42.254  30.889  29.564  1.00  0.00    -0.248 NA
ATOM     62  C   UNL A   1      41.037  32.415  30.850  1.00  0.00     0.031 C 
ATOM     63  C   UNL A   1      46.373  31.608  28.063  1.00  0.00     0.029 A 
ATOM     64  C   UNL A   1      45.098  31.402  28.562  1.00  0.00     0.049 A 
ATOM     65  H   UNL A   1      43.852  29.710  28.361  1.00  0.00     0.167 HD
ATOM     66  C   UNL A   1      43.025  32.028  29.770  1.00  0.00     0.074 A 
ATOM     67  C   UNL A   1      42.214  32.944  30.548  1.00  0.00     0.031 C 
ATOM     68  C   UNL A   1      44.286  32.297  29.351  1.00  0.00     0.034 A 
BRANCH  55  69
ATOM     69  C   UNL A   1      46.902  27.675  26.147  1.00  0.00     0.023 A 
ATOM     70  C   UNL A   1      47.197  28.001  24.812  1.00  0.00     0.031 A 
ATOM     71  C   UNL A   1      47.766  26.792  26.817  1.00  0.00     0.131 A 
ATOM     72  C   UNL A   1      48.277  27.384  24.163  1.00  0.00     0.055 A 
ATOM     73  C   UNL A   1      48.886  26.243  26.189  1.00  0.00     0.041 A 
ATOM     74  F   UNL A   1      47.525  26.432  28.088  1.00  0.00    -0.206 F 
ATOM     75  C   UNL A   1      49.138  26.524  24.850  1.00  0.00     0.022 A 
BRANCH  72  76
ATOM     76  S   UNL A   1      48.451  27.609  22.372  1.00  0.00     0.124 S 
ATOM     77  O   UNL A   1      48.675  26.237  21.924  1.00  0.00    -0.237 OA
ATOM     78  O   UNL A   1      47.170  28.200  22.003  1.00  0.00    -0.237 OA
ATOM     79  O   UNL A   1      49.607  28.494  22.250  1.00  0.00    -0.744 OA
ENDBRANCH  72  76
ENDBRANCH  55  69
BRANCH  56  80
ATOM     80  C   UNL A   1      38.712  30.653  31.055  1.00  0.00     0.023 A 
ATOM     81  C   UNL A   1      37.627  31.302  30.447  1.00  0.00     0.031 A 
ATOM     82  C   UNL A   1      38.663  30.443  32.444  1.00  0.00     0.131 A 
ATOM     83  C   UNL A   1      36.555  31.755  31.231  1.00  0.00     0.055 A 
ATOM     84  C   UNL A   1      37.576  30.857  33.214  1.00  0.00     0.041 A 
ATOM     85  F   UNL A   1      39.672  29.816  33.071  1.00  0.00    -0.206 F 
ATOM     86  C   UNL A   1      36.518  31.528  32.609  1.00  0.00     0.022 A 
BRANCH  83  87
ATOM     87  S   UNL A   1      35.233  32.703  30.429  1.00  0.00     0.124 S 
ATOM     88  O   UNL A   1      34.289  32.883  31.527  1.00  0.00    -0.237 OA
ATOM     89  O   UNL A   1      35.944  33.901  29.992  1.00  0.00    -0.237 OA
ATOM     90  O   UNL A   1      34.783  31.821  29.356  1.00  0.00    -0.744 OA
ENDBRANCH  83  87
ENDBRANCH  56  80
BRANCH  68  91
ATOM     91  C   UNL A   1      44.843  33.654  29.695  1.00  0.00     0.023 A 
ATOM     92  C   UNL A   1      44.660  34.762  28.849  1.00  0.00     0.031 A 
ATOM     93  C   UNL A   1      45.577  33.835  30.879  1.00  0.00     0.131 A 
ATOM     94  C   UNL A   1      45.244  35.994  29.180  1.00  0.00     0.055 A 
ATOM     95  C   UNL A   1      46.115  35.075  31.226  1.00  0.00     0.041 A 
ATOM     96  F   UNL A   1      45.783  32.808  31.719  1.00  0.00    -0.206 F 
ATOM     97  C   UNL A   1      45.958  36.161  30.369  1.00  0.00     0.022 A 
BRANCH  94  98
ATOM     98  S   UNL A   1      45.113  37.366  28.000  1.00  0.00     0.124 S 
ATOM     99  O   UNL A   1      46.465  37.917  28.024  1.00  0.00    -0.237 OA
ATOM    100  O   UNL A   1      44.724  36.685  26.769  1.00  0.00    -0.237 OA
ATOM    101  O   UNL A   1      44.083  38.224  28.584  1.00  0.00    -0.744 OA
ENDBRANCH  94  98
ENDBRANCH  68  91
ENDBRANCH  42  43
ENDBRANCH  34  37
ENDBRANCH  32  33
ENDBRANCH  31  32
ENDBRANCH   1  31
TORSDOF 19
ENDMDL
MODEL 3
REMARK VINA RESULT:     -12.5      4.821     10.558
REMARK SMILES CC(=O)OCC1=C(C(=O)NCCCCNC(=O)c2ccc(-c3c4nc(c(-c5cc(S(=O)(=O)[O-])ccc5F)c5ccc([nH]5)c(-c5cc(S(=O)(=O)[O-])ccc5F)c5nc(c(-c6cc(S(=O)(=O)[O-])ccc6F)c6ccc3[nH]6)C=C5)C=C4)cc2)N2C(=O)[C@H](NC(=O)C3CCCCC3)[C@@H]2SC1
REMARK SMILES IDX 12 1 11 2 10 3 8 4 9 5 7 7 6 8 96 9 81 10 95 11 82 12 94 13
REMARK SMILES IDX 83 14 84 15 5 16 4 17 2 18 1 19 3 20 85 21 86 22 87 24 88 25
REMARK SMILES IDX 89 26 93 27 90 28 92 29 91 30 13 31 14 32 15 33 16 34 17 36
REMARK SMILES IDX 18 37 19 38 80 39 20 40 79 41 21 42 22 43 23 44 73 45 24 46
REMARK SMILES IDX 78 47 72 48 74 49 25 50 77 51 71 52 70 53 26 55 58 56 38 57
REMARK SMILES IDX 57 58 39 59 42 60 56 61 75 62 40 63 41 64 55 66 76 67 43 68
REMARK SMILES IDX 27 69 28 70 36 71 29 72 35 73 37 74 34 75 30 76 31 77 32 78
REMARK SMILES IDX 33 79 59 80 60 81 68 82 61 83 67 84 69 85 66 86 62 87 63 88
REMARK SMILES IDX 64 89 65 90 44 91 45 92 53 93 46 94 52 95 54 96 51 97 47 98
REMARK SMILES IDX 48 99 49 100 50 101
REMARK H PARENT 10 6 85 23 15 35 74 54 42 65
REMARK Flexibility Score: inf
ROOT
ATOM      1  C   UNL A   1      32.037  27.875  27.444  1.00  0.00     0.023 C 
ENDROOT
BRANCH   1   2
ATOM      2  C   UNL A   1      31.926  26.967  26.222  1.00  0.00     0.116 C 
BRANCH   2   3
ATOM      3  N   UNL A   1      30.591  26.833  25.669  1.00  0.00    -0.351 N 
ATOM      4  C   UNL A   1      30.056  25.948  24.763  1.00  0.00     0.268 C 
ATOM      5  O   UNL A   1      28.836  25.987  24.626  1.00  0.00    -0.268 OA
ATOM      6  H   UNL A   1      29.949  27.499  26.007  1.00  0.00     0.163 HD
BRANCH   4   7
ATOM      7  C   UNL A   1      30.939  25.067  23.885  1.00  0.00     0.114 C 
ATOM      8  C   UNL A   1      31.612  25.530  22.800  1.00  0.00     0.007 C 
ATOM      9  C   UNL A   1      32.227  24.596  21.783  1.00  0.00     0.108 C 
ATOM     10  N   UNL A   1      31.150  23.762  24.302  1.00  0.00    -0.290 N 
ATOM     11  S   UNL A   1      33.191  23.303  22.566  1.00  0.00    -0.129 SA
ATOM     12  C   UNL A   1      31.421  23.227  25.529  1.00  0.00     0.253 C 
ATOM     13  C   UNL A   1      31.782  22.699  23.535  1.00  0.00     0.181 C 
ATOM     14  O   UNL A   1      31.312  23.596  26.674  1.00  0.00    -0.272 OA
ATOM     15  C   UNL A   1      32.158  22.012  24.884  1.00  0.00     0.205 C 
BRANCH   8  16
ATOM     16  C   UNL A   1      31.963  26.973  22.493  1.00  0.00     0.267 C 
BRANCH  16  17
ATOM     17  O   UNL A   1      30.876  27.750  21.989  1.00  0.00    -0.461 OA
BRANCH  17  18
ATOM     18  C   UNL A   1      30.619  28.922  22.630  1.00  0.00     0.302 C 
ATOM     19  C   UNL A   1      29.821  29.826  21.739  1.00  0.00     0.139 C 
ATOM     20  O   UNL A   1      30.967  29.192  23.770  1.00  0.00    -0.253 OA
ENDBRANCH  17  18
ENDBRANCH  16  17
ENDBRANCH   8  16
BRANCH  15  21
ATOM     21  N   UNL A   1      33.613  21.924  25.212  1.00  0.00    -0.342 N 
ATOM     22  C   UNL A   1      34.475  20.866  25.170  1.00  0.00     0.223 C 
ATOM     23  H   UNL A   1      34.018  22.770  25.509  1.00  0.00     0.164 HD
ATOM     24  O   UNL A   1      35.658  21.059  25.454  1.00  0.00    -0.275 OA
BRANCH  22  25
ATOM     25  C   UNL A   1      33.967  19.504  24.724  1.00  0.00     0.078 C 
ATOM     26  C   UNL A   1      35.140  18.521  24.622  1.00  0.00     0.013 C 
ATOM     27  C   UNL A   1      32.913  18.969  25.707  1.00  0.00     0.013 C 
ATOM     28  C   UNL A   1      34.670  17.119  24.235  1.00  0.00     0.001 C 
ATOM     29  C   UNL A   1      32.422  17.585  25.295  1.00  0.00     0.001 C 
ATOM     30  C   UNL A   1      33.580  16.599  25.170  1.00  0.00     0.000 C 
ENDBRANCH  22  25
ENDBRANCH  15  21
ENDBRANCH   4   7
ENDBRANCH   2   3
ENDBRANCH   1   2
BRANCH   1  31
ATOM     31  C   UNL A   1      31.488  29.300  27.307  1.00  0.00     0.023 C 
BRANCH  31  32
ATOM     32  C   UNL A   1      32.276  30.290  26.446  1.00  0.00     0.116 C 
BRANCH  32  33
ATOM     33  N   UNL A   1      32.156  31.680  26.863  1.00  0.00    -0.352 N 
ATOM     34  C   UNL A   1      33.063  32.501  27.498  1.00  0.00     0.251 C 
ATOM     35  H   UNL A   1      31.290  32.101  26.658  1.00  0.00     0.163 HD
ATOM     36  O   UNL A   1      32.737  33.649  27.788  1.00  0.00    -0.269 OA
BRANCH  34  37
ATOM     37  C   UNL A   1      34.399  31.989  27.883  1.00  0.00     0.039 A 
ATOM     38  C   UNL A   1      35.454  32.899  28.002  1.00  0.00     0.014 A 
ATOM     39  C   UNL A   1      34.606  30.638  28.166  1.00  0.00     0.014 A 
ATOM     40  C   UNL A   1      36.681  32.476  28.526  1.00  0.00     0.010 A 
ATOM     41  C   UNL A   1      35.807  30.231  28.746  1.00  0.00     0.010 A 
ATOM     42  C   UNL A   1      36.844  31.153  28.965  1.00  0.00    -0.014 A 
BRANCH  42  43
ATOM     43  C   UNL A   1      38.055  30.730  29.719  1.00  0.00     0.031 A 
ATOM     44  C   UNL A   1      39.014  29.733  29.131  1.00  0.00     0.074 A 
ATOM     45  C   UNL A   1      38.231  31.166  30.983  1.00  0.00     0.049 A 
ATOM     46  N   UNL A   1      40.041  29.144  29.686  1.00  0.00    -0.248 NA
ATOM     47  C   UNL A   1      38.760  29.322  27.743  1.00  0.00     0.031 C 
ATOM     48  C   UNL A   1      37.345  32.096  31.688  1.00  0.00     0.029 A 
ATOM     49  N   UNL A   1      39.200  30.870  31.910  1.00  0.00    -0.354 N 
ATOM     50  C   UNL A   1      40.549  28.276  28.726  1.00  0.00     0.074 A 
ATOM     51  C   UNL A   1      39.681  28.386  27.569  1.00  0.00     0.031 C 
ATOM     52  C   UNL A   1      37.816  32.300  32.929  1.00  0.00     0.029 A 
ATOM     53  C   UNL A   1      39.010  31.485  33.126  1.00  0.00     0.049 A 
ATOM     54  H   UNL A   1      39.959  30.272  31.723  1.00  0.00     0.167 HD
ATOM     55  C   UNL A   1      41.643  27.477  28.795  1.00  0.00     0.034 A 
ATOM     56  C   UNL A   1      39.703  31.391  34.277  1.00  0.00     0.034 A 
ATOM     57  C   UNL A   1      42.507  27.391  29.946  1.00  0.00     0.049 A 
ATOM     58  C   UNL A   1      40.908  30.488  34.335  1.00  0.00     0.074 A 
ATOM     59  C   UNL A   1      43.679  26.668  30.094  1.00  0.00     0.029 A 
ATOM     60  N   UNL A   1      42.292  28.042  31.154  1.00  0.00    -0.354 N 
ATOM     61  N   UNL A   1      41.401  29.712  33.400  1.00  0.00    -0.248 NA
ATOM     62  C   UNL A   1      41.650  30.455  35.602  1.00  0.00     0.031 C 
ATOM     63  C   UNL A   1      44.141  26.840  31.405  1.00  0.00     0.029 A 
ATOM     64  C   UNL A   1      43.292  27.717  32.059  1.00  0.00     0.049 A 
ATOM     65  H   UNL A   1      41.538  28.647  31.341  1.00  0.00     0.167 HD
ATOM     66  C   UNL A   1      42.526  29.114  33.959  1.00  0.00     0.074 A 
ATOM     67  C   UNL A   1      42.643  29.628  35.309  1.00  0.00     0.031 C 
ATOM     68  C   UNL A   1      43.387  28.224  33.406  1.00  0.00     0.034 A 
BRANCH  55  69
ATOM     69  C   UNL A   1      41.942  26.614  27.594  1.00  0.00     0.023 A 
ATOM     70  C   UNL A   1      41.506  25.279  27.521  1.00  0.00     0.031 A 
ATOM     71  C   UNL A   1      42.701  27.119  26.523  1.00  0.00     0.131 A 
ATOM     72  C   UNL A   1      41.904  24.471  26.446  1.00  0.00     0.055 A 
ATOM     73  C   UNL A   1      43.025  26.331  25.416  1.00  0.00     0.041 A 
ATOM     74  F   UNL A   1      43.157  28.381  26.544  1.00  0.00    -0.206 F 
ATOM     75  C   UNL A   1      42.641  24.994  25.381  1.00  0.00     0.022 A 
BRANCH  72  76
ATOM     76  S   UNL A   1      41.566  22.691  26.534  1.00  0.00     0.124 S 
ATOM     77  O   UNL A   1      42.383  22.182  25.435  1.00  0.00    -0.237 OA
ATOM     78  O   UNL A   1      42.018  22.350  27.878  1.00  0.00    -0.237 OA
ATOM     79  O   UNL A   1      40.122  22.606  26.319  1.00  0.00    -0.744 OA
ENDBRANCH  72  76
ENDBRANCH  55  69
BRANCH  56  80
ATOM     80  C   UNL A   1      39.270  32.152  35.482  1.00  0.00     0.023 A 
ATOM     81  C   UNL A   1      39.694  33.472  35.691  1.00  0.00     0.031 A 
ATOM     82  C   UNL A   1      38.454  31.556  36.459  1.00  0.00     0.131 A 
ATOM     83  C   UNL A   1      39.334  34.143  36.869  1.00  0.00     0.055 A 
ATOM     84  C   UNL A   1      38.062  32.242  37.610  1.00  0.00     0.041 A 
ATOM     85  F   UNL A   1      38.013  30.297  36.299  1.00  0.00    -0.206 F 
ATOM     86  C   UNL A   1      38.513  33.540  37.825  1.00  0.00     0.022 A 
BRANCH  83  87
ATOM     87  S   UNL A   1      40.007  35.802  37.165  1.00  0.00     0.124 S 
ATOM     88  O   UNL A   1      41.425  35.517  37.357  1.00  0.00    -0.237 OA
ATOM     89  O   UNL A   1      39.653  36.495  35.931  1.00  0.00    -0.237 OA
ATOM     90  O   UNL A   1      39.292  36.252  38.357  1.00  0.00    -0.744 OA
ENDBRANCH  83  87
ENDBRANCH  56  80
BRANCH  68  91
ATOM     91  C   UNL A   1      44.552  27.787  34.255  1.00  0.00     0.023 A 
ATOM     92  C   UNL A   1      44.487  26.637  35.061  1.00  0.00     0.031 A 
ATOM     93  C   UNL A   1      45.738  28.541  34.266  1.00  0.00     0.131 A 
ATOM     94  C   UNL A   1      45.575  26.297  35.879  1.00  0.00     0.055 A 
ATOM     95  C   UNL A   1      46.834  28.171  35.046  1.00  0.00     0.041 A 
ATOM     96  F   UNL A   1      45.850  29.649  33.517  1.00  0.00    -0.206 F 
ATOM     97  C   UNL A   1      46.753  27.049  35.867  1.00  0.00     0.022 A 
BRANCH  94  98
ATOM     98  S   UNL A   1      45.407  24.892  37.014  1.00  0.00     0.124 S 
ATOM     99  O   UNL A   1      45.274  25.559  38.306  1.00  0.00    -0.237 OA
ATOM    100  O   UNL A   1      44.209  24.226  36.515  1.00  0.00    -0.237 OA
ATOM    101  O   UNL A   1      46.652  24.148  36.826  1.00  0.00    -0.744 OA
ENDBRANCH  94  98
ENDBRANCH  68  91
ENDBRANCH  42  43
ENDBRANCH  34  37
ENDBRANCH  32  33
ENDBRANCH  31  32
ENDBRANCH   1  31
TORSDOF 19
ENDMDL
