MODEL 1
REMARK VINA RESULT:     -12.5      0.000      0.000
REMARK SMILES CCCCc1ncc(C[N@H+]2C[C@@H]3c4ccccc4OC[C@]3(C(=O)NCCCCNC(=O)c3ccc(-c4c5nc(c(-c6cc(S(=O)(=O)[O-])ccc6F)c6ccc([nH]6)c(-c6cc(S(=O)(=O)[O-])ccc6F)c6nc(c(-c7cc(S(=O)(=O)[O-])ccc7F)c7ccc4[nH]7)C=C6)C=C5)cc3)C2)[nH]1
REMARK SMILES IDX 25 1 24 2 22 3 23 4 21 6 10 7 11 8 95 9 12 11 13 12 20 13
REMARK SMILES IDX 14 14 18 15 19 16 15 17 17 18 16 19 9 20 8 21 5 22 6 23
REMARK SMILES IDX 96 24 7 25 4 27 3 28 2 29 1 30 26 31 27 32 28 33 29 34 30 35
REMARK SMILES IDX 31 37 32 38 33 39 94 40 34 41 93 42 35 43 36 44 37 45 87 46
REMARK SMILES IDX 38 47 92 48 86 49 88 50 39 51 91 52 85 53 84 54 40 56 72 57
REMARK SMILES IDX 52 58 71 59 53 60 56 61 70 62 89 63 54 64 55 65 69 67 90 68
REMARK SMILES IDX 57 69 41 70 42 71 50 72 43 73 49 74 51 75 48 76 44 77 45 78
REMARK SMILES IDX 46 79 47 80 73 81 74 82 82 83 75 84 81 85 83 86 80 87 76 88
REMARK SMILES IDX 77 89 78 90 79 91 58 92 59 93 67 94 60 95 66 96 68 97 65 98
REMARK SMILES IDX 61 99 62 100 63 101 64 102
REMARK H PARENT 24 5 10 10 96 26 29 36 88 55 56 66
REMARK Flexibility Score: inf
ROOT
ATOM      1  C   UNL A   1      32.373  26.683  26.289  1.00  0.00     0.116 C 
ENDROOT
BRANCH   1   2
ATOM      2  N   UNL A   1      31.166  25.876  26.396  1.00  0.00    -0.355 N 
ATOM      3  C   UNL A   1      31.135  24.497  26.282  1.00  0.00     0.236 C 
ATOM      4  O   UNL A   1      30.309  23.866  26.947  1.00  0.00    -0.274 OA
ATOM      5  H   UNL A   1      30.315  26.342  26.560  1.00  0.00     0.163 HD
BRANCH   3   6
ATOM      6  C   UNL A   1      32.155  23.861  25.273  1.00  0.00     0.144 C 
ATOM      7  N   UNL A   1      31.728  24.559  22.965  1.00  0.00    -0.328 N 
ATOM      8  C   UNL A   1      33.079  24.038  22.961  1.00  0.00     0.272 C 
ATOM      9  C   UNL A   1      31.516  25.013  24.339  1.00  0.00     0.284 C 
ATOM     10  H   UNL A   1      31.060  23.834  22.701  1.00  0.00     0.348 HD
ATOM     11  C   UNL A   1      33.507  24.110  24.440  1.00  0.00     0.103 C 
ATOM     12  C   UNL A   1      34.698  23.198  24.656  1.00  0.00     0.004 A 
ATOM     13  C   UNL A   1      32.940  23.511  26.625  1.00  0.00     0.253 C 
ATOM     14  C   UNL A   1      35.857  23.278  23.868  1.00  0.00     0.008 A 
ATOM     15  C   UNL A   1      34.684  22.307  25.718  1.00  0.00     0.123 A 
ATOM     16  O   UNL A   1      33.597  22.229  26.528  1.00  0.00    -0.492 OA
ATOM     17  C   UNL A   1      36.957  22.459  24.137  1.00  0.00     0.001 A 
ATOM     18  C   UNL A   1      35.771  21.482  25.992  1.00  0.00     0.047 A 
ATOM     19  C   UNL A   1      36.916  21.563  25.202  1.00  0.00     0.004 A 
BRANCH   7  20
ATOM     20  C   UNL A   1      31.408  25.537  21.922  1.00  0.00     0.319 C 
BRANCH  20  21
ATOM     21  C   UNL A   1      31.530  26.952  22.359  1.00  0.00     0.090 A 
ATOM     22  C   UNL A   1      30.900  28.902  23.204  1.00  0.00     0.106 A 
ATOM     23  N   UNL A   1      32.218  28.920  23.228  1.00  0.00    -0.241 NA
ATOM     24  N   UNL A   1      30.454  27.790  22.533  1.00  0.00    -0.341 N 
ATOM     25  C   UNL A   1      32.619  27.725  22.695  1.00  0.00     0.140 A 
ATOM     26  H   UNL A   1      29.532  27.623  22.233  1.00  0.00     0.168 HD
BRANCH  22  27
ATOM     27  C   UNL A   1      29.995  29.936  23.792  1.00  0.00     0.075 C 
BRANCH  27  28
ATOM     28  C   UNL A   1      28.817  30.368  22.912  1.00  0.00     0.008 C 
BRANCH  28  29
ATOM     29  C   UNL A   1      28.087  31.652  23.323  1.00  0.00    -0.003 C 
ATOM     30  C   UNL A   1      28.602  32.917  22.661  1.00  0.00     0.004 C 
ENDBRANCH  28  29
ENDBRANCH  27  28
ENDBRANCH  22  27
ENDBRANCH  20  21
ENDBRANCH   7  20
ENDBRANCH   3   6
ENDBRANCH   1   2
BRANCH   1  31
ATOM     31  C   UNL A   1      32.492  27.823  27.285  1.00  0.00     0.023 C 
BRANCH  31  32
ATOM     32  C   UNL A   1      31.848  29.143  26.879  1.00  0.00     0.023 C 
BRANCH  32  33
ATOM     33  C   UNL A   1      32.773  30.212  26.312  1.00  0.00     0.116 C 
BRANCH  33  34
ATOM     34  N   UNL A   1      32.593  31.536  26.886  1.00  0.00    -0.352 N 
ATOM     35  C   UNL A   1      33.479  32.291  27.624  1.00  0.00     0.251 C 
ATOM     36  H   UNL A   1      31.715  31.951  26.725  1.00  0.00     0.163 HD
ATOM     37  O   UNL A   1      33.139  33.386  28.063  1.00  0.00    -0.269 OA
BRANCH  35  38
ATOM     38  C   UNL A   1      34.814  31.737  27.934  1.00  0.00     0.039 A 
ATOM     39  C   UNL A   1      34.960  30.393  28.275  1.00  0.00     0.014 A 
ATOM     40  C   UNL A   1      35.910  32.602  27.987  1.00  0.00     0.014 A 
ATOM     41  C   UNL A   1      36.134  29.971  28.887  1.00  0.00     0.010 A 
ATOM     42  C   UNL A   1      37.126  32.143  28.503  1.00  0.00     0.010 A 
ATOM     43  C   UNL A   1      37.229  30.844  29.021  1.00  0.00    -0.014 A 
BRANCH  43  44
ATOM     44  C   UNL A   1      38.464  30.371  29.703  1.00  0.00     0.031 A 
ATOM     45  C   UNL A   1      38.797  30.813  31.104  1.00  0.00     0.074 A 
ATOM     46  C   UNL A   1      39.260  29.488  29.067  1.00  0.00     0.049 A 
ATOM     47  N   UNL A   1      39.823  30.482  31.846  1.00  0.00    -0.248 NA
ATOM     48  C   UNL A   1      37.867  31.746  31.759  1.00  0.00     0.031 C 
ATOM     49  C   UNL A   1      39.027  28.985  27.713  1.00  0.00     0.029 A 
ATOM     50  N   UNL A   1      40.399  28.840  29.472  1.00  0.00    -0.354 N 
ATOM     51  C   UNL A   1      39.677  31.181  33.040  1.00  0.00     0.074 A 
ATOM     52  C   UNL A   1      38.476  31.976  32.915  1.00  0.00     0.031 C 
ATOM     53  C   UNL A   1      39.950  28.060  27.425  1.00  0.00     0.029 A 
ATOM     54  C   UNL A   1      40.896  27.965  28.533  1.00  0.00     0.049 A 
ATOM     55  H   UNL A   1      40.819  28.984  30.350  1.00  0.00     0.167 HD
ATOM     56  C   UNL A   1      40.466  31.149  34.141  1.00  0.00     0.034 A 
ATOM     57  C   UNL A   1      41.996  27.187  28.547  1.00  0.00     0.034 A 
ATOM     58  C   UNL A   1      41.644  30.326  34.261  1.00  0.00     0.049 A 
ATOM     59  C   UNL A   1      42.872  27.192  29.770  1.00  0.00     0.074 A 
ATOM     60  C   UNL A   1      42.489  30.199  35.350  1.00  0.00     0.029 A 
ATOM     61  N   UNL A   1      42.141  29.490  33.271  1.00  0.00    -0.354 N 
ATOM     62  N   UNL A   1      42.700  27.837  30.901  1.00  0.00    -0.248 NA
ATOM     63  C   UNL A   1      44.091  26.376  29.726  1.00  0.00     0.031 C 
ATOM     64  C   UNL A   1      43.526  29.333  35.000  1.00  0.00     0.029 A 
ATOM     65  C   UNL A   1      43.296  28.867  33.716  1.00  0.00     0.049 A 
ATOM     66  H   UNL A   1      41.733  29.359  32.385  1.00  0.00     0.167 HD
ATOM     67  C   UNL A   1      43.785  27.500  31.703  1.00  0.00     0.074 A 
ATOM     68  C   UNL A   1      44.589  26.566  30.942  1.00  0.00     0.031 C 
ATOM     69  C   UNL A   1      44.091  27.934  32.951  1.00  0.00     0.034 A 
BRANCH  56  70
ATOM     70  C   UNL A   1      40.101  32.009  35.327  1.00  0.00     0.023 A 
ATOM     71  C   UNL A   1      39.177  31.539  36.280  1.00  0.00     0.031 A 
ATOM     72  C   UNL A   1      40.551  33.336  35.438  1.00  0.00     0.131 A 
ATOM     73  C   UNL A   1      38.705  32.400  37.280  1.00  0.00     0.055 A 
ATOM     74  C   UNL A   1      40.106  34.179  36.458  1.00  0.00     0.041 A 
ATOM     75  F   UNL A   1      41.433  33.833  34.555  1.00  0.00    -0.206 F 
ATOM     76  C   UNL A   1      39.169  33.715  37.376  1.00  0.00     0.022 A 
BRANCH  73  77
ATOM     77  S   UNL A   1      37.428  31.868  38.453  1.00  0.00     0.124 S 
ATOM     78  O   UNL A   1      36.327  32.771  38.125  1.00  0.00    -0.237 OA
ATOM     79  O   UNL A   1      37.225  30.474  38.072  1.00  0.00    -0.237 OA
ATOM     80  O   UNL A   1      38.039  32.085  39.759  1.00  0.00    -0.744 OA
ENDBRANCH  73  77
ENDBRANCH  56  70
BRANCH  57  81
ATOM     81  C   UNL A   1      42.288  26.328  27.362  1.00  0.00     0.023 A 
ATOM     82  C   UNL A   1      41.826  24.999  27.304  1.00  0.00     0.031 A 
ATOM     83  C   UNL A   1      43.142  26.774  26.341  1.00  0.00     0.131 A 
ATOM     84  C   UNL A   1      42.294  24.139  26.305  1.00  0.00     0.055 A 
ATOM     85  C   UNL A   1      43.543  25.935  25.299  1.00  0.00     0.041 A 
ATOM     86  F   UNL A   1      43.619  28.028  26.357  1.00  0.00    -0.206 F 
ATOM     87  C   UNL A   1      43.138  24.604  25.291  1.00  0.00     0.022 A 
BRANCH  84  88
ATOM     88  S   UNL A   1      41.963  22.356  26.387  1.00  0.00     0.124 S 
ATOM     89  O   UNL A   1      42.503  22.008  27.697  1.00  0.00    -0.237 OA
ATOM     90  O   UNL A   1      40.507  22.317  26.271  1.00  0.00    -0.237 OA
ATOM     91  O   UNL A   1      42.687  21.819  25.240  1.00  0.00    -0.744 OA
ENDBRANCH  84  88
ENDBRANCH  57  81
BRANCH  69  92
ATOM     92  C   UNL A   1      45.359  27.431  33.594  1.00  0.00     0.023 A 
ATOM     93  C   UNL A   1      45.326  26.304  34.436  1.00  0.00     0.031 A 
ATOM     94  C   UNL A   1      46.561  28.154  33.495  1.00  0.00     0.131 A 
ATOM     95  C   UNL A   1      46.461  25.956  35.178  1.00  0.00     0.055 A 
ATOM     96  C   UNL A   1      47.703  27.776  34.202  1.00  0.00     0.041 A 
ATOM     97  F   UNL A   1      46.638  29.242  32.710  1.00  0.00    -0.206 F 
ATOM     98  C   UNL A   1      47.651  26.682  35.060  1.00  0.00     0.022 A 
BRANCH  95  99
ATOM     99  S   UNL A   1      46.412  24.605  36.388  1.00  0.00     0.124 S 
ATOM    100  O   UNL A   1      45.510  23.654  35.741  1.00  0.00    -0.237 OA
ATOM    101  O   UNL A   1      47.812  24.195  36.449  1.00  0.00    -0.237 OA
ATOM    102  O   UNL A   1      45.887  25.233  37.596  1.00  0.00    -0.744 OA
ENDBRANCH  95  99
ENDBRANCH  69  92
ENDBRANCH  43  44
ENDBRANCH  35  38
ENDBRANCH  33  34
ENDBRANCH  32  33
ENDBRANCH  31  32
ENDBRANCH   1  31
TORSDOF 19
ENDMDL
MODEL 2
REMARK VINA RESULT:     -12.5      0.426      7.221
REMARK SMILES CCCCc1ncc(C[N@H+]2C[C@@H]3c4ccccc4OC[C@]3(C(=O)NCCCCNC(=O)c3ccc(-c4c5nc(c(-c6cc(S(=O)(=O)[O-])ccc6F)c6ccc([nH]6)c(-c6cc(S(=O)(=O)[O-])ccc6F)c6nc(c(-c7cc(S(=O)(=O)[O-])ccc7F)c7ccc4[nH]7)C=C6)C=C5)cc3)C2)[nH]1
REMARK SMILES IDX 25 1 24 2 22 3 23 4 21 6 10 7 11 8 95 9 12 11 13 12 20 13
REMARK SMILES IDX 14 14 18 15 19 16 15 17 17 18 16 19 9 20 8 21 5 22 6 23
REMARK SMILES IDX 96 24 7 25 4 27 3 28 2 29 1 30 26 31 27 32 28 33 29 34 30 35
REMARK SMILES IDX 31 37 32 38 33 39 94 40 34 41 93 42 35 43 36 44 37 45 87 46
REMARK SMILES IDX 38 47 92 48 86 49 88 50 39 51 91 52 85 53 84 54 40 56 72 57
REMARK SMILES IDX 52 58 71 59 53 60 56 61 70 62 89 63 54 64 55 65 69 67 90 68
REMARK SMILES IDX 57 69 41 70 42 71 50 72 43 73 49 74 51 75 48 76 44 77 45 78
REMARK SMILES IDX 46 79 47 80 73 81 74 82 82 83 75 84 81 85 83 86 80 87 76 88
REMARK SMILES IDX 77 89 78 90 79 91 58 92 59 93 67 94 60 95 66 96 68 97 65 98
REMARK SMILES IDX 61 99 62 100 63 101 64 102
REMARK H PARENT 24 5 10 10 96 26 29 36 88 55 56 66
REMARK Flexibility Score: inf
ROOT
ATOM      1  C   UNL A   1      32.231  26.710  26.262  1.00  0.00     0.116 C 
ENDROOT
BRANCH   1   2
ATOM      2  N   UNL A   1      31.069  25.850  26.432  1.00  0.00    -0.355 N 
ATOM      3  C   UNL A   1      31.101  24.469  26.351  1.00  0.00     0.236 C 
ATOM      4  O   UNL A   1      30.330  23.816  27.061  1.00  0.00    -0.274 OA
ATOM      5  H   UNL A   1      30.203  26.278  26.617  1.00  0.00     0.163 HD
BRANCH   3   6
ATOM      6  C   UNL A   1      32.113  23.857  25.319  1.00  0.00     0.144 C 
ATOM      7  N   UNL A   1      31.612  24.534  23.021  1.00  0.00    -0.328 N 
ATOM      8  C   UNL A   1      32.977  24.051  22.986  1.00  0.00     0.272 C 
ATOM      9  C   UNL A   1      31.421  24.988  24.398  1.00  0.00     0.284 C 
ATOM     10  H   UNL A   1      30.958  23.791  22.775  1.00  0.00     0.348 HD
ATOM     11  C   UNL A   1      33.438  24.140  24.454  1.00  0.00     0.103 C 
ATOM     12  C   UNL A   1      34.658  23.262  24.644  1.00  0.00     0.004 A 
ATOM     13  C   UNL A   1      32.940  23.534  26.654  1.00  0.00     0.253 C 
ATOM     14  C   UNL A   1      35.796  23.371  23.829  1.00  0.00     0.008 A 
ATOM     15  C   UNL A   1      34.694  22.375  25.709  1.00  0.00     0.123 A 
ATOM     16  O   UNL A   1      33.629  22.269  26.545  1.00  0.00    -0.492 OA
ATOM     17  C   UNL A   1      36.924  22.583  24.074  1.00  0.00     0.001 A 
ATOM     18  C   UNL A   1      35.810  21.581  25.959  1.00  0.00     0.047 A 
ATOM     19  C   UNL A   1      36.933  21.691  25.142  1.00  0.00     0.004 A 
BRANCH   7  20
ATOM     20  C   UNL A   1      31.241  25.499  21.983  1.00  0.00     0.319 C 
BRANCH  20  21
ATOM     21  C   UNL A   1      31.422  26.920  22.381  1.00  0.00     0.090 A 
ATOM     22  C   UNL A   1      30.888  28.904  23.214  1.00  0.00     0.106 A 
ATOM     23  N   UNL A   1      32.206  28.885  23.171  1.00  0.00    -0.241 NA
ATOM     24  N   UNL A   1      30.380  27.790  22.591  1.00  0.00    -0.341 N 
ATOM     25  C   UNL A   1      32.547  27.669  22.645  1.00  0.00     0.140 A 
ATOM     26  H   UNL A   1      29.439  27.643  22.341  1.00  0.00     0.168 HD
BRANCH  22  27
ATOM     27  C   UNL A   1      30.043  29.975  23.823  1.00  0.00     0.075 C 
BRANCH  27  28
ATOM     28  C   UNL A   1      29.060  30.668  22.873  1.00  0.00     0.008 C 
BRANCH  28  29
ATOM     29  C   UNL A   1      27.569  30.405  23.115  1.00  0.00    -0.003 C 
ATOM     30  C   UNL A   1      27.173  28.940  23.117  1.00  0.00     0.004 C 
ENDBRANCH  28  29
ENDBRANCH  27  28
ENDBRANCH  22  27
ENDBRANCH  20  21
ENDBRANCH   7  20
ENDBRANCH   3   6
ENDBRANCH   1   2
BRANCH   1  31
ATOM     31  C   UNL A   1      32.382  27.820  27.288  1.00  0.00     0.023 C 
BRANCH  31  32
ATOM     32  C   UNL A   1      31.806  29.177  26.904  1.00  0.00     0.023 C 
BRANCH  32  33
ATOM     33  C   UNL A   1      32.777  30.196  26.324  1.00  0.00     0.116 C 
BRANCH  33  34
ATOM     34  N   UNL A   1      32.661  31.532  26.887  1.00  0.00    -0.352 N 
ATOM     35  C   UNL A   1      33.574  32.244  27.634  1.00  0.00     0.251 C 
ATOM     36  H   UNL A   1      31.809  31.993  26.708  1.00  0.00     0.163 HD
ATOM     37  O   UNL A   1      33.288  33.360  28.060  1.00  0.00    -0.269 OA
BRANCH  35  38
ATOM     38  C   UNL A   1      34.872  31.622  27.969  1.00  0.00     0.039 A 
ATOM     39  C   UNL A   1      34.939  30.276  28.328  1.00  0.00     0.014 A 
ATOM     40  C   UNL A   1      36.014  32.425  28.028  1.00  0.00     0.014 A 
ATOM     41  C   UNL A   1      36.079  29.797  28.961  1.00  0.00     0.010 A 
ATOM     42  C   UNL A   1      37.195  31.907  28.566  1.00  0.00     0.010 A 
ATOM     43  C   UNL A   1      37.219  30.610  29.100  1.00  0.00    -0.014 A 
BRANCH  43  44
ATOM     44  C   UNL A   1      38.416  30.078  29.805  1.00  0.00     0.031 A 
ATOM     45  C   UNL A   1      39.338  29.091  29.138  1.00  0.00     0.074 A 
ATOM     46  C   UNL A   1      38.701  30.538  31.040  1.00  0.00     0.049 A 
ATOM     47  N   UNL A   1      40.431  28.543  29.606  1.00  0.00    -0.248 NA
ATOM     48  C   UNL A   1      38.995  28.659  27.774  1.00  0.00     0.031 C 
ATOM     49  C   UNL A   1      37.882  31.502  31.776  1.00  0.00     0.029 A 
ATOM     50  N   UNL A   1      39.755  30.286  31.881  1.00  0.00    -0.354 N 
ATOM     51  C   UNL A   1      40.890  27.688  28.611  1.00  0.00     0.074 A 
ATOM     52  C   UNL A   1      39.944  27.767  27.521  1.00  0.00     0.031 C 
ATOM     53  C   UNL A   1      38.496  31.810  32.925  1.00  0.00     0.029 A 
ATOM     54  C   UNL A   1      39.705  31.003  33.055  1.00  0.00     0.049 A 
ATOM     55  H   UNL A   1      40.479  29.655  31.665  1.00  0.00     0.167 HD
ATOM     56  C   UNL A   1      42.006  26.918  28.605  1.00  0.00     0.034 A 
ATOM     57  C   UNL A   1      40.524  31.001  34.125  1.00  0.00     0.034 A 
ATOM     58  C   UNL A   1      42.956  26.875  29.689  1.00  0.00     0.049 A 
ATOM     59  C   UNL A   1      41.740  30.116  34.106  1.00  0.00     0.074 A 
ATOM     60  C   UNL A   1      44.135  26.152  29.761  1.00  0.00     0.029 A 
ATOM     61  N   UNL A   1      42.846  27.578  30.880  1.00  0.00    -0.354 N 
ATOM     62  N   UNL A   1      42.173  29.337  33.142  1.00  0.00    -0.248 NA
ATOM     63  C   UNL A   1      42.576  30.099  35.312  1.00  0.00     0.031 C 
ATOM     64  C   UNL A   1      44.708  26.374  31.015  1.00  0.00     0.029 A 
ATOM     65  C   UNL A   1      43.922  27.285  31.703  1.00  0.00     0.049 A 
ATOM     66  H   UNL A   1      42.113  28.195  31.106  1.00  0.00     0.167 HD
ATOM     67  C   UNL A   1      43.335  28.741  33.624  1.00  0.00     0.074 A 
ATOM     68  C   UNL A   1      43.555  29.278  34.951  1.00  0.00     0.031 C 
ATOM     69  C   UNL A   1      44.136  27.826  33.024  1.00  0.00     0.034 A 
BRANCH  56  70
ATOM     70  C   UNL A   1      42.295  26.060  27.398  1.00  0.00     0.023 A 
ATOM     71  C   UNL A   1      41.883  24.713  27.376  1.00  0.00     0.031 A 
ATOM     72  C   UNL A   1      43.096  26.526  26.340  1.00  0.00     0.131 A 
ATOM     73  C   UNL A   1      42.302  23.871  26.338  1.00  0.00     0.055 A 
ATOM     74  C   UNL A   1      43.481  25.692  25.289  1.00  0.00     0.041 A 
ATOM     75  F   UNL A   1      43.515  27.802  26.313  1.00  0.00    -0.206 F 
ATOM     76  C   UNL A   1      43.095  24.354  25.292  1.00  0.00     0.022 A 
BRANCH  73  77
ATOM     77  S   UNL A   1      41.891  22.104  26.336  1.00  0.00     0.124 S 
ATOM     78  O   UNL A   1      42.670  21.618  25.199  1.00  0.00    -0.237 OA
ATOM     79  O   UNL A   1      42.368  21.678  27.648  1.00  0.00    -0.237 OA
ATOM     80  O   UNL A   1      40.445  22.081  26.150  1.00  0.00    -0.744 OA
ENDBRANCH  73  77
ENDBRANCH  56  70
BRANCH  57  81
ATOM     81  C   UNL A   1      40.210  31.899  35.275  1.00  0.00     0.023 A 
ATOM     82  C   UNL A   1      39.328  31.487  36.292  1.00  0.00     0.031 A 
ATOM     83  C   UNL A   1      40.676  33.223  35.303  1.00  0.00     0.131 A 
ATOM     84  C   UNL A   1      38.866  32.413  37.234  1.00  0.00     0.055 A 
ATOM     85  C   UNL A   1      40.276  34.123  36.293  1.00  0.00     0.041 A 
ATOM     86  F   UNL A   1      41.509  33.668  34.350  1.00  0.00    -0.206 F 
ATOM     87  C   UNL A   1      39.348  33.725  37.252  1.00  0.00     0.022 A 
BRANCH  84  88
ATOM     88  S   UNL A   1      37.502  31.992  38.355  1.00  0.00     0.124 S 
ATOM     89  O   UNL A   1      38.084  32.276  39.662  1.00  0.00    -0.237 OA
ATOM     90  O   UNL A   1      36.457  32.913  37.914  1.00  0.00    -0.237 OA
ATOM     91  O   UNL A   1      37.244  30.585  38.068  1.00  0.00    -0.744 OA
ENDBRANCH  84  88
ENDBRANCH  57  81
BRANCH  69  92
ATOM     92  C   UNL A   1      45.332  27.312  33.787  1.00  0.00     0.023 A 
ATOM     93  C   UNL A   1      45.167  26.334  34.785  1.00  0.00     0.031 A 
ATOM     94  C   UNL A   1      46.600  27.899  33.630  1.00  0.00     0.131 A 
ATOM     95  C   UNL A   1      46.243  26.000  35.616  1.00  0.00     0.055 A 
ATOM     96  C   UNL A   1      47.681  27.529  34.432  1.00  0.00     0.041 A 
ATOM     97  F   UNL A   1      46.803  28.843  32.696  1.00  0.00    -0.206 F 
ATOM     98  C   UNL A   1      47.500  26.587  35.440  1.00  0.00     0.022 A 
BRANCH  95  99
ATOM     99  S   UNL A   1      46.031  24.859  37.010  1.00  0.00     0.124 S 
ATOM    100  O   UNL A   1      44.626  25.063  37.356  1.00  0.00    -0.237 OA
ATOM    101  O   UNL A   1      46.343  23.568  36.403  1.00  0.00    -0.237 OA
ATOM    102  O   UNL A   1      46.989  25.334  38.003  1.00  0.00    -0.744 OA
ENDBRANCH  95  99
ENDBRANCH  69  92
ENDBRANCH  43  44
ENDBRANCH  35  38
ENDBRANCH  33  34
ENDBRANCH  32  33
ENDBRANCH  31  32
ENDBRANCH   1  31
TORSDOF 19
ENDMDL
MODEL 3
REMARK VINA RESULT:     -12.3      1.829      4.403
REMARK SMILES CCCCc1ncc(C[N@H+]2C[C@@H]3c4ccccc4OC[C@]3(C(=O)NCCCCNC(=O)c3ccc(-c4c5nc(c(-c6cc(S(=O)(=O)[O-])ccc6F)c6ccc([nH]6)c(-c6cc(S(=O)(=O)[O-])ccc6F)c6nc(c(-c7cc(S(=O)(=O)[O-])ccc7F)c7ccc4[nH]7)C=C6)C=C5)cc3)C2)[nH]1
REMARK SMILES IDX 25 1 24 2 22 3 23 4 21 6 10 7 11 8 95 9 12 11 13 12 20 13
REMARK SMILES IDX 14 14 18 15 19 16 15 17 17 18 16 19 9 20 8 21 5 22 6 23
REMARK SMILES IDX 96 24 7 25 4 27 3 28 2 29 1 30 26 31 27 32 28 33 29 34 30 35
REMARK SMILES IDX 31 37 32 38 33 39 94 40 34 41 93 42 35 43 36 44 37 45 87 46
REMARK SMILES IDX 38 47 92 48 86 49 88 50 39 51 91 52 85 53 84 54 40 56 72 57
REMARK SMILES IDX 52 58 71 59 53 60 56 61 70 62 89 63 54 64 55 65 69 67 90 68
REMARK SMILES IDX 57 69 41 70 42 71 50 72 43 73 49 74 51 75 48 76 44 77 45 78
REMARK SMILES IDX 46 79 47 80 73 81 74 82 82 83 75 84 81 85 83 86 80 87 76 88
REMARK SMILES IDX 77 89 78 90 79 91 58 92 59 93 67 94 60 95 66 96 68 97 65 98
REMARK SMILES IDX 61 99 62 100 63 101 64 102
REMARK H PARENT 24 5 10 10 96 26 29 36 88 55 56 66
REMARK Flexibility Score: inf
ROOT
ATOM      1  C   UNL A   1      32.075  27.092  26.935  1.00  0.00     0.116 C 
ENDROOT
BRANCH   1   2
ATOM      2  N   UNL A   1      30.928  26.199  26.838  1.00  0.00    -0.355 N 
ATOM      3  C   UNL A   1      30.989  24.896  26.379  1.00  0.00     0.236 C 
ATOM      4  O   UNL A   1      30.222  24.059  26.866  1.00  0.00    -0.274 OA
ATOM      5  H   UNL A   1      30.051  26.546  27.118  1.00  0.00     0.163 HD
BRANCH   3   6
ATOM      6  C   UNL A   1      32.028  24.609  25.238  1.00  0.00     0.144 C 
ATOM      7  N   UNL A   1      33.605  22.839  25.847  1.00  0.00    -0.328 N 
ATOM      8  C   UNL A   1      33.706  22.960  24.407  1.00  0.00     0.272 C 
ATOM      9  C   UNL A   1      32.254  23.302  26.158  1.00  0.00     0.284 C 
ATOM     10  H   UNL A   1      34.314  23.409  26.308  1.00  0.00     0.348 HD
ATOM     11  C   UNL A   1      32.388  23.648  24.001  1.00  0.00     0.103 C 
ATOM     12  C   UNL A   1      32.545  24.239  22.614  1.00  0.00     0.004 A 
ATOM     13  C   UNL A   1      30.997  25.486  24.380  1.00  0.00     0.253 C 
ATOM     14  C   UNL A   1      32.988  23.480  21.520  1.00  0.00     0.008 A 
ATOM     15  C   UNL A   1      32.162  25.554  22.392  1.00  0.00     0.123 A 
ATOM     16  O   UNL A   1      31.689  26.309  23.417  1.00  0.00    -0.492 OA
ATOM     17  C   UNL A   1      33.064  24.047  20.245  1.00  0.00     0.001 A 
ATOM     18  C   UNL A   1      32.238  26.131  21.127  1.00  0.00     0.047 A 
ATOM     19  C   UNL A   1      32.684  25.372  20.048  1.00  0.00     0.004 A 
BRANCH   7  20
ATOM     20  C   UNL A   1      33.972  21.538  26.414  1.00  0.00     0.319 C 
BRANCH  20  21
ATOM     21  C   UNL A   1      33.680  20.384  25.524  1.00  0.00     0.090 A 
ATOM     22  C   UNL A   1      34.013  18.450  24.492  1.00  0.00     0.106 A 
ATOM     23  N   UNL A   1      32.716  18.672  24.410  1.00  0.00    -0.241 NA
ATOM     24  N   UNL A   1      34.648  19.548  25.020  1.00  0.00    -0.341 N 
ATOM     25  C   UNL A   1      32.501  19.872  25.032  1.00  0.00     0.140 A 
ATOM     26  H   UNL A   1      35.619  19.707  25.035  1.00  0.00     0.168 HD
BRANCH  22  27
ATOM     27  C   UNL A   1      34.722  17.207  24.063  1.00  0.00     0.075 C 
BRANCH  27  28
ATOM     28  C   UNL A   1      34.666  16.035  25.050  1.00  0.00     0.008 C 
BRANCH  28  29
ATOM     29  C   UNL A   1      33.377  15.884  25.865  1.00  0.00    -0.003 C 
ATOM     30  C   UNL A   1      32.474  14.746  25.425  1.00  0.00     0.004 C 
ENDBRANCH  28  29
ENDBRANCH  27  28
ENDBRANCH  22  27
ENDBRANCH  20  21
ENDBRANCH   7  20
ENDBRANCH   3   6
ENDBRANCH   1   2
BRANCH   1  31
ATOM     31  C   UNL A   1      31.818  28.418  27.629  1.00  0.00     0.023 C 
BRANCH  31  32
ATOM     32  C   UNL A   1      31.495  29.601  26.726  1.00  0.00     0.023 C 
BRANCH  32  33
ATOM     33  C   UNL A   1      32.647  30.539  26.385  1.00  0.00     0.116 C 
BRANCH  33  34
ATOM     34  N   UNL A   1      32.515  31.882  26.926  1.00  0.00    -0.352 N 
ATOM     35  C   UNL A   1      33.430  32.626  27.640  1.00  0.00     0.251 C 
ATOM     36  H   UNL A   1      31.650  32.322  26.759  1.00  0.00     0.163 HD
ATOM     37  O   UNL A   1      33.129  33.742  28.052  1.00  0.00    -0.269 OA
BRANCH  35  38
ATOM     38  C   UNL A   1      34.748  32.036  27.956  1.00  0.00     0.039 A 
ATOM     39  C   UNL A   1      34.851  30.696  28.329  1.00  0.00     0.014 A 
ATOM     40  C   UNL A   1      35.872  32.865  27.984  1.00  0.00     0.014 A 
ATOM     41  C   UNL A   1      36.014  30.250  28.945  1.00  0.00     0.010 A 
ATOM     42  C   UNL A   1      37.075  32.379  28.504  1.00  0.00     0.010 A 
ATOM     43  C   UNL A   1      37.138  31.089  29.052  1.00  0.00    -0.014 A 
BRANCH  43  44
ATOM     44  C   UNL A   1      38.360  30.592  29.740  1.00  0.00     0.031 A 
ATOM     45  C   UNL A   1      38.680  31.004  31.153  1.00  0.00     0.074 A 
ATOM     46  C   UNL A   1      39.156  29.715  29.096  1.00  0.00     0.049 A 
ATOM     47  N   UNL A   1      39.694  30.650  31.901  1.00  0.00    -0.248 NA
ATOM     48  C   UNL A   1      37.751  31.933  31.815  1.00  0.00     0.031 C 
ATOM     49  C   UNL A   1      38.935  29.240  27.730  1.00  0.00     0.029 A 
ATOM     50  N   UNL A   1      40.285  29.049  29.502  1.00  0.00    -0.354 N 
ATOM     51  C   UNL A   1      39.540  31.326  33.106  1.00  0.00     0.074 A 
ATOM     52  C   UNL A   1      38.348  32.135  32.983  1.00  0.00     0.031 C 
ATOM     53  C   UNL A   1      39.854  28.313  27.435  1.00  0.00     0.029 A 
ATOM     54  C   UNL A   1      40.785  28.188  28.552  1.00  0.00     0.049 A 
ATOM     55  H   UNL A   1      40.695  29.173  30.388  1.00  0.00     0.167 HD
ATOM     56  C   UNL A   1      40.316  31.266  34.216  1.00  0.00     0.034 A 
ATOM     57  C   UNL A   1      41.878  27.400  28.564  1.00  0.00     0.034 A 
ATOM     58  C   UNL A   1      41.484  30.431  34.333  1.00  0.00     0.049 A 
ATOM     59  C   UNL A   1      42.739  27.373  29.797  1.00  0.00     0.074 A 
ATOM     60  C   UNL A   1      42.315  30.275  35.430  1.00  0.00     0.029 A 
ATOM     61  N   UNL A   1      41.986  29.610  33.333  1.00  0.00    -0.354 N 
ATOM     62  N   UNL A   1      42.559  27.998  30.938  1.00  0.00    -0.248 NA
ATOM     63  C   UNL A   1      43.952  26.547  29.751  1.00  0.00     0.031 C 
ATOM     64  C   UNL A   1      43.349  29.407  35.075  1.00  0.00     0.029 A 
ATOM     65  C   UNL A   1      43.130  28.967  33.780  1.00  0.00     0.049 A 
ATOM     66  H   UNL A   1      41.588  29.499  32.440  1.00  0.00     0.167 HD
ATOM     67  C   UNL A   1      43.631  27.636  31.747  1.00  0.00     0.074 A 
ATOM     68  C   UNL A   1      44.436  26.710  30.976  1.00  0.00     0.031 C 
ATOM     69  C   UNL A   1      43.926  28.043  33.006  1.00  0.00     0.034 A 
BRANCH  56  70
ATOM     70  C   UNL A   1      39.944  32.106  35.414  1.00  0.00     0.023 A 
ATOM     71  C   UNL A   1      39.063  31.595  36.386  1.00  0.00     0.031 A 
ATOM     72  C   UNL A   1      40.342  33.451  35.520  1.00  0.00     0.131 A 
ATOM     73  C   UNL A   1      38.580  32.432  37.401  1.00  0.00     0.055 A 
ATOM     74  C   UNL A   1      39.887  34.271  36.554  1.00  0.00     0.041 A 
ATOM     75  F   UNL A   1      41.181  33.986  34.619  1.00  0.00    -0.206 F 
ATOM     76  C   UNL A   1      38.991  33.765  37.492  1.00  0.00     0.022 A 
BRANCH  73  77
ATOM     77  S   UNL A   1      37.354  31.845  38.601  1.00  0.00     0.124 S 
ATOM     78  O   UNL A   1      37.160  30.460  38.177  1.00  0.00    -0.237 OA
ATOM     79  O   UNL A   1      38.061  32.016  39.867  1.00  0.00    -0.237 OA
ATOM     80  O   UNL A   1      36.209  32.723  38.393  1.00  0.00    -0.744 OA
ENDBRANCH  73  77
ENDBRANCH  56  70
BRANCH  57  81
ATOM     81  C   UNL A   1      42.176  26.561  27.366  1.00  0.00     0.023 A 
ATOM     82  C   UNL A   1      41.761  25.217  27.306  1.00  0.00     0.031 A 
ATOM     83  C   UNL A   1      42.994  27.046  26.332  1.00  0.00     0.131 A 
ATOM     84  C   UNL A   1      42.240  24.383  26.289  1.00  0.00     0.055 A 
ATOM     85  C   UNL A   1      43.403  26.231  25.275  1.00  0.00     0.041 A 
ATOM     86  F   UNL A   1      43.426  28.316  26.350  1.00  0.00    -0.206 F 
ATOM     87  C   UNL A   1      43.046  24.885  25.264  1.00  0.00     0.022 A 
BRANCH  84  88
ATOM     88  S   UNL A   1      41.974  22.588  26.363  1.00  0.00     0.124 S 
ATOM     89  O   UNL A   1      42.589  22.243  27.640  1.00  0.00    -0.237 OA
ATOM     90  O   UNL A   1      40.516  22.500  26.317  1.00  0.00    -0.237 OA
ATOM     91  O   UNL A   1      42.659  22.091  25.174  1.00  0.00    -0.744 OA
ENDBRANCH  84  88
ENDBRANCH  57  81
BRANCH  69  92
ATOM     92  C   UNL A   1      45.182  27.516  33.654  1.00  0.00     0.023 A 
ATOM     93  C   UNL A   1      45.126  26.384  34.488  1.00  0.00     0.031 A 
ATOM     94  C   UNL A   1      46.395  28.222  33.568  1.00  0.00     0.131 A 
ATOM     95  C   UNL A   1      46.250  26.013  35.235  1.00  0.00     0.055 A 
ATOM     96  C   UNL A   1      47.526  27.821  34.280  1.00  0.00     0.041 A 
ATOM     97  F   UNL A   1      46.494  29.314  32.792  1.00  0.00    -0.206 F 
ATOM     98  C   UNL A   1      47.452  26.722  35.130  1.00  0.00     0.022 A 
BRANCH  95  99
ATOM     99  S   UNL A   1      46.173  24.655  36.435  1.00  0.00     0.124 S 
ATOM    100  O   UNL A   1      45.174  25.146  37.382  1.00  0.00    -0.237 OA
ATOM    101  O   UNL A   1      45.745  23.533  35.603  1.00  0.00    -0.237 OA
ATOM    102  O   UNL A   1      47.532  24.567  36.957  1.00  0.00    -0.744 OA
ENDBRANCH  95  99
ENDBRANCH  69  92
ENDBRANCH  43  44
ENDBRANCH  35  38
ENDBRANCH  33  34
ENDBRANCH  32  33
ENDBRANCH  31  32
ENDBRANCH   1  31
TORSDOF 19
ENDMDL
