MODEL 1
REMARK VINA RESULT:     -14.0      0.000      0.000
REMARK SMILES CC1(C)Oc2ccc(NC(=O)[C@H]3CC=CC[C@@H]3C(=O)NCCCCNC(=O)c3ccc(-c4c5nc(c(-c6cc(S(=O)(=O)[O-])ccc6F)c6ccc([nH]6)c(-c6cc(S(=O)(=O)[O-])ccc6F)c6nc(c(-c7cc(S(=O)(=O)[O-])ccc7F)c7ccc4[nH]7)C=C6)C=C5)cc3)cc2NC1=O
REMARK SMILES IDX 23 1 22 2 21 3 20 4 18 5 19 6 17 8 12 9 13 10 14 11 16 12
REMARK SMILES IDX 15 13 10 14 9 15 11 17 8 18 1 19 2 20 3 21 4 22 94 23 5 24
REMARK SMILES IDX 93 25 95 26 6 27 92 28 7 30 91 31 24 32 25 33 26 34 27 36
REMARK SMILES IDX 28 37 29 38 90 39 30 40 89 41 31 42 32 43 33 44 83 45 34 46
REMARK SMILES IDX 88 47 82 48 84 49 35 50 87 51 81 52 80 53 36 55 68 56 48 57
REMARK SMILES IDX 67 58 49 59 52 60 66 61 85 62 50 63 51 64 65 66 86 67 53 68
REMARK SMILES IDX 37 69 38 70 46 71 39 72 45 73 47 74 44 75 40 76 41 77 42 78
REMARK SMILES IDX 43 79 69 80 70 81 78 82 71 83 77 84 79 85 76 86 72 87 73 88
REMARK SMILES IDX 74 89 75 90 54 91 55 92 63 93 56 94 62 95 64 96 61 97 57 98
REMARK SMILES IDX 58 99 59 100 60 101
REMARK H PARENT 20 7 9 16 93 29 25 35 84 54 52 65
REMARK Flexibility Score: inf
ROOT
ATOM      1  C   UNL A   1      31.799  29.030  27.138  1.00  0.00     0.023 C 
ENDROOT
BRANCH   1   2
ATOM      2  C   UNL A   1      32.230  27.569  26.986  1.00  0.00     0.023 C 
BRANCH   2   3
ATOM      3  C   UNL A   1      31.190  26.607  26.412  1.00  0.00     0.116 C 
BRANCH   3   4
ATOM      4  N   UNL A   1      31.428  25.223  26.774  1.00  0.00    -0.356 N 
ATOM      5  C   UNL A   1      32.365  24.335  26.343  1.00  0.00     0.224 C 
ATOM      6  O   UNL A   1      32.477  23.295  26.994  1.00  0.00    -0.275 OA
ATOM      7  H   UNL A   1      30.806  24.865  27.447  1.00  0.00     0.163 HD
BRANCH   5   8
ATOM      8  C   UNL A   1      33.191  24.613  25.085  1.00  0.00     0.095 C 
ATOM      9  C   UNL A   1      32.510  23.969  23.851  1.00  0.00     0.095 C 
ATOM     10  C   UNL A   1      32.513  22.431  24.002  1.00  0.00     0.041 C 
ATOM     11  C   UNL A   1      33.864  21.885  24.359  1.00  0.00    -0.030 C 
ATOM     12  C   UNL A   1      34.637  24.087  25.270  1.00  0.00     0.041 C 
ATOM     13  C   UNL A   1      34.827  22.639  24.905  1.00  0.00    -0.030 C 
BRANCH   9  14
ATOM     14  C   UNL A   1      33.215  24.399  22.549  1.00  0.00     0.228 C 
ATOM     15  N   UNL A   1      32.728  25.465  21.841  1.00  0.00    -0.326 N 
ATOM     16  H   UNL A   1      32.825  25.401  20.863  1.00  0.00     0.169 HD
ATOM     17  O   UNL A   1      34.168  23.779  22.072  1.00  0.00    -0.274 OA
BRANCH  15  18
ATOM     18  C   UNL A   1      32.113  26.634  22.307  1.00  0.00     0.043 A 
ATOM     19  C   UNL A   1      28.293  31.491  23.704  1.00  0.00     0.067 C 
ATOM     20  C   UNL A   1      28.887  30.330  22.904  1.00  0.00     0.182 C 
ATOM     21  C   UNL A   1      28.878  30.698  21.409  1.00  0.00     0.067 C 
ATOM     22  O   UNL A   1      30.248  30.199  23.335  1.00  0.00    -0.476 OA
ATOM     23  C   UNL A   1      28.019  29.063  23.091  1.00  0.00     0.268 C 
ATOM     24  C   UNL A   1      30.820  28.999  23.013  1.00  0.00     0.144 A 
ATOM     25  N   UNL A   1      28.685  27.883  22.864  1.00  0.00    -0.319 N 
ATOM     26  O   UNL A   1      26.808  29.072  23.299  1.00  0.00    -0.270 OA
ATOM     27  C   UNL A   1      32.209  28.957  22.981  1.00  0.00     0.051 A 
ATOM     28  C   UNL A   1      30.075  27.849  22.735  1.00  0.00     0.086 A 
ATOM     29  H   UNL A   1      28.173  27.045  22.789  1.00  0.00     0.170 HD
ATOM     30  C   UNL A   1      32.857  27.774  22.624  1.00  0.00     0.030 A 
ATOM     31  C   UNL A   1      30.716  26.671  22.357  1.00  0.00     0.056 A 
ENDBRANCH  15  18
ENDBRANCH   9  14
ENDBRANCH   5   8
ENDBRANCH   3   4
ENDBRANCH   2   3
ENDBRANCH   1   2
BRANCH   1  32
ATOM     32  C   UNL A   1      32.562  30.062  26.314  1.00  0.00     0.116 C 
BRANCH  32  33
ATOM     33  N   UNL A   1      32.398  31.430  26.779  1.00  0.00    -0.352 N 
ATOM     34  C   UNL A   1      33.279  32.229  27.479  1.00  0.00     0.251 C 
ATOM     35  H   UNL A   1      31.532  31.847  26.563  1.00  0.00     0.163 HD
ATOM     36  O   UNL A   1      32.917  33.344  27.848  1.00  0.00    -0.269 OA
BRANCH  34  37
ATOM     37  C   UNL A   1      34.630  31.728  27.839  1.00  0.00     0.039 A 
ATOM     38  C   UNL A   1      34.855  30.382  28.127  1.00  0.00     0.014 A 
ATOM     39  C   UNL A   1      35.691  32.638  27.924  1.00  0.00     0.014 A 
ATOM     40  C   UNL A   1      36.066  29.987  28.693  1.00  0.00     0.010 A 
ATOM     41  C   UNL A   1      36.936  32.220  28.412  1.00  0.00     0.010 A 
ATOM     42  C   UNL A   1      37.113  30.907  28.871  1.00  0.00    -0.014 A 
BRANCH  42  43
ATOM     43  C   UNL A   1      38.353  30.477  29.579  1.00  0.00     0.031 A 
ATOM     44  C   UNL A   1      38.626  30.922  30.995  1.00  0.00     0.074 A 
ATOM     45  C   UNL A   1      39.202  29.619  28.978  1.00  0.00     0.049 A 
ATOM     46  N   UNL A   1      39.603  30.574  31.795  1.00  0.00    -0.248 NA
ATOM     47  C   UNL A   1      37.682  31.881  31.593  1.00  0.00     0.031 C 
ATOM     48  C   UNL A   1      39.054  29.123  27.611  1.00  0.00     0.029 A 
ATOM     49  N   UNL A   1      40.333  28.990  29.441  1.00  0.00    -0.354 N 
ATOM     50  C   UNL A   1      39.396  31.272  32.981  1.00  0.00     0.074 A 
ATOM     51  C   UNL A   1      38.229  32.100  32.781  1.00  0.00     0.031 C 
ATOM     52  C   UNL A   1      40.021  28.227  27.363  1.00  0.00     0.029 A 
ATOM     53  C   UNL A   1      40.892  28.121  28.532  1.00  0.00     0.049 A 
ATOM     54  H   UNL A   1      40.708  29.148  30.337  1.00  0.00     0.167 HD
ATOM     55  C   UNL A   1      40.099  31.211  34.138  1.00  0.00     0.034 A 
ATOM     56  C   UNL A   1      41.978  27.324  28.622  1.00  0.00     0.034 A 
ATOM     57  C   UNL A   1      41.254  30.372  34.336  1.00  0.00     0.049 A 
ATOM     58  C   UNL A   1      42.744  27.271  29.920  1.00  0.00     0.074 A 
ATOM     59  C   UNL A   1      42.033  30.246  35.473  1.00  0.00     0.029 A 
ATOM     60  N   UNL A   1      41.786  29.508  33.391  1.00  0.00    -0.354 N 
ATOM     61  N   UNL A   1      42.506  27.908  31.043  1.00  0.00    -0.248 NA
ATOM     62  C   UNL A   1      43.915  26.385  29.974  1.00  0.00     0.031 C 
ATOM     63  C   UNL A   1      43.063  29.344  35.200  1.00  0.00     0.029 A 
ATOM     64  C   UNL A   1      42.886  28.852  33.917  1.00  0.00     0.049 A 
ATOM     65  H   UNL A   1      41.434  29.379  32.481  1.00  0.00     0.167 HD
ATOM     66  C   UNL A   1      43.477  27.478  31.943  1.00  0.00     0.074 A 
ATOM     67  C   UNL A   1      44.293  26.509  31.242  1.00  0.00     0.031 C 
ATOM     68  C   UNL A   1      43.676  27.859  33.229  1.00  0.00     0.034 A 
BRANCH  55  69
ATOM     69  C   UNL A   1      39.642  32.051  35.306  1.00  0.00     0.023 A 
ATOM     70  C   UNL A   1      38.870  31.475  36.333  1.00  0.00     0.031 A 
ATOM     71  C   UNL A   1      39.856  33.440  35.335  1.00  0.00     0.131 A 
ATOM     72  C   UNL A   1      38.310  32.291  37.325  1.00  0.00     0.055 A 
ATOM     73  C   UNL A   1      39.331  34.243  36.349  1.00  0.00     0.041 A 
ATOM     74  F   UNL A   1      40.588  34.037  34.380  1.00  0.00    -0.206 F 
ATOM     75  C   UNL A   1      38.543  33.670  37.342  1.00  0.00     0.022 A 
BRANCH  72  76
ATOM     76  S   UNL A   1      37.209  31.609  38.594  1.00  0.00     0.124 S 
ATOM     77  O   UNL A   1      36.046  32.488  38.485  1.00  0.00    -0.237 OA
ATOM     78  O   UNL A   1      37.004  30.243  38.120  1.00  0.00    -0.237 OA
ATOM     79  O   UNL A   1      37.972  31.740  39.830  1.00  0.00    -0.744 OA
ENDBRANCH  72  76
ENDBRANCH  55  69
BRANCH  56  80
ATOM     80  C   UNL A   1      42.347  26.468  27.455  1.00  0.00     0.023 A 
ATOM     81  C   UNL A   1      41.886  25.142  27.361  1.00  0.00     0.031 A 
ATOM     82  C   UNL A   1      43.251  26.923  26.481  1.00  0.00     0.131 A 
ATOM     83  C   UNL A   1      42.385  24.299  26.360  1.00  0.00     0.055 A 
ATOM     84  C   UNL A   1      43.688  26.101  25.440  1.00  0.00     0.041 A 
ATOM     85  F   UNL A   1      43.732  28.175  26.535  1.00  0.00    -0.206 F 
ATOM     86  C   UNL A   1      43.270  24.775  25.389  1.00  0.00     0.022 A 
BRANCH  83  87
ATOM     87  S   UNL A   1      42.020  22.521  26.378  1.00  0.00     0.124 S 
ATOM     88  O   UNL A   1      42.619  22.076  25.125  1.00  0.00    -0.237 OA
ATOM     89  O   UNL A   1      42.705  22.088  27.594  1.00  0.00    -0.237 OA
ATOM     90  O   UNL A   1      40.563  22.469  26.437  1.00  0.00    -0.744 OA
ENDBRANCH  83  87
ENDBRANCH  56  80
BRANCH  68  91
ATOM     91  C   UNL A   1      44.803  27.227  34.013  1.00  0.00     0.023 A 
ATOM     92  C   UNL A   1      44.551  26.091  34.807  1.00  0.00     0.031 A 
ATOM     93  C   UNL A   1      46.066  27.835  34.105  1.00  0.00     0.131 A 
ATOM     94  C   UNL A   1      45.535  25.622  35.687  1.00  0.00     0.055 A 
ATOM     95  C   UNL A   1      47.059  27.337  34.951  1.00  0.00     0.041 A 
ATOM     96  F   UNL A   1      46.350  28.930  33.381  1.00  0.00    -0.206 F 
ATOM     97  C   UNL A   1      46.789  26.235  35.757  1.00  0.00     0.022 A 
BRANCH  94  98
ATOM     98  S   UNL A   1      45.192  24.262  36.838  1.00  0.00     0.124 S 
ATOM     99  O   UNL A   1      44.587  23.266  35.957  1.00  0.00    -0.237 OA
ATOM    100  O   UNL A   1      46.527  23.930  37.329  1.00  0.00    -0.237 OA
ATOM    101  O   UNL A   1      44.291  24.851  37.823  1.00  0.00    -0.744 OA
ENDBRANCH  94  98
ENDBRANCH  68  91
ENDBRANCH  42  43
ENDBRANCH  34  37
ENDBRANCH  32  33
ENDBRANCH   1  32
TORSDOF 16
ENDMDL
MODEL 2
REMARK VINA RESULT:     -13.7      4.868     10.302
REMARK SMILES CC1(C)Oc2ccc(NC(=O)[C@H]3CC=CC[C@@H]3C(=O)NCCCCNC(=O)c3ccc(-c4c5nc(c(-c6cc(S(=O)(=O)[O-])ccc6F)c6ccc([nH]6)c(-c6cc(S(=O)(=O)[O-])ccc6F)c6nc(c(-c7cc(S(=O)(=O)[O-])ccc7F)c7ccc4[nH]7)C=C6)C=C5)cc3)cc2NC1=O
REMARK SMILES IDX 23 1 22 2 21 3 20 4 18 5 19 6 17 8 12 9 13 10 14 11 16 12
REMARK SMILES IDX 15 13 10 14 9 15 11 17 8 18 1 19 2 20 3 21 4 22 94 23 5 24
REMARK SMILES IDX 93 25 95 26 6 27 92 28 7 30 91 31 24 32 25 33 26 34 27 36
REMARK SMILES IDX 28 37 29 38 90 39 30 40 89 41 31 42 32 43 33 44 83 45 34 46
REMARK SMILES IDX 88 47 82 48 84 49 35 50 87 51 81 52 80 53 36 55 68 56 48 57
REMARK SMILES IDX 67 58 49 59 52 60 66 61 85 62 50 63 51 64 65 66 86 67 53 68
REMARK SMILES IDX 37 69 38 70 46 71 39 72 45 73 47 74 44 75 40 76 41 77 42 78
REMARK SMILES IDX 43 79 69 80 70 81 78 82 71 83 77 84 79 85 76 86 72 87 73 88
REMARK SMILES IDX 74 89 75 90 54 91 55 92 63 93 56 94 62 95 64 96 61 97 57 98
REMARK SMILES IDX 58 99 59 100 60 101
REMARK H PARENT 20 7 9 16 93 29 25 35 84 54 52 65
REMARK Flexibility Score: inf
ROOT
ATOM      1  C   UNL A   1      36.525  22.516  24.260  1.00  0.00     0.023 C 
ENDROOT
BRANCH   1   2
ATOM      2  C   UNL A   1      35.532  23.681  24.227  1.00  0.00     0.023 C 
BRANCH   2   3
ATOM      3  C   UNL A   1      34.454  23.629  23.143  1.00  0.00     0.116 C 
BRANCH   3   4
ATOM      4  N   UNL A   1      34.065  24.939  22.659  1.00  0.00    -0.356 N 
ATOM      5  C   UNL A   1      33.594  26.032  23.320  1.00  0.00     0.224 C 
ATOM      6  O   UNL A   1      33.564  27.088  22.685  1.00  0.00    -0.275 OA
ATOM      7  H   UNL A   1      34.158  25.059  21.687  1.00  0.00     0.163 HD
BRANCH   5   8
ATOM      8  C   UNL A   1      33.087  25.922  24.759  1.00  0.00     0.095 C 
ATOM      9  C   UNL A   1      31.539  25.843  24.772  1.00  0.00     0.095 C 
ATOM     10  C   UNL A   1      30.950  27.168  24.239  1.00  0.00     0.041 C 
ATOM     11  C   UNL A   1      31.545  28.377  24.899  1.00  0.00    -0.030 C 
ATOM     12  C   UNL A   1      33.598  27.121  25.598  1.00  0.00     0.041 C 
ATOM     13  C   UNL A   1      32.725  28.346  25.533  1.00  0.00    -0.030 C 
BRANCH   9  14
ATOM     14  C   UNL A   1      31.018  25.535  26.190  1.00  0.00     0.228 C 
ATOM     15  N   UNL A   1      30.964  24.236  26.620  1.00  0.00    -0.326 N 
ATOM     16  H   UNL A   1      30.218  24.023  27.225  1.00  0.00     0.169 HD
ATOM     17  O   UNL A   1      30.576  26.408  26.941  1.00  0.00    -0.274 OA
BRANCH  15  18
ATOM     18  C   UNL A   1      31.820  23.168  26.324  1.00  0.00     0.043 A 
ATOM     19  C   UNL A   1      34.604  17.803  24.423  1.00  0.00     0.067 C 
ATOM     20  C   UNL A   1      33.490  18.743  24.888  1.00  0.00     0.182 C 
ATOM     21  C   UNL A   1      32.543  17.970  25.825  1.00  0.00     0.067 C 
ATOM     22  O   UNL A   1      34.127  19.783  25.640  1.00  0.00    -0.476 OA
ATOM     23  C   UNL A   1      32.667  19.228  23.670  1.00  0.00     0.268 C 
ATOM     24  C   UNL A   1      33.354  20.898  25.815  1.00  0.00     0.144 A 
ATOM     25  N   UNL A   1      32.005  20.414  23.872  1.00  0.00    -0.319 N 
ATOM     26  O   UNL A   1      32.496  18.577  22.642  1.00  0.00    -0.270 OA
ATOM     27  C   UNL A   1      33.693  21.735  26.871  1.00  0.00     0.051 A 
ATOM     28  C   UNL A   1      32.275  21.214  24.984  1.00  0.00     0.086 A 
ATOM     29  H   UNL A   1      31.326  20.706  23.221  1.00  0.00     0.170 HD
ATOM     30  C   UNL A   1      32.924  22.870  27.128  1.00  0.00     0.030 A 
ATOM     31  C   UNL A   1      31.489  22.334  25.250  1.00  0.00     0.056 A 
ENDBRANCH  15  18
ENDBRANCH   9  14
ENDBRANCH   5   8
ENDBRANCH   3   4
ENDBRANCH   2   3
ENDBRANCH   1   2
BRANCH   1  32
ATOM     32  C   UNL A   1      36.981  22.039  25.635  1.00  0.00     0.116 C 
BRANCH  32  33
ATOM     33  N   UNL A   1      38.141  21.163  25.603  1.00  0.00    -0.352 N 
ATOM     34  C   UNL A   1      39.417  21.382  26.082  1.00  0.00     0.251 C 
ATOM     35  H   UNL A   1      37.995  20.286  25.178  1.00  0.00     0.163 HD
ATOM     36  O   UNL A   1      40.285  20.534  25.887  1.00  0.00    -0.269 OA
BRANCH  34  37
ATOM     37  C   UNL A   1      39.757  22.652  26.772  1.00  0.00     0.039 A 
ATOM     38  C   UNL A   1      39.159  23.859  26.411  1.00  0.00     0.014 A 
ATOM     39  C   UNL A   1      40.726  22.637  27.783  1.00  0.00     0.014 A 
ATOM     40  C   UNL A   1      39.670  25.060  26.903  1.00  0.00     0.010 A 
ATOM     41  C   UNL A   1      41.178  23.841  28.339  1.00  0.00     0.010 A 
ATOM     42  C   UNL A   1      40.707  25.068  27.851  1.00  0.00    -0.014 A 
BRANCH  42  43
ATOM     43  C   UNL A   1      41.303  26.368  28.273  1.00  0.00     0.031 A 
ATOM     44  C   UNL A   1      42.721  26.725  27.894  1.00  0.00     0.074 A 
ATOM     45  C   UNL A   1      40.546  27.269  28.930  1.00  0.00     0.049 A 
ATOM     46  N   UNL A   1      43.370  27.844  28.094  1.00  0.00    -0.248 NA
ATOM     47  C   UNL A   1      43.512  25.694  27.202  1.00  0.00     0.031 C 
ATOM     48  C   UNL A   1      39.167  27.041  29.359  1.00  0.00     0.029 A 
ATOM     49  N   UNL A   1      40.810  28.559  29.325  1.00  0.00    -0.354 N 
ATOM     50  C   UNL A   1      44.642  27.651  27.562  1.00  0.00     0.074 A 
ATOM     51  C   UNL A   1      44.689  26.292  27.072  1.00  0.00     0.031 C 
ATOM     52  C   UNL A   1      38.687  28.167  29.907  1.00  0.00     0.029 A 
ATOM     53  C   UNL A   1      39.738  29.184  29.919  1.00  0.00     0.049 A 
ATOM     54  H   UNL A   1      41.684  28.993  29.196  1.00  0.00     0.167 HD
ATOM     55  C   UNL A   1      45.667  28.532  27.468  1.00  0.00     0.034 A 
ATOM     56  C   UNL A   1      39.605  30.432  30.416  1.00  0.00     0.034 A 
ATOM     57  C   UNL A   1      45.609  29.890  27.945  1.00  0.00     0.049 A 
ATOM     58  C   UNL A   1      40.759  31.396  30.298  1.00  0.00     0.074 A 
ATOM     59  C   UNL A   1      46.601  30.855  27.896  1.00  0.00     0.029 A 
ATOM     60  N   UNL A   1      44.506  30.483  28.539  1.00  0.00    -0.354 N 
ATOM     61  N   UNL A   1      41.938  31.205  29.753  1.00  0.00    -0.248 NA
ATOM     62  C   UNL A   1      40.567  32.745  30.847  1.00  0.00     0.031 C 
ATOM     63  C   UNL A   1      46.113  32.014  28.503  1.00  0.00     0.029 A 
ATOM     64  C   UNL A   1      44.795  31.796  28.868  1.00  0.00     0.049 A 
ATOM     65  H   UNL A   1      43.644  30.036  28.703  1.00  0.00     0.167 HD
ATOM     66  C   UNL A   1      42.615  32.416  29.866  1.00  0.00     0.074 A 
ATOM     67  C   UNL A   1      41.706  33.341  30.512  1.00  0.00     0.031 C 
ATOM     68  C   UNL A   1      43.876  32.728  29.477  1.00  0.00     0.034 A 
BRANCH  55  69
ATOM     69  C   UNL A   1      46.947  28.082  26.804  1.00  0.00     0.023 A 
ATOM     70  C   UNL A   1      47.075  28.139  25.403  1.00  0.00     0.031 A 
ATOM     71  C   UNL A   1      47.980  27.478  27.543  1.00  0.00     0.131 A 
ATOM     72  C   UNL A   1      48.195  27.568  24.783  1.00  0.00     0.055 A 
ATOM     73  C   UNL A   1      49.112  26.949  26.923  1.00  0.00     0.041 A 
ATOM     74  F   UNL A   1      47.906  27.403  28.882  1.00  0.00    -0.206 F 
ATOM     75  C   UNL A   1      49.217  26.980  25.535  1.00  0.00     0.022 A 
BRANCH  72  76
ATOM     76  S   UNL A   1      48.341  27.508  22.976  1.00  0.00     0.124 S 
ATOM     77  O   UNL A   1      49.638  28.146  22.759  1.00  0.00    -0.237 OA
ATOM     78  O   UNL A   1      48.300  26.073  22.713  1.00  0.00    -0.237 OA
ATOM     79  O   UNL A   1      47.189  28.270  22.505  1.00  0.00    -0.744 OA
ENDBRANCH  72  76
ENDBRANCH  55  69
BRANCH  56  80
ATOM     80  C   UNL A   1      38.295  30.841  31.005  1.00  0.00     0.023 A 
ATOM     81  C   UNL A   1      37.298  31.430  30.205  1.00  0.00     0.031 A 
ATOM     82  C   UNL A   1      38.065  30.754  32.388  1.00  0.00     0.131 A 
ATOM     83  C   UNL A   1      36.153  31.972  30.803  1.00  0.00     0.055 A 
ATOM     84  C   UNL A   1      36.888  31.227  32.971  1.00  0.00     0.041 A 
ATOM     85  F   UNL A   1      38.990  30.214  33.197  1.00  0.00    -0.206 F 
ATOM     86  C   UNL A   1      35.933  31.859  32.179  1.00  0.00     0.022 A 
BRANCH  83  87
ATOM     87  S   UNL A   1      34.988  32.973  29.836  1.00  0.00     0.124 S 
ATOM     88  O   UNL A   1      34.079  33.462  30.868  1.00  0.00    -0.237 OA
ATOM     89  O   UNL A   1      35.873  33.977  29.249  1.00  0.00    -0.237 OA
ATOM     90  O   UNL A   1      34.418  32.021  28.890  1.00  0.00    -0.744 OA
ENDBRANCH  83  87
ENDBRANCH  56  80
BRANCH  68  91
ATOM     91  C   UNL A   1      44.383  34.134  29.698  1.00  0.00     0.023 A 
ATOM     92  C   UNL A   1      44.109  35.134  28.744  1.00  0.00     0.031 A 
ATOM     93  C   UNL A   1      45.263  34.442  30.750  1.00  0.00     0.131 A 
ATOM     94  C   UNL A   1      44.739  36.381  28.840  1.00  0.00     0.055 A 
ATOM     95  C   UNL A   1      45.854  35.702  30.865  1.00  0.00     0.041 A 
ATOM     96  F   UNL A   1      45.568  33.518  31.675  1.00  0.00    -0.206 F 
ATOM     97  C   UNL A   1      45.604  36.672  29.899  1.00  0.00     0.022 A 
BRANCH  94  98
ATOM     98  S   UNL A   1      44.535  37.637  27.546  1.00  0.00     0.124 S 
ATOM     99  O   UNL A   1      44.334  38.852  28.333  1.00  0.00    -0.237 OA
ATOM    100  O   UNL A   1      45.808  37.557  26.836  1.00  0.00    -0.237 OA
ATOM    101  O   UNL A   1      43.368  37.184  26.795  1.00  0.00    -0.744 OA
ENDBRANCH  94  98
ENDBRANCH  68  91
ENDBRANCH  42  43
ENDBRANCH  34  37
ENDBRANCH  32  33
ENDBRANCH   1  32
TORSDOF 16
ENDMDL
MODEL 3
REMARK VINA RESULT:     -13.5      1.818      2.112
REMARK SMILES CC1(C)Oc2ccc(NC(=O)[C@H]3CC=CC[C@@H]3C(=O)NCCCCNC(=O)c3ccc(-c4c5nc(c(-c6cc(S(=O)(=O)[O-])ccc6F)c6ccc([nH]6)c(-c6cc(S(=O)(=O)[O-])ccc6F)c6nc(c(-c7cc(S(=O)(=O)[O-])ccc7F)c7ccc4[nH]7)C=C6)C=C5)cc3)cc2NC1=O
REMARK SMILES IDX 23 1 22 2 21 3 20 4 18 5 19 6 17 8 12 9 13 10 14 11 16 12
REMARK SMILES IDX 15 13 10 14 9 15 11 17 8 18 1 19 2 20 3 21 4 22 94 23 5 24
REMARK SMILES IDX 93 25 95 26 6 27 92 28 7 30 91 31 24 32 25 33 26 34 27 36
REMARK SMILES IDX 28 37 29 38 90 39 30 40 89 41 31 42 32 43 33 44 83 45 34 46
REMARK SMILES IDX 88 47 82 48 84 49 35 50 87 51 81 52 80 53 36 55 68 56 48 57
REMARK SMILES IDX 67 58 49 59 52 60 66 61 85 62 50 63 51 64 65 66 86 67 53 68
REMARK SMILES IDX 37 69 38 70 46 71 39 72 45 73 47 74 44 75 40 76 41 77 42 78
REMARK SMILES IDX 43 79 69 80 70 81 78 82 71 83 77 84 79 85 76 86 72 87 73 88
REMARK SMILES IDX 74 89 75 90 54 91 55 92 63 93 56 94 62 95 64 96 61 97 57 98
REMARK SMILES IDX 58 99 59 100 60 101
REMARK H PARENT 20 7 9 16 93 29 25 35 84 54 52 65
REMARK Flexibility Score: inf
ROOT
ATOM      1  C   UNL A   1      31.417  28.971  26.294  1.00  0.00     0.023 C 
ENDROOT
BRANCH   1   2
ATOM      2  C   UNL A   1      31.711  27.541  26.757  1.00  0.00     0.023 C 
BRANCH   2   3
ATOM      3  C   UNL A   1      30.824  26.440  26.176  1.00  0.00     0.116 C 
BRANCH   3   4
ATOM      4  N   UNL A   1      31.168  25.115  26.655  1.00  0.00    -0.356 N 
ATOM      5  C   UNL A   1      32.209  24.296  26.345  1.00  0.00     0.224 C 
ATOM      6  O   UNL A   1      32.378  23.320  27.078  1.00  0.00    -0.275 OA
ATOM      7  H   UNL A   1      30.541  24.746  27.318  1.00  0.00     0.163 HD
BRANCH   5   8
ATOM      8  C   UNL A   1      33.082  24.566  25.117  1.00  0.00     0.095 C 
ATOM      9  C   UNL A   1      32.393  24.011  23.844  1.00  0.00     0.095 C 
ATOM     10  C   UNL A   1      32.295  22.472  23.938  1.00  0.00     0.041 C 
ATOM     11  C   UNL A   1      33.599  21.828  24.304  1.00  0.00    -0.030 C 
ATOM     12  C   UNL A   1      34.488  23.942  25.314  1.00  0.00     0.041 C 
ATOM     13  C   UNL A   1      34.595  22.498  24.900  1.00  0.00    -0.030 C 
BRANCH   9  14
ATOM     14  C   UNL A   1      33.157  24.442  22.576  1.00  0.00     0.228 C 
ATOM     15  N   UNL A   1      32.688  25.493  21.834  1.00  0.00    -0.326 N 
ATOM     16  H   UNL A   1      32.836  25.422  20.863  1.00  0.00     0.169 HD
ATOM     17  O   UNL A   1      34.142  23.834  22.154  1.00  0.00    -0.274 OA
BRANCH  15  18
ATOM     18  C   UNL A   1      32.032  26.656  22.257  1.00  0.00     0.043 A 
ATOM     19  C   UNL A   1      28.005  31.364  23.580  1.00  0.00     0.067 C 
ATOM     20  C   UNL A   1      28.616  30.181  22.826  1.00  0.00     0.182 C 
ATOM     21  C   UNL A   1      28.471  30.426  21.312  1.00  0.00     0.067 C 
ATOM     22  O   UNL A   1      30.010  30.170  23.156  1.00  0.00    -0.476 OA
ATOM     23  C   UNL A   1      27.852  28.882  23.176  1.00  0.00     0.268 C 
ATOM     24  C   UNL A   1      30.637  28.986  22.881  1.00  0.00     0.144 A 
ATOM     25  N   UNL A   1      28.578  27.731  22.987  1.00  0.00    -0.319 N 
ATOM     26  O   UNL A   1      26.662  28.834  23.478  1.00  0.00    -0.270 OA
ATOM     27  C   UNL A   1      32.020  29.027  22.743  1.00  0.00     0.051 A 
ATOM     28  C   UNL A   1      29.953  27.774  22.752  1.00  0.00     0.086 A 
ATOM     29  H   UNL A   1      28.119  26.860  23.017  1.00  0.00     0.170 HD
ATOM     30  C   UNL A   1      32.718  27.862  22.427  1.00  0.00     0.030 A 
ATOM     31  C   UNL A   1      30.643  26.611  22.415  1.00  0.00     0.056 A 
ENDBRANCH  15  18
ENDBRANCH   9  14
ENDBRANCH   5   8
ENDBRANCH   3   4
ENDBRANCH   2   3
ENDBRANCH   1   2
BRANCH   1  32
ATOM     32  C   UNL A   1      32.614  29.904  26.139  1.00  0.00     0.116 C 
BRANCH  32  33
ATOM     33  N   UNL A   1      32.375  31.258  26.615  1.00  0.00    -0.352 N 
ATOM     34  C   UNL A   1      33.201  32.088  27.345  1.00  0.00     0.251 C 
ATOM     35  H   UNL A   1      31.496  31.636  26.382  1.00  0.00     0.163 HD
ATOM     36  O   UNL A   1      32.778  33.180  27.716  1.00  0.00    -0.269 OA
BRANCH  34  37
ATOM     37  C   UNL A   1      34.565  31.646  27.731  1.00  0.00     0.039 A 
ATOM     38  C   UNL A   1      34.856  30.302  27.967  1.00  0.00     0.014 A 
ATOM     39  C   UNL A   1      35.569  32.608  27.896  1.00  0.00     0.014 A 
ATOM     40  C   UNL A   1      36.068  29.949  28.559  1.00  0.00     0.010 A 
ATOM     41  C   UNL A   1      36.819  32.237  28.410  1.00  0.00     0.010 A 
ATOM     42  C   UNL A   1      37.054  30.916  28.816  1.00  0.00    -0.014 A 
BRANCH  42  43
ATOM     43  C   UNL A   1      38.292  30.523  29.550  1.00  0.00     0.031 A 
ATOM     44  C   UNL A   1      38.521  30.975  30.972  1.00  0.00     0.074 A 
ATOM     45  C   UNL A   1      39.178  29.691  28.967  1.00  0.00     0.049 A 
ATOM     46  N   UNL A   1      39.492  30.656  31.791  1.00  0.00    -0.248 NA
ATOM     47  C   UNL A   1      37.538  31.906  31.549  1.00  0.00     0.031 C 
ATOM     48  C   UNL A   1      39.072  29.190  27.597  1.00  0.00     0.029 A 
ATOM     49  N   UNL A   1      40.317  29.095  29.453  1.00  0.00    -0.354 N 
ATOM     50  C   UNL A   1      39.240  31.347  32.973  1.00  0.00     0.074 A 
ATOM     51  C   UNL A   1      38.053  32.141  32.749  1.00  0.00     0.031 C 
ATOM     52  C   UNL A   1      40.070  28.324  27.370  1.00  0.00     0.029 A 
ATOM     53  C   UNL A   1      40.920  28.243  28.556  1.00  0.00     0.049 A 
ATOM     54  H   UNL A   1      40.668  29.263  30.357  1.00  0.00     0.167 HD
ATOM     55  C   UNL A   1      39.921  31.306  34.143  1.00  0.00     0.034 A 
ATOM     56  C   UNL A   1      42.026  27.478  28.669  1.00  0.00     0.034 A 
ATOM     57  C   UNL A   1      41.095  30.502  34.365  1.00  0.00     0.049 A 
ATOM     58  C   UNL A   1      42.767  27.448  29.982  1.00  0.00     0.074 A 
ATOM     59  C   UNL A   1      41.855  30.398  35.518  1.00  0.00     0.029 A 
ATOM     60  N   UNL A   1      41.672  29.654  33.432  1.00  0.00    -0.354 N 
ATOM     61  N   UNL A   1      42.487  28.077  31.100  1.00  0.00    -0.248 NA
ATOM     62  C   UNL A   1      43.962  26.597  30.060  1.00  0.00     0.031 C 
ATOM     63  C   UNL A   1      42.916  29.527  35.266  1.00  0.00     0.029 A 
ATOM     64  C   UNL A   1      42.780  29.031  33.981  1.00  0.00     0.049 A 
ATOM     65  H   UNL A   1      41.343  29.515  32.515  1.00  0.00     0.167 HD
ATOM     66  C   UNL A   1      43.452  27.675  32.020  1.00  0.00     0.074 A 
ATOM     67  C   UNL A   1      44.310  26.731  31.335  1.00  0.00     0.031 C 
ATOM     68  C   UNL A   1      43.613  28.062  33.309  1.00  0.00     0.034 A 
BRANCH  55  69
ATOM     69  C   UNL A   1      39.415  32.132  35.302  1.00  0.00     0.023 A 
ATOM     70  C   UNL A   1      39.853  33.459  35.471  1.00  0.00     0.031 A 
ATOM     71  C   UNL A   1      38.609  31.565  36.305  1.00  0.00     0.131 A 
ATOM     72  C   UNL A   1      39.512  34.162  36.634  1.00  0.00     0.055 A 
ATOM     73  C   UNL A   1      38.237  32.284  37.442  1.00  0.00     0.041 A 
ATOM     74  F   UNL A   1      38.163  30.303  36.189  1.00  0.00    -0.206 F 
ATOM     75  C   UNL A   1      38.701  33.585  37.616  1.00  0.00     0.022 A 
BRANCH  72  76
ATOM     76  S   UNL A   1      40.157  35.828  36.949  1.00  0.00     0.124 S 
ATOM     77  O   UNL A   1      39.551  36.144  38.241  1.00  0.00    -0.237 OA
ATOM     78  O   UNL A   1      41.598  35.598  36.976  1.00  0.00    -0.237 OA
ATOM     79  O   UNL A   1      39.664  36.614  35.823  1.00  0.00    -0.744 OA
ENDBRANCH  72  76
ENDBRANCH  55  69
BRANCH  56  80
ATOM     80  C   UNL A   1      42.444  26.634  27.510  1.00  0.00     0.023 A 
ATOM     81  C   UNL A   1      41.977  25.314  27.375  1.00  0.00     0.031 A 
ATOM     82  C   UNL A   1      43.399  27.093  26.587  1.00  0.00     0.131 A 
ATOM     83  C   UNL A   1      42.517  24.479  26.389  1.00  0.00     0.055 A 
ATOM     84  C   UNL A   1      43.878  26.281  25.558  1.00  0.00     0.041 A 
ATOM     85  F   UNL A   1      43.887  28.340  26.680  1.00  0.00    -0.206 F 
ATOM     86  C   UNL A   1      43.452  24.959  25.468  1.00  0.00     0.022 A 
BRANCH  83  87
ATOM     87  S   UNL A   1      42.136  22.705  26.366  1.00  0.00     0.124 S 
ATOM     88  O   UNL A   1      42.781  22.240  27.589  1.00  0.00    -0.237 OA
ATOM     89  O   UNL A   1      40.675  22.712  26.388  1.00  0.00    -0.237 OA
ATOM     90  O   UNL A   1      42.733  22.240  25.119  1.00  0.00    -0.744 OA
ENDBRANCH  83  87
ENDBRANCH  56  80
BRANCH  68  91
ATOM     91  C   UNL A   1      44.742  27.463  34.116  1.00  0.00     0.023 A 
ATOM     92  C   UNL A   1      46.043  27.991  33.997  1.00  0.00     0.031 A 
ATOM     93  C   UNL A   1      44.569  26.286  34.863  1.00  0.00     0.131 A 
ATOM     94  C   UNL A   1      47.124  27.321  34.583  1.00  0.00     0.055 A 
ATOM     95  C   UNL A   1      45.644  25.646  35.483  1.00  0.00     0.041 A 
ATOM     96  F   UNL A   1      43.351  25.735  34.993  1.00  0.00    -0.206 F 
ATOM     97  C   UNL A   1      46.930  26.156  35.331  1.00  0.00     0.022 A 
BRANCH  94  98
ATOM     98  S   UNL A   1      48.830  27.881  34.318  1.00  0.00     0.124 S 
ATOM     99  O   UNL A   1      49.344  26.863  33.405  1.00  0.00    -0.237 OA
ATOM    100  O   UNL A   1      48.632  29.203  33.730  1.00  0.00    -0.237 OA
ATOM    101  O   UNL A   1      49.417  27.871  35.655  1.00  0.00    -0.744 OA
ENDBRANCH  94  98
ENDBRANCH  68  91
ENDBRANCH  42  43
ENDBRANCH  34  37
ENDBRANCH  32  33
ENDBRANCH   1  32
TORSDOF 16
ENDMDL
