MODEL 1
REMARK VINA RESULT:     -12.7      0.000      0.000
REMARK SMILES CCN1C(=O)/C(=C2/SC(=S)N([C@@H](C)C(=O)NCCCCNC(=O)c3ccc(-c4c5nc(c(-c6cc(S(=O)(=O)[O-])ccc6F)c6ccc([nH]6)c(-c6cc(S(=O)(=O)[O-])ccc6F)c6nc(c(-c7cc(S(=O)(=O)[O-])ccc7F)c7ccc4[nH]7)C=C6)C=C5)cc3)C2=O)c2cc(Br)ccc21
REMARK SMILES IDX 19 1 18 2 17 3 16 4 14 5 15 6 12 8 13 9 11 10 3 11 4 12
REMARK SMILES IDX 95 13 5 14 6 15 89 16 94 17 7 18 90 19 93 20 8 21 87 22
REMARK SMILES IDX 91 23 9 24 88 25 92 26 10 27 2 28 1 29 20 30 21 31 22 32
REMARK SMILES IDX 23 34 24 35 25 36 86 37 26 38 85 39 27 40 28 41 29 42 79 43
REMARK SMILES IDX 30 44 84 45 78 46 80 47 31 48 83 49 77 50 76 51 32 53 64 54
REMARK SMILES IDX 44 55 63 56 45 57 48 58 62 59 81 60 46 61 47 62 61 64 82 65
REMARK SMILES IDX 49 66 33 67 34 68 42 69 35 70 41 71 43 72 40 73 36 74 37 75
REMARK SMILES IDX 38 76 39 77 65 78 66 79 74 80 67 81 73 82 75 83 72 84 68 85
REMARK SMILES IDX 69 86 70 87 71 88 50 89 51 90 59 91 52 92 58 93 60 94 57 95
REMARK SMILES IDX 53 96 54 97 55 98 56 99
REMARK H PARENT 16 7 21 33 80 52 48 63
REMARK Flexibility Score: inf
ROOT
ATOM      1  C   UNL A   1      36.525  21.656  24.177  1.00  0.00     0.023 C 
ENDROOT
BRANCH   1   2
ATOM      2  C   UNL A   1      36.269  22.880  23.311  1.00  0.00     0.023 C 
BRANCH   2   3
ATOM      3  C   UNL A   1      34.804  23.297  23.198  1.00  0.00     0.116 C 
BRANCH   3   4
ATOM      4  N   UNL A   1      33.917  22.293  23.746  1.00  0.00    -0.354 N 
ATOM      5  C   UNL A   1      33.307  22.154  24.955  1.00  0.00     0.242 C 
ATOM      6  O   UNL A   1      32.548  21.182  25.062  1.00  0.00    -0.273 OA
ATOM      7  H   UNL A   1      33.716  21.563  23.118  1.00  0.00     0.163 HD
BRANCH   5   8
ATOM      8  C   UNL A   1      33.452  23.150  26.140  1.00  0.00     0.178 C 
ATOM      9  C   UNL A   1      33.274  22.450  27.482  1.00  0.00     0.042 C 
BRANCH   8  10
ATOM     10  N   UNL A   1      32.700  24.405  25.914  1.00  0.00    -0.280 N 
ATOM     11  N   UNL A   1      32.612  30.005  26.368  1.00  0.00    -0.308 N 
ATOM     12  C   UNL A   1      33.203  28.729  26.339  1.00  0.00     0.260 C 
ATOM     13  C   UNL A   1      31.569  30.110  25.427  1.00  0.00     0.052 A 
ATOM     14  O   UNL A   1      34.031  28.284  27.105  1.00  0.00    -0.269 OA
ATOM     15  C   UNL A   1      32.439  27.977  25.279  1.00  0.00     0.069 C 
ATOM     16  C   UNL A   1      31.449  28.916  24.714  1.00  0.00     0.014 A 
ATOM     17  C   UNL A   1      30.710  31.174  25.190  1.00  0.00     0.028 A 
ATOM     18  C   UNL A   1      32.464  26.641  25.149  1.00  0.00     0.093 C 
ATOM     19  C   UNL A   1      30.506  28.796  23.699  1.00  0.00     0.026 A 
ATOM     20  C   UNL A   1      29.711  31.024  24.221  1.00  0.00     0.018 A 
ATOM     21  S   UNL A   1      31.081  25.775  24.562  1.00  0.00    -0.053 SA
ATOM     22  C   UNL A   1      33.402  25.597  25.692  1.00  0.00     0.267 C 
ATOM     23  C   UNL A   1      29.615  29.843  23.483  1.00  0.00     0.018 A 
ATOM     24  C   UNL A   1      31.348  24.543  25.765  1.00  0.00     0.149 C 
ATOM     25  O   UNL A   1      34.601  25.765  25.837  1.00  0.00    -0.268 OA
ATOM     26  Br  UNL A   1      28.239  29.636  22.202  1.00  0.00    -0.051 Br
ATOM     27  S   UNL A   1      30.086  23.898  26.637  1.00  0.00    -0.052 S 
BRANCH  11  28
ATOM     28  C   UNL A   1      32.904  31.000  27.380  1.00  0.00     0.122 C 
ATOM     29  C   UNL A   1      34.386  31.306  27.505  1.00  0.00     0.028 C 
ENDBRANCH  11  28
ENDBRANCH   8  10
ENDBRANCH   5   8
ENDBRANCH   3   4
ENDBRANCH   2   3
ENDBRANCH   1   2
BRANCH   1  30
ATOM     30  C   UNL A   1      37.437  21.896  25.368  1.00  0.00     0.116 C 
BRANCH  30  31
ATOM     31  N   UNL A   1      38.496  20.905  25.532  1.00  0.00    -0.352 N 
ATOM     32  C   UNL A   1      39.681  21.034  26.231  1.00  0.00     0.251 C 
ATOM     33  H   UNL A   1      38.349  20.038  25.088  1.00  0.00     0.163 HD
ATOM     34  O   UNL A   1      40.512  20.133  26.231  1.00  0.00    -0.269 OA
BRANCH  32  35
ATOM     35  C   UNL A   1      39.943  22.313  26.924  1.00  0.00     0.039 A 
ATOM     36  C   UNL A   1      39.337  23.479  26.456  1.00  0.00     0.014 A 
ATOM     37  C   UNL A   1      40.932  22.370  27.906  1.00  0.00     0.014 A 
ATOM     38  C   UNL A   1      39.908  24.702  26.769  1.00  0.00     0.010 A 
ATOM     39  C   UNL A   1      41.408  23.615  28.326  1.00  0.00     0.010 A 
ATOM     40  C   UNL A   1      40.956  24.790  27.703  1.00  0.00    -0.014 A 
BRANCH  40  41
ATOM     41  C   UNL A   1      41.555  26.119  28.004  1.00  0.00     0.031 A 
ATOM     42  C   UNL A   1      42.928  26.494  27.507  1.00  0.00     0.074 A 
ATOM     43  C   UNL A   1      40.825  27.015  28.697  1.00  0.00     0.049 A 
ATOM     44  N   UNL A   1      43.589  27.609  27.689  1.00  0.00    -0.248 NA
ATOM     45  C   UNL A   1      43.660  25.494  26.713  1.00  0.00     0.031 C 
ATOM     46  C   UNL A   1      39.482  26.763  29.223  1.00  0.00     0.029 A 
ATOM     47  N   UNL A   1      41.088  28.309  29.065  1.00  0.00    -0.354 N 
ATOM     48  C   UNL A   1      44.823  27.433  27.071  1.00  0.00     0.074 A 
ATOM     49  C   UNL A   1      44.830  26.093  26.527  1.00  0.00     0.031 C 
ATOM     50  C   UNL A   1      39.017  27.880  29.790  1.00  0.00     0.029 A 
ATOM     51  C   UNL A   1      40.063  28.897  29.768  1.00  0.00     0.049 A 
ATOM     52  H   UNL A   1      41.929  28.773  28.848  1.00  0.00     0.167 HD
ATOM     53  C   UNL A   1      45.848  28.312  26.963  1.00  0.00     0.034 A 
ATOM     54  C   UNL A   1      39.973  30.103  30.364  1.00  0.00     0.034 A 
ATOM     55  C   UNL A   1      45.803  29.659  27.481  1.00  0.00     0.049 A 
ATOM     56  C   UNL A   1      41.129  31.057  30.245  1.00  0.00     0.074 A 
ATOM     57  C   UNL A   1      46.766  30.647  27.364  1.00  0.00     0.029 A 
ATOM     58  N   UNL A   1      44.758  30.208  28.210  1.00  0.00    -0.354 N 
ATOM     59  N   UNL A   1      42.264  30.892  29.609  1.00  0.00    -0.248 NA
ATOM     60  C   UNL A   1      40.998  32.355  30.915  1.00  0.00     0.031 C 
ATOM     61  C   UNL A   1      46.344  31.757  28.094  1.00  0.00     0.029 A 
ATOM     62  C   UNL A   1      45.073  31.505  28.587  1.00  0.00     0.049 A 
ATOM     63  H   UNL A   1      43.916  29.746  28.427  1.00  0.00     0.167 HD
ATOM     64  C   UNL A   1      42.980  32.071  29.792  1.00  0.00     0.074 A 
ATOM     65  C   UNL A   1      42.133  32.951  30.570  1.00  0.00     0.031 C 
ATOM     66  C   UNL A   1      44.226  32.386  29.358  1.00  0.00     0.034 A 
BRANCH  53  67
ATOM     67  C   UNL A   1      47.119  27.883  26.267  1.00  0.00     0.023 A 
ATOM     68  C   UNL A   1      47.241  28.053  24.873  1.00  0.00     0.031 A 
ATOM     69  C   UNL A   1      48.134  27.177  26.936  1.00  0.00     0.131 A 
ATOM     70  C   UNL A   1      48.325  27.487  24.189  1.00  0.00     0.055 A 
ATOM     71  C   UNL A   1      49.239  26.658  26.258  1.00  0.00     0.041 A 
ATOM     72  F   UNL A   1      48.068  26.980  28.263  1.00  0.00    -0.206 F 
ATOM     73  C   UNL A   1      49.329  26.798  24.876  1.00  0.00     0.022 A 
BRANCH  70  74
ATOM     74  S   UNL A   1      48.428  27.546  22.379  1.00  0.00     0.124 S 
ATOM     75  O   UNL A   1      47.145  28.149  22.026  1.00  0.00    -0.237 OA
ATOM     76  O   UNL A   1      49.596  28.396  22.167  1.00  0.00    -0.237 OA
ATOM     77  O   UNL A   1      48.584  26.148  21.991  1.00  0.00    -0.744 OA
ENDBRANCH  70  74
ENDBRANCH  53  67
BRANCH  54  78
ATOM     78  C   UNL A   1      38.718  30.444  31.096  1.00  0.00     0.023 A 
ATOM     79  C   UNL A   1      37.781  31.329  30.530  1.00  0.00     0.031 A 
ATOM     80  C   UNL A   1      38.519  30.028  32.421  1.00  0.00     0.131 A 
ATOM     81  C   UNL A   1      36.752  31.854  31.322  1.00  0.00     0.055 A 
ATOM     82  C   UNL A   1      37.439  30.485  33.179  1.00  0.00     0.041 A 
ATOM     83  F   UNL A   1      39.393  29.196  33.009  1.00  0.00    -0.206 F 
ATOM     84  C   UNL A   1      36.563  31.423  32.638  1.00  0.00     0.022 A 
BRANCH  81  85
ATOM     85  S   UNL A   1      35.744  33.241  30.728  1.00  0.00     0.124 S 
ATOM     86  O   UNL A   1      34.397  32.684  30.780  1.00  0.00    -0.237 OA
ATOM     87  O   UNL A   1      36.042  34.271  31.722  1.00  0.00    -0.237 OA
ATOM     88  O   UNL A   1      36.268  33.503  29.391  1.00  0.00    -0.744 OA
ENDBRANCH  81  85
ENDBRANCH  54  78
BRANCH  66  89
ATOM     89  C   UNL A   1      44.790  33.745  29.701  1.00  0.00     0.023 A 
ATOM     90  C   UNL A   1      44.707  34.796  28.766  1.00  0.00     0.031 A 
ATOM     91  C   UNL A   1      45.550  33.952  30.865  1.00  0.00     0.131 A 
ATOM     92  C   UNL A   1      45.417  35.983  28.984  1.00  0.00     0.055 A 
ATOM     93  C   UNL A   1      46.207  35.159  31.106  1.00  0.00     0.041 A 
ATOM     94  F   UNL A   1      45.670  32.979  31.783  1.00  0.00    -0.206 F 
ATOM     95  C   UNL A   1      46.158  36.174  30.154  1.00  0.00     0.022 A 
BRANCH  92  96
ATOM     96  S   UNL A   1      45.491  37.275  27.713  1.00  0.00     0.124 S 
ATOM     97  O   UNL A   1      44.236  37.990  27.936  1.00  0.00    -0.237 OA
ATOM     98  O   UNL A   1      46.700  38.004  28.088  1.00  0.00    -0.237 OA
ATOM     99  O   UNL A   1      45.569  36.532  26.459  1.00  0.00    -0.744 OA
ENDBRANCH  92  96
ENDBRANCH  66  89
ENDBRANCH  40  41
ENDBRANCH  32  35
ENDBRANCH  30  31
ENDBRANCH   1  30
TORSDOF 16
ENDMDL
MODEL 2
REMARK VINA RESULT:     -12.2      2.466      7.714
REMARK SMILES CCN1C(=O)/C(=C2/SC(=S)N([C@@H](C)C(=O)NCCCCNC(=O)c3ccc(-c4c5nc(c(-c6cc(S(=O)(=O)[O-])ccc6F)c6ccc([nH]6)c(-c6cc(S(=O)(=O)[O-])ccc6F)c6nc(c(-c7cc(S(=O)(=O)[O-])ccc7F)c7ccc4[nH]7)C=C6)C=C5)cc3)C2=O)c2cc(Br)ccc21
REMARK SMILES IDX 19 1 18 2 17 3 16 4 14 5 15 6 12 8 13 9 11 10 3 11 4 12
REMARK SMILES IDX 95 13 5 14 6 15 89 16 94 17 7 18 90 19 93 20 8 21 87 22
REMARK SMILES IDX 91 23 9 24 88 25 92 26 10 27 2 28 1 29 20 30 21 31 22 32
REMARK SMILES IDX 23 34 24 35 25 36 86 37 26 38 85 39 27 40 28 41 29 42 79 43
REMARK SMILES IDX 30 44 84 45 78 46 80 47 31 48 83 49 77 50 76 51 32 53 64 54
REMARK SMILES IDX 44 55 63 56 45 57 48 58 62 59 81 60 46 61 47 62 61 64 82 65
REMARK SMILES IDX 49 66 33 67 34 68 42 69 35 70 41 71 43 72 40 73 36 74 37 75
REMARK SMILES IDX 38 76 39 77 65 78 66 79 74 80 67 81 73 82 75 83 72 84 68 85
REMARK SMILES IDX 69 86 70 87 71 88 50 89 51 90 59 91 52 92 58 93 60 94 57 95
REMARK SMILES IDX 53 96 54 97 55 98 56 99
REMARK H PARENT 16 7 21 33 80 52 48 63
REMARK Flexibility Score: inf
ROOT
ATOM      1  C   UNL A   1      38.102  21.328  25.239  1.00  0.00     0.023 C 
ENDROOT
BRANCH   1   2
ATOM      2  C   UNL A   1      37.241  22.559  25.478  1.00  0.00     0.023 C 
BRANCH   2   3
ATOM      3  C   UNL A   1      36.612  23.161  24.223  1.00  0.00     0.116 C 
BRANCH   3   4
ATOM      4  N   UNL A   1      35.360  22.515  23.888  1.00  0.00    -0.354 N 
ATOM      5  C   UNL A   1      34.152  22.452  24.512  1.00  0.00     0.242 C 
ATOM      6  O   UNL A   1      33.264  21.850  23.896  1.00  0.00    -0.273 OA
ATOM      7  H   UNL A   1      35.389  22.021  23.037  1.00  0.00     0.163 HD
BRANCH   5   8
ATOM      8  C   UNL A   1      33.822  23.130  25.872  1.00  0.00     0.178 C 
ATOM      9  C   UNL A   1      33.335  22.112  26.897  1.00  0.00     0.042 C 
BRANCH   8  10
ATOM     10  N   UNL A   1      33.031  24.369  25.705  1.00  0.00    -0.280 N 
ATOM     11  N   UNL A   1      32.780  29.941  26.393  1.00  0.00    -0.308 N 
ATOM     12  C   UNL A   1      33.408  28.686  26.306  1.00  0.00     0.260 C 
ATOM     13  C   UNL A   1      31.726  30.053  25.466  1.00  0.00     0.052 A 
ATOM     14  O   UNL A   1      34.255  28.234  27.047  1.00  0.00    -0.269 OA
ATOM     15  C   UNL A   1      32.658  27.955  25.222  1.00  0.00     0.069 C 
ATOM     16  C   UNL A   1      31.635  28.887  24.705  1.00  0.00     0.014 A 
ATOM     17  C   UNL A   1      30.833  31.099  25.280  1.00  0.00     0.028 A 
ATOM     18  C   UNL A   1      32.721  26.627  25.036  1.00  0.00     0.093 C 
ATOM     19  C   UNL A   1      30.687  28.780  23.692  1.00  0.00     0.026 A 
ATOM     20  C   UNL A   1      29.830  30.960  24.313  1.00  0.00     0.018 A 
ATOM     21  S   UNL A   1      31.360  25.746  24.423  1.00  0.00    -0.053 SA
ATOM     22  C   UNL A   1      33.694  25.590  25.527  1.00  0.00     0.267 C 
ATOM     23  C   UNL A   1      29.763  29.808  23.527  1.00  0.00     0.018 A 
ATOM     24  C   UNL A   1      31.674  24.473  25.571  1.00  0.00     0.149 C 
ATOM     25  O   UNL A   1      34.889  25.789  25.670  1.00  0.00    -0.268 OA
ATOM     26  Br  UNL A   1      28.383  29.614  22.249  1.00  0.00    -0.051 Br
ATOM     27  S   UNL A   1      30.440  23.754  26.425  1.00  0.00    -0.052 S 
BRANCH  11  28
ATOM     28  C   UNL A   1      33.050  30.901  27.444  1.00  0.00     0.122 C 
ATOM     29  C   UNL A   1      34.490  31.384  27.452  1.00  0.00     0.028 C 
ENDBRANCH  11  28
ENDBRANCH   8  10
ENDBRANCH   5   8
ENDBRANCH   3   4
ENDBRANCH   2   3
ENDBRANCH   1   2
BRANCH   1  30
ATOM     30  C   UNL A   1      39.363  21.257  26.084  1.00  0.00     0.116 C 
BRANCH  30  31
ATOM     31  N   UNL A   1      40.061  19.977  26.027  1.00  0.00    -0.352 N 
ATOM     32  C   UNL A   1      41.416  19.740  26.162  1.00  0.00     0.251 C 
ATOM     33  H   UNL A   1      39.497  19.184  25.874  1.00  0.00     0.163 HD
ATOM     34  O   UNL A   1      41.872  18.610  26.029  1.00  0.00    -0.269 OA
BRANCH  32  35
ATOM     35  C   UNL A   1      42.302  20.897  26.405  1.00  0.00     0.039 A 
ATOM     36  C   UNL A   1      42.535  21.315  27.715  1.00  0.00     0.014 A 
ATOM     37  C   UNL A   1      42.736  21.666  25.325  1.00  0.00     0.014 A 
ATOM     38  C   UNL A   1      42.952  22.618  27.937  1.00  0.00     0.010 A 
ATOM     39  C   UNL A   1      43.290  22.927  25.561  1.00  0.00     0.010 A 
ATOM     40  C   UNL A   1      43.329  23.447  26.865  1.00  0.00    -0.014 A 
BRANCH  40  41
ATOM     41  C   UNL A   1      43.757  24.846  27.141  1.00  0.00     0.031 A 
ATOM     42  C   UNL A   1      42.794  25.871  27.684  1.00  0.00     0.074 A 
ATOM     43  C   UNL A   1      45.047  25.178  26.939  1.00  0.00     0.049 A 
ATOM     44  N   UNL A   1      43.012  27.129  27.971  1.00  0.00    -0.248 NA
ATOM     45  C   UNL A   1      41.409  25.438  27.931  1.00  0.00     0.031 C 
ATOM     46  C   UNL A   1      46.069  24.266  26.421  1.00  0.00     0.029 A 
ATOM     47  N   UNL A   1      45.727  26.350  27.156  1.00  0.00    -0.354 N 
ATOM     48  C   UNL A   1      41.792  27.647  28.392  1.00  0.00     0.074 A 
ATOM     49  C   UNL A   1      40.829  26.573  28.302  1.00  0.00     0.031 C 
ATOM     50  C   UNL A   1      47.251  24.889  26.417  1.00  0.00     0.029 A 
ATOM     51  C   UNL A   1      47.060  26.277  26.827  1.00  0.00     0.049 A 
ATOM     52  H   UNL A   1      45.302  27.163  27.512  1.00  0.00     0.167 HD
ATOM     53  C   UNL A   1      41.509  28.901  28.820  1.00  0.00     0.034 A 
ATOM     54  C   UNL A   1      48.023  27.220  26.816  1.00  0.00     0.034 A 
ATOM     55  C   UNL A   1      42.496  29.948  28.939  1.00  0.00     0.049 A 
ATOM     56  C   UNL A   1      47.682  28.608  27.281  1.00  0.00     0.074 A 
ATOM     57  C   UNL A   1      42.319  31.231  29.426  1.00  0.00     0.029 A 
ATOM     58  N   UNL A   1      43.830  29.843  28.571  1.00  0.00    -0.354 N 
ATOM     59  N   UNL A   1      46.536  29.064  27.728  1.00  0.00    -0.248 NA
ATOM     60  C   UNL A   1      48.755  29.608  27.246  1.00  0.00     0.031 C 
ATOM     61  C   UNL A   1      43.518  31.926  29.270  1.00  0.00     0.029 A 
ATOM     62  C   UNL A   1      44.474  31.052  28.778  1.00  0.00     0.049 A 
ATOM     63  H   UNL A   1      44.256  29.029  28.216  1.00  0.00     0.167 HD
ATOM     64  C   UNL A   1      46.752  30.402  28.039  1.00  0.00     0.074 A 
ATOM     65  C   UNL A   1      48.147  30.671  27.760  1.00  0.00     0.031 C 
ATOM     66  C   UNL A   1      45.869  31.321  28.506  1.00  0.00     0.034 A 
BRANCH  53  67
ATOM     67  C   UNL A   1      40.087  29.248  29.200  1.00  0.00     0.023 A 
ATOM     68  C   UNL A   1      39.706  29.234  30.557  1.00  0.00     0.031 A 
ATOM     69  C   UNL A   1      39.083  29.439  28.236  1.00  0.00     0.131 A 
ATOM     70  C   UNL A   1      38.356  29.362  30.908  1.00  0.00     0.055 A 
ATOM     71  C   UNL A   1      37.744  29.617  28.593  1.00  0.00     0.041 A 
ATOM     72  F   UNL A   1      39.387  29.456  26.927  1.00  0.00    -0.206 F 
ATOM     73  C   UNL A   1      37.374  29.562  29.933  1.00  0.00     0.022 A 
BRANCH  70  74
ATOM     74  S   UNL A   1      37.812  29.185  32.629  1.00  0.00     0.124 S 
ATOM     75  O   UNL A   1      38.876  29.878  33.352  1.00  0.00    -0.237 OA
ATOM     76  O   UNL A   1      36.521  29.868  32.614  1.00  0.00    -0.237 OA
ATOM     77  O   UNL A   1      37.760  27.741  32.835  1.00  0.00    -0.744 OA
ENDBRANCH  70  74
ENDBRANCH  53  67
BRANCH  54  78
ATOM     78  C   UNL A   1      49.393  26.833  26.365  1.00  0.00     0.023 A 
ATOM     79  C   UNL A   1      50.425  26.644  27.303  1.00  0.00     0.031 A 
ATOM     80  C   UNL A   1      49.725  26.813  25.002  1.00  0.00     0.131 A 
ATOM     81  C   UNL A   1      51.753  26.552  26.869  1.00  0.00     0.055 A 
ATOM     82  C   UNL A   1      51.041  26.630  24.571  1.00  0.00     0.041 A 
ATOM     83  F   UNL A   1      48.778  27.003  24.071  1.00  0.00    -0.206 F 
ATOM     84  C   UNL A   1      52.066  26.525  25.507  1.00  0.00     0.022 A 
BRANCH  81  85
ATOM     85  S   UNL A   1      53.123  26.649  28.055  1.00  0.00     0.124 S 
ATOM     86  O   UNL A   1      53.588  28.020  27.874  1.00  0.00    -0.237 OA
ATOM     87  O   UNL A   1      52.442  26.374  29.318  1.00  0.00    -0.237 OA
ATOM     88  O   UNL A   1      54.042  25.607  27.609  1.00  0.00    -0.744 OA
ENDBRANCH  81  85
ENDBRANCH  54  78
BRANCH  66  89
ATOM     89  C   UNL A   1      46.354  32.729  28.758  1.00  0.00     0.023 A 
ATOM     90  C   UNL A   1      46.252  33.698  27.741  1.00  0.00     0.031 A 
ATOM     91  C   UNL A   1      47.060  33.064  29.925  1.00  0.00     0.131 A 
ATOM     92  C   UNL A   1      46.896  34.933  27.886  1.00  0.00     0.055 A 
ATOM     93  C   UNL A   1      47.650  34.319  30.090  1.00  0.00     0.041 A 
ATOM     94  F   UNL A   1      47.196  32.173  30.920  1.00  0.00    -0.206 F 
ATOM     95  C   UNL A   1      47.585  35.252  29.060  1.00  0.00     0.022 A 
BRANCH  92  96
ATOM     96  S   UNL A   1      46.952  36.125  26.519  1.00  0.00     0.124 S 
ATOM     97  O   UNL A   1      48.386  36.206  26.248  1.00  0.00    -0.237 OA
ATOM     98  O   UNL A   1      46.160  35.451  25.493  1.00  0.00    -0.237 OA
ATOM     99  O   UNL A   1      46.357  37.334  27.080  1.00  0.00    -0.744 OA
ENDBRANCH  92  96
ENDBRANCH  66  89
ENDBRANCH  40  41
ENDBRANCH  32  35
ENDBRANCH  30  31
ENDBRANCH   1  30
TORSDOF 16
ENDMDL
MODEL 3
REMARK VINA RESULT:     -11.6      4.795     13.490
REMARK SMILES CCN1C(=O)/C(=C2/SC(=S)N([C@@H](C)C(=O)NCCCCNC(=O)c3ccc(-c4c5nc(c(-c6cc(S(=O)(=O)[O-])ccc6F)c6ccc([nH]6)c(-c6cc(S(=O)(=O)[O-])ccc6F)c6nc(c(-c7cc(S(=O)(=O)[O-])ccc7F)c7ccc4[nH]7)C=C6)C=C5)cc3)C2=O)c2cc(Br)ccc21
REMARK SMILES IDX 19 1 18 2 17 3 16 4 14 5 15 6 12 8 13 9 11 10 3 11 4 12
REMARK SMILES IDX 95 13 5 14 6 15 89 16 94 17 7 18 90 19 93 20 8 21 87 22
REMARK SMILES IDX 91 23 9 24 88 25 92 26 10 27 2 28 1 29 20 30 21 31 22 32
REMARK SMILES IDX 23 34 24 35 25 36 86 37 26 38 85 39 27 40 28 41 29 42 79 43
REMARK SMILES IDX 30 44 84 45 78 46 80 47 31 48 83 49 77 50 76 51 32 53 64 54
REMARK SMILES IDX 44 55 63 56 45 57 48 58 62 59 81 60 46 61 47 62 61 64 82 65
REMARK SMILES IDX 49 66 33 67 34 68 42 69 35 70 41 71 43 72 40 73 36 74 37 75
REMARK SMILES IDX 38 76 39 77 65 78 66 79 74 80 67 81 73 82 75 83 72 84 68 85
REMARK SMILES IDX 69 86 70 87 71 88 50 89 51 90 59 91 52 92 58 93 60 94 57 95
REMARK SMILES IDX 53 96 54 97 55 98 56 99
REMARK H PARENT 16 7 21 33 80 52 48 63
REMARK Flexibility Score: inf
ROOT
ATOM      1  C   UNL A   1      43.524  35.735  32.610  1.00  0.00     0.023 C 
ENDROOT
BRANCH   1   2
ATOM      2  C   UNL A   1      42.323  34.809  32.715  1.00  0.00     0.023 C 
BRANCH   2   3
ATOM      3  C   UNL A   1      41.476  34.990  33.973  1.00  0.00     0.116 C 
BRANCH   3   4
ATOM      4  N   UNL A   1      40.232  34.252  33.893  1.00  0.00    -0.354 N 
ATOM      5  C   UNL A   1      39.720  33.215  34.612  1.00  0.00     0.242 C 
ATOM      6  O   UNL A   1      38.575  32.866  34.303  1.00  0.00    -0.273 OA
ATOM      7  H   UNL A   1      39.638  34.562  33.172  1.00  0.00     0.163 HD
BRANCH   5   8
ATOM      8  C   UNL A   1      40.443  32.521  35.801  1.00  0.00     0.178 C 
ATOM      9  C   UNL A   1      41.045  33.543  36.760  1.00  0.00     0.042 C 
BRANCH   8  10
ATOM     10  N   UNL A   1      41.306  31.403  35.359  1.00  0.00    -0.280 N 
ATOM     11  N   UNL A   1      42.563  25.945  35.809  1.00  0.00    -0.308 N 
ATOM     12  C   UNL A   1      41.768  27.095  35.958  1.00  0.00     0.260 C 
ATOM     13  C   UNL A   1      43.262  25.959  34.586  1.00  0.00     0.052 A 
ATOM     14  O   UNL A   1      41.153  27.441  36.944  1.00  0.00    -0.269 OA
ATOM     15  C   UNL A   1      42.011  27.895  34.704  1.00  0.00     0.069 C 
ATOM     16  C   UNL A   1      42.931  27.105  33.862  1.00  0.00     0.014 A 
ATOM     17  C   UNL A   1      44.185  25.045  34.097  1.00  0.00     0.028 A 
ATOM     18  C   UNL A   1      41.701  29.195  34.577  1.00  0.00     0.093 C 
ATOM     19  C   UNL A   1      43.472  27.318  32.598  1.00  0.00     0.026 A 
ATOM     20  C   UNL A   1      44.787  25.300  32.858  1.00  0.00     0.018 A 
ATOM     21  S   UNL A   1      42.646  30.245  33.572  1.00  0.00    -0.053 SA
ATOM     22  C   UNL A   1      40.803  30.096  35.382  1.00  0.00     0.267 C 
ATOM     23  C   UNL A   1      44.428  26.428  32.118  1.00  0.00     0.018 A 
ATOM     24  C   UNL A   1      42.545  31.490  34.787  1.00  0.00     0.149 C 
ATOM     25  O   UNL A   1      39.761  29.733  35.902  1.00  0.00    -0.268 OA
ATOM     26  Br  UNL A   1      45.273  26.783  30.464  1.00  0.00    -0.051 Br
ATOM     27  S   UNL A   1      43.874  32.400  35.206  1.00  0.00    -0.052 S 
BRANCH  11  28
ATOM     28  C   UNL A   1      42.791  24.984  36.870  1.00  0.00     0.122 C 
ATOM     29  C   UNL A   1      43.900  25.401  37.821  1.00  0.00     0.028 C 
ENDBRANCH  11  28
ENDBRANCH   8  10
ENDBRANCH   5   8
ENDBRANCH   3   4
ENDBRANCH   2   3
ENDBRANCH   1   2
BRANCH   1  30
ATOM     30  C   UNL A   1      43.678  36.433  31.269  1.00  0.00     0.116 C 
BRANCH  30  31
ATOM     31  N   UNL A   1      44.998  37.007  31.030  1.00  0.00    -0.352 N 
ATOM     32  C   UNL A   1      46.086  36.412  30.420  1.00  0.00     0.251 C 
ATOM     33  H   UNL A   1      45.131  37.932  31.342  1.00  0.00     0.163 HD
ATOM     34  O   UNL A   1      47.161  36.997  30.343  1.00  0.00    -0.269 OA
BRANCH  32  35
ATOM     35  C   UNL A   1      45.934  35.029  29.924  1.00  0.00     0.039 A 
ATOM     36  C   UNL A   1      45.359  34.812  28.672  1.00  0.00     0.014 A 
ATOM     37  C   UNL A   1      46.187  33.961  30.786  1.00  0.00     0.014 A 
ATOM     38  C   UNL A   1      44.794  33.576  28.400  1.00  0.00     0.010 A 
ATOM     39  C   UNL A   1      45.738  32.683  30.441  1.00  0.00     0.010 A 
ATOM     40  C   UNL A   1      44.967  32.494  29.282  1.00  0.00    -0.014 A 
BRANCH  40  41
ATOM     41  C   UNL A   1      44.333  31.185  28.965  1.00  0.00     0.031 A 
ATOM     42  C   UNL A   1      42.920  30.872  29.389  1.00  0.00     0.074 A 
ATOM     43  C   UNL A   1      45.031  30.287  28.243  1.00  0.00     0.049 A 
ATOM     44  N   UNL A   1      42.229  29.779  29.193  1.00  0.00    -0.248 NA
ATOM     45  C   UNL A   1      42.189  31.910  30.133  1.00  0.00     0.031 C 
ATOM     46  C   UNL A   1      46.404  30.485  27.774  1.00  0.00     0.029 A 
ATOM     47  N   UNL A   1      44.691  29.049  27.762  1.00  0.00    -0.354 N 
ATOM     48  C   UNL A   1      41.004  29.977  29.820  1.00  0.00     0.074 A 
ATOM     49  C   UNL A   1      41.052  31.290  30.424  1.00  0.00     0.031 C 
ATOM     50  C   UNL A   1      46.767  29.438  27.026  1.00  0.00     0.029 A 
ATOM     51  C   UNL A   1      45.699  28.445  27.047  1.00  0.00     0.049 A 
ATOM     52  H   UNL A   1      43.812  28.633  27.913  1.00  0.00     0.167 HD
ATOM     53  C   UNL A   1      39.938  29.142  29.876  1.00  0.00     0.034 A 
ATOM     54  C   UNL A   1      45.782  27.216  26.497  1.00  0.00     0.034 A 
ATOM     55  C   UNL A   1      39.899  27.851  29.232  1.00  0.00     0.049 A 
ATOM     56  C   UNL A   1      44.594  26.301  26.586  1.00  0.00     0.074 A 
ATOM     57  C   UNL A   1      38.840  26.961  29.177  1.00  0.00     0.029 A 
ATOM     58  N   UNL A   1      40.949  27.263  28.541  1.00  0.00    -0.354 N 
ATOM     59  N   UNL A   1      43.424  26.529  27.135  1.00  0.00    -0.248 NA
ATOM     60  C   UNL A   1      44.727  24.970  25.984  1.00  0.00     0.031 C 
ATOM     61  C   UNL A   1      39.276  25.804  28.533  1.00  0.00     0.029 A 
ATOM     62  C   UNL A   1      40.576  26.004  28.096  1.00  0.00     0.049 A 
ATOM     63  H   UNL A   1      41.828  27.678  28.388  1.00  0.00     0.167 HD
ATOM     64  C   UNL A   1      42.675  25.373  26.934  1.00  0.00     0.074 A 
ATOM     65  C   UNL A   1      43.516  24.463  26.184  1.00  0.00     0.031 C 
ATOM     66  C   UNL A   1      41.411  25.096  27.342  1.00  0.00     0.034 A 
BRANCH  53  67
ATOM     67  C   UNL A   1      38.711  29.563  30.652  1.00  0.00     0.023 A 
ATOM     68  C   UNL A   1      37.777  30.436  30.056  1.00  0.00     0.031 A 
ATOM     69  C   UNL A   1      38.536  29.237  32.007  1.00  0.00     0.131 A 
ATOM     70  C   UNL A   1      36.743  30.987  30.824  1.00  0.00     0.055 A 
ATOM     71  C   UNL A   1      37.474  29.749  32.756  1.00  0.00     0.041 A 
ATOM     72  F   UNL A   1      39.398  28.415  32.628  1.00  0.00    -0.206 F 
ATOM     73  C   UNL A   1      36.581  30.640  32.169  1.00  0.00     0.022 A 
BRANCH  70  74
ATOM     74  S   UNL A   1      35.624  32.237  30.135  1.00  0.00     0.124 S 
ATOM     75  O   UNL A   1      36.505  33.399  30.028  1.00  0.00    -0.237 OA
ATOM     76  O   UNL A   1      35.233  31.632  28.865  1.00  0.00    -0.237 OA
ATOM     77  O   UNL A   1      34.567  32.351  31.134  1.00  0.00    -0.744 OA
ENDBRANCH  70  74
ENDBRANCH  53  67
BRANCH  54  78
ATOM     78  C   UNL A   1      47.047  26.832  25.804  1.00  0.00     0.023 A 
ATOM     79  C   UNL A   1      48.041  26.105  26.486  1.00  0.00     0.031 A 
ATOM     80  C   UNL A   1      47.348  27.323  24.524  1.00  0.00     0.131 A 
ATOM     81  C   UNL A   1      49.321  25.984  25.932  1.00  0.00     0.055 A 
ATOM     82  C   UNL A   1      48.598  27.121  23.936  1.00  0.00     0.041 A 
ATOM     83  F   UNL A   1      46.438  28.034  23.841  1.00  0.00    -0.206 F 
ATOM     84  C   UNL A   1      49.601  26.472  24.651  1.00  0.00     0.022 A 
BRANCH  81  85
ATOM     85  S   UNL A   1      50.704  25.356  26.924  1.00  0.00     0.124 S 
ATOM     86  O   UNL A   1      51.620  24.870  25.897  1.00  0.00    -0.237 OA
ATOM     87  O   UNL A   1      51.131  26.560  27.633  1.00  0.00    -0.237 OA
ATOM     88  O   UNL A   1      50.091  24.329  27.761  1.00  0.00    -0.744 OA
ENDBRANCH  81  85
ENDBRANCH  54  78
BRANCH  66  89
ATOM     89  C   UNL A   1      40.820  23.749  27.002  1.00  0.00     0.023 A 
ATOM     90  C   UNL A   1      39.658  23.672  26.210  1.00  0.00     0.031 A 
ATOM     91  C   UNL A   1      41.299  22.567  27.593  1.00  0.00     0.131 A 
ATOM     92  C   UNL A   1      38.982  22.453  26.078  1.00  0.00     0.055 A 
ATOM     93  C   UNL A   1      40.654  21.342  27.409  1.00  0.00     0.041 A 
ATOM     94  F   UNL A   1      42.396  22.587  28.366  1.00  0.00    -0.206 F 
ATOM     95  C   UNL A   1      39.480  21.286  26.664  1.00  0.00     0.022 A 
BRANCH  92  96
ATOM     96  S   UNL A   1      37.380  22.359  25.231  1.00  0.00     0.124 S 
ATOM     97  O   UNL A   1      37.614  21.293  24.259  1.00  0.00    -0.237 OA
ATOM     98  O   UNL A   1      36.475  22.018  26.326  1.00  0.00    -0.237 OA
ATOM     99  O   UNL A   1      37.203  23.691  24.662  1.00  0.00    -0.744 OA
ENDBRANCH  92  96
ENDBRANCH  66  89
ENDBRANCH  40  41
ENDBRANCH  32  35
ENDBRANCH  30  31
ENDBRANCH   1  30
TORSDOF 16
ENDMDL
