MODEL 1
REMARK VINA RESULT:     -12.4      0.000      0.000
REMARK SMILES O=C(C[NH+]1CCC(C(=O)NCCCCNC(=O)c2ccc(-c3c4nc(c(-c5cc(S(=O)(=O)[O-])ccc5F)c5ccc([nH]5)c(-c5cc(S(=O)(=O)[O-])ccc5F)c5nc(c(-c6cc(S(=O)(=O)[O-])ccc6F)c6ccc3[nH]6)C=C5)C=C4)cc2)CC1)Nc1ccccc1Oc1ccccc1
REMARK SMILES IDX 11 1 10 2 8 3 9 4 7 6 4 7 5 8 82 9 6 11 81 12 3 13 2 14 1 15
REMARK SMILES IDX 83 16 84 18 85 19 89 20 86 21 88 22 87 23 90 24 91 25 92 26
REMARK SMILES IDX 96 27 93 28 95 29 94 30 12 31 13 32 14 33 15 34 16 35 17 37
REMARK SMILES IDX 18 38 19 39 80 40 20 41 79 42 21 43 22 44 23 45 73 46 24 47
REMARK SMILES IDX 78 48 72 49 74 50 25 51 77 52 71 53 70 54 26 56 58 57 38 58
REMARK SMILES IDX 57 59 39 60 42 61 56 62 75 63 40 64 41 65 55 67 76 68 43 69
REMARK SMILES IDX 27 70 28 71 36 72 29 73 35 74 37 75 34 76 30 77 31 78 32 79
REMARK SMILES IDX 33 80 59 81 60 82 68 83 61 84 67 85 69 86 66 87 62 88 63 89
REMARK SMILES IDX 64 90 65 91 44 92 45 93 53 94 46 95 52 96 54 97 51 98 47 99
REMARK SMILES IDX 48 100 49 101 50 102
REMARK H PARENT 10 5 4 10 83 17 15 36 74 55 42 66
REMARK Flexibility Score: inf
ROOT
ATOM      1  C   UNL A   1      36.191  20.944  25.415  1.00  0.00     0.116 C 
ENDROOT
BRANCH   1   2
ATOM      2  N   UNL A   1      35.061  20.102  25.053  1.00  0.00    -0.356 N 
ATOM      3  C   UNL A   1      33.745  20.405  24.861  1.00  0.00     0.223 C 
ATOM      4  O   UNL A   1      32.974  19.489  24.570  1.00  0.00    -0.275 OA
ATOM      5  H   UNL A   1      35.284  19.151  24.925  1.00  0.00     0.163 HD
BRANCH   3   6
ATOM      6  C   UNL A   1      33.237  21.835  24.966  1.00  0.00     0.089 C 
ATOM      7  N   UNL A   1      31.251  23.495  23.681  1.00  0.00    -0.327 N 
ATOM      8  C   UNL A   1      32.664  23.851  23.494  1.00  0.00     0.263 C 
ATOM      9  C   UNL A   1      31.035  23.119  25.081  1.00  0.00     0.263 C 
ATOM     10  H   UNL A   1      30.991  22.679  23.126  1.00  0.00     0.348 HD
ATOM     11  C   UNL A   1      33.564  22.643  23.705  1.00  0.00     0.075 C 
ATOM     12  C   UNL A   1      31.770  21.829  25.407  1.00  0.00     0.075 C 
BRANCH   7  13
ATOM     13  C   UNL A   1      30.387  24.594  23.185  1.00  0.00     0.363 C 
BRANCH  13  14
ATOM     14  C   UNL A   1      30.180  25.746  24.166  1.00  0.00     0.279 C 
ATOM     15  O   UNL A   1      29.083  26.009  24.651  1.00  0.00    -0.268 OA
ATOM     16  N   UNL A   1      31.338  26.488  24.345  1.00  0.00    -0.318 N 
ATOM     17  H   UNL A   1      32.114  26.281  23.776  1.00  0.00     0.170 HD
BRANCH  16  18
ATOM     18  C   UNL A   1      31.468  27.516  25.292  1.00  0.00     0.084 A 
ATOM     19  C   UNL A   1      31.667  27.083  26.614  1.00  0.00     0.030 A 
ATOM     20  C   UNL A   1      31.427  28.892  25.010  1.00  0.00     0.150 A 
ATOM     21  C   UNL A   1      31.938  27.997  27.632  1.00  0.00     0.002 A 
ATOM     22  C   UNL A   1      31.697  29.797  26.051  1.00  0.00     0.049 A 
ATOM     23  C   UNL A   1      31.966  29.355  27.348  1.00  0.00     0.004 A 
BRANCH  20  24
ATOM     24  O   UNL A   1      31.157  29.533  23.818  1.00  0.00    -0.455 OA
BRANCH  24  25
ATOM     25  C   UNL A   1      29.880  29.868  23.443  1.00  0.00     0.127 A 
ATOM     26  C   UNL A   1      29.443  31.131  23.853  1.00  0.00     0.047 A 
ATOM     27  C   UNL A   1      29.022  29.032  22.728  1.00  0.00     0.047 A 
ATOM     28  C   UNL A   1      28.191  31.604  23.463  1.00  0.00     0.004 A 
ATOM     29  C   UNL A   1      27.766  29.508  22.338  1.00  0.00     0.004 A 
ATOM     30  C   UNL A   1      27.357  30.797  22.692  1.00  0.00     0.000 A 
ENDBRANCH  24  25
ENDBRANCH  20  24
ENDBRANCH  16  18
ENDBRANCH  13  14
ENDBRANCH   7  13
ENDBRANCH   3   6
ENDBRANCH   1   2
BRANCH   1  31
ATOM     31  C   UNL A   1      37.417  20.660  24.550  1.00  0.00     0.023 C 
BRANCH  31  32
ATOM     32  C   UNL A   1      38.245  19.457  24.999  1.00  0.00     0.023 C 
BRANCH  32  33
ATOM     33  C   UNL A   1      39.233  19.740  26.121  1.00  0.00     0.116 C 
BRANCH  33  34
ATOM     34  N   UNL A   1      40.467  18.983  25.990  1.00  0.00    -0.352 N 
ATOM     35  C   UNL A   1      41.766  19.445  26.048  1.00  0.00     0.251 C 
ATOM     36  H   UNL A   1      40.364  18.016  25.842  1.00  0.00     0.163 HD
ATOM     37  O   UNL A   1      42.695  18.707  25.779  1.00  0.00    -0.269 OA
BRANCH  35  38
ATOM     38  C   UNL A   1      41.997  20.865  26.404  1.00  0.00     0.039 A 
ATOM     39  C   UNL A   1      42.306  21.189  27.725  1.00  0.00     0.014 A 
ATOM     40  C   UNL A   1      41.965  21.855  25.417  1.00  0.00     0.014 A 
ATOM     41  C   UNL A   1      42.657  22.503  28.046  1.00  0.00     0.010 A 
ATOM     42  C   UNL A   1      42.385  23.146  25.726  1.00  0.00     0.010 A 
ATOM     43  C   UNL A   1      42.738  23.481  27.042  1.00  0.00    -0.014 A 
BRANCH  43  44
ATOM     44  C   UNL A   1      43.186  24.866  27.347  1.00  0.00     0.031 A 
ATOM     45  C   UNL A   1      42.241  25.830  28.008  1.00  0.00     0.074 A 
ATOM     46  C   UNL A   1      44.413  25.272  26.965  1.00  0.00     0.049 A 
ATOM     47  N   UNL A   1      42.404  27.101  28.275  1.00  0.00    -0.248 NA
ATOM     48  C   UNL A   1      40.923  25.300  28.391  1.00  0.00     0.031 C 
ATOM     49  C   UNL A   1      45.405  24.439  26.279  1.00  0.00     0.029 A 
ATOM     50  N   UNL A   1      45.035  26.489  27.090  1.00  0.00    -0.354 N 
ATOM     51  C   UNL A   1      41.207  27.526  28.842  1.00  0.00     0.074 A 
ATOM     52  C   UNL A   1      40.309  26.391  28.821  1.00  0.00     0.031 C 
ATOM     53  C   UNL A   1      46.517  25.163  26.068  1.00  0.00     0.029 A 
ATOM     54  C   UNL A   1      46.304  26.520  26.560  1.00  0.00     0.049 A 
ATOM     55  H   UNL A   1      44.612  27.267  27.521  1.00  0.00     0.167 HD
ATOM     56  C   UNL A   1      40.897  28.741  29.357  1.00  0.00     0.034 A 
ATOM     57  C   UNL A   1      47.191  27.531  26.472  1.00  0.00     0.034 A 
ATOM     58  C   UNL A   1      41.811  29.857  29.384  1.00  0.00     0.049 A 
ATOM     59  C   UNL A   1      46.816  28.880  27.030  1.00  0.00     0.074 A 
ATOM     60  C   UNL A   1      41.619  31.117  29.924  1.00  0.00     0.029 A 
ATOM     61  N   UNL A   1      43.089  29.851  28.841  1.00  0.00    -0.354 N 
ATOM     62  N   UNL A   1      45.695  29.254  27.604  1.00  0.00    -0.248 NA
ATOM     63  C   UNL A   1      47.829  29.939  26.940  1.00  0.00     0.031 C 
ATOM     64  C   UNL A   1      42.755  31.888  29.655  1.00  0.00     0.029 A 
ATOM     65  C   UNL A   1      43.686  31.091  29.011  1.00  0.00     0.049 A 
ATOM     66  H   UNL A   1      43.511  29.078  28.400  1.00  0.00     0.167 HD
ATOM     67  C   UNL A   1      45.883  30.584  27.970  1.00  0.00     0.074 A 
ATOM     68  C   UNL A   1      47.227  30.941  27.564  1.00  0.00     0.031 C 
ATOM     69  C   UNL A   1      45.025  31.433  28.591  1.00  0.00     0.034 A 
BRANCH  56  70
ATOM     70  C   UNL A   1      39.504  28.922  29.911  1.00  0.00     0.023 A 
ATOM     71  C   UNL A   1      38.486  29.537  29.161  1.00  0.00     0.031 A 
ATOM     72  C   UNL A   1      39.196  28.508  31.219  1.00  0.00     0.131 A 
ATOM     73  C   UNL A   1      37.238  29.793  29.749  1.00  0.00     0.055 A 
ATOM     74  C   UNL A   1      37.926  28.689  31.769  1.00  0.00     0.041 A 
ATOM     75  F   UNL A   1      40.132  27.933  31.993  1.00  0.00    -0.206 F 
ATOM     76  C   UNL A   1      36.943  29.350  31.040  1.00  0.00     0.022 A 
BRANCH  73  77
ATOM     77  S   UNL A   1      36.061  30.845  28.855  1.00  0.00     0.124 S 
ATOM     78  O   UNL A   1      35.426  31.572  29.952  1.00  0.00    -0.237 OA
ATOM     79  O   UNL A   1      36.932  31.630  27.990  1.00  0.00    -0.237 OA
ATOM     80  O   UNL A   1      35.197  29.887  28.170  1.00  0.00    -0.744 OA
ENDBRANCH  73  77
ENDBRANCH  56  70
BRANCH  57  81
ATOM     81  C   UNL A   1      48.518  27.320  25.826  1.00  0.00     0.023 A 
ATOM     82  C   UNL A   1      48.686  27.509  24.444  1.00  0.00     0.031 A 
ATOM     83  C   UNL A   1      49.628  26.884  26.570  1.00  0.00     0.131 A 
ATOM     84  C   UNL A   1      49.920  27.219  23.843  1.00  0.00     0.055 A 
ATOM     85  C   UNL A   1      50.868  26.644  25.975  1.00  0.00     0.041 A 
ATOM     86  F   UNL A   1      49.524  26.694  27.896  1.00  0.00    -0.206 F 
ATOM     87  C   UNL A   1      51.016  26.799  24.601  1.00  0.00     0.022 A 
BRANCH  84  88
ATOM     88  S   UNL A   1      50.050  27.320  22.037  1.00  0.00     0.124 S 
ATOM     89  O   UNL A   1      48.948  26.464  21.610  1.00  0.00    -0.237 OA
ATOM     90  O   UNL A   1      49.881  28.750  21.801  1.00  0.00    -0.237 OA
ATOM     91  O   UNL A   1      51.388  26.800  21.762  1.00  0.00    -0.744 OA
ENDBRANCH  84  88
ENDBRANCH  57  81
BRANCH  69  92
ATOM     92  C   UNL A   1      45.540  32.815  28.910  1.00  0.00     0.023 A 
ATOM     93  C   UNL A   1      45.490  33.859  27.969  1.00  0.00     0.031 A 
ATOM     94  C   UNL A   1      46.098  33.085  30.171  1.00  0.00     0.131 A 
ATOM     95  C   UNL A   1      46.040  35.110  28.287  1.00  0.00     0.055 A 
ATOM     96  C   UNL A   1      46.590  34.349  30.501  1.00  0.00     0.041 A 
ATOM     97  F   UNL A   1      46.172  32.125  31.107  1.00  0.00    -0.206 F 
ATOM     98  C   UNL A   1      46.575  35.366  29.552  1.00  0.00     0.022 A 
BRANCH  95  99
ATOM     99  S   UNL A   1      46.124  36.378  26.992  1.00  0.00     0.124 S 
ATOM    100  O   UNL A   1      47.383  37.048  27.305  1.00  0.00    -0.237 OA
ATOM    101  O   UNL A   1      46.112  35.581  25.771  1.00  0.00    -0.237 OA
ATOM    102  O   UNL A   1      44.923  37.180  27.220  1.00  0.00    -0.744 OA
ENDBRANCH  95  99
ENDBRANCH  69  92
ENDBRANCH  43  44
ENDBRANCH  35  38
ENDBRANCH  33  34
ENDBRANCH  32  33
ENDBRANCH  31  32
ENDBRANCH   1  31
TORSDOF 19
ENDMDL
MODEL 2
REMARK VINA RESULT:     -12.3      5.313      9.896
REMARK SMILES O=C(C[NH+]1CCC(C(=O)NCCCCNC(=O)c2ccc(-c3c4nc(c(-c5cc(S(=O)(=O)[O-])ccc5F)c5ccc([nH]5)c(-c5cc(S(=O)(=O)[O-])ccc5F)c5nc(c(-c6cc(S(=O)(=O)[O-])ccc6F)c6ccc3[nH]6)C=C5)C=C4)cc2)CC1)Nc1ccccc1Oc1ccccc1
REMARK SMILES IDX 11 1 10 2 8 3 9 4 7 6 4 7 5 8 82 9 6 11 81 12 3 13 2 14 1 15
REMARK SMILES IDX 83 16 84 18 85 19 89 20 86 21 88 22 87 23 90 24 91 25 92 26
REMARK SMILES IDX 96 27 93 28 95 29 94 30 12 31 13 32 14 33 15 34 16 35 17 37
REMARK SMILES IDX 18 38 19 39 80 40 20 41 79 42 21 43 22 44 23 45 73 46 24 47
REMARK SMILES IDX 78 48 72 49 74 50 25 51 77 52 71 53 70 54 26 56 58 57 38 58
REMARK SMILES IDX 57 59 39 60 42 61 56 62 75 63 40 64 41 65 55 67 76 68 43 69
REMARK SMILES IDX 27 70 28 71 36 72 29 73 35 74 37 75 34 76 30 77 31 78 32 79
REMARK SMILES IDX 33 80 59 81 60 82 68 83 61 84 67 85 69 86 66 87 62 88 63 89
REMARK SMILES IDX 64 90 65 91 44 92 45 93 53 94 46 95 52 96 54 97 51 98 47 99
REMARK SMILES IDX 48 100 49 101 50 102
REMARK H PARENT 10 5 4 10 83 17 15 36 74 55 42 66
REMARK Flexibility Score: inf
ROOT
ATOM      1  C   UNL A   1      30.218  30.757  24.565  1.00  0.00     0.116 C 
ENDROOT
BRANCH   1   2
ATOM      2  N   UNL A   1      30.656  29.862  23.504  1.00  0.00    -0.356 N 
ATOM      3  C   UNL A   1      30.877  28.516  23.505  1.00  0.00     0.223 C 
ATOM      4  O   UNL A   1      31.267  27.991  22.461  1.00  0.00    -0.275 OA
ATOM      5  H   UNL A   1      30.821  30.303  22.640  1.00  0.00     0.163 HD
BRANCH   3   6
ATOM      6  C   UNL A   1      30.619  27.671  24.742  1.00  0.00     0.089 C 
ATOM      7  N   UNL A   1      31.372  25.066  25.743  1.00  0.00    -0.327 N 
ATOM      8  C   UNL A   1      29.958  25.290  25.417  1.00  0.00     0.263 C 
ATOM      9  C   UNL A   1      31.896  26.249  26.434  1.00  0.00     0.263 C 
ATOM     10  H   UNL A   1      31.941  24.956  24.903  1.00  0.00     0.348 HD
ATOM     11  C   UNL A   1      29.802  26.417  24.408  1.00  0.00     0.075 C 
ATOM     12  C   UNL A   1      31.934  27.442  25.493  1.00  0.00     0.075 C 
BRANCH   7  13
ATOM     13  C   UNL A   1      31.521  23.790  26.484  1.00  0.00     0.363 C 
BRANCH  13  14
ATOM     14  C   UNL A   1      32.943  23.237  26.540  1.00  0.00     0.279 C 
ATOM     15  O   UNL A   1      33.512  22.989  27.600  1.00  0.00    -0.268 OA
ATOM     16  N   UNL A   1      33.516  23.152  25.280  1.00  0.00    -0.318 N 
ATOM     17  H   UNL A   1      33.022  23.533  24.520  1.00  0.00     0.170 HD
BRANCH  16  18
ATOM     18  C   UNL A   1      34.760  22.552  25.027  1.00  0.00     0.084 A 
ATOM     19  C   UNL A   1      35.766  23.434  24.593  1.00  0.00     0.030 A 
ATOM     20  C   UNL A   1      35.053  21.188  25.185  1.00  0.00     0.150 A 
ATOM     21  C   UNL A   1      37.079  22.994  24.428  1.00  0.00     0.002 A 
ATOM     22  C   UNL A   1      36.381  20.763  25.008  1.00  0.00     0.049 A 
ATOM     23  C   UNL A   1      37.390  21.659  24.648  1.00  0.00     0.004 A 
BRANCH  20  24
ATOM     24  O   UNL A   1      34.210  20.143  25.507  1.00  0.00    -0.455 OA
BRANCH  24  25
ATOM     25  C   UNL A   1      33.831  19.201  24.585  1.00  0.00     0.127 A 
ATOM     26  C   UNL A   1      32.701  19.521  23.825  1.00  0.00     0.047 A 
ATOM     27  C   UNL A   1      34.472  17.977  24.397  1.00  0.00     0.047 A 
ATOM     28  C   UNL A   1      32.272  18.671  22.808  1.00  0.00     0.004 A 
ATOM     29  C   UNL A   1      34.040  17.123  23.376  1.00  0.00     0.004 A 
ATOM     30  C   UNL A   1      32.951  17.477  22.574  1.00  0.00     0.000 A 
ENDBRANCH  24  25
ENDBRANCH  20  24
ENDBRANCH  16  18
ENDBRANCH  13  14
ENDBRANCH   7  13
ENDBRANCH   3   6
ENDBRANCH   1   2
BRANCH   1  31
ATOM     31  C   UNL A   1      31.234  30.838  25.701  1.00  0.00     0.023 C 
BRANCH  31  32
ATOM     32  C   UNL A   1      31.300  32.197  26.398  1.00  0.00     0.023 C 
BRANCH  32  33
ATOM     33  C   UNL A   1      32.561  32.440  27.215  1.00  0.00     0.116 C 
BRANCH  33  34
ATOM     34  N   UNL A   1      32.714  33.829  27.616  1.00  0.00    -0.352 N 
ATOM     35  C   UNL A   1      33.689  34.386  28.417  1.00  0.00     0.251 C 
ATOM     36  H   UNL A   1      32.036  34.452  27.270  1.00  0.00     0.163 HD
ATOM     37  O   UNL A   1      33.602  35.546  28.776  1.00  0.00    -0.269 OA
BRANCH  35  38
ATOM     38  C   UNL A   1      34.816  33.533  28.860  1.00  0.00     0.039 A 
ATOM     39  C   UNL A   1      36.123  33.976  28.649  1.00  0.00     0.014 A 
ATOM     40  C   UNL A   1      34.572  32.331  29.531  1.00  0.00     0.014 A 
ATOM     41  C   UNL A   1      37.189  33.245  29.180  1.00  0.00     0.010 A 
ATOM     42  C   UNL A   1      35.631  31.646  30.120  1.00  0.00     0.010 A 
ATOM     43  C   UNL A   1      36.949  32.098  29.952  1.00  0.00    -0.014 A 
BRANCH  43  44
ATOM     44  C   UNL A   1      38.063  31.350  30.594  1.00  0.00     0.031 A 
ATOM     45  C   UNL A   1      38.460  31.668  32.009  1.00  0.00     0.074 A 
ATOM     46  C   UNL A   1      38.758  30.441  29.881  1.00  0.00     0.049 A 
ATOM     47  N   UNL A   1      39.457  31.199  32.715  1.00  0.00    -0.248 NA
ATOM     48  C   UNL A   1      37.646  32.672  32.710  1.00  0.00     0.031 C 
ATOM     49  C   UNL A   1      38.493  30.077  28.486  1.00  0.00     0.029 A 
ATOM     50  N   UNL A   1      39.835  29.664  30.225  1.00  0.00    -0.354 N 
ATOM     51  C   UNL A   1      39.398  31.860  33.938  1.00  0.00     0.074 A 
ATOM     52  C   UNL A   1      38.306  32.807  33.849  1.00  0.00     0.031 C 
ATOM     53  C   UNL A   1      39.367  29.131  28.106  1.00  0.00     0.029 A 
ATOM     54  C   UNL A   1      40.281  28.852  29.208  1.00  0.00     0.049 A 
ATOM     55  H   UNL A   1      40.249  29.684  31.119  1.00  0.00     0.167 HD
ATOM     56  C   UNL A   1      40.166  31.675  35.041  1.00  0.00     0.034 A 
ATOM     57  C   UNL A   1      41.316  27.990  29.166  1.00  0.00     0.034 A 
ATOM     58  C   UNL A   1      41.240  30.715  35.117  1.00  0.00     0.049 A 
ATOM     59  C   UNL A   1      42.170  27.817  30.396  1.00  0.00     0.074 A 
ATOM     60  C   UNL A   1      42.049  30.410  36.197  1.00  0.00     0.029 A 
ATOM     61  N   UNL A   1      41.661  29.908  34.067  1.00  0.00    -0.354 N 
ATOM     62  N   UNL A   1      42.075  28.419  31.560  1.00  0.00    -0.248 NA
ATOM     63  C   UNL A   1      43.265  26.842  30.311  1.00  0.00     0.031 C 
ATOM     64  C   UNL A   1      42.996  29.465  35.785  1.00  0.00     0.029 A 
ATOM     65  C   UNL A   1      42.733  29.126  34.468  1.00  0.00     0.049 A 
ATOM     66  H   UNL A   1      41.256  29.894  33.170  1.00  0.00     0.167 HD
ATOM     67  C   UNL A   1      43.078  27.870  32.354  1.00  0.00     0.074 A 
ATOM     68  C   UNL A   1      43.756  26.882  31.540  1.00  0.00     0.031 C 
ATOM     69  C   UNL A   1      43.405  28.151  33.640  1.00  0.00     0.034 A 
BRANCH  56  70
ATOM     70  C   UNL A   1      39.876  32.547  36.239  1.00  0.00     0.023 A 
ATOM     71  C   UNL A   1      38.975  32.146  37.242  1.00  0.00     0.031 A 
ATOM     72  C   UNL A   1      40.478  33.811  36.365  1.00  0.00     0.131 A 
ATOM     73  C   UNL A   1      38.642  33.030  38.278  1.00  0.00     0.055 A 
ATOM     74  C   UNL A   1      40.207  34.651  37.446  1.00  0.00     0.041 A 
ATOM     75  F   UNL A   1      41.332  34.259  35.429  1.00  0.00    -0.206 F 
ATOM     76  C   UNL A   1      39.271  34.270  38.402  1.00  0.00     0.022 A 
BRANCH  73  77
ATOM     77  S   UNL A   1      37.265  32.594  39.377  1.00  0.00     0.124 S 
ATOM     78  O   UNL A   1      36.115  32.781  38.494  1.00  0.00    -0.237 OA
ATOM     79  O   UNL A   1      37.573  31.216  39.739  1.00  0.00    -0.237 OA
ATOM     80  O   UNL A   1      37.372  33.566  40.463  1.00  0.00    -0.744 OA
ENDBRANCH  73  77
ENDBRANCH  56  70
BRANCH  57  81
ATOM     81  C   UNL A   1      41.614  27.225  27.921  1.00  0.00     0.023 A 
ATOM     82  C   UNL A   1      41.319  25.855  27.829  1.00  0.00     0.031 A 
ATOM     83  C   UNL A   1      42.237  27.840  26.822  1.00  0.00     0.131 A 
ATOM     84  C   UNL A   1      41.689  25.135  26.683  1.00  0.00     0.055 A 
ATOM     85  C   UNL A   1      42.557  27.130  25.663  1.00  0.00     0.041 A 
ATOM     86  F   UNL A   1      42.535  29.149  26.855  1.00  0.00    -0.206 F 
ATOM     87  C   UNL A   1      42.295  25.766  25.594  1.00  0.00     0.022 A 
BRANCH  84  88
ATOM     88  S   UNL A   1      41.437  23.339  26.669  1.00  0.00     0.124 S 
ATOM     89  O   UNL A   1      42.227  22.937  25.510  1.00  0.00    -0.237 OA
ATOM     90  O   UNL A   1      41.966  22.950  27.972  1.00  0.00    -0.237 OA
ATOM     91  O   UNL A   1      39.991  23.199  26.519  1.00  0.00    -0.744 OA
ENDBRANCH  84  88
ENDBRANCH  57  81
BRANCH  69  92
ATOM     92  C   UNL A   1      44.519  27.341  34.256  1.00  0.00     0.023 A 
ATOM     93  C   UNL A   1      44.314  26.028  34.716  1.00  0.00     0.031 A 
ATOM     94  C   UNL A   1      45.802  27.898  34.395  1.00  0.00     0.131 A 
ATOM     95  C   UNL A   1      45.362  25.336  35.340  1.00  0.00     0.055 A 
ATOM     96  C   UNL A   1      46.857  27.183  34.964  1.00  0.00     0.041 A 
ATOM     97  F   UNL A   1      46.053  29.149  33.974  1.00  0.00    -0.206 F 
ATOM     98  C   UNL A   1      46.636  25.899  35.453  1.00  0.00     0.022 A 
BRANCH  95  99
ATOM     99  S   UNL A   1      45.017  23.717  36.083  1.00  0.00     0.124 S 
ATOM    100  O   UNL A   1      43.652  23.461  35.631  1.00  0.00    -0.237 OA
ATOM    101  O   UNL A   1      46.052  22.875  35.493  1.00  0.00    -0.237 OA
ATOM    102  O   UNL A   1      45.159  23.961  37.517  1.00  0.00    -0.744 OA
ENDBRANCH  95  99
ENDBRANCH  69  92
ENDBRANCH  43  44
ENDBRANCH  35  38
ENDBRANCH  33  34
ENDBRANCH  32  33
ENDBRANCH  31  32
ENDBRANCH   1  31
TORSDOF 19
ENDMDL
MODEL 3
REMARK VINA RESULT:     -12.3      5.899     11.551
REMARK SMILES O=C(C[NH+]1CCC(C(=O)NCCCCNC(=O)c2ccc(-c3c4nc(c(-c5cc(S(=O)(=O)[O-])ccc5F)c5ccc([nH]5)c(-c5cc(S(=O)(=O)[O-])ccc5F)c5nc(c(-c6cc(S(=O)(=O)[O-])ccc6F)c6ccc3[nH]6)C=C5)C=C4)cc2)CC1)Nc1ccccc1Oc1ccccc1
REMARK SMILES IDX 11 1 10 2 8 3 9 4 7 6 4 7 5 8 82 9 6 11 81 12 3 13 2 14 1 15
REMARK SMILES IDX 83 16 84 18 85 19 89 20 86 21 88 22 87 23 90 24 91 25 92 26
REMARK SMILES IDX 96 27 93 28 95 29 94 30 12 31 13 32 14 33 15 34 16 35 17 37
REMARK SMILES IDX 18 38 19 39 80 40 20 41 79 42 21 43 22 44 23 45 73 46 24 47
REMARK SMILES IDX 78 48 72 49 74 50 25 51 77 52 71 53 70 54 26 56 58 57 38 58
REMARK SMILES IDX 57 59 39 60 42 61 56 62 75 63 40 64 41 65 55 67 76 68 43 69
REMARK SMILES IDX 27 70 28 71 36 72 29 73 35 74 37 75 34 76 30 77 31 78 32 79
REMARK SMILES IDX 33 80 59 81 60 82 68 83 61 84 67 85 69 86 66 87 62 88 63 89
REMARK SMILES IDX 64 90 65 91 44 92 45 93 53 94 46 95 52 96 54 97 51 98 47 99
REMARK SMILES IDX 48 100 49 101 50 102
REMARK H PARENT 10 5 4 10 83 17 15 36 74 55 42 66
REMARK Flexibility Score: inf
ROOT
ATOM      1  C   UNL A   1      30.330  30.840  24.960  1.00  0.00     0.116 C 
ENDROOT
BRANCH   1   2
ATOM      2  N   UNL A   1      30.718  30.034  23.812  1.00  0.00    -0.356 N 
ATOM      3  C   UNL A   1      30.911  28.690  23.687  1.00  0.00     0.223 C 
ATOM      4  O   UNL A   1      31.261  28.252  22.590  1.00  0.00    -0.275 OA
ATOM      5  H   UNL A   1      30.869  30.548  22.985  1.00  0.00     0.163 HD
BRANCH   3   6
ATOM      6  C   UNL A   1      30.670  27.743  24.853  1.00  0.00     0.089 C 
ATOM      7  N   UNL A   1      31.358  25.031  25.576  1.00  0.00    -0.327 N 
ATOM      8  C   UNL A   1      29.941  25.335  25.335  1.00  0.00     0.263 C 
ATOM      9  C   UNL A   1      31.957  26.125  26.348  1.00  0.00     0.263 C 
ATOM     10  H   UNL A   1      31.886  24.978  24.705  1.00  0.00     0.348 HD
ATOM     11  C   UNL A   1      29.790  26.557  24.441  1.00  0.00     0.075 C 
ATOM     12  C   UNL A   1      32.005  27.397  25.520  1.00  0.00     0.075 C 
BRANCH   7  13
ATOM     13  C   UNL A   1      31.485  23.686  26.189  1.00  0.00     0.363 C 
BRANCH  13  14
ATOM     14  C   UNL A   1      32.917  23.184  26.354  1.00  0.00     0.279 C 
ATOM     15  O   UNL A   1      33.419  22.973  27.455  1.00  0.00    -0.268 OA
ATOM     16  N   UNL A   1      33.579  23.099  25.138  1.00  0.00    -0.318 N 
ATOM     17  H   UNL A   1      33.127  23.451  24.339  1.00  0.00     0.170 HD
BRANCH  16  18
ATOM     18  C   UNL A   1      34.857  22.539  24.982  1.00  0.00     0.084 A 
ATOM     19  C   UNL A   1      35.853  23.440  24.569  1.00  0.00     0.030 A 
ATOM     20  C   UNL A   1      35.190  21.194  25.216  1.00  0.00     0.150 A 
ATOM     21  C   UNL A   1      37.189  23.046  24.498  1.00  0.00     0.002 A 
ATOM     22  C   UNL A   1      36.541  20.815  25.134  1.00  0.00     0.049 A 
ATOM     23  C   UNL A   1      37.536  21.734  24.794  1.00  0.00     0.004 A 
BRANCH  20  24
ATOM     24  O   UNL A   1      34.369  20.131  25.534  1.00  0.00    -0.455 OA
BRANCH  24  25
ATOM     25  C   UNL A   1      33.874  19.280  24.579  1.00  0.00     0.127 A 
ATOM     26  C   UNL A   1      34.582  18.087  24.410  1.00  0.00     0.047 A 
ATOM     27  C   UNL A   1      32.763  19.549  23.780  1.00  0.00     0.047 A 
ATOM     28  C   UNL A   1      34.126  17.116  23.520  1.00  0.00     0.004 A 
ATOM     29  C   UNL A   1      32.305  18.575  22.887  1.00  0.00     0.004 A 
ATOM     30  C   UNL A   1      32.977  17.354  22.768  1.00  0.00     0.000 A 
ENDBRANCH  24  25
ENDBRANCH  20  24
ENDBRANCH  16  18
ENDBRANCH  13  14
ENDBRANCH   7  13
ENDBRANCH   3   6
ENDBRANCH   1   2
BRANCH   1  31
ATOM     31  C   UNL A   1      31.485  31.035  25.940  1.00  0.00     0.023 C 
BRANCH  31  32
ATOM     32  C   UNL A   1      31.416  32.327  26.752  1.00  0.00     0.023 C 
BRANCH  32  33
ATOM     33  C   UNL A   1      32.757  32.840  27.258  1.00  0.00     0.116 C 
BRANCH  33  34
ATOM     34  N   UNL A   1      32.684  34.197  27.775  1.00  0.00    -0.352 N 
ATOM     35  C   UNL A   1      33.455  34.782  28.758  1.00  0.00     0.251 C 
ATOM     36  H   UNL A   1      31.996  34.773  27.371  1.00  0.00     0.163 HD
ATOM     37  O   UNL A   1      33.179  35.889  29.180  1.00  0.00    -0.269 OA
BRANCH  35  38
ATOM     38  C   UNL A   1      34.596  34.017  29.312  1.00  0.00     0.039 A 
ATOM     39  C   UNL A   1      35.893  34.366  28.932  1.00  0.00     0.014 A 
ATOM     40  C   UNL A   1      34.379  33.000  30.247  1.00  0.00     0.014 A 
ATOM     41  C   UNL A   1      36.981  33.742  29.548  1.00  0.00     0.010 A 
ATOM     42  C   UNL A   1      35.463  32.433  30.911  1.00  0.00     0.010 A 
ATOM     43  C   UNL A   1      36.774  32.801  30.570  1.00  0.00    -0.014 A 
BRANCH  43  44
ATOM     44  C   UNL A   1      37.917  32.183  31.294  1.00  0.00     0.031 A 
ATOM     45  C   UNL A   1      38.674  31.046  30.667  1.00  0.00     0.074 A 
ATOM     46  C   UNL A   1      38.223  32.599  32.539  1.00  0.00     0.049 A 
ATOM     47  N   UNL A   1      39.636  30.314  31.168  1.00  0.00    -0.248 NA
ATOM     48  C   UNL A   1      38.272  30.660  29.306  1.00  0.00     0.031 C 
ATOM     49  C   UNL A   1      37.534  33.666  33.269  1.00  0.00     0.029 A 
ATOM     50  N   UNL A   1      39.187  32.169  33.417  1.00  0.00    -0.354 N 
ATOM     51  C   UNL A   1      39.944  29.373  30.191  1.00  0.00     0.074 A 
ATOM     52  C   UNL A   1      39.021  29.590  29.097  1.00  0.00     0.031 C 
ATOM     53  C   UNL A   1      38.114  33.823  34.471  1.00  0.00     0.029 A 
ATOM     54  C   UNL A   1      39.183  32.841  34.617  1.00  0.00     0.049 A 
ATOM     55  H   UNL A   1      39.822  31.447  33.206  1.00  0.00     0.167 HD
ATOM     56  C   UNL A   1      40.923  28.434  30.196  1.00  0.00     0.034 A 
ATOM     57  C   UNL A   1      39.949  32.677  35.715  1.00  0.00     0.034 A 
ATOM     58  C   UNL A   1      41.844  28.242  31.289  1.00  0.00     0.049 A 
ATOM     59  C   UNL A   1      41.015  31.612  35.706  1.00  0.00     0.074 A 
ATOM     60  C   UNL A   1      42.903  27.356  31.380  1.00  0.00     0.029 A 
ATOM     61  N   UNL A   1      41.812  28.945  32.488  1.00  0.00    -0.354 N 
ATOM     62  N   UNL A   1      41.323  30.759  34.756  1.00  0.00    -0.248 NA
ATOM     63  C   UNL A   1      41.844  31.495  36.912  1.00  0.00     0.031 C 
ATOM     64  C   UNL A   1      43.471  27.480  32.653  1.00  0.00     0.029 A 
ATOM     65  C   UNL A   1      42.815  28.493  33.332  1.00  0.00     0.049 A 
ATOM     66  H   UNL A   1      41.171  29.659  32.706  1.00  0.00     0.167 HD
ATOM     67  C   UNL A   1      42.403  30.025  35.241  1.00  0.00     0.074 A 
ATOM     68  C   UNL A   1      42.698  30.547  36.561  1.00  0.00     0.031 C 
ATOM     69  C   UNL A   1      43.091  29.018  34.649  1.00  0.00     0.034 A 
BRANCH  56  70
ATOM     70  C   UNL A   1      41.024  27.536  28.986  1.00  0.00     0.023 A 
ATOM     71  C   UNL A   1      42.033  27.709  28.022  1.00  0.00     0.031 A 
ATOM     72  C   UNL A   1      40.081  26.515  28.773  1.00  0.00     0.131 A 
ATOM     73  C   UNL A   1      42.027  26.932  26.854  1.00  0.00     0.055 A 
ATOM     74  C   UNL A   1      40.132  25.689  27.649  1.00  0.00     0.041 A 
ATOM     75  F   UNL A   1      39.082  26.314  29.648  1.00  0.00    -0.206 F 
ATOM     76  C   UNL A   1      41.099  25.906  26.673  1.00  0.00     0.022 A 
BRANCH  73  77
ATOM     77  S   UNL A   1      43.159  27.384  25.509  1.00  0.00     0.124 S 
ATOM     78  O   UNL A   1      44.179  28.144  26.228  1.00  0.00    -0.237 OA
ATOM     79  O   UNL A   1      43.574  26.085  24.996  1.00  0.00    -0.237 OA
ATOM     80  O   UNL A   1      42.323  28.174  24.609  1.00  0.00    -0.744 OA
ENDBRANCH  73  77
ENDBRANCH  56  70
BRANCH  57  81
ATOM     81  C   UNL A   1      39.739  33.532  36.918  1.00  0.00     0.023 A 
ATOM     82  C   UNL A   1      40.559  34.645  37.164  1.00  0.00     0.031 A 
ATOM     83  C   UNL A   1      38.745  33.225  37.863  1.00  0.00     0.131 A 
ATOM     84  C   UNL A   1      40.402  35.383  38.347  1.00  0.00     0.055 A 
ATOM     85  C   UNL A   1      38.559  33.992  39.015  1.00  0.00     0.041 A 
ATOM     86  F   UNL A   1      37.929  32.176  37.674  1.00  0.00    -0.206 F 
ATOM     87  C   UNL A   1      39.400  35.072  39.269  1.00  0.00     0.022 A 
BRANCH  84  88
ATOM     88  S   UNL A   1      41.584  36.712  38.704  1.00  0.00     0.124 S 
ATOM     89  O   UNL A   1      40.699  37.795  39.116  1.00  0.00    -0.237 OA
ATOM     90  O   UNL A   1      42.401  36.114  39.756  1.00  0.00    -0.237 OA
ATOM     91  O   UNL A   1      42.266  36.913  37.427  1.00  0.00    -0.744 OA
ENDBRANCH  84  88
ENDBRANCH  57  81
BRANCH  69  92
ATOM     92  C   UNL A   1      44.263  28.449  35.411  1.00  0.00     0.023 A 
ATOM     93  C   UNL A   1      44.102  27.432  36.368  1.00  0.00     0.031 A 
ATOM     94  C   UNL A   1      45.559  28.943  35.181  1.00  0.00     0.131 A 
ATOM     95  C   UNL A   1      45.211  26.979  37.098  1.00  0.00     0.055 A 
ATOM     96  C   UNL A   1      46.668  28.447  35.869  1.00  0.00     0.041 A 
ATOM     97  F   UNL A   1      45.771  29.916  34.279  1.00  0.00    -0.206 F 
ATOM     98  C   UNL A   1      46.495  27.469  36.843  1.00  0.00     0.022 A 
BRANCH  95  99
ATOM     99  S   UNL A   1      44.941  25.798  38.448  1.00  0.00     0.124 S 
ATOM    100  O   UNL A   1      44.534  24.598  37.725  1.00  0.00    -0.237 OA
ATOM    101  O   UNL A   1      46.253  25.745  39.084  1.00  0.00    -0.237 OA
ATOM    102  O   UNL A   1      43.890  26.426  39.248  1.00  0.00    -0.744 OA
ENDBRANCH  95  99
ENDBRANCH  69  92
ENDBRANCH  43  44
ENDBRANCH  35  38
ENDBRANCH  33  34
ENDBRANCH  32  33
ENDBRANCH  31  32
ENDBRANCH   1  31
TORSDOF 19
ENDMDL
