MODEL 1
REMARK VINA RESULT:     -11.1      0.000      0.000
REMARK SMILES [NH3+][C@@H](Cc1c[nH]c2ccccc12)C(=O)N[C@@H](CS)C(=O)N[C@@H](CO)C(=O)NCCCCNC(=O)c1ccc(-c2c3nc(c(-c4cc(S(=O)(=O)[O-])ccc4F)c4ccc([nH]4)c(-c4cc(S(=O)(=O)[O-])ccc4F)c4nc(c(-c5cc(S(=O)(=O)[O-])ccc5F)c5ccc2[nH]5)C=C4)C=C3)cc1
REMARK SMILES IDX 28 1 27 2 25 3 26 4 22 6 21 7 19 8 20 9 16 11 15 12 13 13
REMARK SMILES IDX 14 14 2 16 1 17 3 21 4 22 5 23 12 24 6 25 7 26 11 27 8 29
REMARK SMILES IDX 10 30 9 31 17 32 18 33 23 35 24 36 29 38 30 39 31 40 32 41
REMARK SMILES IDX 33 42 34 44 35 45 36 46 97 47 37 48 96 49 38 50 39 51 40 52
REMARK SMILES IDX 90 53 41 54 95 55 89 56 91 57 42 58 94 59 88 60 87 61 43 63
REMARK SMILES IDX 75 64 55 65 74 66 56 67 59 68 73 69 92 70 57 71 58 72 72 74
REMARK SMILES IDX 93 75 60 76 44 77 45 78 53 79 46 80 52 81 54 82 51 83 47 84
REMARK SMILES IDX 48 85 49 86 50 87 76 88 77 89 85 90 78 91 84 92 86 93 83 94
REMARK SMILES IDX 79 95 80 96 81 97 82 98 61 99 62 100 70 101 63 102 69 103
REMARK SMILES IDX 71 104 68 105 64 106 65 107 66 108 67 109
REMARK H PARENT 27 5 21 10 15 15 1 18 1 19 1 20 6 28 18 34 24 37 32 43 91 62
REMARK H PARENT 59 73
REMARK Flexibility Score: inf
ROOT
ATOM      1  C   UNL A   1      35.531  21.585  25.649  1.00  0.00     0.116 C 
ENDROOT
BRANCH   1   2
ATOM      2  N   UNL A   1      35.661  20.185  25.293  1.00  0.00    -0.354 N 
ATOM      3  C   UNL A   1      34.743  19.289  24.843  1.00  0.00     0.244 C 
ATOM      4  O   UNL A   1      35.164  18.210  24.408  1.00  0.00    -0.273 OA
ATOM      5  H   UNL A   1      36.570  19.822  25.395  1.00  0.00     0.163 HD
BRANCH   3   6
ATOM      6  C   UNL A   1      33.238  19.582  24.782  1.00  0.00     0.197 C 
BRANCH   6   7
ATOM      7  N   UNL A   1      32.806  20.163  23.519  1.00  0.00    -0.340 N 
ATOM      8  C   UNL A   1      32.209  21.338  23.236  1.00  0.00     0.244 C 
ATOM      9  O   UNL A   1      31.548  21.339  22.192  1.00  0.00    -0.273 OA
ATOM     10  H   UNL A   1      32.982  19.598  22.732  1.00  0.00     0.164 HD
BRANCH   8  11
ATOM     11  C   UNL A   1      32.175  22.550  24.186  1.00  0.00     0.181 C 
BRANCH  11  12
ATOM     12  N   UNL A   1      32.313  23.764  23.403  1.00  0.00    -0.338 N 
ATOM     13  C   UNL A   1      33.126  24.835  23.647  1.00  0.00     0.279 C 
ATOM     14  O   UNL A   1      33.388  25.556  22.677  1.00  0.00    -0.268 OA
ATOM     15  H   UNL A   1      31.751  23.824  22.596  1.00  0.00     0.164 HD
BRANCH  13  16
ATOM     16  C   UNL A   1      33.641  25.204  25.074  1.00  0.00     0.275 C 
BRANCH  16  17
ATOM     17  N   UNL A   1      35.113  25.096  25.145  1.00  0.00    -0.347 N 
ATOM     18  H   UNL A   1      35.527  25.546  24.329  1.00  0.00     0.345 HD
ATOM     19  H   UNL A   1      35.381  24.113  25.165  1.00  0.00     0.345 HD
ATOM     20  H   UNL A   1      35.447  25.557  25.993  1.00  0.00     0.345 HD
ENDBRANCH  16  17
BRANCH  16  21
ATOM     21  C   UNL A   1      32.968  26.389  25.809  1.00  0.00     0.113 C 
BRANCH  21  22
ATOM     22  C   UNL A   1      32.243  27.494  25.069  1.00  0.00    -0.016 A 
ATOM     23  C   UNL A   1      32.642  28.776  24.727  1.00  0.00     0.087 A 
ATOM     24  C   UNL A   1      30.887  27.376  24.585  1.00  0.00     0.003 A 
ATOM     25  N   UNL A   1      31.716  29.307  23.865  1.00  0.00    -0.361 N 
ATOM     26  C   UNL A   1      30.622  28.483  23.781  1.00  0.00     0.046 A 
ATOM     27  C   UNL A   1      29.873  26.406  24.733  1.00  0.00     0.010 A 
ATOM     28  H   UNL A   1      31.821  30.156  23.379  1.00  0.00     0.166 HD
ATOM     29  C   UNL A   1      29.432  28.638  23.060  1.00  0.00     0.026 A 
ATOM     30  C   UNL A   1      28.651  26.574  24.070  1.00  0.00     0.001 A 
ATOM     31  C   UNL A   1      28.445  27.663  23.228  1.00  0.00     0.002 A 
ENDBRANCH  21  22
ENDBRANCH  16  21
ENDBRANCH  13  16
ENDBRANCH  11  12
BRANCH  11  32
ATOM     32  C   UNL A   1      31.186  22.549  25.362  1.00  0.00     0.101 C 
BRANCH  32  33
ATOM     33  S   UNL A   1      31.893  22.805  27.026  1.00  0.00    -0.177 SA
ATOM     34  H   UNL A   1      33.242  22.951  26.927  1.00  0.00     0.102 HD
ENDBRANCH  32  33
ENDBRANCH  11  32
ENDBRANCH   8  11
ENDBRANCH   6   7
BRANCH   6  35
ATOM     35  C   UNL A   1      32.377  18.378  25.189  1.00  0.00     0.191 C 
BRANCH  35  36
ATOM     36  O   UNL A   1      32.956  17.613  26.243  1.00  0.00    -0.394 OA
ATOM     37  H   UNL A   1      33.173  16.725  25.918  1.00  0.00     0.210 HD
ENDBRANCH  35  36
ENDBRANCH   6  35
ENDBRANCH   3   6
ENDBRANCH   1   2
BRANCH   1  38
ATOM     38  C   UNL A   1      36.883  22.288  25.753  1.00  0.00     0.023 C 
BRANCH  38  39
ATOM     39  C   UNL A   1      38.070  21.491  25.212  1.00  0.00     0.023 C 
BRANCH  39  40
ATOM     40  C   UNL A   1      39.273  21.394  26.144  1.00  0.00     0.116 C 
BRANCH  40  41
ATOM     41  N   UNL A   1      39.993  20.134  26.027  1.00  0.00    -0.352 N 
ATOM     42  C   UNL A   1      41.349  19.907  26.122  1.00  0.00     0.251 C 
ATOM     43  H   UNL A   1      39.438  19.338  25.858  1.00  0.00     0.163 HD
ATOM     44  O   UNL A   1      41.809  18.795  25.918  1.00  0.00    -0.269 OA
BRANCH  42  45
ATOM     45  C   UNL A   1      42.233  21.052  26.420  1.00  0.00     0.039 A 
ATOM     46  C   UNL A   1      42.616  21.894  25.375  1.00  0.00     0.014 A 
ATOM     47  C   UNL A   1      42.582  21.346  27.741  1.00  0.00     0.014 A 
ATOM     48  C   UNL A   1      43.263  23.094  25.666  1.00  0.00     0.010 A 
ATOM     49  C   UNL A   1      43.167  22.573  28.033  1.00  0.00     0.010 A 
ATOM     50  C   UNL A   1      43.489  23.469  27.001  1.00  0.00    -0.014 A 
BRANCH  50  51
ATOM     51  C   UNL A   1      44.011  24.815  27.349  1.00  0.00     0.031 A 
ATOM     52  C   UNL A   1      43.085  25.858  27.906  1.00  0.00     0.074 A 
ATOM     53  C   UNL A   1      45.294  25.121  27.066  1.00  0.00     0.049 A 
ATOM     54  N   UNL A   1      43.315  27.121  28.148  1.00  0.00    -0.248 NA
ATOM     55  C   UNL A   1      41.711  25.424  28.200  1.00  0.00     0.031 C 
ATOM     56  C   UNL A   1      46.276  24.199  26.487  1.00  0.00     0.029 A 
ATOM     57  N   UNL A   1      45.988  26.296  27.206  1.00  0.00    -0.354 N 
ATOM     58  C   UNL A   1      42.112  27.640  28.612  1.00  0.00     0.074 A 
ATOM     59  C   UNL A   1      41.144  26.564  28.563  1.00  0.00     0.031 C 
ATOM     60  C   UNL A   1      47.444  24.841  26.333  1.00  0.00     0.029 A 
ATOM     61  C   UNL A   1      47.286  26.230  26.751  1.00  0.00     0.049 A 
ATOM     62  H   UNL A   1      45.596  27.110  27.596  1.00  0.00     0.167 HD
ATOM     63  C   UNL A   1      41.847  28.893  29.055  1.00  0.00     0.034 A 
ATOM     64  C   UNL A   1      48.232  27.186  26.656  1.00  0.00     0.034 A 
ATOM     65  C   UNL A   1      42.828  29.949  29.106  1.00  0.00     0.049 A 
ATOM     66  C   UNL A   1      47.898  28.585  27.106  1.00  0.00     0.074 A 
ATOM     67  C   UNL A   1      42.692  31.229  29.612  1.00  0.00     0.029 A 
ATOM     68  N   UNL A   1      44.126  29.850  28.619  1.00  0.00    -0.354 N 
ATOM     69  N   UNL A   1      46.771  29.044  27.599  1.00  0.00    -0.248 NA
ATOM     70  C   UNL A   1      48.960  29.591  26.985  1.00  0.00     0.031 C 
ATOM     71  C   UNL A   1      43.882  31.926  29.370  1.00  0.00     0.029 A 
ATOM     72  C   UNL A   1      44.785  31.061  28.772  1.00  0.00     0.049 A 
ATOM     73  H   UNL A   1      44.520  29.040  28.223  1.00  0.00     0.167 HD
ATOM     74  C   UNL A   1      46.996  30.392  27.861  1.00  0.00     0.074 A 
ATOM     75  C   UNL A   1      48.369  30.665  27.488  1.00  0.00     0.031 C 
ATOM     76  C   UNL A   1      46.146  31.321  28.369  1.00  0.00     0.034 A 
BRANCH  63  77
ATOM     77  C   UNL A   1      40.434  29.190  29.494  1.00  0.00     0.023 A 
ATOM     78  C   UNL A   1      40.096  29.321  30.852  1.00  0.00     0.031 A 
ATOM     79  C   UNL A   1      39.406  29.316  28.543  1.00  0.00     0.131 A 
ATOM     80  C   UNL A   1      38.756  29.494  31.226  1.00  0.00     0.055 A 
ATOM     81  C   UNL A   1      38.085  29.567  28.919  1.00  0.00     0.041 A 
ATOM     82  F   UNL A   1      39.665  29.181  27.234  1.00  0.00    -0.206 F 
ATOM     83  C   UNL A   1      37.750  29.642  30.267  1.00  0.00     0.022 A 
BRANCH  80  84
ATOM     84  S   UNL A   1      38.328  29.384  32.985  1.00  0.00     0.124 S 
ATOM     85  O   UNL A   1      39.581  28.904  33.563  1.00  0.00    -0.237 OA
ATOM     86  O   UNL A   1      37.961  30.758  33.306  1.00  0.00    -0.237 OA
ATOM     87  O   UNL A   1      37.229  28.420  33.011  1.00  0.00    -0.744 OA
ENDBRANCH  80  84
ENDBRANCH  63  77
BRANCH  64  88
ATOM     88  C   UNL A   1      49.569  26.869  26.080  1.00  0.00     0.023 A 
ATOM     89  C   UNL A   1      49.905  27.265  24.776  1.00  0.00     0.031 A 
ATOM     90  C   UNL A   1      50.517  26.132  26.812  1.00  0.00     0.131 A 
ATOM     91  C   UNL A   1      51.142  26.890  24.228  1.00  0.00     0.055 A 
ATOM     92  C   UNL A   1      51.766  25.802  26.279  1.00  0.00     0.041 A 
ATOM     93  F   UNL A   1      50.248  25.734  28.065  1.00  0.00    -0.206 F 
ATOM     94  C   UNL A   1      52.079  26.171  24.975  1.00  0.00     0.022 A 
BRANCH  91  95
ATOM     95  S   UNL A   1      51.483  27.294  22.493  1.00  0.00     0.124 S 
ATOM     96  O   UNL A   1      52.733  26.581  22.261  1.00  0.00    -0.237 OA
ATOM     97  O   UNL A   1      50.303  26.758  21.822  1.00  0.00    -0.237 OA
ATOM     98  O   UNL A   1      51.585  28.751  22.497  1.00  0.00    -0.744 OA
ENDBRANCH  91  95
ENDBRANCH  64  88
BRANCH  76  99
ATOM     99  C   UNL A   1      46.692  32.712  28.561  1.00  0.00     0.023 A 
ATOM    100  C   UNL A   1      46.554  33.697  27.569  1.00  0.00     0.031 A 
ATOM    101  C   UNL A   1      47.357  33.055  29.751  1.00  0.00     0.131 A 
ATOM    102  C   UNL A   1      47.110  34.969  27.768  1.00  0.00     0.055 A 
ATOM    103  C   UNL A   1      47.862  34.338  29.966  1.00  0.00     0.041 A 
ATOM    104  F   UNL A   1      47.518  32.149  30.729  1.00  0.00    -0.206 F 
ATOM    105  C   UNL A   1      47.747  35.301  28.967  1.00  0.00     0.022 A 
BRANCH 102 106
ATOM    106  S   UNL A   1      47.041  36.173  26.413  1.00  0.00     0.124 S 
ATOM    107  O   UNL A   1      46.313  37.279  27.028  1.00  0.00    -0.237 OA
ATOM    108  O   UNL A   1      48.454  36.416  26.137  1.00  0.00    -0.237 OA
ATOM    109  O   UNL A   1      46.319  35.464  25.359  1.00  0.00    -0.744 OA
ENDBRANCH 102 106
ENDBRANCH  76  99
ENDBRANCH  50  51
ENDBRANCH  42  45
ENDBRANCH  40  41
ENDBRANCH  39  40
ENDBRANCH  38  39
ENDBRANCH   1  38
TORSDOF 25
ENDMDL
MODEL 2
REMARK VINA RESULT:     -11.0      1.505      2.085
REMARK SMILES [NH3+][C@@H](Cc1c[nH]c2ccccc12)C(=O)N[C@@H](CS)C(=O)N[C@@H](CO)C(=O)NCCCCNC(=O)c1ccc(-c2c3nc(c(-c4cc(S(=O)(=O)[O-])ccc4F)c4ccc([nH]4)c(-c4cc(S(=O)(=O)[O-])ccc4F)c4nc(c(-c5cc(S(=O)(=O)[O-])ccc5F)c5ccc2[nH]5)C=C4)C=C3)cc1
REMARK SMILES IDX 28 1 27 2 25 3 26 4 22 6 21 7 19 8 20 9 16 11 15 12 13 13
REMARK SMILES IDX 14 14 2 16 1 17 3 21 4 22 5 23 12 24 6 25 7 26 11 27 8 29
REMARK SMILES IDX 10 30 9 31 17 32 18 33 23 35 24 36 29 38 30 39 31 40 32 41
REMARK SMILES IDX 33 42 34 44 35 45 36 46 97 47 37 48 96 49 38 50 39 51 40 52
REMARK SMILES IDX 90 53 41 54 95 55 89 56 91 57 42 58 94 59 88 60 87 61 43 63
REMARK SMILES IDX 75 64 55 65 74 66 56 67 59 68 73 69 92 70 57 71 58 72 72 74
REMARK SMILES IDX 93 75 60 76 44 77 45 78 53 79 46 80 52 81 54 82 51 83 47 84
REMARK SMILES IDX 48 85 49 86 50 87 76 88 77 89 85 90 78 91 84 92 86 93 83 94
REMARK SMILES IDX 79 95 80 96 81 97 82 98 61 99 62 100 70 101 63 102 69 103
REMARK SMILES IDX 71 104 68 105 64 106 65 107 66 108 67 109
REMARK H PARENT 27 5 21 10 15 15 1 18 1 19 1 20 6 28 18 34 24 37 32 43 91 62
REMARK H PARENT 59 73
REMARK Flexibility Score: inf
ROOT
ATOM      1  C   UNL A   1      35.635  21.372  25.786  1.00  0.00     0.116 C 
ENDROOT
BRANCH   1   2
ATOM      2  N   UNL A   1      35.746  19.999  25.331  1.00  0.00    -0.354 N 
ATOM      3  C   UNL A   1      34.814  19.148  24.825  1.00  0.00     0.244 C 
ATOM      4  O   UNL A   1      35.219  18.097  24.313  1.00  0.00    -0.273 OA
ATOM      5  H   UNL A   1      36.650  19.618  25.402  1.00  0.00     0.163 HD
BRANCH   3   6
ATOM      6  C   UNL A   1      33.312  19.463  24.795  1.00  0.00     0.197 C 
BRANCH   6   7
ATOM      7  N   UNL A   1      32.856  20.016  23.527  1.00  0.00    -0.340 N 
ATOM      8  C   UNL A   1      32.149  21.128  23.243  1.00  0.00     0.244 C 
ATOM      9  O   UNL A   1      31.520  21.077  22.180  1.00  0.00    -0.273 OA
ATOM     10  H   UNL A   1      33.110  19.484  22.738  1.00  0.00     0.164 HD
BRANCH   8  11
ATOM     11  C   UNL A   1      31.966  22.315  24.206  1.00  0.00     0.181 C 
BRANCH  11  12
ATOM     12  N   UNL A   1      31.426  23.441  23.466  1.00  0.00    -0.338 N 
ATOM     13  C   UNL A   1      32.057  24.604  23.124  1.00  0.00     0.279 C 
ATOM     14  O   UNL A   1      31.571  25.233  22.177  1.00  0.00    -0.268 OA
ATOM     15  H   UNL A   1      30.489  23.357  23.175  1.00  0.00     0.164 HD
BRANCH  13  16
ATOM     16  C   UNL A   1      33.271  25.178  23.920  1.00  0.00     0.275 C 
BRANCH  16  17
ATOM     17  N   UNL A   1      34.300  25.705  22.998  1.00  0.00    -0.347 N 
ATOM     18  H   UNL A   1      34.792  26.478  23.445  1.00  0.00     0.345 HD
ATOM     19  H   UNL A   1      33.854  26.033  22.143  1.00  0.00     0.345 HD
ATOM     20  H   UNL A   1      34.965  24.964  22.773  1.00  0.00     0.345 HD
ENDBRANCH  16  17
BRANCH  16  21
ATOM     21  C   UNL A   1      32.984  25.978  25.214  1.00  0.00     0.113 C 
BRANCH  21  22
ATOM     22  C   UNL A   1      32.465  27.401  25.188  1.00  0.00    -0.016 A 
ATOM     23  C   UNL A   1      31.459  27.990  24.440  1.00  0.00     0.087 A 
ATOM     24  C   UNL A   1      33.011  28.466  25.996  1.00  0.00     0.003 A 
ATOM     25  N   UNL A   1      31.219  29.244  24.941  1.00  0.00    -0.361 N 
ATOM     26  C   UNL A   1      32.168  29.569  25.876  1.00  0.00     0.046 A 
ATOM     27  C   UNL A   1      34.131  28.576  26.848  1.00  0.00     0.010 A 
ATOM     28  H   UNL A   1      30.473  29.826  24.669  1.00  0.00     0.166 HD
ATOM     29  C   UNL A   1      32.340  30.747  26.613  1.00  0.00     0.026 A 
ATOM     30  C   UNL A   1      34.355  29.769  27.547  1.00  0.00     0.001 A 
ATOM     31  C   UNL A   1      33.458  30.828  27.448  1.00  0.00     0.002 A 
ENDBRANCH  21  22
ENDBRANCH  16  21
ENDBRANCH  13  16
ENDBRANCH  11  12
BRANCH  11  32
ATOM     32  C   UNL A   1      31.434  22.051  25.623  1.00  0.00     0.101 C 
BRANCH  32  33
ATOM     33  S   UNL A   1      32.434  22.700  27.007  1.00  0.00    -0.177 SA
ATOM     34  H   UNL A   1      32.739  24.005  26.772  1.00  0.00     0.102 HD
ENDBRANCH  32  33
ENDBRANCH  11  32
ENDBRANCH   8  11
ENDBRANCH   6   7
BRANCH   6  35
ATOM     35  C   UNL A   1      32.444  18.284  25.256  1.00  0.00     0.191 C 
BRANCH  35  36
ATOM     36  O   UNL A   1      33.052  17.521  26.295  1.00  0.00    -0.394 OA
ATOM     37  H   UNL A   1      32.465  16.792  26.548  1.00  0.00     0.210 HD
ENDBRANCH  35  36
ENDBRANCH   6  35
ENDBRANCH   3   6
ENDBRANCH   1   2
BRANCH   1  38
ATOM     38  C   UNL A   1      36.933  22.155  25.598  1.00  0.00     0.023 C 
BRANCH  38  39
ATOM     39  C   UNL A   1      38.120  21.329  25.102  1.00  0.00     0.023 C 
BRANCH  39  40
ATOM     40  C   UNL A   1      39.314  21.265  26.047  1.00  0.00     0.116 C 
BRANCH  40  41
ATOM     41  N   UNL A   1      40.070  20.025  25.939  1.00  0.00    -0.352 N 
ATOM     42  C   UNL A   1      41.431  19.835  26.051  1.00  0.00     0.251 C 
ATOM     43  H   UNL A   1      39.540  19.214  25.763  1.00  0.00     0.163 HD
ATOM     44  O   UNL A   1      41.923  18.737  25.853  1.00  0.00    -0.269 OA
BRANCH  42  45
ATOM     45  C   UNL A   1      42.279  21.004  26.360  1.00  0.00     0.039 A 
ATOM     46  C   UNL A   1      42.656  21.854  25.319  1.00  0.00     0.014 A 
ATOM     47  C   UNL A   1      42.599  21.310  27.686  1.00  0.00     0.014 A 
ATOM     48  C   UNL A   1      43.267  23.071  25.617  1.00  0.00     0.010 A 
ATOM     49  C   UNL A   1      43.147  22.553  27.984  1.00  0.00     0.010 A 
ATOM     50  C   UNL A   1      43.462  23.454  26.955  1.00  0.00    -0.014 A 
BRANCH  50  51
ATOM     51  C   UNL A   1      43.942  24.814  27.307  1.00  0.00     0.031 A 
ATOM     52  C   UNL A   1      42.979  25.836  27.839  1.00  0.00     0.074 A 
ATOM     53  C   UNL A   1      45.223  25.151  27.051  1.00  0.00     0.049 A 
ATOM     54  N   UNL A   1      43.172  27.106  28.080  1.00  0.00    -0.248 NA
ATOM     55  C   UNL A   1      41.610  25.370  28.105  1.00  0.00     0.031 C 
ATOM     56  C   UNL A   1      46.240  24.252  26.498  1.00  0.00     0.029 A 
ATOM     57  N   UNL A   1      45.885  26.343  27.201  1.00  0.00    -0.354 N 
ATOM     58  C   UNL A   1      41.946  27.597  28.515  1.00  0.00     0.074 A 
ATOM     59  C   UNL A   1      41.007  26.497  28.450  1.00  0.00     0.031 C 
ATOM     60  C   UNL A   1      47.396  24.922  26.366  1.00  0.00     0.029 A 
ATOM     61  C   UNL A   1      47.193  26.308  26.774  1.00  0.00     0.049 A 
ATOM     62  H   UNL A   1      45.464  27.149  27.577  1.00  0.00     0.167 HD
ATOM     63  C   UNL A   1      41.641  28.845  28.946  1.00  0.00     0.034 A 
ATOM     64  C   UNL A   1      48.117  27.287  26.695  1.00  0.00     0.034 A 
ATOM     65  C   UNL A   1      42.595  29.925  29.013  1.00  0.00     0.049 A 
ATOM     66  C   UNL A   1      47.739  28.679  27.131  1.00  0.00     0.074 A 
ATOM     67  C   UNL A   1      42.415  31.204  29.510  1.00  0.00     0.029 A 
ATOM     68  N   UNL A   1      43.905  29.857  28.555  1.00  0.00    -0.354 N 
ATOM     69  N   UNL A   1      46.591  29.112  27.597  1.00  0.00    -0.248 NA
ATOM     70  C   UNL A   1      48.778  29.711  27.027  1.00  0.00     0.031 C 
ATOM     71  C   UNL A   1      43.593  31.929  29.290  1.00  0.00     0.029 A 
ATOM     72  C   UNL A   1      44.530  31.084  28.716  1.00  0.00     0.049 A 
ATOM     73  H   UNL A   1      44.327  29.055  28.172  1.00  0.00     0.167 HD
ATOM     74  C   UNL A   1      46.777  30.467  27.857  1.00  0.00     0.074 A 
ATOM     75  C   UNL A   1      48.150  30.772  27.512  1.00  0.00     0.031 C 
ATOM     76  C   UNL A   1      45.893  31.376  28.342  1.00  0.00     0.034 A 
BRANCH  63  77
ATOM     77  C   UNL A   1      40.212  29.108  29.352  1.00  0.00     0.023 A 
ATOM     78  C   UNL A   1      39.807  29.059  30.697  1.00  0.00     0.031 A 
ATOM     79  C   UNL A   1      39.235  29.385  28.379  1.00  0.00     0.131 A 
ATOM     80  C   UNL A   1      38.452  29.207  31.027  1.00  0.00     0.055 A 
ATOM     81  C   UNL A   1      37.900  29.610  28.722  1.00  0.00     0.041 A 
ATOM     82  F   UNL A   1      39.559  29.426  27.078  1.00  0.00    -0.206 F 
ATOM     83  C   UNL A   1      37.499  29.506  30.050  1.00  0.00     0.022 A 
BRANCH  80  84
ATOM     84  S   UNL A   1      37.934  28.866  32.730  1.00  0.00     0.124 S 
ATOM     85  O   UNL A   1      38.017  27.408  32.777  1.00  0.00    -0.237 OA
ATOM     86  O   UNL A   1      38.931  29.588  33.513  1.00  0.00    -0.237 OA
ATOM     87  O   UNL A   1      36.578  29.407  32.792  1.00  0.00    -0.744 OA
ENDBRANCH  80  84
ENDBRANCH  63  77
BRANCH  64  88
ATOM     88  C   UNL A   1      49.474  27.001  26.149  1.00  0.00     0.023 A 
ATOM     89  C   UNL A   1      50.561  26.767  27.005  1.00  0.00     0.031 A 
ATOM     90  C   UNL A   1      49.711  26.996  24.763  1.00  0.00     0.131 A 
ATOM     91  C   UNL A   1      51.845  26.575  26.469  1.00  0.00     0.055 A 
ATOM     92  C   UNL A   1      50.981  26.758  24.232  1.00  0.00     0.041 A 
ATOM     93  F   UNL A   1      48.705  27.209  23.900  1.00  0.00    -0.206 F 
ATOM     94  C   UNL A   1      52.060  26.558  25.088  1.00  0.00     0.022 A 
BRANCH  91  95
ATOM     95  S   UNL A   1      53.248  26.421  27.607  1.00  0.00     0.124 S 
ATOM     96  O   UNL A   1      53.919  27.704  27.429  1.00  0.00    -0.237 OA
ATOM     97  O   UNL A   1      52.578  26.219  28.887  1.00  0.00    -0.237 OA
ATOM     98  O   UNL A   1      53.974  25.260  27.097  1.00  0.00    -0.744 OA
ENDBRANCH  91  95
ENDBRANCH  64  88
BRANCH  76  99
ATOM     99  C   UNL A   1      46.400  32.781  28.539  1.00  0.00     0.023 A 
ATOM    100  C   UNL A   1      46.326  33.738  27.513  1.00  0.00     0.031 A 
ATOM    101  C   UNL A   1      46.963  33.166  29.768  1.00  0.00     0.131 A 
ATOM    102  C   UNL A   1      46.844  35.024  27.720  1.00  0.00     0.055 A 
ATOM    103  C   UNL A   1      47.429  34.463  29.987  1.00  0.00     0.041 A 
ATOM    104  F   UNL A   1      47.059  32.289  30.780  1.00  0.00    -0.206 F 
ATOM    105  C   UNL A   1      47.379  35.398  28.957  1.00  0.00     0.022 A 
BRANCH 102 106
ATOM    106  S   UNL A   1      46.864  36.192  26.333  1.00  0.00     0.124 S 
ATOM    107  O   UNL A   1      48.260  36.618  26.317  1.00  0.00    -0.237 OA
ATOM    108  O   UNL A   1      46.440  35.356  25.213  1.00  0.00    -0.237 OA
ATOM    109  O   UNL A   1      45.906  37.220  26.733  1.00  0.00    -0.744 OA
ENDBRANCH 102 106
ENDBRANCH  76  99
ENDBRANCH  50  51
ENDBRANCH  42  45
ENDBRANCH  40  41
ENDBRANCH  39  40
ENDBRANCH  38  39
ENDBRANCH   1  38
TORSDOF 25
ENDMDL
MODEL 3
REMARK VINA RESULT:     -10.9      2.736      7.892
REMARK SMILES [NH3+][C@@H](Cc1c[nH]c2ccccc12)C(=O)N[C@@H](CS)C(=O)N[C@@H](CO)C(=O)NCCCCNC(=O)c1ccc(-c2c3nc(c(-c4cc(S(=O)(=O)[O-])ccc4F)c4ccc([nH]4)c(-c4cc(S(=O)(=O)[O-])ccc4F)c4nc(c(-c5cc(S(=O)(=O)[O-])ccc5F)c5ccc2[nH]5)C=C4)C=C3)cc1
REMARK SMILES IDX 28 1 27 2 25 3 26 4 22 6 21 7 19 8 20 9 16 11 15 12 13 13
REMARK SMILES IDX 14 14 2 16 1 17 3 21 4 22 5 23 12 24 6 25 7 26 11 27 8 29
REMARK SMILES IDX 10 30 9 31 17 32 18 33 23 35 24 36 29 38 30 39 31 40 32 41
REMARK SMILES IDX 33 42 34 44 35 45 36 46 97 47 37 48 96 49 38 50 39 51 40 52
REMARK SMILES IDX 90 53 41 54 95 55 89 56 91 57 42 58 94 59 88 60 87 61 43 63
REMARK SMILES IDX 75 64 55 65 74 66 56 67 59 68 73 69 92 70 57 71 58 72 72 74
REMARK SMILES IDX 93 75 60 76 44 77 45 78 53 79 46 80 52 81 54 82 51 83 47 84
REMARK SMILES IDX 48 85 49 86 50 87 76 88 77 89 85 90 78 91 84 92 86 93 83 94
REMARK SMILES IDX 79 95 80 96 81 97 82 98 61 99 62 100 70 101 63 102 69 103
REMARK SMILES IDX 71 104 68 105 64 106 65 107 66 108 67 109
REMARK H PARENT 27 5 21 10 15 15 1 18 1 19 1 20 6 28 18 34 24 37 32 43 91 62
REMARK H PARENT 59 73
REMARK Flexibility Score: inf
ROOT
ATOM      1  C   UNL A   1      34.408  23.104  23.198  1.00  0.00     0.116 C 
ENDROOT
BRANCH   1   2
ATOM      2  N   UNL A   1      34.547  24.539  23.031  1.00  0.00    -0.354 N 
ATOM      3  C   UNL A   1      33.646  25.485  22.657  1.00  0.00     0.244 C 
ATOM      4  O   UNL A   1      33.970  26.670  22.801  1.00  0.00    -0.273 OA
ATOM      5  H   UNL A   1      35.448  24.885  23.220  1.00  0.00     0.163 HD
BRANCH   3   6
ATOM      6  C   UNL A   1      32.238  25.153  22.141  1.00  0.00     0.197 C 
BRANCH   6   7
ATOM      7  N   UNL A   1      31.171  25.752  22.930  1.00  0.00    -0.340 N 
ATOM      8  C   UNL A   1      30.846  25.625  24.231  1.00  0.00     0.244 C 
ATOM      9  O   UNL A   1      29.658  25.851  24.488  1.00  0.00    -0.273 OA
ATOM     10  H   UNL A   1      30.583  26.358  22.422  1.00  0.00     0.164 HD
BRANCH   8  11
ATOM     11  C   UNL A   1      31.791  25.077  25.317  1.00  0.00     0.181 C 
BRANCH  11  12
ATOM     12  N   UNL A   1      32.867  26.028  25.528  1.00  0.00    -0.338 N 
ATOM     13  C   UNL A   1      32.822  27.211  26.211  1.00  0.00     0.279 C 
ATOM     14  O   UNL A   1      33.906  27.654  26.609  1.00  0.00    -0.268 OA
ATOM     15  H   UNL A   1      33.736  25.792  25.129  1.00  0.00     0.164 HD
BRANCH  13  16
ATOM     16  C   UNL A   1      31.506  28.025  26.416  1.00  0.00     0.275 C 
BRANCH  16  17
ATOM     17  N   UNL A   1      31.064  27.960  27.825  1.00  0.00    -0.347 N 
ATOM     18  H   UNL A   1      31.693  28.515  28.405  1.00  0.00     0.345 HD
ATOM     19  H   UNL A   1      31.076  26.991  28.141  1.00  0.00     0.345 HD
ATOM     20  H   UNL A   1      30.116  28.330  27.901  1.00  0.00     0.345 HD
ENDBRANCH  16  17
BRANCH  16  21
ATOM     21  C   UNL A   1      31.360  29.377  25.676  1.00  0.00     0.113 C 
BRANCH  21  22
ATOM     22  C   UNL A   1      31.070  29.459  24.192  1.00  0.00    -0.016 A 
ATOM     23  C   UNL A   1      31.740  28.928  23.102  1.00  0.00     0.087 A 
ATOM     24  C   UNL A   1      29.960  30.196  23.634  1.00  0.00     0.003 A 
ATOM     25  N   UNL A   1      30.958  29.091  21.986  1.00  0.00    -0.361 N 
ATOM     26  C   UNL A   1      29.877  29.884  22.278  1.00  0.00     0.046 A 
ATOM     27  C   UNL A   1      28.998  31.077  24.172  1.00  0.00     0.010 A 
ATOM     28  H   UNL A   1      31.145  28.696  21.104  1.00  0.00     0.166 HD
ATOM     29  C   UNL A   1      28.846  30.341  21.450  1.00  0.00     0.026 A 
ATOM     30  C   UNL A   1      27.993  31.595  23.344  1.00  0.00     0.001 A 
ATOM     31  C   UNL A   1      27.908  31.213  22.009  1.00  0.00     0.002 A 
ENDBRANCH  21  22
ENDBRANCH  16  21
ENDBRANCH  13  16
ENDBRANCH  11  12
BRANCH  11  32
ATOM     32  C   UNL A   1      31.189  24.373  26.544  1.00  0.00     0.101 C 
BRANCH  32  33
ATOM     33  S   UNL A   1      32.145  22.980  27.239  1.00  0.00    -0.177 SA
ATOM     34  H   UNL A   1      33.096  23.460  28.085  1.00  0.00     0.102 HD
ENDBRANCH  32  33
ENDBRANCH  11  32
ENDBRANCH   8  11
ENDBRANCH   6   7
BRANCH   6  35
ATOM     35  C   UNL A   1      32.071  25.427  20.640  1.00  0.00     0.191 C 
BRANCH  35  36
ATOM     36  O   UNL A   1      33.119  26.231  20.103  1.00  0.00    -0.394 OA
ATOM     37  H   UNL A   1      33.976  25.880  20.392  1.00  0.00     0.210 HD
ENDBRANCH  35  36
ENDBRANCH   6  35
ENDBRANCH   3   6
ENDBRANCH   1   2
BRANCH   1  38
ATOM     38  C   UNL A   1      35.741  22.419  23.489  1.00  0.00     0.023 C 
BRANCH  38  39
ATOM     39  C   UNL A   1      35.748  21.513  24.720  1.00  0.00     0.023 C 
BRANCH  39  40
ATOM     40  C   UNL A   1      36.818  21.829  25.760  1.00  0.00     0.116 C 
BRANCH  40  41
ATOM     41  N   UNL A   1      37.924  20.882  25.757  1.00  0.00    -0.352 N 
ATOM     42  C   UNL A   1      39.232  21.087  26.137  1.00  0.00     0.251 C 
ATOM     43  H   UNL A   1      37.709  19.974  25.440  1.00  0.00     0.163 HD
ATOM     44  O   UNL A   1      40.066  20.207  25.997  1.00  0.00    -0.269 OA
BRANCH  42  45
ATOM     45  C   UNL A   1      39.610  22.414  26.664  1.00  0.00     0.039 A 
ATOM     46  C   UNL A   1      40.622  22.492  27.623  1.00  0.00     0.014 A 
ATOM     47  C   UNL A   1      39.041  23.572  26.128  1.00  0.00     0.014 A 
ATOM     48  C   UNL A   1      41.140  23.740  27.969  1.00  0.00     0.010 A 
ATOM     49  C   UNL A   1      39.604  24.808  26.426  1.00  0.00     0.010 A 
ATOM     50  C   UNL A   1      40.675  24.900  27.328  1.00  0.00    -0.014 A 
BRANCH  50  51
ATOM     51  C   UNL A   1      41.329  26.216  27.543  1.00  0.00     0.031 A 
ATOM     52  C   UNL A   1      42.754  26.424  27.119  1.00  0.00     0.074 A 
ATOM     53  C   UNL A   1      40.667  27.183  28.210  1.00  0.00     0.049 A 
ATOM     54  N   UNL A   1      43.539  27.446  27.334  1.00  0.00    -0.248 NA
ATOM     55  C   UNL A   1      43.386  25.320  26.381  1.00  0.00     0.031 C 
ATOM     56  C   UNL A   1      39.291  27.080  28.705  1.00  0.00     0.029 A 
ATOM     57  N   UNL A   1      41.066  28.435  28.606  1.00  0.00    -0.354 N 
ATOM     58  C   UNL A   1      44.763  27.107  26.769  1.00  0.00     0.074 A 
ATOM     59  C   UNL A   1      44.628  25.761  26.253  1.00  0.00     0.031 C 
ATOM     60  C   UNL A   1      38.960  28.222  29.327  1.00  0.00     0.029 A 
ATOM     61  C   UNL A   1      40.110  29.119  29.323  1.00  0.00     0.049 A 
ATOM     62  H   UNL A   1      41.952  28.808  28.398  1.00  0.00     0.167 HD
ATOM     63  C   UNL A   1      45.888  27.858  26.676  1.00  0.00     0.034 A 
ATOM     64  C   UNL A   1      40.163  30.321  29.932  1.00  0.00     0.034 A 
ATOM     65  C   UNL A   1      45.999  29.201  27.189  1.00  0.00     0.049 A 
ATOM     66  C   UNL A   1      41.442  31.116  29.858  1.00  0.00     0.074 A 
ATOM     67  C   UNL A   1      47.061  30.081  27.076  1.00  0.00     0.029 A 
ATOM     68  N   UNL A   1      45.018  29.854  27.925  1.00  0.00    -0.354 N 
ATOM     69  N   UNL A   1      42.573  30.804  29.268  1.00  0.00    -0.248 NA
ATOM     70  C   UNL A   1      41.452  32.419  30.535  1.00  0.00     0.031 C 
ATOM     71  C   UNL A   1      46.750  31.238  27.802  1.00  0.00     0.029 A 
ATOM     72  C   UNL A   1      45.467  31.107  28.312  1.00  0.00     0.049 A 
ATOM     73  H   UNL A   1      44.133  29.481  28.141  1.00  0.00     0.167 HD
ATOM     74  C   UNL A   1      43.423  31.883  29.489  1.00  0.00     0.074 A 
ATOM     75  C   UNL A   1      42.671  32.857  30.252  1.00  0.00     0.031 C 
ATOM     76  C   UNL A   1      44.711  32.054  29.095  1.00  0.00     0.034 A 
BRANCH  63  77
ATOM     77  C   UNL A   1      47.089  27.227  26.016  1.00  0.00     0.023 A 
ATOM     78  C   UNL A   1      48.044  26.509  26.757  1.00  0.00     0.031 A 
ATOM     79  C   UNL A   1      47.298  27.370  24.633  1.00  0.00     0.131 A 
ATOM     80  C   UNL A   1      49.199  26.025  26.126  1.00  0.00     0.055 A 
ATOM     81  C   UNL A   1      48.412  26.818  23.998  1.00  0.00     0.041 A 
ATOM     82  F   UNL A   1      46.431  28.061  23.879  1.00  0.00    -0.206 F 
ATOM     83  C   UNL A   1      49.379  26.154  24.747  1.00  0.00     0.022 A 
BRANCH  80  84
ATOM     84  S   UNL A   1      50.528  25.348  27.158  1.00  0.00     0.124 S 
ATOM     85  O   UNL A   1      51.522  24.978  26.153  1.00  0.00    -0.237 OA
ATOM     86  O   UNL A   1      50.873  26.480  28.011  1.00  0.00    -0.237 OA
ATOM     87  O   UNL A   1      49.893  24.222  27.840  1.00  0.00    -0.744 OA
ENDBRANCH  80  84
ENDBRANCH  63  77
BRANCH  64  88
ATOM     88  C   UNL A   1      38.990  30.834  30.694  1.00  0.00     0.023 A 
ATOM     89  C   UNL A   1      37.994  31.593  30.061  1.00  0.00     0.031 A 
ATOM     90  C   UNL A   1      38.868  30.604  32.076  1.00  0.00     0.131 A 
ATOM     91  C   UNL A   1      36.938  32.129  30.816  1.00  0.00     0.055 A 
ATOM     92  C   UNL A   1      37.790  31.100  32.814  1.00  0.00     0.041 A 
ATOM     93  F   UNL A   1      39.790  29.879  32.729  1.00  0.00    -0.206 F 
ATOM     94  C   UNL A   1      36.823  31.877  32.185  1.00  0.00     0.022 A 
BRANCH  91  95
ATOM     95  S   UNL A   1      35.750  33.225  29.992  1.00  0.00     0.124 S 
ATOM     96  O   UNL A   1      35.011  32.287  29.155  1.00  0.00    -0.237 OA
ATOM     97  O   UNL A   1      35.023  33.788  31.124  1.00  0.00    -0.237 OA
ATOM     98  O   UNL A   1      36.603  34.168  29.271  1.00  0.00    -0.744 OA
ENDBRANCH  91  95
ENDBRANCH  64  88
BRANCH  76  99
ATOM     99  C   UNL A   1      45.372  33.355  29.473  1.00  0.00     0.023 A 
ATOM    100  C   UNL A   1      45.299  34.483  28.639  1.00  0.00     0.031 A 
ATOM    101  C   UNL A   1      46.081  33.466  30.681  1.00  0.00     0.131 A 
ATOM    102  C   UNL A   1      45.959  35.665  29.005  1.00  0.00     0.055 A 
ATOM    103  C   UNL A   1      46.692  34.659  31.066  1.00  0.00     0.041 A 
ATOM    104  F   UNL A   1      46.183  32.416  31.512  1.00  0.00    -0.206 F 
ATOM    105  C   UNL A   1      46.640  35.766  30.221  1.00  0.00     0.022 A 
BRANCH 102 106
ATOM    106  S   UNL A   1      45.967  37.057  27.843  1.00  0.00     0.124 S 
ATOM    107  O   UNL A   1      44.659  37.660  28.083  1.00  0.00    -0.237 OA
ATOM    108  O   UNL A   1      47.119  37.833  28.291  1.00  0.00    -0.237 OA
ATOM    109  O   UNL A   1      46.124  36.416  26.539  1.00  0.00    -0.744 OA
ENDBRANCH 102 106
ENDBRANCH  76  99
ENDBRANCH  50  51
ENDBRANCH  42  45
ENDBRANCH  40  41
ENDBRANCH  39  40
ENDBRANCH  38  39
ENDBRANCH   1  38
TORSDOF 25
ENDMDL
