MODEL 1
REMARK VINA RESULT:     -12.2      0.000      0.000
REMARK SMILES O=C(NCCCCNC(=O)[C@@H]1CS[C@H](c2ncc(-c3ccccc3)s2)[NH2+]1)c1ccc(-c2c3nc(c(-c4cc(S(=O)(=O)[O-])ccc4F)c4ccc([nH]4)c(-c4cc(S(=O)(=O)[O-])ccc4F)c4nc(c(-c5cc(S(=O)(=O)[O-])ccc5F)c5ccc2[nH]5)C=C4)C=C3)cc1
REMARK SMILES IDX 5 1 4 2 3 3 1 4 2 5 27 7 28 8 89 9 29 10 88 11 30 12 31 13
REMARK SMILES IDX 32 14 82 15 33 16 87 17 81 18 83 19 34 20 86 21 80 22 79 23
REMARK SMILES IDX 35 25 67 26 47 27 66 28 48 29 51 30 65 31 84 32 49 33 50 34
REMARK SMILES IDX 64 36 85 37 52 38 36 39 37 40 45 41 38 42 44 43 46 44 43 45
REMARK SMILES IDX 39 46 40 47 41 48 42 49 68 50 69 51 77 52 70 53 76 54 78 55
REMARK SMILES IDX 75 56 71 57 72 58 73 59 74 60 53 61 54 62 62 63 55 64 61 65
REMARK SMILES IDX 63 66 60 67 56 68 57 69 58 70 59 71 6 72 7 73 8 74 9 75
REMARK SMILES IDX 10 77 11 78 12 79 26 80 13 81 14 82 15 85 16 86 25 87 17 88
REMARK SMILES IDX 18 89 19 90 20 91 24 92 21 93 23 94 22 95
REMARK H PARENT 3 6 83 24 51 35 8 76 26 83 26 84
REMARK Flexibility Score: inf
ROOT
ATOM      1  C   UNL A   1      32.618  29.031  24.155  1.00  0.00     0.023 C 
ENDROOT
BRANCH   1   2
ATOM      2  C   UNL A   1      33.140  29.399  25.537  1.00  0.00     0.116 C 
BRANCH   2   3
ATOM      3  N   UNL A   1      32.642  30.681  26.014  1.00  0.00    -0.352 N 
ATOM      4  O   UNL A   1      32.544  32.488  27.361  1.00  0.00    -0.269 OA
ATOM      5  C   UNL A   1      33.163  31.491  26.996  1.00  0.00     0.251 C 
ATOM      6  H   UNL A   1      31.825  31.011  25.576  1.00  0.00     0.163 HD
BRANCH   5   7
ATOM      7  C   UNL A   1      34.454  31.140  27.626  1.00  0.00     0.039 A 
ATOM      8  C   UNL A   1      34.687  29.840  28.080  1.00  0.00     0.014 A 
ATOM      9  C   UNL A   1      35.433  32.125  27.786  1.00  0.00     0.014 A 
ATOM     10  C   UNL A   1      35.830  29.564  28.820  1.00  0.00     0.010 A 
ATOM     11  C   UNL A   1      36.623  31.821  28.455  1.00  0.00     0.010 A 
ATOM     12  C   UNL A   1      36.819  30.545  29.006  1.00  0.00    -0.014 A 
BRANCH  12  13
ATOM     13  C   UNL A   1      38.061  30.179  29.737  1.00  0.00     0.031 A 
ATOM     14  C   UNL A   1      38.315  30.660  31.139  1.00  0.00     0.074 A 
ATOM     15  C   UNL A   1      38.935  29.348  29.134  1.00  0.00     0.049 A 
ATOM     16  N   UNL A   1      39.320  30.386  31.934  1.00  0.00    -0.248 NA
ATOM     17  C   UNL A   1      37.321  31.571  31.723  1.00  0.00     0.031 C 
ATOM     18  C   UNL A   1      38.796  28.833  27.768  1.00  0.00     0.029 A 
ATOM     19  N   UNL A   1      40.090  28.767  29.589  1.00  0.00    -0.354 N 
ATOM     20  C   UNL A   1      39.084  31.091  33.110  1.00  0.00     0.074 A 
ATOM     21  C   UNL A   1      37.860  31.839  32.905  1.00  0.00     0.031 C 
ATOM     22  C   UNL A   1      39.793  27.972  27.520  1.00  0.00     0.029 A 
ATOM     23  C   UNL A   1      40.679  27.925  28.676  1.00  0.00     0.049 A 
ATOM     24  H   UNL A   1      40.462  28.937  30.485  1.00  0.00     0.167 HD
ATOM     25  C   UNL A   1      39.814  31.101  34.254  1.00  0.00     0.034 A 
ATOM     26  C   UNL A   1      41.814  27.204  28.751  1.00  0.00     0.034 A 
ATOM     27  C   UNL A   1      41.038  30.354  34.436  1.00  0.00     0.049 A 
ATOM     28  C   UNL A   1      42.612  27.248  30.024  1.00  0.00     0.074 A 
ATOM     29  C   UNL A   1      41.858  30.296  35.551  1.00  0.00     0.029 A 
ATOM     30  N   UNL A   1      41.620  29.533  33.478  1.00  0.00    -0.354 N 
ATOM     31  N   UNL A   1      42.369  27.919  31.126  1.00  0.00    -0.248 NA
ATOM     32  C   UNL A   1      43.831  26.434  30.067  1.00  0.00     0.031 C 
ATOM     33  C   UNL A   1      42.960  29.489  35.248  1.00  0.00     0.029 A 
ATOM     34  C   UNL A   1      42.796  28.982  33.969  1.00  0.00     0.049 A 
ATOM     35  H   UNL A   1      41.252  29.365  32.580  1.00  0.00     0.167 HD
ATOM     36  C   UNL A   1      43.403  27.598  31.999  1.00  0.00     0.074 A 
ATOM     37  C   UNL A   1      44.249  26.646  31.306  1.00  0.00     0.031 C 
ATOM     38  C   UNL A   1      43.641  28.054  33.255  1.00  0.00     0.034 A 
BRANCH  25  39
ATOM     39  C   UNL A   1      39.324  31.976  35.384  1.00  0.00     0.023 A 
ATOM     40  C   UNL A   1      39.728  33.317  35.510  1.00  0.00     0.031 A 
ATOM     41  C   UNL A   1      38.446  31.461  36.356  1.00  0.00     0.131 A 
ATOM     42  C   UNL A   1      39.305  34.078  36.610  1.00  0.00     0.055 A 
ATOM     43  C   UNL A   1      37.970  32.246  37.409  1.00  0.00     0.041 A 
ATOM     44  F   UNL A   1      38.039  30.183  36.302  1.00  0.00    -0.206 F 
ATOM     45  C   UNL A   1      38.409  33.559  37.548  1.00  0.00     0.022 A 
BRANCH  42  46
ATOM     46  S   UNL A   1      40.036  35.718  36.865  1.00  0.00     0.124 S 
ATOM     47  O   UNL A   1      39.371  36.150  38.092  1.00  0.00    -0.237 OA
ATOM     48  O   UNL A   1      41.458  35.416  36.982  1.00  0.00    -0.237 OA
ATOM     49  O   UNL A   1      39.652  36.457  35.664  1.00  0.00    -0.744 OA
ENDBRANCH  42  46
ENDBRANCH  25  39
BRANCH  26  50
ATOM     50  C   UNL A   1      42.277  26.412  27.576  1.00  0.00     0.023 A 
ATOM     51  C   UNL A   1      41.900  25.072  27.403  1.00  0.00     0.031 A 
ATOM     52  C   UNL A   1      43.137  26.984  26.620  1.00  0.00     0.131 A 
ATOM     53  C   UNL A   1      42.416  24.335  26.325  1.00  0.00     0.055 A 
ATOM     54  C   UNL A   1      43.600  26.265  25.519  1.00  0.00     0.041 A 
ATOM     55  F   UNL A   1      43.525  28.265  26.736  1.00  0.00    -0.206 F 
ATOM     56  C   UNL A   1      43.252  24.927  25.375  1.00  0.00     0.022 A 
BRANCH  53  57
ATOM     57  S   UNL A   1      42.055  22.561  26.234  1.00  0.00     0.124 S 
ATOM     58  O   UNL A   1      40.597  22.554  26.189  1.00  0.00    -0.237 OA
ATOM     59  O   UNL A   1      42.737  22.178  25.002  1.00  0.00    -0.237 OA
ATOM     60  O   UNL A   1      42.644  22.030  27.462  1.00  0.00    -0.744 OA
ENDBRANCH  53  57
ENDBRANCH  26  50
BRANCH  38  61
ATOM     61  C   UNL A   1      44.857  27.499  33.953  1.00  0.00     0.023 A 
ATOM     62  C   UNL A   1      44.792  26.318  34.712  1.00  0.00     0.031 A 
ATOM     63  C   UNL A   1      46.083  28.186  33.899  1.00  0.00     0.131 A 
ATOM     64  C   UNL A   1      45.910  25.896  35.447  1.00  0.00     0.055 A 
ATOM     65  C   UNL A   1      47.210  27.727  34.581  1.00  0.00     0.041 A 
ATOM     66  F   UNL A   1      46.201  29.320  33.190  1.00  0.00    -0.206 F 
ATOM     67  C   UNL A   1      47.123  26.585  35.374  1.00  0.00     0.022 A 
BRANCH  64  68
ATOM     68  S   UNL A   1      45.725  24.496  36.585  1.00  0.00     0.124 S 
ATOM     69  O   UNL A   1      46.222  25.056  37.838  1.00  0.00    -0.237 OA
ATOM     70  O   UNL A   1      44.291  24.235  36.529  1.00  0.00    -0.237 OA
ATOM     71  O   UNL A   1      46.568  23.459  35.992  1.00  0.00    -0.744 OA
ENDBRANCH  64  68
ENDBRANCH  38  61
ENDBRANCH  12  13
ENDBRANCH   5   7
ENDBRANCH   2   3
ENDBRANCH   1   2
BRANCH   1  72
ATOM     72  C   UNL A   1      33.639  28.375  23.220  1.00  0.00     0.023 C 
BRANCH  72  73
ATOM     73  C   UNL A   1      33.043  27.414  22.192  1.00  0.00     0.116 C 
BRANCH  73  74
ATOM     74  N   UNL A   1      33.652  26.102  22.291  1.00  0.00    -0.351 N 
ATOM     75  C   UNL A   1      33.661  25.202  23.313  1.00  0.00     0.279 C 
ATOM     76  H   UNL A   1      34.141  25.814  21.485  1.00  0.00     0.163 HD
ATOM     77  O   UNL A   1      34.499  24.300  23.252  1.00  0.00    -0.268 OA
BRANCH  75  78
ATOM     78  C   UNL A   1      32.654  25.320  24.468  1.00  0.00     0.284 C 
ATOM     79  C   UNL A   1      33.245  24.716  25.743  1.00  0.00     0.151 C 
ATOM     80  N   UNL A   1      31.355  24.679  24.077  1.00  0.00    -0.319 N 
ATOM     81  S   UNL A   1      31.825  23.929  26.526  1.00  0.00    -0.085 SA
ATOM     82  C   UNL A   1      31.141  23.472  24.902  1.00  0.00     0.303 C 
ATOM     83  H   UNL A   1      31.386  24.418  23.091  1.00  0.00     0.348 HD
ATOM     84  H   UNL A   1      30.589  25.336  24.227  1.00  0.00     0.348 HD
BRANCH  82  85
ATOM     85  C   UNL A   1      31.756  22.196  24.344  1.00  0.00     0.162 A 
ATOM     86  N   UNL A   1      31.820  21.875  23.061  1.00  0.00    -0.242 NA
ATOM     87  S   UNL A   1      32.515  21.050  25.397  1.00  0.00    -0.112 S 
ATOM     88  C   UNL A   1      32.264  20.573  22.928  1.00  0.00     0.132 A 
ATOM     89  C   UNL A   1      32.587  19.931  24.104  1.00  0.00     0.055 A 
BRANCH  89  90
ATOM     90  C   UNL A   1      32.903  18.533  24.349  1.00  0.00    -0.007 A 
ATOM     91  C   UNL A   1      33.622  17.814  23.384  1.00  0.00     0.009 A 
ATOM     92  C   UNL A   1      32.525  17.899  25.537  1.00  0.00     0.009 A 
ATOM     93  C   UNL A   1      33.957  16.478  23.600  1.00  0.00     0.001 A 
ATOM     94  C   UNL A   1      32.858  16.559  25.750  1.00  0.00     0.001 A 
ATOM     95  C   UNL A   1      33.574  15.850  24.784  1.00  0.00     0.000 A 
ENDBRANCH  89  90
ENDBRANCH  82  85
ENDBRANCH  75  78
ENDBRANCH  73  74
ENDBRANCH  72  73
ENDBRANCH   1  72
TORSDOF 16
ENDMDL
MODEL 2
REMARK VINA RESULT:     -12.0      1.535      7.674
REMARK SMILES O=C(NCCCCNC(=O)[C@@H]1CS[C@H](c2ncc(-c3ccccc3)s2)[NH2+]1)c1ccc(-c2c3nc(c(-c4cc(S(=O)(=O)[O-])ccc4F)c4ccc([nH]4)c(-c4cc(S(=O)(=O)[O-])ccc4F)c4nc(c(-c5cc(S(=O)(=O)[O-])ccc5F)c5ccc2[nH]5)C=C4)C=C3)cc1
REMARK SMILES IDX 5 1 4 2 3 3 1 4 2 5 27 7 28 8 89 9 29 10 88 11 30 12 31 13
REMARK SMILES IDX 32 14 82 15 33 16 87 17 81 18 83 19 34 20 86 21 80 22 79 23
REMARK SMILES IDX 35 25 67 26 47 27 66 28 48 29 51 30 65 31 84 32 49 33 50 34
REMARK SMILES IDX 64 36 85 37 52 38 36 39 37 40 45 41 38 42 44 43 46 44 43 45
REMARK SMILES IDX 39 46 40 47 41 48 42 49 68 50 69 51 77 52 70 53 76 54 78 55
REMARK SMILES IDX 75 56 71 57 72 58 73 59 74 60 53 61 54 62 62 63 55 64 61 65
REMARK SMILES IDX 63 66 60 67 56 68 57 69 58 70 59 71 6 72 7 73 8 74 9 75
REMARK SMILES IDX 10 77 11 78 12 79 26 80 13 81 14 82 15 85 16 86 25 87 17 88
REMARK SMILES IDX 18 89 19 90 20 91 24 92 21 93 23 94 22 95
REMARK H PARENT 3 6 83 24 51 35 8 76 26 83 26 84
REMARK Flexibility Score: inf
ROOT
ATOM      1  C   UNL A   1      32.940  29.340  23.849  1.00  0.00     0.023 C 
ENDROOT
BRANCH   1   2
ATOM      2  C   UNL A   1      32.913  29.428  25.369  1.00  0.00     0.116 C 
BRANCH   2   3
ATOM      3  N   UNL A   1      32.407  30.701  25.860  1.00  0.00    -0.352 N 
ATOM      4  O   UNL A   1      32.249  32.459  27.265  1.00  0.00    -0.269 OA
ATOM      5  C   UNL A   1      32.874  31.465  26.905  1.00  0.00     0.251 C 
ATOM      6  H   UNL A   1      31.626  31.064  25.381  1.00  0.00     0.163 HD
BRANCH   5   7
ATOM      7  C   UNL A   1      34.113  31.064  27.606  1.00  0.00     0.039 A 
ATOM      8  C   UNL A   1      34.357  29.721  27.895  1.00  0.00     0.014 A 
ATOM      9  C   UNL A   1      35.028  32.044  28.000  1.00  0.00     0.014 A 
ATOM     10  C   UNL A   1      35.435  29.374  28.701  1.00  0.00     0.010 A 
ATOM     11  C   UNL A   1      36.162  31.683  28.736  1.00  0.00     0.010 A 
ATOM     12  C   UNL A   1      36.358  30.348  29.120  1.00  0.00    -0.014 A 
BRANCH  12  13
ATOM     13  C   UNL A   1      37.540  29.917  29.914  1.00  0.00     0.031 A 
ATOM     14  C   UNL A   1      38.599  29.028  29.322  1.00  0.00     0.074 A 
ATOM     15  C   UNL A   1      37.677  30.396  31.167  1.00  0.00     0.049 A 
ATOM     16  N   UNL A   1      39.717  28.607  29.861  1.00  0.00    -0.248 NA
ATOM     17  C   UNL A   1      38.373  28.539  27.955  1.00  0.00     0.031 C 
ATOM     18  C   UNL A   1      36.702  31.254  31.847  1.00  0.00     0.029 A 
ATOM     19  N   UNL A   1      38.690  30.260  32.080  1.00  0.00    -0.354 N 
ATOM     20  C   UNL A   1      40.327  27.804  28.904  1.00  0.00     0.074 A 
ATOM     21  C   UNL A   1      39.431  27.762  27.766  1.00  0.00     0.031 C 
ATOM     22  C   UNL A   1      37.189  31.611  33.043  1.00  0.00     0.029 A 
ATOM     23  C   UNL A   1      38.476  30.957  33.247  1.00  0.00     0.049 A 
ATOM     24  H   UNL A   1      39.494  29.716  31.917  1.00  0.00     0.167 HD
ATOM     25  C   UNL A   1      41.527  27.172  28.966  1.00  0.00     0.034 A 
ATOM     26  C   UNL A   1      39.222  31.049  34.364  1.00  0.00     0.034 A 
ATOM     27  C   UNL A   1      42.403  27.219  30.114  1.00  0.00     0.049 A 
ATOM     28  C   UNL A   1      40.538  30.324  34.412  1.00  0.00     0.074 A 
ATOM     29  C   UNL A   1      43.637  26.614  30.286  1.00  0.00     0.029 A 
ATOM     30  N   UNL A   1      42.141  27.912  31.290  1.00  0.00    -0.354 N 
ATOM     31  N   UNL A   1      41.098  29.571  33.494  1.00  0.00    -0.248 NA
ATOM     32  C   UNL A   1      41.325  30.467  35.641  1.00  0.00     0.031 C 
ATOM     33  C   UNL A   1      44.092  26.892  31.580  1.00  0.00     0.029 A 
ATOM     34  C   UNL A   1      43.177  27.732  32.195  1.00  0.00     0.049 A 
ATOM     35  H   UNL A   1      41.335  28.453  31.457  1.00  0.00     0.167 HD
ATOM     36  C   UNL A   1      42.311  29.158  34.034  1.00  0.00     0.074 A 
ATOM     37  C   UNL A   1      42.414  29.777  35.341  1.00  0.00     0.031 C 
ATOM     38  C   UNL A   1      43.252  28.335  33.505  1.00  0.00     0.034 A 
BRANCH  25  39
ATOM     39  C   UNL A   1      41.943  26.348  27.770  1.00  0.00     0.023 A 
ATOM     40  C   UNL A   1      41.640  24.978  27.677  1.00  0.00     0.031 A 
ATOM     41  C   UNL A   1      42.658  26.937  26.711  1.00  0.00     0.131 A 
ATOM     42  C   UNL A   1      42.101  24.230  26.582  1.00  0.00     0.055 A 
ATOM     43  C   UNL A   1      43.051  26.203  25.589  1.00  0.00     0.041 A 
ATOM     44  F   UNL A   1      42.993  28.235  26.752  1.00  0.00    -0.206 F 
ATOM     45  C   UNL A   1      42.783  24.839  25.525  1.00  0.00     0.022 A 
BRANCH  42  46
ATOM     46  S   UNL A   1      41.902  22.428  26.614  1.00  0.00     0.124 S 
ATOM     47  O   UNL A   1      42.639  22.071  27.823  1.00  0.00    -0.237 OA
ATOM     48  O   UNL A   1      40.454  22.271  26.679  1.00  0.00    -0.237 OA
ATOM     49  O   UNL A   1      42.521  21.991  25.364  1.00  0.00    -0.744 OA
ENDBRANCH  42  46
ENDBRANCH  25  39
BRANCH  26  50
ATOM     50  C   UNL A   1      38.724  31.825  35.535  1.00  0.00     0.023 A 
ATOM     51  C   UNL A   1      38.181  31.185  36.659  1.00  0.00     0.031 A 
ATOM     52  C   UNL A   1      38.755  33.232  35.528  1.00  0.00     0.131 A 
ATOM     53  C   UNL A   1      37.653  31.949  37.711  1.00  0.00     0.055 A 
ATOM     54  C   UNL A   1      38.282  33.987  36.601  1.00  0.00     0.041 A 
ATOM     55  F   UNL A   1      39.267  33.895  34.478  1.00  0.00    -0.206 F 
ATOM     56  C   UNL A   1      37.713  33.346  37.695  1.00  0.00     0.022 A 
BRANCH  53  57
ATOM     57  S   UNL A   1      36.798  31.095  39.061  1.00  0.00     0.124 S 
ATOM     58  O   UNL A   1      36.614  29.761  38.503  1.00  0.00    -0.237 OA
ATOM     59  O   UNL A   1      37.764  31.208  40.149  1.00  0.00    -0.237 OA
ATOM     60  O   UNL A   1      35.573  31.873  39.235  1.00  0.00    -0.744 OA
ENDBRANCH  53  57
ENDBRANCH  26  50
BRANCH  38  61
ATOM     61  C   UNL A   1      44.478  28.087  34.347  1.00  0.00     0.023 A 
ATOM     62  C   UNL A   1      44.533  27.026  35.268  1.00  0.00     0.031 A 
ATOM     63  C   UNL A   1      45.585  28.951  34.264  1.00  0.00     0.131 A 
ATOM     64  C   UNL A   1      45.639  26.898  36.122  1.00  0.00     0.055 A 
ATOM     65  C   UNL A   1      46.710  28.780  35.072  1.00  0.00     0.041 A 
ATOM     66  F   UNL A   1      45.585  29.981  33.403  1.00  0.00    -0.206 F 
ATOM     67  C   UNL A   1      46.734  27.760  36.019  1.00  0.00     0.022 A 
BRANCH  64  68
ATOM     68  S   UNL A   1      45.579  25.657  37.443  1.00  0.00     0.124 S 
ATOM     69  O   UNL A   1      44.302  25.957  38.084  1.00  0.00    -0.237 OA
ATOM     70  O   UNL A   1      45.637  24.404  36.697  1.00  0.00    -0.237 OA
ATOM     71  O   UNL A   1      46.762  25.955  38.247  1.00  0.00    -0.744 OA
ENDBRANCH  64  68
ENDBRANCH  38  61
ENDBRANCH  12  13
ENDBRANCH   5   7
ENDBRANCH   2   3
ENDBRANCH   1   2
BRANCH   1  72
ATOM     72  C   UNL A   1      33.807  28.217  23.271  1.00  0.00     0.023 C 
BRANCH  72  73
ATOM     73  C   UNL A   1      33.099  27.315  22.260  1.00  0.00     0.116 C 
BRANCH  73  74
ATOM     74  N   UNL A   1      33.653  25.976  22.279  1.00  0.00    -0.351 N 
ATOM     75  C   UNL A   1      33.683  25.041  23.268  1.00  0.00     0.279 C 
ATOM     76  H   UNL A   1      34.079  25.696  21.436  1.00  0.00     0.163 HD
ATOM     77  O   UNL A   1      34.474  24.107  23.128  1.00  0.00    -0.268 OA
BRANCH  75  78
ATOM     78  C   UNL A   1      32.752  25.161  24.486  1.00  0.00     0.284 C 
ATOM     79  C   UNL A   1      33.426  24.563  25.722  1.00  0.00     0.151 C 
ATOM     80  N   UNL A   1      31.431  24.518  24.183  1.00  0.00    -0.319 N 
ATOM     81  S   UNL A   1      32.061  23.777  26.598  1.00  0.00    -0.085 SA
ATOM     82  C   UNL A   1      31.274  23.313  25.024  1.00  0.00     0.303 C 
ATOM     83  H   UNL A   1      31.399  24.253  23.198  1.00  0.00     0.348 HD
ATOM     84  H   UNL A   1      30.676  25.174  24.380  1.00  0.00     0.348 HD
BRANCH  82  85
ATOM     85  C   UNL A   1      31.854  22.036  24.431  1.00  0.00     0.162 A 
ATOM     86  N   UNL A   1      31.835  21.711  23.148  1.00  0.00    -0.242 NA
ATOM     87  S   UNL A   1      32.680  20.894  25.437  1.00  0.00    -0.112 S 
ATOM     88  C   UNL A   1      32.271  20.409  22.991  1.00  0.00     0.132 A 
ATOM     89  C   UNL A   1      32.671  19.771  24.146  1.00  0.00     0.055 A 
BRANCH  89  90
ATOM     90  C   UNL A   1      33.003  18.374  24.374  1.00  0.00    -0.007 A 
ATOM     91  C   UNL A   1      32.555  17.746  25.545  1.00  0.00     0.009 A 
ATOM     92  C   UNL A   1      33.738  17.639  23.438  1.00  0.00     0.009 A 
ATOM     93  C   UNL A   1      32.840  16.402  25.780  1.00  0.00     0.001 A 
ATOM     94  C   UNL A   1      34.027  16.294  23.678  1.00  0.00     0.001 A 
ATOM     95  C   UNL A   1      33.578  15.676  24.847  1.00  0.00     0.000 A 
ENDBRANCH  89  90
ENDBRANCH  82  85
ENDBRANCH  75  78
ENDBRANCH  73  74
ENDBRANCH  72  73
ENDBRANCH   1  72
TORSDOF 16
ENDMDL
MODEL 3
REMARK VINA RESULT:     -11.9      2.301      8.077
REMARK SMILES O=C(NCCCCNC(=O)[C@@H]1CS[C@H](c2ncc(-c3ccccc3)s2)[NH2+]1)c1ccc(-c2c3nc(c(-c4cc(S(=O)(=O)[O-])ccc4F)c4ccc([nH]4)c(-c4cc(S(=O)(=O)[O-])ccc4F)c4nc(c(-c5cc(S(=O)(=O)[O-])ccc5F)c5ccc2[nH]5)C=C4)C=C3)cc1
REMARK SMILES IDX 5 1 4 2 3 3 1 4 2 5 27 7 28 8 89 9 29 10 88 11 30 12 31 13
REMARK SMILES IDX 32 14 82 15 33 16 87 17 81 18 83 19 34 20 86 21 80 22 79 23
REMARK SMILES IDX 35 25 67 26 47 27 66 28 48 29 51 30 65 31 84 32 49 33 50 34
REMARK SMILES IDX 64 36 85 37 52 38 36 39 37 40 45 41 38 42 44 43 46 44 43 45
REMARK SMILES IDX 39 46 40 47 41 48 42 49 68 50 69 51 77 52 70 53 76 54 78 55
REMARK SMILES IDX 75 56 71 57 72 58 73 59 74 60 53 61 54 62 62 63 55 64 61 65
REMARK SMILES IDX 63 66 60 67 56 68 57 69 58 70 59 71 6 72 7 73 8 74 9 75
REMARK SMILES IDX 10 77 11 78 12 79 26 80 13 81 14 82 15 85 16 86 25 87 17 88
REMARK SMILES IDX 18 89 19 90 20 91 24 92 21 93 23 94 22 95
REMARK H PARENT 3 6 83 24 51 35 8 76 26 83 26 84
REMARK Flexibility Score: inf
ROOT
ATOM      1  C   UNL A   1      31.328  32.025  26.582  1.00  0.00     0.023 C 
ENDROOT
BRANCH   1   2
ATOM      2  C   UNL A   1      32.649  32.514  27.162  1.00  0.00     0.116 C 
BRANCH   2   3
ATOM      3  N   UNL A   1      32.606  33.903  27.592  1.00  0.00    -0.352 N 
ATOM      4  O   UNL A   1      33.123  35.688  28.871  1.00  0.00    -0.269 OA
ATOM      5  C   UNL A   1      33.377  34.532  28.542  1.00  0.00     0.251 C 
ATOM      6  H   UNL A   1      31.936  34.469  27.143  1.00  0.00     0.163 HD
BRANCH   5   7
ATOM      7  C   UNL A   1      34.490  33.798  29.183  1.00  0.00     0.039 A 
ATOM      8  C   UNL A   1      34.227  32.741  30.056  1.00  0.00     0.014 A 
ATOM      9  C   UNL A   1      35.808  34.186  28.927  1.00  0.00     0.014 A 
ATOM     10  C   UNL A   1      35.268  32.173  30.782  1.00  0.00     0.010 A 
ATOM     11  C   UNL A   1      36.862  33.551  29.593  1.00  0.00     0.010 A 
ATOM     12  C   UNL A   1      36.598  32.560  30.550  1.00  0.00    -0.014 A 
BRANCH  12  13
ATOM     13  C   UNL A   1      37.685  31.867  31.293  1.00  0.00     0.031 A 
ATOM     14  C   UNL A   1      38.522  30.801  30.641  1.00  0.00     0.074 A 
ATOM     15  C   UNL A   1      37.947  32.260  32.555  1.00  0.00     0.049 A 
ATOM     16  N   UNL A   1      39.542  30.140  31.131  1.00  0.00    -0.248 NA
ATOM     17  C   UNL A   1      38.168  30.420  29.267  1.00  0.00     0.031 C 
ATOM     18  C   UNL A   1      37.187  33.274  33.292  1.00  0.00     0.029 A 
ATOM     19  N   UNL A   1      38.932  31.885  33.431  1.00  0.00    -0.354 N 
ATOM     20  C   UNL A   1      39.950  29.264  30.130  1.00  0.00     0.074 A 
ATOM     21  C   UNL A   1      39.038  29.450  29.020  1.00  0.00     0.031 C 
ATOM     22  C   UNL A   1      37.766  33.479  34.483  1.00  0.00     0.029 A 
ATOM     23  C   UNL A   1      38.894  32.567  34.626  1.00  0.00     0.049 A 
ATOM     24  H   UNL A   1      39.602  31.193  33.226  1.00  0.00     0.167 HD
ATOM     25  C   UNL A   1      40.995  28.398  30.135  1.00  0.00     0.034 A 
ATOM     26  C   UNL A   1      39.670  32.462  35.721  1.00  0.00     0.034 A 
ATOM     27  C   UNL A   1      41.889  28.221  31.257  1.00  0.00     0.049 A 
ATOM     28  C   UNL A   1      40.809  31.481  35.706  1.00  0.00     0.074 A 
ATOM     29  C   UNL A   1      42.975  27.369  31.370  1.00  0.00     0.029 A 
ATOM     30  N   UNL A   1      41.804  28.909  32.461  1.00  0.00    -0.354 N 
ATOM     31  N   UNL A   1      41.179  30.664  34.747  1.00  0.00    -0.248 NA
ATOM     32  C   UNL A   1      41.637  31.413  36.914  1.00  0.00     0.031 C 
ATOM     33  C   UNL A   1      43.509  27.499  32.658  1.00  0.00     0.029 A 
ATOM     34  C   UNL A   1      42.802  28.485  33.328  1.00  0.00     0.049 A 
ATOM     35  H   UNL A   1      41.131  29.597  32.670  1.00  0.00     0.167 HD
ATOM     36  C   UNL A   1      42.294  29.990  35.237  1.00  0.00     0.074 A 
ATOM     37  C   UNL A   1      42.553  30.526  36.559  1.00  0.00     0.031 C 
ATOM     38  C   UNL A   1      43.031  29.012  34.653  1.00  0.00     0.034 A 
BRANCH  25  39
ATOM     39  C   UNL A   1      41.202  27.551  28.902  1.00  0.00     0.023 A 
ATOM     40  C   UNL A   1      42.200  27.853  27.958  1.00  0.00     0.031 A 
ATOM     41  C   UNL A   1      40.387  26.430  28.660  1.00  0.00     0.131 A 
ATOM     42  C   UNL A   1      42.319  27.082  26.791  1.00  0.00     0.055 A 
ATOM     43  C   UNL A   1      40.558  25.624  27.532  1.00  0.00     0.041 A 
ATOM     44  F   UNL A   1      39.405  26.102  29.514  1.00  0.00    -0.206 F 
ATOM     45  C   UNL A   1      41.521  25.955  26.583  1.00  0.00     0.022 A 
BRANCH  42  46
ATOM     46  S   UNL A   1      43.451  27.644  25.490  1.00  0.00     0.124 S 
ATOM     47  O   UNL A   1      44.038  28.834  26.103  1.00  0.00    -0.237 OA
ATOM     48  O   UNL A   1      44.343  26.502  25.332  1.00  0.00    -0.237 OA
ATOM     49  O   UNL A   1      42.568  27.909  24.356  1.00  0.00    -0.744 OA
ENDBRANCH  42  46
ENDBRANCH  25  39
BRANCH  26  50
ATOM     50  C   UNL A   1      39.371  33.280  36.931  1.00  0.00     0.023 A 
ATOM     51  C   UNL A   1      40.012  34.508  37.159  1.00  0.00     0.031 A 
ATOM     52  C   UNL A   1      38.457  32.824  37.898  1.00  0.00     0.131 A 
ATOM     53  C   UNL A   1      39.762  35.215  38.346  1.00  0.00     0.055 A 
ATOM     54  C   UNL A   1      38.169  33.558  39.048  1.00  0.00     0.041 A 
ATOM     55  F   UNL A   1      37.813  31.657  37.726  1.00  0.00    -0.206 F 
ATOM     56  C   UNL A   1      38.834  34.755  39.284  1.00  0.00     0.022 A 
BRANCH  53  57
ATOM     57  S   UNL A   1      40.740  36.702  38.692  1.00  0.00     0.124 S 
ATOM     58  O   UNL A   1      39.700  37.700  38.912  1.00  0.00    -0.237 OA
ATOM     59  O   UNL A   1      41.499  36.295  39.870  1.00  0.00    -0.237 OA
ATOM     60  O   UNL A   1      41.529  36.881  37.475  1.00  0.00    -0.744 OA
ENDBRANCH  53  57
ENDBRANCH  26  50
BRANCH  38  61
ATOM     61  C   UNL A   1      44.199  28.486  35.448  1.00  0.00     0.023 A 
ATOM     62  C   UNL A   1      44.051  27.419  36.352  1.00  0.00     0.031 A 
ATOM     63  C   UNL A   1      45.464  29.090  35.338  1.00  0.00     0.131 A 
ATOM     64  C   UNL A   1      45.128  27.035  37.165  1.00  0.00     0.055 A 
ATOM     65  C   UNL A   1      46.549  28.663  36.104  1.00  0.00     0.041 A 
ATOM     66  F   UNL A   1      45.662  30.114  34.492  1.00  0.00    -0.206 F 
ATOM     67  C   UNL A   1      46.380  27.641  37.035  1.00  0.00     0.022 A 
BRANCH  64  68
ATOM     68  S   UNL A   1      44.840  25.809  38.469  1.00  0.00     0.124 S 
ATOM     69  O   UNL A   1      44.134  26.596  39.475  1.00  0.00    -0.237 OA
ATOM     70  O   UNL A   1      44.045  24.799  37.778  1.00  0.00    -0.237 OA
ATOM     71  O   UNL A   1      46.188  25.386  38.845  1.00  0.00    -0.744 OA
ENDBRANCH  64  68
ENDBRANCH  38  61
ENDBRANCH  12  13
ENDBRANCH   5   7
ENDBRANCH   2   3
ENDBRANCH   1   2
BRANCH   1  72
ATOM     72  C   UNL A   1      31.404  30.721  25.783  1.00  0.00     0.023 C 
BRANCH  72  73
ATOM     73  C   UNL A   1      32.426  29.709  26.302  1.00  0.00     0.116 C 
BRANCH  73  74
ATOM     74  N   UNL A   1      31.859  28.376  26.350  1.00  0.00    -0.351 N 
ATOM     75  C   UNL A   1      31.525  27.515  25.349  1.00  0.00     0.279 C 
ATOM     76  H   UNL A   1      31.687  28.035  27.259  1.00  0.00     0.163 HD
ATOM     77  O   UNL A   1      30.787  26.575  25.647  1.00  0.00    -0.268 OA
BRANCH  75  78
ATOM     78  C   UNL A   1      32.069  27.723  23.926  1.00  0.00     0.284 C 
ATOM     79  C   UNL A   1      31.171  27.010  22.913  1.00  0.00     0.151 C 
ATOM     80  N   UNL A   1      33.495  27.263  23.854  1.00  0.00    -0.319 N 
ATOM     81  S   UNL A   1      32.340  26.384  21.692  1.00  0.00    -0.085 SA
ATOM     82  C   UNL A   1      33.576  26.067  22.990  1.00  0.00     0.303 C 
ATOM     83  H   UNL A   1      33.826  27.031  24.791  1.00  0.00     0.348 HD
ATOM     84  H   UNL A   1      34.076  28.006  23.466  1.00  0.00     0.348 HD
BRANCH  82  85
ATOM     85  C   UNL A   1      33.351  24.741  23.705  1.00  0.00     0.162 A 
ATOM     86  N   UNL A   1      33.536  24.529  24.998  1.00  0.00    -0.242 NA
ATOM     87  S   UNL A   1      32.740  23.369  22.843  1.00  0.00    -0.112 S 
ATOM     88  C   UNL A   1      33.424  23.178  25.269  1.00  0.00     0.132 A 
ATOM     89  C   UNL A   1      33.100  22.380  24.193  1.00  0.00     0.055 A 
BRANCH  89  90
ATOM     90  C   UNL A   1      33.084  20.931  24.076  1.00  0.00    -0.007 A 
ATOM     91  C   UNL A   1      32.266  20.331  23.109  1.00  0.00     0.009 A 
ATOM     92  C   UNL A   1      33.885  20.127  24.893  1.00  0.00     0.009 A 
ATOM     93  C   UNL A   1      32.245  18.945  22.960  1.00  0.00     0.001 A 
ATOM     94  C   UNL A   1      33.860  18.738  24.746  1.00  0.00     0.001 A 
ATOM     95  C   UNL A   1      33.042  18.148  23.780  1.00  0.00     0.000 A 
ENDBRANCH  89  90
ENDBRANCH  82  85
ENDBRANCH  75  78
ENDBRANCH  73  74
ENDBRANCH  72  73
ENDBRANCH   1  72
TORSDOF 16
ENDMDL
