MODEL 1
REMARK VINA RESULT:     -10.6      0.000      0.000
REMARK SMILES CCN(CCC(=O)NCCCCNC(=O)c1ccc(-c2c3nc(c(-c4cc(S(=O)(=O)[O-])ccc4F)c4ccc([nH]4)c(-c4cc(S(=O)(=O)[O-])ccc4F)c4nc(c(-c5cc(S(=O)(=O)[O-])ccc5F)c5ccc2[nH]5)C=C4)C=C3)cc1)C(=O)N(C)CCc1cccs1
REMARK SMILES IDX 6 1 7 2 8 3 5 5 4 6 3 7 2 8 1 9 79 10 80 11 81 12 82 13
REMARK SMILES IDX 83 14 84 15 85 16 86 17 89 18 87 19 88 20 9 21 10 22 11 23
REMARK SMILES IDX 12 24 13 25 14 26 15 28 16 29 17 30 78 31 18 32 77 33 19 34
REMARK SMILES IDX 20 35 21 36 71 37 22 38 76 39 70 40 72 41 23 42 75 43 69 44
REMARK SMILES IDX 68 45 24 47 56 48 36 49 55 50 37 51 40 52 54 53 73 54 38 55
REMARK SMILES IDX 39 56 53 58 74 59 41 60 25 61 26 62 34 63 27 64 33 65 35 66
REMARK SMILES IDX 32 67 28 68 29 69 30 70 31 71 57 72 58 73 66 74 59 75 65 76
REMARK SMILES IDX 67 77 64 78 60 79 61 80 62 81 63 82 42 83 43 84 51 85 44 86
REMARK SMILES IDX 50 87 52 88 49 89 45 90 46 91 47 92 48 93
REMARK H PARENT 8 4 13 27 72 46 40 57
REMARK Flexibility Score: inf
ROOT
ATOM      1  C   UNL A   1      31.781  23.177  26.882  1.00  0.00     0.221 C 
ATOM      2  O   UNL A   1      30.693  23.505  27.369  1.00  0.00    -0.275 OA
ATOM      3  N   UNL A   1      32.526  22.240  27.527  1.00  0.00    -0.356 N 
ATOM      4  H   UNL A   1      32.111  21.996  28.386  1.00  0.00     0.163 HD
ENDROOT
BRANCH   1   5
ATOM      5  C   UNL A   1      32.241  23.817  25.620  1.00  0.00     0.121 C 
BRANCH   5   6
ATOM      6  C   UNL A   1      31.432  23.297  24.454  1.00  0.00     0.131 C 
BRANCH   6   7
ATOM      7  N   UNL A   1      32.182  23.273  23.197  1.00  0.00    -0.324 N 
BRANCH   7   8
ATOM      8  C   UNL A   1      32.268  21.900  22.630  1.00  0.00     0.118 C 
ATOM      9  C   UNL A   1      32.465  20.636  23.451  1.00  0.00     0.027 C 
ENDBRANCH   7   8
BRANCH   7  10
ATOM     10  C   UNL A   1      32.805  24.423  22.656  1.00  0.00     0.319 C 
ATOM     11  O   UNL A   1      34.019  24.610  22.732  1.00  0.00    -0.248 OA
BRANCH  10  12
ATOM     12  N   UNL A   1      31.946  25.361  21.986  1.00  0.00    -0.327 N 
ATOM     13  C   UNL A   1      32.524  25.661  20.674  1.00  0.00     0.148 C 
BRANCH  12  14
ATOM     14  C   UNL A   1      31.456  26.631  22.687  1.00  0.00     0.126 C 
BRANCH  14  15
ATOM     15  C   UNL A   1      31.142  27.014  24.242  1.00  0.00     0.068 C 
BRANCH  15  16
ATOM     16  C   UNL A   1      31.685  28.033  25.328  1.00  0.00     0.006 A 
ATOM     17  C   UNL A   1      31.553  28.253  26.696  1.00  0.00     0.015 A 
ATOM     18  S   UNL A   1      32.771  29.292  24.762  1.00  0.00    -0.149 S 
ATOM     19  C   UNL A   1      32.176  29.412  27.244  1.00  0.00     0.012 A 
ATOM     20  C   UNL A   1      32.880  30.074  26.282  1.00  0.00     0.065 A 
ENDBRANCH  15  16
ENDBRANCH  14  15
ENDBRANCH  12  14
ENDBRANCH  10  12
ENDBRANCH   7  10
ENDBRANCH   6   7
ENDBRANCH   5   6
ENDBRANCH   1   5
BRANCH   3  21
ATOM     21  C   UNL A   1      33.774  21.483  27.313  1.00  0.00     0.116 C 
BRANCH  21  22
ATOM     22  C   UNL A   1      34.781  21.589  26.056  1.00  0.00     0.023 C 
BRANCH  22  23
ATOM     23  C   UNL A   1      35.743  22.576  25.277  1.00  0.00     0.023 C 
BRANCH  23  24
ATOM     24  C   UNL A   1      37.019  22.280  24.470  1.00  0.00     0.116 C 
BRANCH  24  25
ATOM     25  N   UNL A   1      37.782  21.154  24.958  1.00  0.00    -0.352 N 
ATOM     26  C   UNL A   1      38.802  21.154  25.879  1.00  0.00     0.251 C 
ATOM     27  H   UNL A   1      37.540  20.275  24.583  1.00  0.00     0.163 HD
ATOM     28  O   UNL A   1      39.369  20.097  26.159  1.00  0.00    -0.269 OA
BRANCH  26  29
ATOM     29  C   UNL A   1      39.283  22.432  26.450  1.00  0.00     0.039 A 
ATOM     30  C   UNL A   1      40.397  22.383  27.293  1.00  0.00     0.014 A 
ATOM     31  C   UNL A   1      38.690  23.659  26.142  1.00  0.00     0.014 A 
ATOM     32  C   UNL A   1      40.970  23.568  27.753  1.00  0.00     0.010 A 
ATOM     33  C   UNL A   1      39.299  24.847  26.557  1.00  0.00     0.010 A 
ATOM     34  C   UNL A   1      40.458  24.810  27.348  1.00  0.00    -0.014 A 
BRANCH  34  35
ATOM     35  C   UNL A   1      41.175  26.059  27.718  1.00  0.00     0.031 A 
ATOM     36  C   UNL A   1      42.583  26.299  27.258  1.00  0.00     0.074 A 
ATOM     37  C   UNL A   1      40.540  26.967  28.488  1.00  0.00     0.049 A 
ATOM     38  N   UNL A   1      43.346  27.346  27.434  1.00  0.00    -0.248 NA
ATOM     39  C   UNL A   1      43.227  25.199  26.527  1.00  0.00     0.031 C 
ATOM     40  C   UNL A   1      39.196  26.795  29.047  1.00  0.00     0.029 A 
ATOM     41  N   UNL A   1      40.923  28.207  28.929  1.00  0.00    -0.354 N 
ATOM     42  C   UNL A   1      44.560  27.036  26.830  1.00  0.00     0.074 A 
ATOM     43  C   UNL A   1      44.452  25.672  26.357  1.00  0.00     0.031 C 
ATOM     44  C   UNL A   1      38.855  27.902  29.726  1.00  0.00     0.029 A 
ATOM     45  C   UNL A   1      39.960  28.851  29.674  1.00  0.00     0.049 A 
ATOM     46  H   UNL A   1      41.804  28.600  28.733  1.00  0.00     0.167 HD
ATOM     47  C   UNL A   1      45.650  27.829  26.659  1.00  0.00     0.034 A 
ATOM     48  C   UNL A   1      39.967  30.074  30.242  1.00  0.00     0.034 A 
ATOM     49  C   UNL A   1      45.730  29.180  27.163  1.00  0.00     0.049 A 
ATOM     50  C   UNL A   1      41.177  30.946  30.031  1.00  0.00     0.074 A 
ATOM     51  C   UNL A   1      46.764  30.092  27.049  1.00  0.00     0.029 A 
ATOM     52  N   UNL A   1      44.726  29.811  27.892  1.00  0.00    -0.354 N 
ATOM     53  N   UNL A   1      42.293  30.665  29.396  1.00  0.00    -0.248 NA
ATOM     54  C   UNL A   1      41.123  32.301  30.588  1.00  0.00     0.031 C 
ATOM     55  C   UNL A   1      46.408  31.249  27.754  1.00  0.00     0.029 A 
ATOM     56  C   UNL A   1      45.123  31.090  28.251  1.00  0.00     0.049 A 
ATOM     57  H   UNL A   1      43.857  29.407  28.120  1.00  0.00     0.167 HD
ATOM     58  C   UNL A   1      43.070  31.817  29.464  1.00  0.00     0.074 A 
ATOM     59  C   UNL A   1      42.281  32.803  30.179  1.00  0.00     0.031 C 
ATOM     60  C   UNL A   1      44.320  32.044  28.983  1.00  0.00     0.034 A 
BRANCH  47  61
ATOM     61  C   UNL A   1      46.828  27.224  25.925  1.00  0.00     0.023 A 
ATOM     62  C   UNL A   1      47.846  26.539  26.617  1.00  0.00     0.031 A 
ATOM     63  C   UNL A   1      46.992  27.406  24.541  1.00  0.00     0.131 A 
ATOM     64  C   UNL A   1      49.025  26.171  25.953  1.00  0.00     0.055 A 
ATOM     65  C   UNL A   1      48.127  26.950  23.866  1.00  0.00     0.041 A 
ATOM     66  F   UNL A   1      46.067  28.063  23.823  1.00  0.00    -0.206 F 
ATOM     67  C   UNL A   1      49.164  26.350  24.576  1.00  0.00     0.022 A 
BRANCH  64  68
ATOM     68  S   UNL A   1      50.445  25.638  26.948  1.00  0.00     0.124 S 
ATOM     69  O   UNL A   1      51.450  25.388  25.917  1.00  0.00    -0.237 OA
ATOM     70  O   UNL A   1      50.683  26.794  27.805  1.00  0.00    -0.237 OA
ATOM     71  O   UNL A   1      49.957  24.443  27.633  1.00  0.00    -0.744 OA
ENDBRANCH  64  68
ENDBRANCH  47  61
BRANCH  48  72
ATOM     72  C   UNL A   1      38.796  30.538  31.043  1.00  0.00     0.023 A 
ATOM     73  C   UNL A   1      37.717  31.210  30.445  1.00  0.00     0.031 A 
ATOM     74  C   UNL A   1      38.739  30.308  32.430  1.00  0.00     0.131 A 
ATOM     75  C   UNL A   1      36.641  31.653  31.236  1.00  0.00     0.055 A 
ATOM     76  C   UNL A   1      37.649  30.711  33.204  1.00  0.00     0.041 A 
ATOM     77  F   UNL A   1      39.738  29.661  33.051  1.00  0.00    -0.206 F 
ATOM     78  C   UNL A   1      36.595  31.396  32.608  1.00  0.00     0.022 A 
BRANCH  75  79
ATOM     79  S   UNL A   1      35.321  32.621  30.454  1.00  0.00     0.124 S 
ATOM     80  O   UNL A   1      36.028  33.836  30.068  1.00  0.00    -0.237 OA
ATOM     81  O   UNL A   1      34.908  31.744  29.363  1.00  0.00    -0.237 OA
ATOM     82  O   UNL A   1      34.338  32.784  31.524  1.00  0.00    -0.744 OA
ENDBRANCH  75  79
ENDBRANCH  48  72
BRANCH  60  83
ATOM     83  C   UNL A   1      44.889  33.422  29.207  1.00  0.00     0.023 A 
ATOM     84  C   UNL A   1      45.659  33.723  30.344  1.00  0.00     0.031 A 
ATOM     85  C   UNL A   1      44.651  34.446  28.275  1.00  0.00     0.131 A 
ATOM     86  C   UNL A   1      46.118  35.033  30.547  1.00  0.00     0.055 A 
ATOM     87  C   UNL A   1      45.161  35.733  28.453  1.00  0.00     0.041 A 
ATOM     88  F   UNL A   1      43.920  34.211  27.173  1.00  0.00    -0.206 F 
ATOM     89  C   UNL A   1      45.888  36.035  29.600  1.00  0.00     0.022 A 
BRANCH  86  90
ATOM     90  S   UNL A   1      46.946  35.430  32.111  1.00  0.00     0.124 S 
ATOM     91  O   UNL A   1      48.323  35.038  31.832  1.00  0.00    -0.237 OA
ATOM     92  O   UNL A   1      46.704  36.864  32.237  1.00  0.00    -0.237 OA
ATOM     93  O   UNL A   1      46.249  34.597  33.088  1.00  0.00    -0.744 OA
ENDBRANCH  86  90
ENDBRANCH  60  83
ENDBRANCH  34  35
ENDBRANCH  26  29
ENDBRANCH  24  25
ENDBRANCH  23  24
ENDBRANCH  22  23
ENDBRANCH  21  22
ENDBRANCH   3  21
TORSDOF 22
ENDMDL
MODEL 2
REMARK VINA RESULT:     -10.3      2.615      3.817
REMARK SMILES CCN(CCC(=O)NCCCCNC(=O)c1ccc(-c2c3nc(c(-c4cc(S(=O)(=O)[O-])ccc4F)c4ccc([nH]4)c(-c4cc(S(=O)(=O)[O-])ccc4F)c4nc(c(-c5cc(S(=O)(=O)[O-])ccc5F)c5ccc2[nH]5)C=C4)C=C3)cc1)C(=O)N(C)CCc1cccs1
REMARK SMILES IDX 6 1 7 2 8 3 5 5 4 6 3 7 2 8 1 9 79 10 80 11 81 12 82 13
REMARK SMILES IDX 83 14 84 15 85 16 86 17 89 18 87 19 88 20 9 21 10 22 11 23
REMARK SMILES IDX 12 24 13 25 14 26 15 28 16 29 17 30 78 31 18 32 77 33 19 34
REMARK SMILES IDX 20 35 21 36 71 37 22 38 76 39 70 40 72 41 23 42 75 43 69 44
REMARK SMILES IDX 68 45 24 47 56 48 36 49 55 50 37 51 40 52 54 53 73 54 38 55
REMARK SMILES IDX 39 56 53 58 74 59 41 60 25 61 26 62 34 63 27 64 33 65 35 66
REMARK SMILES IDX 32 67 28 68 29 69 30 70 31 71 57 72 58 73 66 74 59 75 65 76
REMARK SMILES IDX 67 77 64 78 60 79 61 80 62 81 63 82 42 83 43 84 51 85 44 86
REMARK SMILES IDX 50 87 52 88 49 89 45 90 46 91 47 92 48 93
REMARK H PARENT 8 4 13 27 72 46 40 57
REMARK Flexibility Score: inf
ROOT
ATOM      1  C   UNL A   1      33.237  27.866  26.539  1.00  0.00     0.221 C 
ATOM      2  O   UNL A   1      33.823  28.736  27.192  1.00  0.00    -0.275 OA
ATOM      3  N   UNL A   1      33.930  26.757  26.166  1.00  0.00    -0.356 N 
ATOM      4  H   UNL A   1      34.879  26.840  26.411  1.00  0.00     0.163 HD
ENDROOT
BRANCH   1   5
ATOM      5  C   UNL A   1      31.807  28.060  26.176  1.00  0.00     0.121 C 
BRANCH   5   6
ATOM      6  C   UNL A   1      31.669  29.239  25.241  1.00  0.00     0.131 C 
BRANCH   6   7
ATOM      7  N   UNL A   1      31.415  28.849  23.853  1.00  0.00    -0.324 N 
BRANCH   7   8
ATOM      8  C   UNL A   1      29.994  29.063  23.469  1.00  0.00     0.118 C 
ATOM      9  C   UNL A   1      29.534  29.636  22.138  1.00  0.00     0.027 C 
ENDBRANCH   7   8
BRANCH   7  10
ATOM     10  C   UNL A   1      32.408  28.267  23.029  1.00  0.00     0.319 C 
ATOM     11  O   UNL A   1      33.271  28.938  22.467  1.00  0.00    -0.248 OA
BRANCH  10  12
ATOM     12  N   UNL A   1      32.372  26.836  22.897  1.00  0.00    -0.327 N 
ATOM     13  C   UNL A   1      33.155  26.460  21.718  1.00  0.00     0.148 C 
BRANCH  12  14
ATOM     14  C   UNL A   1      31.050  26.065  22.961  1.00  0.00     0.126 C 
BRANCH  14  15
ATOM     15  C   UNL A   1      30.668  24.491  23.167  1.00  0.00     0.068 C 
BRANCH  15  16
ATOM     16  C   UNL A   1      31.277  23.226  23.904  1.00  0.00     0.006 A 
ATOM     17  C   UNL A   1      31.271  22.673  25.181  1.00  0.00     0.015 A 
ATOM     18  S   UNL A   1      32.263  22.143  22.935  1.00  0.00    -0.149 S 
ATOM     19  C   UNL A   1      32.088  21.528  25.410  1.00  0.00     0.012 A 
ATOM     20  C   UNL A   1      32.691  21.133  24.252  1.00  0.00     0.065 A 
ENDBRANCH  15  16
ENDBRANCH  14  15
ENDBRANCH  12  14
ENDBRANCH  10  12
ENDBRANCH   7  10
ENDBRANCH   6   7
ENDBRANCH   5   6
ENDBRANCH   1   5
BRANCH   3  21
ATOM     21  C   UNL A   1      33.671  25.465  25.500  1.00  0.00     0.116 C 
BRANCH  21  22
ATOM     22  C   UNL A   1      34.756  24.466  24.846  1.00  0.00     0.023 C 
BRANCH  22  23
ATOM     23  C   UNL A   1      36.213  23.873  25.031  1.00  0.00     0.023 C 
BRANCH  23  24
ATOM     24  C   UNL A   1      36.950  23.448  26.313  1.00  0.00     0.116 C 
BRANCH  24  25
ATOM     25  N   UNL A   1      37.859  22.338  26.134  1.00  0.00    -0.352 N 
ATOM     26  C   UNL A   1      39.212  22.302  26.373  1.00  0.00     0.251 C 
ATOM     27  H   UNL A   1      37.459  21.503  25.797  1.00  0.00     0.163 HD
ATOM     28  O   UNL A   1      39.844  21.273  26.134  1.00  0.00    -0.269 OA
BRANCH  26  29
ATOM     29  C   UNL A   1      39.918  23.525  26.816  1.00  0.00     0.039 A 
ATOM     30  C   UNL A   1      39.896  24.629  25.958  1.00  0.00     0.014 A 
ATOM     31  C   UNL A   1      40.555  23.614  28.057  1.00  0.00     0.014 A 
ATOM     32  C   UNL A   1      40.431  25.845  26.380  1.00  0.00     0.010 A 
ATOM     33  C   UNL A   1      41.040  24.848  28.499  1.00  0.00     0.010 A 
ATOM     34  C   UNL A   1      40.961  25.979  27.673  1.00  0.00    -0.014 A 
BRANCH  34  35
ATOM     35  C   UNL A   1      41.382  27.318  28.162  1.00  0.00     0.031 A 
ATOM     36  C   UNL A   1      42.829  27.716  28.151  1.00  0.00     0.074 A 
ATOM     37  C   UNL A   1      40.441  28.163  28.629  1.00  0.00     0.049 A 
ATOM     38  N   UNL A   1      43.379  28.856  28.486  1.00  0.00    -0.248 NA
ATOM     39  C   UNL A   1      43.788  26.683  27.737  1.00  0.00     0.031 C 
ATOM     40  C   UNL A   1      39.015  27.844  28.749  1.00  0.00     0.029 A 
ATOM     41  N   UNL A   1      40.526  29.454  29.082  1.00  0.00    -0.354 N 
ATOM     42  C   UNL A   1      44.747  28.680  28.315  1.00  0.00     0.074 A 
ATOM     43  C   UNL A   1      44.944  27.299  27.929  1.00  0.00     0.031 C 
ATOM     44  C   UNL A   1      38.358  28.919  29.208  1.00  0.00     0.029 A 
ATOM     45  C   UNL A   1      39.312  29.997  29.440  1.00  0.00     0.049 A 
ATOM     46  H   UNL A   1      41.376  29.948  29.145  1.00  0.00     0.167 HD
ATOM     47  C   UNL A   1      45.742  29.597  28.441  1.00  0.00     0.034 A 
ATOM     48  C   UNL A   1      39.005  31.229  29.896  1.00  0.00     0.034 A 
ATOM     49  C   UNL A   1      45.511  30.963  28.850  1.00  0.00     0.049 A 
ATOM     50  C   UNL A   1      40.118  32.237  30.015  1.00  0.00     0.074 A 
ATOM     51  C   UNL A   1      46.422  31.992  29.003  1.00  0.00     0.029 A 
ATOM     52  N   UNL A   1      44.264  31.486  29.182  1.00  0.00    -0.354 N 
ATOM     53  N   UNL A   1      41.401  32.078  29.784  1.00  0.00    -0.248 NA
ATOM     54  C   UNL A   1      39.742  33.592  30.432  1.00  0.00     0.031 C 
ATOM     55  C   UNL A   1      45.737  33.117  29.480  1.00  0.00     0.029 A 
ATOM     56  C   UNL A   1      44.386  32.815  29.558  1.00  0.00     0.049 A 
ATOM     57  H   UNL A   1      43.418  30.985  29.153  1.00  0.00     0.167 HD
ATOM     58  C   UNL A   1      41.986  33.319  30.012  1.00  0.00     0.074 A 
ATOM     59  C   UNL A   1      40.909  34.220  30.374  1.00  0.00     0.031 C 
ATOM     60  C   UNL A   1      43.293  33.684  29.933  1.00  0.00     0.034 A 
BRANCH  47  61
ATOM     61  C   UNL A   1      47.151  29.121  28.157  1.00  0.00     0.023 A 
ATOM     62  C   UNL A   1      47.593  28.889  26.839  1.00  0.00     0.031 A 
ATOM     63  C   UNL A   1      48.035  28.806  29.203  1.00  0.00     0.131 A 
ATOM     64  C   UNL A   1      48.821  28.253  26.610  1.00  0.00     0.055 A 
ATOM     65  C   UNL A   1      49.300  28.262  28.963  1.00  0.00     0.041 A 
ATOM     66  F   UNL A   1      47.674  28.989  30.483  1.00  0.00    -0.206 F 
ATOM     67  C   UNL A   1      49.690  27.959  27.661  1.00  0.00     0.022 A 
BRANCH  64  68
ATOM     68  S   UNL A   1      49.176  27.639  24.939  1.00  0.00     0.124 S 
ATOM     69  O   UNL A   1      47.961  28.021  24.222  1.00  0.00    -0.237 OA
ATOM     70  O   UNL A   1      50.385  28.373  24.582  1.00  0.00    -0.237 OA
ATOM     71  O   UNL A   1      49.351  26.202  25.130  1.00  0.00    -0.744 OA
ENDBRANCH  64  68
ENDBRANCH  47  61
BRANCH  48  72
ATOM     72  C   UNL A   1      37.597  31.568  30.254  1.00  0.00     0.023 A 
ATOM     73  C   UNL A   1      36.694  32.065  29.300  1.00  0.00     0.031 A 
ATOM     74  C   UNL A   1      37.129  31.392  31.570  1.00  0.00     0.131 A 
ATOM     75  C   UNL A   1      35.381  32.396  29.680  1.00  0.00     0.055 A 
ATOM     76  C   UNL A   1      35.812  31.681  31.934  1.00  0.00     0.041 A 
ATOM     77  F   UNL A   1      37.946  30.911  32.521  1.00  0.00    -0.206 F 
ATOM     78  C   UNL A   1      34.932  32.195  30.987  1.00  0.00     0.022 A 
BRANCH  75  79
ATOM     79  S   UNL A   1      34.277  33.147  28.452  1.00  0.00     0.124 S 
ATOM     80  O   UNL A   1      35.220  33.859  27.597  1.00  0.00    -0.237 OA
ATOM     81  O   UNL A   1      33.637  31.975  27.864  1.00  0.00    -0.237 OA
ATOM     82  O   UNL A   1      33.399  33.995  29.255  1.00  0.00    -0.744 OA
ENDBRANCH  75  79
ENDBRANCH  48  72
BRANCH  60  83
ATOM     83  C   UNL A   1      43.608  35.129  30.229  1.00  0.00     0.023 A 
ATOM     84  C   UNL A   1      43.551  36.112  29.226  1.00  0.00     0.031 A 
ATOM     85  C   UNL A   1      43.977  35.521  31.526  1.00  0.00     0.131 A 
ATOM     86  C   UNL A   1      43.912  37.434  29.527  1.00  0.00     0.055 A 
ATOM     87  C   UNL A   1      44.277  36.849  31.832  1.00  0.00     0.041 A 
ATOM     88  F   UNL A   1      44.048  34.620  32.519  1.00  0.00    -0.206 F 
ATOM     89  C   UNL A   1      44.258  37.812  30.827  1.00  0.00     0.022 A 
BRANCH  86  90
ATOM     90  S   UNL A   1      44.008  38.637  28.173  1.00  0.00     0.124 S 
ATOM     91  O   UNL A   1      43.485  37.869  27.048  1.00  0.00    -0.237 OA
ATOM     92  O   UNL A   1      43.156  39.720  28.656  1.00  0.00    -0.237 OA
ATOM     93  O   UNL A   1      45.432  38.956  28.099  1.00  0.00    -0.744 OA
ENDBRANCH  86  90
ENDBRANCH  60  83
ENDBRANCH  34  35
ENDBRANCH  26  29
ENDBRANCH  24  25
ENDBRANCH  23  24
ENDBRANCH  22  23
ENDBRANCH  21  22
ENDBRANCH   3  21
TORSDOF 22
ENDMDL
MODEL 3
REMARK VINA RESULT:      -9.5      2.723      4.097
REMARK SMILES CCN(CCC(=O)NCCCCNC(=O)c1ccc(-c2c3nc(c(-c4cc(S(=O)(=O)[O-])ccc4F)c4ccc([nH]4)c(-c4cc(S(=O)(=O)[O-])ccc4F)c4nc(c(-c5cc(S(=O)(=O)[O-])ccc5F)c5ccc2[nH]5)C=C4)C=C3)cc1)C(=O)N(C)CCc1cccs1
REMARK SMILES IDX 6 1 7 2 8 3 5 5 4 6 3 7 2 8 1 9 79 10 80 11 81 12 82 13
REMARK SMILES IDX 83 14 84 15 85 16 86 17 89 18 87 19 88 20 9 21 10 22 11 23
REMARK SMILES IDX 12 24 13 25 14 26 15 28 16 29 17 30 78 31 18 32 77 33 19 34
REMARK SMILES IDX 20 35 21 36 71 37 22 38 76 39 70 40 72 41 23 42 75 43 69 44
REMARK SMILES IDX 68 45 24 47 56 48 36 49 55 50 37 51 40 52 54 53 73 54 38 55
REMARK SMILES IDX 39 56 53 58 74 59 41 60 25 61 26 62 34 63 27 64 33 65 35 66
REMARK SMILES IDX 32 67 28 68 29 69 30 70 31 71 57 72 58 73 66 74 59 75 65 76
REMARK SMILES IDX 67 77 64 78 60 79 61 80 62 81 63 82 42 83 43 84 51 85 44 86
REMARK SMILES IDX 50 87 52 88 49 89 45 90 46 91 47 92 48 93
REMARK H PARENT 8 4 13 27 72 46 40 57
REMARK Flexibility Score: inf
ROOT
ATOM      1  C   UNL A   1      33.423  27.692  25.411  1.00  0.00     0.221 C 
ATOM      2  O   UNL A   1      34.001  28.656  24.897  1.00  0.00    -0.275 OA
ATOM      3  N   UNL A   1      34.054  26.488  25.424  1.00  0.00    -0.356 N 
ATOM      4  H   UNL A   1      34.899  26.532  24.921  1.00  0.00     0.163 HD
ENDROOT
BRANCH   1   5
ATOM      5  C   UNL A   1      32.063  27.875  25.987  1.00  0.00     0.121 C 
BRANCH   5   6
ATOM      6  C   UNL A   1      31.062  28.110  24.880  1.00  0.00     0.131 C 
BRANCH   6   7
ATOM      7  N   UNL A   1      30.662  26.881  24.193  1.00  0.00    -0.324 N 
BRANCH   7   8
ATOM      8  C   UNL A   1      29.720  26.071  25.012  1.00  0.00     0.118 C 
ATOM      9  C   UNL A   1      30.134  24.944  25.945  1.00  0.00     0.027 C 
ENDBRANCH   7   8
BRANCH   7  10
ATOM     10  C   UNL A   1      31.190  26.500  22.936  1.00  0.00     0.319 C 
ATOM     11  O   UNL A   1      30.818  27.018  21.884  1.00  0.00    -0.248 OA
BRANCH  10  12
ATOM     12  N   UNL A   1      32.208  25.486  22.949  1.00  0.00    -0.327 N 
ATOM     13  C   UNL A   1      33.254  25.868  21.998  1.00  0.00     0.148 C 
BRANCH  12  14
ATOM     14  C   UNL A   1      31.853  24.001  22.827  1.00  0.00     0.126 C 
BRANCH  14  15
ATOM     15  C   UNL A   1      32.731  22.625  22.829  1.00  0.00     0.068 C 
BRANCH  15  16
ATOM     16  C   UNL A   1      32.833  21.304  23.699  1.00  0.00     0.006 A 
ATOM     17  C   UNL A   1      33.345  20.918  24.935  1.00  0.00     0.015 A 
ATOM     18  S   UNL A   1      32.142  19.844  23.009  1.00  0.00    -0.149 S 
ATOM     19  C   UNL A   1      33.298  19.533  25.266  1.00  0.00     0.012 A 
ATOM     20  C   UNL A   1      32.661  18.829  24.288  1.00  0.00     0.065 A 
ENDBRANCH  15  16
ENDBRANCH  14  15
ENDBRANCH  12  14
ENDBRANCH  10  12
ENDBRANCH   7  10
ENDBRANCH   6   7
ENDBRANCH   5   6
ENDBRANCH   1   5
BRANCH   3  21
ATOM     21  C   UNL A   1      33.839  25.135  25.972  1.00  0.00     0.116 C 
BRANCH  21  22
ATOM     22  C   UNL A   1      34.891  23.912  26.003  1.00  0.00     0.023 C 
BRANCH  22  23
ATOM     23  C   UNL A   1      36.217  23.358  25.337  1.00  0.00     0.023 C 
BRANCH  23  24
ATOM     24  C   UNL A   1      37.688  23.683  25.648  1.00  0.00     0.116 C 
BRANCH  24  25
ATOM     25  N   UNL A   1      38.488  22.534  26.004  1.00  0.00    -0.352 N 
ATOM     26  C   UNL A   1      39.680  22.508  26.688  1.00  0.00     0.251 C 
ATOM     27  H   UNL A   1      38.136  21.659  25.720  1.00  0.00     0.163 HD
ATOM     28  O   UNL A   1      40.248  21.432  26.879  1.00  0.00    -0.269 OA
BRANCH  26  29
ATOM     29  C   UNL A   1      40.325  23.775  27.098  1.00  0.00     0.039 A 
ATOM     30  C   UNL A   1      40.153  24.885  26.266  1.00  0.00     0.014 A 
ATOM     31  C   UNL A   1      41.050  23.896  28.286  1.00  0.00     0.014 A 
ATOM     32  C   UNL A   1      40.628  26.133  26.667  1.00  0.00     0.010 A 
ATOM     33  C   UNL A   1      41.475  25.157  28.714  1.00  0.00     0.010 A 
ATOM     34  C   UNL A   1      41.246  26.290  27.918  1.00  0.00    -0.014 A 
BRANCH  34  35
ATOM     35  C   UNL A   1      41.604  27.651  28.398  1.00  0.00     0.031 A 
ATOM     36  C   UNL A   1      43.033  28.106  28.413  1.00  0.00     0.074 A 
ATOM     37  C   UNL A   1      40.619  28.464  28.833  1.00  0.00     0.049 A 
ATOM     38  N   UNL A   1      43.530  29.270  28.744  1.00  0.00    -0.248 NA
ATOM     39  C   UNL A   1      44.041  27.107  28.034  1.00  0.00     0.031 C 
ATOM     40  C   UNL A   1      39.205  28.090  28.925  1.00  0.00     0.029 A 
ATOM     41  N   UNL A   1      40.644  29.763  29.270  1.00  0.00    -0.354 N 
ATOM     42  C   UNL A   1      44.908  29.147  28.607  1.00  0.00     0.074 A 
ATOM     43  C   UNL A   1      45.168  27.770  28.243  1.00  0.00     0.031 C 
ATOM     44  C   UNL A   1      38.495  29.144  29.356  1.00  0.00     0.029 A 
ATOM     45  C   UNL A   1      39.402  30.261  29.594  1.00  0.00     0.049 A 
ATOM     46  H   UNL A   1      41.471  30.290  29.345  1.00  0.00     0.167 HD
ATOM     47  C   UNL A   1      45.863  30.104  28.742  1.00  0.00     0.034 A 
ATOM     48  C   UNL A   1      39.036  31.485  30.027  1.00  0.00     0.034 A 
ATOM     49  C   UNL A   1      45.569  31.464  29.127  1.00  0.00     0.049 A 
ATOM     50  C   UNL A   1      40.105  32.539  30.157  1.00  0.00     0.074 A 
ATOM     51  C   UNL A   1      46.435  32.531  29.287  1.00  0.00     0.029 A 
ATOM     52  N   UNL A   1      44.296  31.942  29.425  1.00  0.00    -0.354 N 
ATOM     53  N   UNL A   1      41.399  32.427  29.956  1.00  0.00    -0.248 NA
ATOM     54  C   UNL A   1      39.667  33.883  30.547  1.00  0.00     0.031 C 
ATOM     55  C   UNL A   1      45.696  33.634  29.733  1.00  0.00     0.029 A 
ATOM     56  C   UNL A   1      44.356  33.279  29.786  1.00  0.00     0.049 A 
ATOM     57  H   UNL A   1      43.470  31.407  29.384  1.00  0.00     0.167 HD
ATOM     58  C   UNL A   1      41.929  33.693  30.180  1.00  0.00     0.074 A 
ATOM     59  C   UNL A   1      40.809  34.556  30.506  1.00  0.00     0.031 C 
ATOM     60  C   UNL A   1      43.221  34.109  30.125  1.00  0.00     0.034 A 
BRANCH  47  61
ATOM     61  C   UNL A   1      47.296  29.680  28.495  1.00  0.00     0.023 A 
ATOM     62  C   UNL A   1      48.125  29.261  29.554  1.00  0.00     0.031 A 
ATOM     63  C   UNL A   1      47.872  29.779  27.218  1.00  0.00     0.131 A 
ATOM     64  C   UNL A   1      49.499  29.075  29.341  1.00  0.00     0.055 A 
ATOM     65  C   UNL A   1      49.222  29.497  26.993  1.00  0.00     0.041 A 
ATOM     66  F   UNL A   1      47.143  30.187  26.167  1.00  0.00    -0.206 F 
ATOM     67  C   UNL A   1      50.051  29.166  28.063  1.00  0.00     0.022 A 
BRANCH  64  68
ATOM     68  S   UNL A   1      50.581  28.906  30.788  1.00  0.00     0.124 S 
ATOM     69  O   UNL A   1      50.048  27.698  31.415  1.00  0.00    -0.237 OA
ATOM     70  O   UNL A   1      51.902  28.782  30.183  1.00  0.00    -0.237 OA
ATOM     71  O   UNL A   1      50.350  30.140  31.536  1.00  0.00    -0.744 OA
ENDBRANCH  64  68
ENDBRANCH  47  61
BRANCH  48  72
ATOM     72  C   UNL A   1      37.607  31.773  30.350  1.00  0.00     0.023 A 
ATOM     73  C   UNL A   1      36.701  32.197  29.363  1.00  0.00     0.031 A 
ATOM     74  C   UNL A   1      37.124  31.621  31.662  1.00  0.00     0.131 A 
ATOM     75  C   UNL A   1      35.369  32.482  29.710  1.00  0.00     0.055 A 
ATOM     76  C   UNL A   1      35.789  31.862  31.994  1.00  0.00     0.041 A 
ATOM     77  F   UNL A   1      37.944  31.208  32.643  1.00  0.00    -0.206 F 
ATOM     78  C   UNL A   1      34.905  32.304  31.016  1.00  0.00     0.022 A 
BRANCH  75  79
ATOM     79  S   UNL A   1      34.255  33.140  28.438  1.00  0.00     0.124 S 
ATOM     80  O   UNL A   1      35.181  33.866  27.576  1.00  0.00    -0.237 OA
ATOM     81  O   UNL A   1      33.678  31.922  27.880  1.00  0.00    -0.237 OA
ATOM     82  O   UNL A   1      33.326  33.975  29.197  1.00  0.00    -0.744 OA
ENDBRANCH  75  79
ENDBRANCH  48  72
BRANCH  60  83
ATOM     83  C   UNL A   1      43.473  35.569  30.408  1.00  0.00     0.023 A 
ATOM     84  C   UNL A   1      43.435  36.532  29.385  1.00  0.00     0.031 A 
ATOM     85  C   UNL A   1      43.762  35.996  31.715  1.00  0.00     0.131 A 
ATOM     86  C   UNL A   1      43.735  37.870  29.678  1.00  0.00     0.055 A 
ATOM     87  C   UNL A   1      44.002  37.339  32.010  1.00  0.00     0.041 A 
ATOM     88  F   UNL A   1      43.813  35.116  32.727  1.00  0.00    -0.206 F 
ATOM     89  C   UNL A   1      44.002  38.282  30.987  1.00  0.00     0.022 A 
BRANCH  86  90
ATOM     90  S   UNL A   1      43.860  39.052  28.308  1.00  0.00     0.124 S 
ATOM     91  O   UNL A   1      45.186  39.622  28.519  1.00  0.00    -0.237 OA
ATOM     92  O   UNL A   1      43.715  38.190  27.138  1.00  0.00    -0.237 OA
ATOM     93  O   UNL A   1      42.746  39.968  28.543  1.00  0.00    -0.744 OA
ENDBRANCH  86  90
ENDBRANCH  60  83
ENDBRANCH  34  35
ENDBRANCH  26  29
ENDBRANCH  24  25
ENDBRANCH  23  24
ENDBRANCH  22  23
ENDBRANCH  21  22
ENDBRANCH   3  21
TORSDOF 22
ENDMDL
