MODEL 1
REMARK VINA RESULT:     -11.8      0.000      0.000
REMARK SMILES O=C(CC[N@H+]1CCC[C@@H](C(=O)NCCCCNC(=O)c2ccc(-c3c4nc(c(-c5cc(S(=O)(=O)[O-])ccc5F)c5ccc([nH]5)c(-c5cc(S(=O)(=O)[O-])ccc5F)c5nc(c(-c6cc(S(=O)(=O)[O-])ccc6F)c6ccc3[nH]6)C=C5)C=C4)cc2)C1)Nc1cccc(F)c1
REMARK SMILES IDX 14 1 13 2 12 3 10 4 11 5 9 7 5 8 6 9 83 10 7 12 8 13 4 14
REMARK SMILES IDX 3 15 2 16 1 17 84 18 85 20 86 21 91 22 87 23 89 24 88 25
REMARK SMILES IDX 90 26 15 27 16 28 17 29 18 30 19 32 20 33 21 34 82 35 22 36
REMARK SMILES IDX 81 37 23 38 24 39 25 40 75 41 26 42 80 43 74 44 76 45 27 46
REMARK SMILES IDX 79 47 73 48 72 49 28 51 60 52 40 53 59 54 41 55 44 56 58 57
REMARK SMILES IDX 77 58 42 59 43 60 57 62 78 63 45 64 29 65 30 66 38 67 31 68
REMARK SMILES IDX 37 69 39 70 36 71 32 72 33 73 34 74 35 75 61 76 62 77 70 78
REMARK SMILES IDX 63 79 69 80 71 81 68 82 64 83 65 84 66 85 67 86 46 87 47 88
REMARK SMILES IDX 55 89 48 90 54 91 56 92 53 93 49 94 50 95 51 96 52 97
REMARK H PARENT 12 6 5 11 84 19 17 31 76 50 44 61
REMARK Flexibility Score: inf
ROOT
ATOM      1  C   UNL A   1      34.734  30.713  27.950  1.00  0.00     0.023 C 
ENDROOT
BRANCH   1   2
ATOM      2  C   UNL A   1      34.567  29.297  27.388  1.00  0.00     0.116 C 
BRANCH   2   3
ATOM      3  N   UNL A   1      34.215  29.373  25.984  1.00  0.00    -0.356 N 
ATOM      4  C   UNL A   1      33.711  28.357  25.222  1.00  0.00     0.228 C 
ATOM      5  O   UNL A   1      34.119  28.241  24.067  1.00  0.00    -0.275 OA
ATOM      6  H   UNL A   1      34.353  30.239  25.535  1.00  0.00     0.163 HD
BRANCH   4   7
ATOM      7  C   UNL A   1      32.549  27.531  25.769  1.00  0.00     0.133 C 
ATOM      8  N   UNL A   1      30.315  26.694  24.815  1.00  0.00    -0.334 N 
ATOM      9  C   UNL A   1      30.770  25.308  25.059  1.00  0.00     0.262 C 
ATOM     10  C   UNL A   1      31.466  27.597  24.682  1.00  0.00     0.275 C 
ATOM     11  H   UNL A   1      29.773  27.041  25.606  1.00  0.00     0.348 HD
ATOM     12  C   UNL A   1      31.751  25.199  26.226  1.00  0.00     0.062 C 
ATOM     13  C   UNL A   1      32.972  26.079  25.996  1.00  0.00     0.025 C 
BRANCH   8  14
ATOM     14  C   UNL A   1      29.442  26.690  23.601  1.00  0.00     0.272 C 
BRANCH  14  15
ATOM     15  C   UNL A   1      27.912  26.754  23.786  1.00  0.00     0.161 C 
BRANCH  15  16
ATOM     16  C   UNL A   1      27.435  28.176  23.534  1.00  0.00     0.230 C 
ATOM     17  O   UNL A   1      26.239  28.458  23.514  1.00  0.00    -0.275 OA
ATOM     18  N   UNL A   1      28.452  29.083  23.318  1.00  0.00    -0.326 N 
ATOM     19  H   UNL A   1      29.346  28.863  23.666  1.00  0.00     0.169 HD
BRANCH  18  20
ATOM     20  C   UNL A   1      28.298  30.304  22.630  1.00  0.00     0.044 A 
ATOM     21  C   UNL A   1      28.000  30.358  21.261  1.00  0.00     0.026 A 
ATOM     22  C   UNL A   1      28.570  31.484  23.316  1.00  0.00     0.065 A 
ATOM     23  C   UNL A   1      28.053  31.576  20.572  1.00  0.00     0.005 A 
ATOM     24  C   UNL A   1      28.534  32.697  22.637  1.00  0.00     0.125 A 
ATOM     25  C   UNL A   1      28.311  32.754  21.267  1.00  0.00     0.039 A 
ATOM     26  F   UNL A   1      28.736  33.831  23.318  1.00  0.00    -0.207 F 
ENDBRANCH  18  20
ENDBRANCH  15  16
ENDBRANCH  14  15
ENDBRANCH   8  14
ENDBRANCH   4   7
ENDBRANCH   2   3
ENDBRANCH   1   2
BRANCH   1  27
ATOM     27  C   UNL A   1      34.049  31.812  27.125  1.00  0.00     0.023 C 
BRANCH  27  28
ATOM     28  C   UNL A   1      32.665  32.231  27.616  1.00  0.00     0.116 C 
BRANCH  28  29
ATOM     29  N   UNL A   1      32.552  33.669  27.792  1.00  0.00    -0.352 N 
ATOM     30  C   UNL A   1      33.247  34.512  28.622  1.00  0.00     0.251 C 
ATOM     31  H   UNL A   1      31.872  34.105  27.229  1.00  0.00     0.163 HD
ATOM     32  O   UNL A   1      32.866  35.678  28.741  1.00  0.00    -0.269 OA
BRANCH  30  33
ATOM     33  C   UNL A   1      34.417  34.029  29.388  1.00  0.00     0.039 A 
ATOM     34  C   UNL A   1      34.198  33.235  30.518  1.00  0.00     0.014 A 
ATOM     35  C   UNL A   1      35.721  34.364  29.015  1.00  0.00     0.014 A 
ATOM     36  C   UNL A   1      35.286  32.725  31.232  1.00  0.00     0.010 A 
ATOM     37  C   UNL A   1      36.804  33.793  29.684  1.00  0.00     0.010 A 
ATOM     38  C   UNL A   1      36.599  32.967  30.799  1.00  0.00    -0.014 A 
BRANCH  38  39
ATOM     39  C   UNL A   1      37.764  32.352  31.494  1.00  0.00     0.031 A 
ATOM     40  C   UNL A   1      38.525  31.222  30.853  1.00  0.00     0.074 A 
ATOM     41  C   UNL A   1      38.095  32.767  32.733  1.00  0.00     0.049 A 
ATOM     42  N   UNL A   1      39.519  30.518  31.330  1.00  0.00    -0.248 NA
ATOM     43  C   UNL A   1      38.085  30.813  29.513  1.00  0.00     0.031 C 
ATOM     44  C   UNL A   1      37.406  33.822  33.479  1.00  0.00     0.029 A 
ATOM     45  N   UNL A   1      39.084  32.348  33.588  1.00  0.00    -0.354 N 
ATOM     46  C   UNL A   1      39.815  29.570  30.355  1.00  0.00     0.074 A 
ATOM     47  C   UNL A   1      38.849  29.754  29.291  1.00  0.00     0.031 C 
ATOM     48  C   UNL A   1      38.004  33.979  34.670  1.00  0.00     0.029 A 
ATOM     49  C   UNL A   1      39.085  33.006  34.797  1.00  0.00     0.049 A 
ATOM     50  H   UNL A   1      39.731  31.643  33.359  1.00  0.00     0.167 HD
ATOM     51  C   UNL A   1      40.810  28.646  30.342  1.00  0.00     0.034 A 
ATOM     52  C   UNL A   1      39.851  32.834  35.892  1.00  0.00     0.034 A 
ATOM     53  C   UNL A   1      41.764  28.479  31.414  1.00  0.00     0.049 A 
ATOM     54  C   UNL A   1      40.933  31.786  35.869  1.00  0.00     0.074 A 
ATOM     55  C   UNL A   1      42.852  27.627  31.473  1.00  0.00     0.029 A 
ATOM     56  N   UNL A   1      41.732  29.163  32.624  1.00  0.00    -0.354 N 
ATOM     57  N   UNL A   1      41.245  30.943  34.913  1.00  0.00    -0.248 NA
ATOM     58  C   UNL A   1      41.771  31.674  37.069  1.00  0.00     0.031 C 
ATOM     59  C   UNL A   1      43.422  27.729  32.748  1.00  0.00     0.029 A 
ATOM     60  C   UNL A   1      42.752  28.716  33.453  1.00  0.00     0.049 A 
ATOM     61  H   UNL A   1      41.080  29.862  32.860  1.00  0.00     0.167 HD
ATOM     62  C   UNL A   1      42.335  30.217  35.388  1.00  0.00     0.074 A 
ATOM     63  C   UNL A   1      42.632  30.734  36.708  1.00  0.00     0.031 C 
ATOM     64  C   UNL A   1      43.030  29.220  34.780  1.00  0.00     0.034 A 
BRANCH  51  65
ATOM     65  C   UNL A   1      40.882  27.720  29.146  1.00  0.00     0.023 A 
ATOM     66  C   UNL A   1      41.828  27.904  28.121  1.00  0.00     0.031 A 
ATOM     67  C   UNL A   1      39.961  26.667  29.003  1.00  0.00     0.131 A 
ATOM     68  C   UNL A   1      41.767  27.117  26.960  1.00  0.00     0.055 A 
ATOM     69  C   UNL A   1      39.969  25.825  27.890  1.00  0.00     0.041 A 
ATOM     70  F   UNL A   1      39.019  26.450  29.935  1.00  0.00    -0.206 F 
ATOM     71  C   UNL A   1      40.862  26.061  26.848  1.00  0.00     0.022 A 
BRANCH  68  72
ATOM     72  S   UNL A   1      42.759  27.618  25.525  1.00  0.00     0.124 S 
ATOM     73  O   UNL A   1      42.001  28.764  25.028  1.00  0.00    -0.237 OA
ATOM     74  O   UNL A   1      44.053  27.920  26.126  1.00  0.00    -0.237 OA
ATOM     75  O   UNL A   1      42.730  26.441  24.660  1.00  0.00    -0.744 OA
ENDBRANCH  68  72
ENDBRANCH  51  65
BRANCH  52  76
ATOM     76  C   UNL A   1      39.606  33.662  37.108  1.00  0.00     0.023 A 
ATOM     77  C   UNL A   1      38.878  33.160  38.199  1.00  0.00     0.031 A 
ATOM     78  C   UNL A   1      40.096  34.978  37.191  1.00  0.00     0.131 A 
ATOM     79  C   UNL A   1      38.637  33.979  39.313  1.00  0.00     0.055 A 
ATOM     80  C   UNL A   1      39.897  35.771  38.321  1.00  0.00     0.041 A 
ATOM     81  F   UNL A   1      40.801  35.504  36.177  1.00  0.00    -0.206 F 
ATOM     82  C   UNL A   1      39.155  35.275  39.389  1.00  0.00     0.022 A 
BRANCH  79  83
ATOM     83  S   UNL A   1      37.579  33.349  40.646  1.00  0.00     0.124 S 
ATOM     84  O   UNL A   1      36.393  32.930  39.910  1.00  0.00    -0.237 OA
ATOM     85  O   UNL A   1      38.400  32.280  41.205  1.00  0.00    -0.237 OA
ATOM     86  O   UNL A   1      37.399  34.510  41.515  1.00  0.00    -0.744 OA
ENDBRANCH  79  83
ENDBRANCH  52  76
BRANCH  64  87
ATOM     87  C   UNL A   1      44.212  28.648  35.530  1.00  0.00     0.023 A 
ATOM     88  C   UNL A   1      44.070  27.600  36.456  1.00  0.00     0.031 A 
ATOM     89  C   UNL A   1      45.501  29.168  35.318  1.00  0.00     0.131 A 
ATOM     90  C   UNL A   1      45.186  27.145  37.177  1.00  0.00     0.055 A 
ATOM     91  C   UNL A   1      46.619  28.664  35.985  1.00  0.00     0.041 A 
ATOM     92  F   UNL A   1      45.699  30.173  34.451  1.00  0.00    -0.206 F 
ATOM     93  C   UNL A   1      46.462  27.656  36.932  1.00  0.00     0.022 A 
BRANCH  90  94
ATOM     94  S   UNL A   1      44.933  25.947  38.516  1.00  0.00     0.124 S 
ATOM     95  O   UNL A   1      46.301  25.681  38.945  1.00  0.00    -0.237 OA
ATOM     96  O   UNL A   1      44.103  26.697  39.453  1.00  0.00    -0.237 OA
ATOM     97  O   UNL A   1      44.262  24.829  37.853  1.00  0.00    -0.744 OA
ENDBRANCH  90  94
ENDBRANCH  64  87
ENDBRANCH  38  39
ENDBRANCH  30  33
ENDBRANCH  28  29
ENDBRANCH  27  28
ENDBRANCH   1  27
TORSDOF 18
ENDMDL
MODEL 2
REMARK VINA RESULT:     -11.5      5.931     11.427
REMARK SMILES O=C(CC[N@H+]1CCC[C@@H](C(=O)NCCCCNC(=O)c2ccc(-c3c4nc(c(-c5cc(S(=O)(=O)[O-])ccc5F)c5ccc([nH]5)c(-c5cc(S(=O)(=O)[O-])ccc5F)c5nc(c(-c6cc(S(=O)(=O)[O-])ccc6F)c6ccc3[nH]6)C=C5)C=C4)cc2)C1)Nc1cccc(F)c1
REMARK SMILES IDX 14 1 13 2 12 3 10 4 11 5 9 7 5 8 6 9 83 10 7 12 8 13 4 14
REMARK SMILES IDX 3 15 2 16 1 17 84 18 85 20 86 21 91 22 87 23 89 24 88 25
REMARK SMILES IDX 90 26 15 27 16 28 17 29 18 30 19 32 20 33 21 34 82 35 22 36
REMARK SMILES IDX 81 37 23 38 24 39 25 40 75 41 26 42 80 43 74 44 76 45 27 46
REMARK SMILES IDX 79 47 73 48 72 49 28 51 60 52 40 53 59 54 41 55 44 56 58 57
REMARK SMILES IDX 77 58 42 59 43 60 57 62 78 63 45 64 29 65 30 66 38 67 31 68
REMARK SMILES IDX 37 69 39 70 36 71 32 72 33 73 34 74 35 75 61 76 62 77 70 78
REMARK SMILES IDX 63 79 69 80 71 81 68 82 64 83 65 84 66 85 67 86 46 87 47 88
REMARK SMILES IDX 55 89 48 90 54 91 56 92 53 93 49 94 50 95 51 96 52 97
REMARK H PARENT 12 6 5 11 84 19 17 31 76 50 44 61
REMARK Flexibility Score: inf
ROOT
ATOM      1  C   UNL A   1      37.518  20.462  24.832  1.00  0.00     0.023 C 
ENDROOT
BRANCH   1   2
ATOM      2  C   UNL A   1      37.870  21.898  25.231  1.00  0.00     0.116 C 
BRANCH   2   3
ATOM      3  N   UNL A   1      37.376  22.816  24.222  1.00  0.00    -0.356 N 
ATOM      4  C   UNL A   1      36.087  23.244  24.082  1.00  0.00     0.228 C 
ATOM      5  O   UNL A   1      35.632  23.350  22.943  1.00  0.00    -0.275 OA
ATOM      6  H   UNL A   1      38.033  23.163  23.576  1.00  0.00     0.163 HD
BRANCH   4   7
ATOM      7  C   UNL A   1      35.334  23.737  25.316  1.00  0.00     0.133 C 
ATOM      8  N   UNL A   1      33.453  25.437  25.731  1.00  0.00    -0.334 N 
ATOM      9  C   UNL A   1      32.626  24.337  26.272  1.00  0.00     0.262 C 
ATOM     10  C   UNL A   1      34.476  24.909  24.817  1.00  0.00     0.275 C 
ATOM     11  H   UNL A   1      33.959  25.911  26.479  1.00  0.00     0.348 HD
ATOM     12  C   UNL A   1      33.457  23.215  26.894  1.00  0.00     0.062 C 
ATOM     13  C   UNL A   1      34.436  22.636  25.881  1.00  0.00     0.025 C 
BRANCH   8  14
ATOM     14  C   UNL A   1      32.542  26.421  25.069  1.00  0.00     0.272 C 
BRANCH  14  15
ATOM     15  C   UNL A   1      33.052  27.187  23.830  1.00  0.00     0.161 C 
BRANCH  15  16
ATOM     16  C   UNL A   1      32.126  28.362  23.550  1.00  0.00     0.230 C 
ATOM     17  O   UNL A   1      32.191  29.400  24.205  1.00  0.00    -0.275 OA
ATOM     18  N   UNL A   1      31.223  28.138  22.531  1.00  0.00    -0.326 N 
ATOM     19  H   UNL A   1      31.444  27.448  21.865  1.00  0.00     0.169 HD
BRANCH  18  20
ATOM     20  C   UNL A   1      30.005  28.830  22.382  1.00  0.00     0.044 A 
ATOM     21  C   UNL A   1      29.913  30.039  21.678  1.00  0.00     0.026 A 
ATOM     22  C   UNL A   1      28.888  28.349  23.060  1.00  0.00     0.065 A 
ATOM     23  C   UNL A   1      28.736  30.797  21.722  1.00  0.00     0.005 A 
ATOM     24  C   UNL A   1      27.699  29.070  23.023  1.00  0.00     0.125 A 
ATOM     25  C   UNL A   1      27.619  30.304  22.389  1.00  0.00     0.039 A 
ATOM     26  F   UNL A   1      26.614  28.569  23.625  1.00  0.00    -0.207 F 
ENDBRANCH  18  20
ENDBRANCH  15  16
ENDBRANCH  14  15
ENDBRANCH   8  14
ENDBRANCH   4   7
ENDBRANCH   2   3
ENDBRANCH   1   2
BRANCH   1  27
ATOM     27  C   UNL A   1      38.562  19.412  25.242  1.00  0.00     0.023 C 
BRANCH  27  28
ATOM     28  C   UNL A   1      39.651  19.909  26.190  1.00  0.00     0.116 C 
BRANCH  28  29
ATOM     29  N   UNL A   1      40.888  19.158  26.054  1.00  0.00    -0.352 N 
ATOM     30  C   UNL A   1      42.187  19.599  26.029  1.00  0.00     0.251 C 
ATOM     31  H   UNL A   1      40.777  18.184  25.968  1.00  0.00     0.163 HD
ATOM     32  O   UNL A   1      43.080  18.806  25.726  1.00  0.00    -0.269 OA
BRANCH  30  33
ATOM     33  C   UNL A   1      42.516  21.010  26.331  1.00  0.00     0.039 A 
ATOM     34  C   UNL A   1      42.691  21.388  27.665  1.00  0.00     0.014 A 
ATOM     35  C   UNL A   1      42.636  21.964  25.316  1.00  0.00     0.014 A 
ATOM     36  C   UNL A   1      43.050  22.704  27.975  1.00  0.00     0.010 A 
ATOM     37  C   UNL A   1      43.066  23.255  25.622  1.00  0.00     0.010 A 
ATOM     38  C   UNL A   1      43.279  23.639  26.954  1.00  0.00    -0.014 A 
BRANCH  38  39
ATOM     39  C   UNL A   1      43.753  25.016  27.265  1.00  0.00     0.031 A 
ATOM     40  C   UNL A   1      42.798  26.049  27.801  1.00  0.00     0.074 A 
ATOM     41  C   UNL A   1      45.031  25.356  27.001  1.00  0.00     0.049 A 
ATOM     42  N   UNL A   1      43.009  27.313  28.066  1.00  0.00    -0.248 NA
ATOM     43  C   UNL A   1      41.418  25.606  28.038  1.00  0.00     0.031 C 
ATOM     44  C   UNL A   1      46.040  24.457  26.438  1.00  0.00     0.029 A 
ATOM     45  N   UNL A   1      45.696  26.546  27.158  1.00  0.00    -0.354 N 
ATOM     46  C   UNL A   1      41.784  27.823  28.486  1.00  0.00     0.074 A 
ATOM     47  C   UNL A   1      40.826  26.741  28.376  1.00  0.00     0.031 C 
ATOM     48  C   UNL A   1      47.200  25.122  26.315  1.00  0.00     0.029 A 
ATOM     49  C   UNL A   1      47.007  26.505  26.741  1.00  0.00     0.049 A 
ATOM     50  H   UNL A   1      45.276  27.353  27.534  1.00  0.00     0.167 HD
ATOM     51  C   UNL A   1      41.491  29.069  28.937  1.00  0.00     0.034 A 
ATOM     52  C   UNL A   1      47.943  27.472  26.684  1.00  0.00     0.034 A 
ATOM     53  C   UNL A   1      42.462  30.133  29.040  1.00  0.00     0.049 A 
ATOM     54  C   UNL A   1      47.593  28.857  27.164  1.00  0.00     0.074 A 
ATOM     55  C   UNL A   1      42.291  31.409  29.549  1.00  0.00     0.029 A 
ATOM     56  N   UNL A   1      43.780  30.056  28.605  1.00  0.00    -0.354 N 
ATOM     57  N   UNL A   1      46.448  29.306  27.624  1.00  0.00    -0.248 NA
ATOM     58  C   UNL A   1      48.663  29.860  27.129  1.00  0.00     0.031 C 
ATOM     59  C   UNL A   1      43.475  32.128  29.341  1.00  0.00     0.029 A 
ATOM     60  C   UNL A   1      44.418  31.275  28.791  1.00  0.00     0.049 A 
ATOM     61  H   UNL A   1      44.200  29.253  28.219  1.00  0.00     0.167 HD
ATOM     62  C   UNL A   1      46.670  30.641  27.956  1.00  0.00     0.074 A 
ATOM     63  C   UNL A   1      48.060  30.915  27.658  1.00  0.00     0.031 C 
ATOM     64  C   UNL A   1      45.801  31.551  28.469  1.00  0.00     0.034 A 
BRANCH  51  65
ATOM     65  C   UNL A   1      40.051  29.352  29.311  1.00  0.00     0.023 A 
ATOM     66  C   UNL A   1      39.638  29.451  30.652  1.00  0.00     0.031 A 
ATOM     67  C   UNL A   1      39.067  29.476  28.315  1.00  0.00     0.131 A 
ATOM     68  C   UNL A   1      38.273  29.565  30.961  1.00  0.00     0.055 A 
ATOM     69  C   UNL A   1      37.722  29.689  28.626  1.00  0.00     0.041 A 
ATOM     70  F   UNL A   1      39.391  29.371  27.016  1.00  0.00    -0.206 F 
ATOM     71  C   UNL A   1      37.315  29.713  29.956  1.00  0.00     0.022 A 
BRANCH  68  72
ATOM     72  S   UNL A   1      37.754  29.328  32.683  1.00  0.00     0.124 S 
ATOM     73  O   UNL A   1      38.864  29.939  33.412  1.00  0.00    -0.237 OA
ATOM     74  O   UNL A   1      36.486  30.045  32.732  1.00  0.00    -0.237 OA
ATOM     75  O   UNL A   1      37.658  27.876  32.815  1.00  0.00    -0.744 OA
ENDBRANCH  68  72
ENDBRANCH  51  65
BRANCH  52  76
ATOM     76  C   UNL A   1      49.295  27.168  26.132  1.00  0.00     0.023 A 
ATOM     77  C   UNL A   1      49.646  27.525  24.821  1.00  0.00     0.031 A 
ATOM     78  C   UNL A   1      50.258  26.504  26.915  1.00  0.00     0.131 A 
ATOM     79  C   UNL A   1      50.916  27.192  24.322  1.00  0.00     0.055 A 
ATOM     80  C   UNL A   1      51.535  26.221  26.433  1.00  0.00     0.041 A 
ATOM     81  F   UNL A   1      49.973  26.144  28.177  1.00  0.00    -0.206 F 
ATOM     82  C   UNL A   1      51.868  26.557  25.125  1.00  0.00     0.022 A 
BRANCH  79  83
ATOM     83  S   UNL A   1      51.290  27.546  22.583  1.00  0.00     0.124 S 
ATOM     84  O   UNL A   1      51.241  29.003  22.559  1.00  0.00    -0.237 OA
ATOM     85  O   UNL A   1      52.610  26.944  22.428  1.00  0.00    -0.237 OA
ATOM     86  O   UNL A   1      50.213  26.872  21.860  1.00  0.00    -0.744 OA
ENDBRANCH  79  83
ENDBRANCH  52  76
BRANCH  64  87
ATOM     87  C   UNL A   1      46.348  32.926  28.778  1.00  0.00     0.023 A 
ATOM     88  C   UNL A   1      46.111  34.028  27.938  1.00  0.00     0.031 A 
ATOM     89  C   UNL A   1      47.125  33.134  29.932  1.00  0.00     0.131 A 
ATOM     90  C   UNL A   1      46.693  35.271  28.231  1.00  0.00     0.055 A 
ATOM     91  C   UNL A   1      47.643  34.389  30.257  1.00  0.00     0.041 A 
ATOM     92  F   UNL A   1      47.390  32.119  30.769  1.00  0.00    -0.206 F 
ATOM     93  C   UNL A   1      47.440  35.463  29.396  1.00  0.00     0.022 A 
BRANCH  90  94
ATOM     94  S   UNL A   1      46.549  36.612  27.017  1.00  0.00     0.124 S 
ATOM     95  O   UNL A   1      45.212  37.127  27.292  1.00  0.00    -0.237 OA
ATOM     96  O   UNL A   1      47.659  37.486  27.384  1.00  0.00    -0.237 OA
ATOM     97  O   UNL A   1      46.699  35.929  25.733  1.00  0.00    -0.744 OA
ENDBRANCH  90  94
ENDBRANCH  64  87
ENDBRANCH  38  39
ENDBRANCH  30  33
ENDBRANCH  28  29
ENDBRANCH  27  28
ENDBRANCH   1  27
TORSDOF 18
ENDMDL
MODEL 3
REMARK VINA RESULT:     -11.4      3.667      9.186
REMARK SMILES O=C(CC[N@H+]1CCC[C@@H](C(=O)NCCCCNC(=O)c2ccc(-c3c4nc(c(-c5cc(S(=O)(=O)[O-])ccc5F)c5ccc([nH]5)c(-c5cc(S(=O)(=O)[O-])ccc5F)c5nc(c(-c6cc(S(=O)(=O)[O-])ccc6F)c6ccc3[nH]6)C=C5)C=C4)cc2)C1)Nc1cccc(F)c1
REMARK SMILES IDX 14 1 13 2 12 3 10 4 11 5 9 7 5 8 6 9 83 10 7 12 8 13 4 14
REMARK SMILES IDX 3 15 2 16 1 17 84 18 85 20 86 21 91 22 87 23 89 24 88 25
REMARK SMILES IDX 90 26 15 27 16 28 17 29 18 30 19 32 20 33 21 34 82 35 22 36
REMARK SMILES IDX 81 37 23 38 24 39 25 40 75 41 26 42 80 43 74 44 76 45 27 46
REMARK SMILES IDX 79 47 73 48 72 49 28 51 60 52 40 53 59 54 41 55 44 56 58 57
REMARK SMILES IDX 77 58 42 59 43 60 57 62 78 63 45 64 29 65 30 66 38 67 31 68
REMARK SMILES IDX 37 69 39 70 36 71 32 72 33 73 34 74 35 75 61 76 62 77 70 78
REMARK SMILES IDX 63 79 69 80 71 81 68 82 64 83 65 84 66 85 67 86 46 87 47 88
REMARK SMILES IDX 55 89 48 90 54 91 56 92 53 93 49 94 50 95 51 96 52 97
REMARK H PARENT 12 6 5 11 84 19 17 31 76 50 44 61
REMARK Flexibility Score: inf
ROOT
ATOM      1  C   UNL A   1      33.315  29.083  24.087  1.00  0.00     0.023 C 
ENDROOT
BRANCH   1   2
ATOM      2  C   UNL A   1      33.566  27.615  23.726  1.00  0.00     0.116 C 
BRANCH   2   3
ATOM      3  N   UNL A   1      33.301  27.411  22.316  1.00  0.00    -0.356 N 
ATOM      4  C   UNL A   1      32.806  26.273  21.743  1.00  0.00     0.228 C 
ATOM      5  O   UNL A   1      33.277  25.914  20.665  1.00  0.00    -0.275 OA
ATOM      6  H   UNL A   1      33.498  28.163  21.711  1.00  0.00     0.163 HD
BRANCH   4   7
ATOM      7  C   UNL A   1      31.583  25.606  22.369  1.00  0.00     0.133 C 
ATOM      8  N   UNL A   1      31.204  24.010  24.346  1.00  0.00    -0.334 N 
ATOM      9  C   UNL A   1      30.348  25.041  24.970  1.00  0.00     0.262 C 
ATOM     10  C   UNL A   1      32.151  24.626  23.407  1.00  0.00     0.275 C 
ATOM     11  H   UNL A   1      30.645  23.358  23.797  1.00  0.00     0.348 HD
ATOM     12  C   UNL A   1      29.666  25.948  23.947  1.00  0.00     0.062 C 
ATOM     13  C   UNL A   1      30.692  26.639  23.060  1.00  0.00     0.025 C 
BRANCH   8  14
ATOM     14  C   UNL A   1      31.889  23.251  25.439  1.00  0.00     0.272 C 
BRANCH  14  15
ATOM     15  C   UNL A   1      33.268  22.622  25.153  1.00  0.00     0.161 C 
BRANCH  15  16
ATOM     16  C   UNL A   1      33.075  21.284  24.455  1.00  0.00     0.230 C 
ATOM     17  O   UNL A   1      32.309  21.161  23.502  1.00  0.00    -0.275 OA
ATOM     18  N   UNL A   1      33.812  20.251  24.999  1.00  0.00    -0.326 N 
ATOM     19  H   UNL A   1      34.616  20.484  25.517  1.00  0.00     0.169 HD
BRANCH  18  20
ATOM     20  C   UNL A   1      33.489  18.886  24.865  1.00  0.00     0.044 A 
ATOM     21  C   UNL A   1      32.678  18.215  25.790  1.00  0.00     0.026 A 
ATOM     22  C   UNL A   1      34.099  18.164  23.842  1.00  0.00     0.065 A 
ATOM     23  C   UNL A   1      32.545  16.822  25.737  1.00  0.00     0.005 A 
ATOM     24  C   UNL A   1      33.888  16.792  23.750  1.00  0.00     0.125 A 
ATOM     25  C   UNL A   1      33.144  16.108  24.703  1.00  0.00     0.039 A 
ATOM     26  F   UNL A   1      34.427  16.118  22.728  1.00  0.00    -0.207 F 
ENDBRANCH  18  20
ENDBRANCH  15  16
ENDBRANCH  14  15
ENDBRANCH   8  14
ENDBRANCH   4   7
ENDBRANCH   2   3
ENDBRANCH   1   2
BRANCH   1  27
ATOM     27  C   UNL A   1      32.037  29.330  24.903  1.00  0.00     0.023 C 
BRANCH  27  28
ATOM     28  C   UNL A   1      32.260  29.771  26.347  1.00  0.00     0.116 C 
BRANCH  28  29
ATOM     29  N   UNL A   1      32.253  31.218  26.491  1.00  0.00    -0.352 N 
ATOM     30  C   UNL A   1      33.096  32.036  27.200  1.00  0.00     0.251 C 
ATOM     31  H   UNL A   1      31.533  31.682  26.004  1.00  0.00     0.163 HD
ATOM     32  O   UNL A   1      32.802  33.226  27.330  1.00  0.00    -0.269 OA
BRANCH  30  33
ATOM     33  C   UNL A   1      34.324  31.500  27.828  1.00  0.00     0.039 A 
ATOM     34  C   UNL A   1      35.387  32.374  28.077  1.00  0.00     0.014 A 
ATOM     35  C   UNL A   1      34.445  30.148  28.156  1.00  0.00     0.014 A 
ATOM     36  C   UNL A   1      36.540  31.905  28.713  1.00  0.00     0.010 A 
ATOM     37  C   UNL A   1      35.564  29.699  28.857  1.00  0.00     0.010 A 
ATOM     38  C   UNL A   1      36.624  30.572  29.144  1.00  0.00    -0.014 A 
BRANCH  38  39
ATOM     39  C   UNL A   1      37.805  30.083  29.906  1.00  0.00     0.031 A 
ATOM     40  C   UNL A   1      38.062  30.565  31.309  1.00  0.00     0.074 A 
ATOM     41  C   UNL A   1      38.686  29.254  29.310  1.00  0.00     0.049 A 
ATOM     42  N   UNL A   1      39.069  30.306  32.103  1.00  0.00    -0.248 NA
ATOM     43  C   UNL A   1      37.068  31.486  31.877  1.00  0.00     0.031 C 
ATOM     44  C   UNL A   1      38.573  28.752  27.939  1.00  0.00     0.029 A 
ATOM     45  N   UNL A   1      39.853  28.698  29.772  1.00  0.00    -0.354 N 
ATOM     46  C   UNL A   1      38.840  31.044  33.260  1.00  0.00     0.074 A 
ATOM     47  C   UNL A   1      37.630  31.808  33.032  1.00  0.00     0.031 C 
ATOM     48  C   UNL A   1      39.616  27.948  27.679  1.00  0.00     0.029 A 
ATOM     49  C   UNL A   1      40.498  27.916  28.841  1.00  0.00     0.049 A 
ATOM     50  H   UNL A   1      40.196  28.843  30.683  1.00  0.00     0.167 HD
ATOM     51  C   UNL A   1      39.561  31.067  34.411  1.00  0.00     0.034 A 
ATOM     52  C   UNL A   1      41.676  27.264  28.904  1.00  0.00     0.034 A 
ATOM     53  C   UNL A   1      40.764  30.296  34.618  1.00  0.00     0.049 A 
ATOM     54  C   UNL A   1      42.476  27.323  30.179  1.00  0.00     0.074 A 
ATOM     55  C   UNL A   1      41.531  30.189  35.765  1.00  0.00     0.029 A 
ATOM     56  N   UNL A   1      41.390  29.517  33.651  1.00  0.00    -0.354 N 
ATOM     57  N   UNL A   1      42.212  27.970  31.290  1.00  0.00    -0.248 NA
ATOM     58  C   UNL A   1      43.726  26.554  30.212  1.00  0.00     0.031 C 
ATOM     59  C   UNL A   1      42.664  29.421  35.467  1.00  0.00     0.029 A 
ATOM     60  C   UNL A   1      42.558  28.967  34.162  1.00  0.00     0.049 A 
ATOM     61  H   UNL A   1      41.055  29.377  32.736  1.00  0.00     0.167 HD
ATOM     62  C   UNL A   1      43.253  27.665  32.164  1.00  0.00     0.074 A 
ATOM     63  C   UNL A   1      44.138  26.765  31.454  1.00  0.00     0.031 C 
ATOM     64  C   UNL A   1      43.451  28.086  33.441  1.00  0.00     0.034 A 
BRANCH  51  65
ATOM     65  C   UNL A   1      39.083  31.990  35.511  1.00  0.00     0.023 A 
ATOM     66  C   UNL A   1      39.504  33.330  35.593  1.00  0.00     0.031 A 
ATOM     67  C   UNL A   1      38.231  31.512  36.523  1.00  0.00     0.131 A 
ATOM     68  C   UNL A   1      39.159  34.109  36.708  1.00  0.00     0.055 A 
ATOM     69  C   UNL A   1      37.810  32.323  37.579  1.00  0.00     0.041 A 
ATOM     70  F   UNL A   1      37.808  30.238  36.516  1.00  0.00    -0.206 F 
ATOM     71  C   UNL A   1      38.291  33.624  37.688  1.00  0.00     0.022 A 
BRANCH  68  72
ATOM     72  S   UNL A   1      40.009  35.694  36.952  1.00  0.00     0.124 S 
ATOM     73  O   UNL A   1      41.403  35.267  37.054  1.00  0.00    -0.237 OA
ATOM     74  O   UNL A   1      39.654  36.431  35.745  1.00  0.00    -0.237 OA
ATOM     75  O   UNL A   1      39.431  36.206  38.192  1.00  0.00    -0.744 OA
ENDBRANCH  68  72
ENDBRANCH  51  65
BRANCH  52  76
ATOM     76  C   UNL A   1      42.178  26.518  27.714  1.00  0.00     0.023 A 
ATOM     77  C   UNL A   1      41.926  25.147  27.551  1.00  0.00     0.031 A 
ATOM     78  C   UNL A   1      42.928  27.173  26.720  1.00  0.00     0.131 A 
ATOM     79  C   UNL A   1      42.443  24.469  26.436  1.00  0.00     0.055 A 
ATOM     80  C   UNL A   1      43.396  26.507  25.588  1.00  0.00     0.041 A 
ATOM     81  F   UNL A   1      43.194  28.485  26.826  1.00  0.00    -0.206 F 
ATOM     82  C   UNL A   1      43.162  25.142  25.445  1.00  0.00     0.022 A 
BRANCH  79  83
ATOM     83  S   UNL A   1      42.215  22.672  26.325  1.00  0.00     0.124 S 
ATOM     84  O   UNL A   1      43.033  22.200  27.436  1.00  0.00    -0.237 OA
ATOM     85  O   UNL A   1      40.771  22.539  26.488  1.00  0.00    -0.237 OA
ATOM     86  O   UNL A   1      42.720  22.347  24.993  1.00  0.00    -0.744 OA
ENDBRANCH  79  83
ENDBRANCH  52  76
BRANCH  64  87
ATOM     87  C   UNL A   1      44.659  27.541  34.167  1.00  0.00     0.023 A 
ATOM     88  C   UNL A   1      44.614  26.335  34.888  1.00  0.00     0.031 A 
ATOM     89  C   UNL A   1      45.876  28.247  34.142  1.00  0.00     0.131 A 
ATOM     90  C   UNL A   1      45.743  25.902  35.601  1.00  0.00     0.055 A 
ATOM     91  C   UNL A   1      47.016  27.776  34.794  1.00  0.00     0.041 A 
ATOM     92  F   UNL A   1      45.979  29.408  33.475  1.00  0.00    -0.206 F 
ATOM     93  C   UNL A   1      46.950  26.603  35.541  1.00  0.00     0.022 A 
BRANCH  90  94
ATOM     94  S   UNL A   1      45.587  24.462  36.694  1.00  0.00     0.124 S 
ATOM     95  O   UNL A   1      46.478  24.819  37.793  1.00  0.00    -0.237 OA
ATOM     96  O   UNL A   1      44.161  24.457  37.003  1.00  0.00    -0.237 OA
ATOM     97  O   UNL A   1      46.043  23.349  35.862  1.00  0.00    -0.744 OA
ENDBRANCH  90  94
ENDBRANCH  64  87
ENDBRANCH  38  39
ENDBRANCH  30  33
ENDBRANCH  28  29
ENDBRANCH  27  28
ENDBRANCH   1  27
TORSDOF 18
ENDMDL
