MODEL 1
REMARK VINA RESULT:     -10.9      0.000      0.000
REMARK SMILES O=C(C[C@H]1C[N@@H+](Cc2c(F)cccc2F)CCO1)NCCCCNC(=O)c1ccc(-c2c3nc(c(-c4cc(S(=O)(=O)[O-])ccc4F)c4ccc([nH]4)c(-c4cc(S(=O)(=O)[O-])ccc4F)c4nc(c(-c5cc(S(=O)(=O)[O-])ccc5F)c5ccc2[nH]5)C=C4)C=C3)cc1
REMARK SMILES IDX 21 1 20 2 19 3 1 4 2 5 3 7 4 8 5 9 18 10 6 11 17 12 16 13
REMARK SMILES IDX 7 15 8 16 9 17 14 18 10 19 11 20 13 21 15 22 12 23 22 24
REMARK SMILES IDX 23 25 24 26 25 27 26 29 27 30 28 31 89 32 29 33 88 34 30 35
REMARK SMILES IDX 31 36 32 37 82 38 33 39 87 40 81 41 83 42 34 43 86 44 80 45
REMARK SMILES IDX 79 46 35 48 67 49 47 50 66 51 48 52 51 53 65 54 84 55 49 56
REMARK SMILES IDX 50 57 64 59 85 60 52 61 36 62 37 63 45 64 38 65 44 66 46 67
REMARK SMILES IDX 43 68 39 69 40 70 41 71 42 72 68 73 69 74 77 75 70 76 76 77
REMARK SMILES IDX 78 78 75 79 71 80 72 81 73 82 74 83 53 84 54 85 62 86 55 87
REMARK SMILES IDX 61 88 63 89 60 90 56 91 57 92 58 93 59 94
REMARK H PARENT 19 6 6 14 24 28 83 47 51 58
REMARK Flexibility Score: inf
ROOT
ATOM      1  C   UNL A   1      32.877  26.592  24.812  1.00  0.00     0.023 C 
ENDROOT
BRANCH   1   2
ATOM      2  C   UNL A   1      32.309  26.300  23.404  1.00  0.00     0.116 C 
BRANCH   2   3
ATOM      3  N   UNL A   1      32.106  24.895  23.074  1.00  0.00    -0.356 N 
ATOM      4  O   UNL A   1      34.232  24.472  22.329  1.00  0.00    -0.275 OA
ATOM      5  C   UNL A   1      33.128  24.055  22.675  1.00  0.00     0.222 C 
ATOM      6  H   UNL A   1      31.196  24.526  23.138  1.00  0.00     0.163 HD
BRANCH   5   7
ATOM      7  C   UNL A   1      32.870  22.553  22.825  1.00  0.00     0.138 C 
BRANCH   7   8
ATOM      8  C   UNL A   1      32.805  22.071  24.299  1.00  0.00     0.182 C 
ATOM      9  C   UNL A   1      33.602  20.783  24.595  1.00  0.00     0.295 C 
ATOM     10  O   UNL A   1      33.198  23.151  25.187  1.00  0.00    -0.366 OA
ATOM     11  N   UNL A   1      34.838  20.988  25.360  1.00  0.00    -0.327 N 
ATOM     12  C   UNL A   1      33.500  22.736  26.542  1.00  0.00     0.222 C 
ATOM     13  C   UNL A   1      34.449  21.524  26.656  1.00  0.00     0.291 C 
ATOM     14  H   UNL A   1      35.299  20.085  25.469  1.00  0.00     0.348 HD
BRANCH  11  15
ATOM     15  C   UNL A   1      35.928  21.719  24.686  1.00  0.00     0.305 C 
BRANCH  15  16
ATOM     16  C   UNL A   1      37.085  22.368  25.413  1.00  0.00     0.078 A 
ATOM     17  C   UNL A   1      38.256  21.649  25.645  1.00  0.00     0.135 A 
ATOM     18  C   UNL A   1      37.113  23.709  25.813  1.00  0.00     0.135 A 
ATOM     19  F   UNL A   1      38.384  20.413  25.145  1.00  0.00    -0.206 F 
ATOM     20  C   UNL A   1      39.329  22.181  26.360  1.00  0.00     0.040 A 
ATOM     21  C   UNL A   1      38.154  24.253  26.567  1.00  0.00     0.040 A 
ATOM     22  F   UNL A   1      36.168  24.564  25.416  1.00  0.00    -0.206 F 
ATOM     23  C   UNL A   1      39.264  23.477  26.862  1.00  0.00     0.006 A 
ENDBRANCH  15  16
ENDBRANCH  11  15
ENDBRANCH   7   8
ENDBRANCH   5   7
ENDBRANCH   2   3
ENDBRANCH   1   2
BRANCH   1  24
ATOM     24  C   UNL A   1      32.592  27.926  25.544  1.00  0.00     0.023 C 
BRANCH  24  25
ATOM     25  C   UNL A   1      33.135  29.236  24.950  1.00  0.00     0.116 C 
BRANCH  25  26
ATOM     26  N   UNL A   1      32.615  30.401  25.641  1.00  0.00    -0.352 N 
ATOM     27  C   UNL A   1      32.974  30.988  26.834  1.00  0.00     0.251 C 
ATOM     28  H   UNL A   1      31.874  30.851  25.177  1.00  0.00     0.163 HD
ATOM     29  O   UNL A   1      32.205  31.826  27.309  1.00  0.00    -0.269 OA
BRANCH  27  30
ATOM     30  C   UNL A   1      34.228  30.660  27.574  1.00  0.00     0.039 A 
ATOM     31  C   UNL A   1      35.209  31.657  27.678  1.00  0.00     0.014 A 
ATOM     32  C   UNL A   1      34.523  29.380  28.055  1.00  0.00     0.014 A 
ATOM     33  C   UNL A   1      36.446  31.393  28.285  1.00  0.00     0.010 A 
ATOM     34  C   UNL A   1      35.750  29.127  28.698  1.00  0.00     0.010 A 
ATOM     35  C   UNL A   1      36.728  30.129  28.827  1.00  0.00    -0.014 A 
BRANCH  35  36
ATOM     36  C   UNL A   1      38.018  29.870  29.543  1.00  0.00     0.031 A 
ATOM     37  C   UNL A   1      38.304  30.485  30.892  1.00  0.00     0.074 A 
ATOM     38  C   UNL A   1      38.960  29.092  28.968  1.00  0.00     0.049 A 
ATOM     39  N   UNL A   1      39.390  30.413  31.625  1.00  0.00    -0.248 NA
ATOM     40  C   UNL A   1      37.235  31.298  31.485  1.00  0.00     0.031 C 
ATOM     41  C   UNL A   1      38.826  28.437  27.666  1.00  0.00     0.029 A 
ATOM     42  N   UNL A   1      40.216  28.724  29.393  1.00  0.00    -0.354 N 
ATOM     43  C   UNL A   1      39.139  31.174  32.764  1.00  0.00     0.074 A 
ATOM     44  C   UNL A   1      37.814  31.737  32.594  1.00  0.00     0.031 C 
ATOM     45  C   UNL A   1      39.944  27.741  27.407  1.00  0.00     0.029 A 
ATOM     46  C   UNL A   1      40.899  27.939  28.493  1.00  0.00     0.049 A 
ATOM     47  H   UNL A   1      40.591  28.998  30.262  1.00  0.00     0.167 HD
ATOM     48  C   UNL A   1      39.928  31.372  33.853  1.00  0.00     0.034 A 
ATOM     49  C   UNL A   1      42.157  27.449  28.517  1.00  0.00     0.034 A 
ATOM     50  C   UNL A   1      41.251  30.812  34.013  1.00  0.00     0.049 A 
ATOM     51  C   UNL A   1      43.038  27.733  29.708  1.00  0.00     0.074 A 
ATOM     52  C   UNL A   1      42.111  30.927  35.094  1.00  0.00     0.029 A 
ATOM     53  N   UNL A   1      41.917  30.043  33.066  1.00  0.00    -0.354 N 
ATOM     54  N   UNL A   1      42.769  28.430  30.788  1.00  0.00    -0.248 NA
ATOM     55  C   UNL A   1      44.390  27.157  29.687  1.00  0.00     0.031 C 
ATOM     56  C   UNL A   1      43.319  30.300  34.769  1.00  0.00     0.029 A 
ATOM     57  C   UNL A   1      43.186  29.711  33.522  1.00  0.00     0.049 A 
ATOM     58  H   UNL A   1      41.542  29.771  32.197  1.00  0.00     0.167 HD
ATOM     59  C   UNL A   1      43.908  28.346  31.587  1.00  0.00     0.074 A 
ATOM     60  C   UNL A   1      44.859  27.520  30.872  1.00  0.00     0.031 C 
ATOM     61  C   UNL A   1      44.142  28.898  32.804  1.00  0.00     0.034 A 
BRANCH  48  62
ATOM     62  C   UNL A   1      39.390  32.265  34.951  1.00  0.00     0.023 A 
ATOM     63  C   UNL A   1      38.860  31.736  36.141  1.00  0.00     0.031 A 
ATOM     64  C   UNL A   1      39.396  33.665  34.803  1.00  0.00     0.131 A 
ATOM     65  C   UNL A   1      38.290  32.591  37.097  1.00  0.00     0.055 A 
ATOM     66  C   UNL A   1      38.906  34.515  35.797  1.00  0.00     0.041 A 
ATOM     67  F   UNL A   1      39.874  34.232  33.685  1.00  0.00    -0.206 F 
ATOM     68  C   UNL A   1      38.333  33.979  36.947  1.00  0.00     0.022 A 
BRANCH  65  69
ATOM     69  S   UNL A   1      37.353  31.858  38.467  1.00  0.00     0.124 S 
ATOM     70  O   UNL A   1      37.140  30.497  37.983  1.00  0.00    -0.237 OA
ATOM     71  O   UNL A   1      38.275  32.000  39.591  1.00  0.00    -0.237 OA
ATOM     72  O   UNL A   1      36.150  32.681  38.540  1.00  0.00    -0.744 OA
ENDBRANCH  65  69
ENDBRANCH  48  62
BRANCH  49  73
ATOM     73  C   UNL A   1      42.681  26.662  27.361  1.00  0.00     0.023 A 
ATOM     74  C   UNL A   1      42.637  25.259  27.352  1.00  0.00     0.031 A 
ATOM     75  C   UNL A   1      43.282  27.307  26.264  1.00  0.00     0.131 A 
ATOM     76  C   UNL A   1      43.223  24.546  26.293  1.00  0.00     0.055 A 
ATOM     77  C   UNL A   1      43.808  26.596  25.185  1.00  0.00     0.041 A 
ATOM     78  F   UNL A   1      43.355  28.648  26.221  1.00  0.00    -0.206 F 
ATOM     79  C   UNL A   1      43.793  25.206  25.201  1.00  0.00     0.022 A 
BRANCH  76  80
ATOM     80  S   UNL A   1      43.315  22.738  26.407  1.00  0.00     0.124 S 
ATOM     81  O   UNL A   1      42.647  22.328  25.179  1.00  0.00    -0.237 OA
ATOM     82  O   UNL A   1      44.756  22.511  26.461  1.00  0.00    -0.237 OA
ATOM     83  O   UNL A   1      42.594  22.438  27.642  1.00  0.00    -0.744 OA
ENDBRANCH  76  80
ENDBRANCH  49  73
BRANCH  61  84
ATOM     84  C   UNL A   1      45.465  28.585  33.466  1.00  0.00     0.023 A 
ATOM     85  C   UNL A   1      45.636  27.466  34.301  1.00  0.00     0.031 A 
ATOM     86  C   UNL A   1      46.573  29.429  33.265  1.00  0.00     0.131 A 
ATOM     87  C   UNL A   1      46.863  27.255  34.950  1.00  0.00     0.055 A 
ATOM     88  C   UNL A   1      47.810  29.177  33.860  1.00  0.00     0.041 A 
ATOM     89  F   UNL A   1      46.471  30.516  32.483  1.00  0.00    -0.206 F 
ATOM     90  C   UNL A   1      47.957  28.092  34.719  1.00  0.00     0.022 A 
BRANCH  87  91
ATOM     91  S   UNL A   1      46.985  25.925  36.179  1.00  0.00     0.124 S 
ATOM     92  O   UNL A   1      46.093  24.914  35.622  1.00  0.00    -0.237 OA
ATOM     93  O   UNL A   1      48.408  25.604  36.151  1.00  0.00    -0.237 OA
ATOM     94  O   UNL A   1      46.517  26.553  37.412  1.00  0.00    -0.744 OA
ENDBRANCH  87  91
ENDBRANCH  61  84
ENDBRANCH  35  36
ENDBRANCH  27  30
ENDBRANCH  25  26
ENDBRANCH  24  25
ENDBRANCH   1  24
TORSDOF 17
ENDMDL
MODEL 2
REMARK VINA RESULT:     -10.8      4.676      9.428
REMARK SMILES O=C(C[C@H]1C[N@@H+](Cc2c(F)cccc2F)CCO1)NCCCCNC(=O)c1ccc(-c2c3nc(c(-c4cc(S(=O)(=O)[O-])ccc4F)c4ccc([nH]4)c(-c4cc(S(=O)(=O)[O-])ccc4F)c4nc(c(-c5cc(S(=O)(=O)[O-])ccc5F)c5ccc2[nH]5)C=C4)C=C3)cc1
REMARK SMILES IDX 21 1 20 2 19 3 1 4 2 5 3 7 4 8 5 9 18 10 6 11 17 12 16 13
REMARK SMILES IDX 7 15 8 16 9 17 14 18 10 19 11 20 13 21 15 22 12 23 22 24
REMARK SMILES IDX 23 25 24 26 25 27 26 29 27 30 28 31 89 32 29 33 88 34 30 35
REMARK SMILES IDX 31 36 32 37 82 38 33 39 87 40 81 41 83 42 34 43 86 44 80 45
REMARK SMILES IDX 79 46 35 48 67 49 47 50 66 51 48 52 51 53 65 54 84 55 49 56
REMARK SMILES IDX 50 57 64 59 85 60 52 61 36 62 37 63 45 64 38 65 44 66 46 67
REMARK SMILES IDX 43 68 39 69 40 70 41 71 42 72 68 73 69 74 77 75 70 76 76 77
REMARK SMILES IDX 78 78 75 79 71 80 72 81 73 82 74 83 53 84 54 85 62 86 55 87
REMARK SMILES IDX 61 88 63 89 60 90 56 91 57 92 58 93 59 94
REMARK H PARENT 19 6 6 14 24 28 83 47 51 58
REMARK Flexibility Score: inf
ROOT
ATOM      1  C   UNL A   1      35.131  23.436  23.612  1.00  0.00     0.023 C 
ENDROOT
BRANCH   1   2
ATOM      2  C   UNL A   1      33.973  22.504  24.035  1.00  0.00     0.116 C 
BRANCH   2   3
ATOM      3  N   UNL A   1      32.627  22.983  23.747  1.00  0.00    -0.356 N 
ATOM      4  O   UNL A   1      32.374  24.255  25.638  1.00  0.00    -0.275 OA
ATOM      5  C   UNL A   1      31.979  23.928  24.520  1.00  0.00     0.222 C 
ATOM      6  H   UNL A   1      32.156  22.617  22.964  1.00  0.00     0.163 HD
BRANCH   5   7
ATOM      7  C   UNL A   1      30.814  24.665  23.854  1.00  0.00     0.138 C 
BRANCH   7   8
ATOM      8  C   UNL A   1      31.254  25.847  22.950  1.00  0.00     0.182 C 
ATOM      9  C   UNL A   1      30.478  27.162  23.179  1.00  0.00     0.295 C 
ATOM     10  O   UNL A   1      32.686  26.053  23.072  1.00  0.00    -0.366 OA
ATOM     11  N   UNL A   1      31.237  28.211  23.871  1.00  0.00    -0.327 N 
ATOM     12  C   UNL A   1      33.160  27.318  22.549  1.00  0.00     0.222 C 
ATOM     13  C   UNL A   1      32.361  28.555  23.013  1.00  0.00     0.291 C 
ATOM     14  H   UNL A   1      30.625  29.016  24.000  1.00  0.00     0.348 HD
BRANCH  11  15
ATOM     15  C   UNL A   1      31.585  27.963  25.284  1.00  0.00     0.305 C 
BRANCH  15  16
ATOM     16  C   UNL A   1      32.584  28.788  26.064  1.00  0.00     0.078 A 
ATOM     17  C   UNL A   1      33.822  28.246  26.406  1.00  0.00     0.135 A 
ATOM     18  C   UNL A   1      32.398  30.130  26.412  1.00  0.00     0.135 A 
ATOM     19  F   UNL A   1      34.155  27.026  25.965  1.00  0.00    -0.206 F 
ATOM     20  C   UNL A   1      34.756  28.944  27.174  1.00  0.00     0.040 A 
ATOM     21  C   UNL A   1      33.295  30.837  27.215  1.00  0.00     0.040 A 
ATOM     22  F   UNL A   1      31.378  30.834  25.916  1.00  0.00    -0.206 F 
ATOM     23  C   UNL A   1      34.476  30.232  27.618  1.00  0.00     0.006 A 
ENDBRANCH  15  16
ENDBRANCH  11  15
ENDBRANCH   7   8
ENDBRANCH   5   7
ENDBRANCH   2   3
ENDBRANCH   1   2
BRANCH   1  24
ATOM     24  C   UNL A   1      36.569  23.244  24.152  1.00  0.00     0.023 C 
BRANCH  24  25
ATOM     25  C   UNL A   1      36.786  23.085  25.666  1.00  0.00     0.116 C 
BRANCH  25  26
ATOM     26  N   UNL A   1      37.933  22.248  25.965  1.00  0.00    -0.352 N 
ATOM     27  C   UNL A   1      39.205  22.563  26.388  1.00  0.00     0.251 C 
ATOM     28  H   UNL A   1      37.774  21.285  25.842  1.00  0.00     0.163 HD
ATOM     29  O   UNL A   1      40.058  21.676  26.329  1.00  0.00    -0.269 OA
BRANCH  27  30
ATOM     30  C   UNL A   1      39.598  23.908  26.900  1.00  0.00     0.039 A 
ATOM     31  C   UNL A   1      39.973  24.883  25.963  1.00  0.00     0.014 A 
ATOM     32  C   UNL A   1      39.733  24.203  28.260  1.00  0.00     0.014 A 
ATOM     33  C   UNL A   1      40.435  26.142  26.375  1.00  0.00     0.010 A 
ATOM     34  C   UNL A   1      40.162  25.479  28.673  1.00  0.00     0.010 A 
ATOM     35  C   UNL A   1      40.514  26.469  27.738  1.00  0.00    -0.014 A 
BRANCH  35  36
ATOM     36  C   UNL A   1      40.935  27.839  28.176  1.00  0.00     0.031 A 
ATOM     37  C   UNL A   1      42.390  28.240  28.211  1.00  0.00     0.074 A 
ATOM     38  C   UNL A   1      40.002  28.733  28.570  1.00  0.00     0.049 A 
ATOM     39  N   UNL A   1      42.933  29.362  28.617  1.00  0.00    -0.248 NA
ATOM     40  C   UNL A   1      43.359  27.241  27.744  1.00  0.00     0.031 C 
ATOM     41  C   UNL A   1      38.560  28.484  28.595  1.00  0.00     0.029 A 
ATOM     42  N   UNL A   1      40.121  30.023  29.033  1.00  0.00    -0.354 N 
ATOM     43  C   UNL A   1      44.308  29.207  28.458  1.00  0.00     0.074 A 
ATOM     44  C   UNL A   1      44.511  27.858  27.967  1.00  0.00     0.031 C 
ATOM     45  C   UNL A   1      37.931  29.586  29.035  1.00  0.00     0.029 A 
ATOM     46  C   UNL A   1      38.921  30.603  29.376  1.00  0.00     0.049 A 
ATOM     47  H   UNL A   1      40.986  30.488  29.112  1.00  0.00     0.167 HD
ATOM     48  C   UNL A   1      45.304  30.104  28.685  1.00  0.00     0.034 A 
ATOM     49  C   UNL A   1      38.639  31.804  29.924  1.00  0.00     0.034 A 
ATOM     50  C   UNL A   1      45.093  31.445  29.182  1.00  0.00     0.049 A 
ATOM     51  C   UNL A   1      39.766  32.761  30.227  1.00  0.00     0.074 A 
ATOM     52  C   UNL A   1      46.035  32.438  29.409  1.00  0.00     0.029 A 
ATOM     53  N   UNL A   1      43.864  31.985  29.541  1.00  0.00    -0.354 N 
ATOM     54  N   UNL A   1      41.056  32.604  30.040  1.00  0.00    -0.248 NA
ATOM     55  C   UNL A   1      39.397  34.061  30.804  1.00  0.00     0.031 C 
ATOM     56  C   UNL A   1      45.389  33.540  29.978  1.00  0.00     0.029 A 
ATOM     57  C   UNL A   1      44.029  33.277  30.023  1.00  0.00     0.049 A 
ATOM     58  H   UNL A   1      43.001  31.518  29.465  1.00  0.00     0.167 HD
ATOM     59  C   UNL A   1      41.646  33.799  30.449  1.00  0.00     0.074 A 
ATOM     60  C   UNL A   1      40.571  34.670  30.875  1.00  0.00     0.031 C 
ATOM     61  C   UNL A   1      42.959  34.144  30.462  1.00  0.00     0.034 A 
BRANCH  48  62
ATOM     62  C   UNL A   1      46.725  29.648  28.429  1.00  0.00     0.023 A 
ATOM     63  C   UNL A   1      47.495  29.032  29.430  1.00  0.00     0.031 A 
ATOM     64  C   UNL A   1      47.322  29.841  27.169  1.00  0.00     0.131 A 
ATOM     65  C   UNL A   1      48.837  28.704  29.181  1.00  0.00     0.055 A 
ATOM     66  C   UNL A   1      48.631  29.433  26.902  1.00  0.00     0.041 A 
ATOM     67  F   UNL A   1      46.645  30.436  26.175  1.00  0.00    -0.206 F 
ATOM     68  C   UNL A   1      49.403  28.875  27.917  1.00  0.00     0.022 A 
BRANCH  65  69
ATOM     69  S   UNL A   1      49.878  28.195  30.578  1.00  0.00     0.124 S 
ATOM     70  O   UNL A   1      49.171  27.010  31.056  1.00  0.00    -0.237 OA
ATOM     71  O   UNL A   1      51.169  27.953  29.937  1.00  0.00    -0.237 OA
ATOM     72  O   UNL A   1      49.834  29.344  31.477  1.00  0.00    -0.744 OA
ENDBRANCH  65  69
ENDBRANCH  48  62
BRANCH  49  73
ATOM     73  C   UNL A   1      37.230  32.167  30.260  1.00  0.00     0.023 A 
ATOM     74  C   UNL A   1      36.424  32.877  29.356  1.00  0.00     0.031 A 
ATOM     75  C   UNL A   1      36.684  31.849  31.518  1.00  0.00     0.131 A 
ATOM     76  C   UNL A   1      35.135  33.285  29.738  1.00  0.00     0.055 A 
ATOM     77  C   UNL A   1      35.381  32.204  31.869  1.00  0.00     0.041 A 
ATOM     78  F   UNL A   1      37.412  31.175  32.423  1.00  0.00    -0.206 F 
ATOM     79  C   UNL A   1      34.603  32.939  30.982  1.00  0.00     0.022 A 
BRANCH  76  80
ATOM     80  S   UNL A   1      34.196  34.361  28.619  1.00  0.00     0.124 S 
ATOM     81  O   UNL A   1      34.433  35.675  29.201  1.00  0.00    -0.237 OA
ATOM     82  O   UNL A   1      34.841  34.099  27.336  1.00  0.00    -0.237 OA
ATOM     83  O   UNL A   1      32.827  33.861  28.737  1.00  0.00    -0.744 OA
ENDBRANCH  76  80
ENDBRANCH  49  73
BRANCH  61  84
ATOM     84  C   UNL A   1      43.302  35.547  30.910  1.00  0.00     0.023 A 
ATOM     85  C   UNL A   1      43.420  36.613  30.001  1.00  0.00     0.031 A 
ATOM     86  C   UNL A   1      43.527  35.818  32.273  1.00  0.00     0.131 A 
ATOM     87  C   UNL A   1      43.811  37.884  30.454  1.00  0.00     0.055 A 
ATOM     88  C   UNL A   1      43.850  37.099  32.726  1.00  0.00     0.041 A 
ATOM     89  F   UNL A   1      43.435  34.841  33.188  1.00  0.00    -0.206 F 
ATOM     90  C   UNL A   1      44.007  38.137  31.814  1.00  0.00     0.022 A 
BRANCH  87  91
ATOM     91  S   UNL A   1      44.156  39.181  29.233  1.00  0.00     0.124 S 
ATOM     92  O   UNL A   1      43.228  40.232  29.638  1.00  0.00    -0.237 OA
ATOM     93  O   UNL A   1      45.570  39.456  29.461  1.00  0.00    -0.237 OA
ATOM     94  O   UNL A   1      43.848  38.541  27.956  1.00  0.00    -0.744 OA
ENDBRANCH  87  91
ENDBRANCH  61  84
ENDBRANCH  35  36
ENDBRANCH  27  30
ENDBRANCH  25  26
ENDBRANCH  24  25
ENDBRANCH   1  24
TORSDOF 17
ENDMDL
MODEL 3
REMARK VINA RESULT:     -10.8      2.833      3.889
REMARK SMILES O=C(C[C@H]1C[N@@H+](Cc2c(F)cccc2F)CCO1)NCCCCNC(=O)c1ccc(-c2c3nc(c(-c4cc(S(=O)(=O)[O-])ccc4F)c4ccc([nH]4)c(-c4cc(S(=O)(=O)[O-])ccc4F)c4nc(c(-c5cc(S(=O)(=O)[O-])ccc5F)c5ccc2[nH]5)C=C4)C=C3)cc1
REMARK SMILES IDX 21 1 20 2 19 3 1 4 2 5 3 7 4 8 5 9 18 10 6 11 17 12 16 13
REMARK SMILES IDX 7 15 8 16 9 17 14 18 10 19 11 20 13 21 15 22 12 23 22 24
REMARK SMILES IDX 23 25 24 26 25 27 26 29 27 30 28 31 89 32 29 33 88 34 30 35
REMARK SMILES IDX 31 36 32 37 82 38 33 39 87 40 81 41 83 42 34 43 86 44 80 45
REMARK SMILES IDX 79 46 35 48 67 49 47 50 66 51 48 52 51 53 65 54 84 55 49 56
REMARK SMILES IDX 50 57 64 59 85 60 52 61 36 62 37 63 45 64 38 65 44 66 46 67
REMARK SMILES IDX 43 68 39 69 40 70 41 71 42 72 68 73 69 74 77 75 70 76 76 77
REMARK SMILES IDX 78 78 75 79 71 80 72 81 73 82 74 83 53 84 54 85 62 86 55 87
REMARK SMILES IDX 61 88 63 89 60 90 56 91 57 92 58 93 59 94
REMARK H PARENT 19 6 6 14 24 28 83 47 51 58
REMARK Flexibility Score: inf
ROOT
ATOM      1  C   UNL A   1      31.341  27.666  26.915  1.00  0.00     0.023 C 
ENDROOT
BRANCH   1   2
ATOM      2  C   UNL A   1      31.196  26.447  25.975  1.00  0.00     0.116 C 
BRANCH   2   3
ATOM      3  N   UNL A   1      31.403  25.140  26.585  1.00  0.00    -0.356 N 
ATOM      4  O   UNL A   1      30.629  23.886  24.829  1.00  0.00    -0.275 OA
ATOM      5  C   UNL A   1      31.216  23.950  25.908  1.00  0.00     0.222 C 
ATOM      6  H   UNL A   1      31.689  25.102  27.526  1.00  0.00     0.163 HD
BRANCH   5   7
ATOM      7  C   UNL A   1      31.908  22.718  26.497  1.00  0.00     0.138 C 
BRANCH   7   8
ATOM      8  C   UNL A   1      33.398  22.951  26.865  1.00  0.00     0.182 C 
ATOM      9  C   UNL A   1      34.189  21.670  27.205  1.00  0.00     0.295 C 
ATOM     10  O   UNL A   1      34.051  23.709  25.812  1.00  0.00    -0.366 OA
ATOM     11  N   UNL A   1      35.146  21.246  26.176  1.00  0.00    -0.327 N 
ATOM     12  C   UNL A   1      35.499  23.701  25.874  1.00  0.00     0.222 C 
ATOM     13  C   UNL A   1      36.135  22.306  26.056  1.00  0.00     0.291 C 
ATOM     14  H   UNL A   1      35.585  20.380  26.485  1.00  0.00     0.348 HD
BRANCH  11  15
ATOM     15  C   UNL A   1      34.584  20.771  24.897  1.00  0.00     0.305 C 
BRANCH  15  16
ATOM     16  C   UNL A   1      34.123  19.351  24.653  1.00  0.00     0.078 A 
ATOM     17  C   UNL A   1      32.782  19.089  24.383  1.00  0.00     0.135 A 
ATOM     18  C   UNL A   1      34.978  18.245  24.588  1.00  0.00     0.135 A 
ATOM     19  F   UNL A   1      31.921  20.107  24.254  1.00  0.00    -0.206 F 
ATOM     20  C   UNL A   1      32.295  17.792  24.208  1.00  0.00     0.040 A 
ATOM     21  C   UNL A   1      34.513  16.935  24.459  1.00  0.00     0.040 A 
ATOM     22  F   UNL A   1      36.304  18.401  24.565  1.00  0.00    -0.206 F 
ATOM     23  C   UNL A   1      33.157  16.703  24.287  1.00  0.00     0.006 A 
ENDBRANCH  15  16
ENDBRANCH  11  15
ENDBRANCH   7   8
ENDBRANCH   5   7
ENDBRANCH   2   3
ENDBRANCH   1   2
BRANCH   1  24
ATOM     24  C   UNL A   1      31.917  29.014  26.417  1.00  0.00     0.023 C 
BRANCH  24  25
ATOM     25  C   UNL A   1      33.351  29.407  26.813  1.00  0.00     0.116 C 
BRANCH  25  26
ATOM     26  N   UNL A   1      33.457  30.818  27.131  1.00  0.00    -0.352 N 
ATOM     27  C   UNL A   1      34.370  31.515  27.891  1.00  0.00     0.251 C 
ATOM     28  H   UNL A   1      32.750  31.377  26.735  1.00  0.00     0.163 HD
ATOM     29  O   UNL A   1      34.086  32.674  28.198  1.00  0.00    -0.269 OA
BRANCH  27  30
ATOM     30  C   UNL A   1      35.665  30.942  28.360  1.00  0.00     0.039 A 
ATOM     31  C   UNL A   1      35.620  29.892  29.290  1.00  0.00     0.014 A 
ATOM     32  C   UNL A   1      36.911  31.479  28.020  1.00  0.00     0.014 A 
ATOM     33  C   UNL A   1      36.798  29.362  29.838  1.00  0.00     0.010 A 
ATOM     34  C   UNL A   1      38.094  30.921  28.542  1.00  0.00     0.010 A 
ATOM     35  C   UNL A   1      38.056  29.852  29.455  1.00  0.00    -0.014 A 
BRANCH  35  36
ATOM     36  C   UNL A   1      39.314  29.234  29.983  1.00  0.00     0.031 A 
ATOM     37  C   UNL A   1      40.015  29.794  31.197  1.00  0.00     0.074 A 
ATOM     38  C   UNL A   1      39.853  28.167  29.354  1.00  0.00     0.049 A 
ATOM     39  N   UNL A   1      41.142  29.419  31.754  1.00  0.00    -0.248 NA
ATOM     40  C   UNL A   1      39.371  30.934  31.860  1.00  0.00     0.031 C 
ATOM     41  C   UNL A   1      39.291  27.523  28.166  1.00  0.00     0.029 A 
ATOM     42  N   UNL A   1      40.993  27.442  29.613  1.00  0.00    -0.354 N 
ATOM     43  C   UNL A   1      41.346  30.278  32.831  1.00  0.00     0.074 A 
ATOM     44  C   UNL A   1      40.248  31.224  32.812  1.00  0.00     0.031 C 
ATOM     45  C   UNL A   1      40.078  26.495  27.809  1.00  0.00     0.029 A 
ATOM     46  C   UNL A   1      41.229  26.435  28.705  1.00  0.00     0.049 A 
ATOM     47  H   UNL A   1      41.586  27.627  30.377  1.00  0.00     0.167 HD
ATOM     48  C   UNL A   1      42.343  30.271  33.755  1.00  0.00     0.034 A 
ATOM     49  C   UNL A   1      42.260  25.572  28.583  1.00  0.00     0.034 A 
ATOM     50  C   UNL A   1      43.439  29.327  33.764  1.00  0.00     0.049 A 
ATOM     51  C   UNL A   1      43.388  25.623  29.584  1.00  0.00     0.074 A 
ATOM     52  C   UNL A   1      44.475  29.219  34.679  1.00  0.00     0.029 A 
ATOM     53  N   UNL A   1      43.654  28.339  32.812  1.00  0.00    -0.354 N 
ATOM     54  N   UNL A   1      43.546  26.423  30.613  1.00  0.00    -0.248 NA
ATOM     55  C   UNL A   1      44.473  24.645  29.413  1.00  0.00     0.031 C 
ATOM     56  C   UNL A   1      45.354  28.224  34.237  1.00  0.00     0.029 A 
ATOM     57  C   UNL A   1      44.824  27.645  33.096  1.00  0.00     0.049 A 
ATOM     58  H   UNL A   1      43.063  28.156  32.046  1.00  0.00     0.167 HD
ATOM     59  C   UNL A   1      44.731  26.022  31.228  1.00  0.00     0.074 A 
ATOM     60  C   UNL A   1      45.238  24.901  30.464  1.00  0.00     0.031 C 
ATOM     61  C   UNL A   1      45.339  26.534  32.328  1.00  0.00     0.034 A 
BRANCH  48  62
ATOM     62  C   UNL A   1      42.312  31.344  34.823  1.00  0.00     0.023 A 
ATOM     63  C   UNL A   1      43.015  32.552  34.677  1.00  0.00     0.031 A 
ATOM     64  C   UNL A   1      41.577  31.154  36.008  1.00  0.00     0.131 A 
ATOM     65  C   UNL A   1      43.034  33.485  35.726  1.00  0.00     0.055 A 
ATOM     66  C   UNL A   1      41.529  32.124  37.012  1.00  0.00     0.041 A 
ATOM     67  F   UNL A   1      40.896  30.017  36.216  1.00  0.00    -0.206 F 
ATOM     68  C   UNL A   1      42.275  33.292  36.882  1.00  0.00     0.022 A 
BRANCH  65  69
ATOM     69  S   UNL A   1      44.188  34.881  35.623  1.00  0.00     0.124 S 
ATOM     70  O   UNL A   1      44.720  34.925  36.983  1.00  0.00    -0.237 OA
ATOM     71  O   UNL A   1      45.119  34.444  34.586  1.00  0.00    -0.237 OA
ATOM     72  O   UNL A   1      43.334  36.008  35.259  1.00  0.00    -0.744 OA
ENDBRANCH  65  69
ENDBRANCH  48  62
BRANCH  49  73
ATOM     73  C   UNL A   1      42.301  24.601  27.449  1.00  0.00     0.023 A 
ATOM     74  C   UNL A   1      41.557  23.411  27.480  1.00  0.00     0.031 A 
ATOM     75  C   UNL A   1      43.128  24.830  26.334  1.00  0.00     0.131 A 
ATOM     76  C   UNL A   1      41.689  22.475  26.441  1.00  0.00     0.055 A 
ATOM     77  C   UNL A   1      43.209  23.924  25.275  1.00  0.00     0.041 A 
ATOM     78  F   UNL A   1      43.865  25.950  26.253  1.00  0.00    -0.206 F 
ATOM     79  C   UNL A   1      42.497  22.731  25.331  1.00  0.00     0.022 A 
BRANCH  76  80
ATOM     80  S   UNL A   1      40.860  20.869  26.606  1.00  0.00     0.124 S 
ATOM     81  O   UNL A   1      40.822  20.702  28.053  1.00  0.00    -0.237 OA
ATOM     82  O   UNL A   1      39.580  21.121  25.953  1.00  0.00    -0.237 OA
ATOM     83  O   UNL A   1      41.749  19.953  25.894  1.00  0.00    -0.744 OA
ENDBRANCH  76  80
ENDBRANCH  49  73
BRANCH  61  84
ATOM     84  C   UNL A   1      46.602  25.850  32.803  1.00  0.00     0.023 A 
ATOM     85  C   UNL A   1      46.573  24.782  33.717  1.00  0.00     0.031 A 
ATOM     86  C   UNL A   1      47.858  26.286  32.339  1.00  0.00     0.131 A 
ATOM     87  C   UNL A   1      47.775  24.225  34.184  1.00  0.00     0.055 A 
ATOM     88  C   UNL A   1      49.046  25.684  32.757  1.00  0.00     0.041 A 
ATOM     89  F   UNL A   1      47.950  27.304  31.470  1.00  0.00    -0.206 F 
ATOM     90  C   UNL A   1      49.010  24.656  33.695  1.00  0.00     0.022 A 
BRANCH  87  91
ATOM     91  S   UNL A   1      47.709  22.994  35.515  1.00  0.00     0.124 S 
ATOM     92  O   UNL A   1      46.665  23.536  36.378  1.00  0.00    -0.237 OA
ATOM     93  O   UNL A   1      47.370  21.772  34.794  1.00  0.00    -0.237 OA
ATOM     94  O   UNL A   1      49.057  23.025  36.079  1.00  0.00    -0.744 OA
ENDBRANCH  87  91
ENDBRANCH  61  84
ENDBRANCH  35  36
ENDBRANCH  27  30
ENDBRANCH  25  26
ENDBRANCH  24  25
ENDBRANCH   1  24
TORSDOF 17
ENDMDL
