MODEL 1
REMARK VINA RESULT:     -12.1      0.000      0.000
REMARK SMILES O=C(NCCCCNC(=O)c1ccc(S(=O)(=O)NC[C@H]2CCS(=O)(=O)C2)cc1)c1ccc(-c2c3nc(c(-c4cc(S(=O)(=O)[O-])ccc4F)c4ccc([nH]4)c(-c4cc(S(=O)(=O)[O-])ccc4F)c4nc(c(-c5cc(S(=O)(=O)[O-])ccc5F)c5ccc2[nH]5)C=C4)C=C3)cc1
REMARK SMILES IDX 6 1 5 2 4 3 3 4 1 5 2 6 29 8 30 9 91 10 31 11 90 12 32 13
REMARK SMILES IDX 33 14 34 15 84 16 35 17 89 18 83 19 85 20 36 21 88 22 82 23
REMARK SMILES IDX 81 24 37 26 69 27 49 28 68 29 50 30 53 31 67 32 86 33 51 34
REMARK SMILES IDX 52 35 66 37 87 38 54 39 38 40 39 41 47 42 40 43 46 44 48 45
REMARK SMILES IDX 45 46 41 47 42 48 43 49 44 50 70 51 71 52 79 53 72 54 78 55
REMARK SMILES IDX 80 56 77 57 73 58 74 59 75 60 76 61 55 62 56 63 64 64 57 65
REMARK SMILES IDX 63 66 65 67 62 68 58 69 59 70 60 71 61 72 7 73 8 74 9 75
REMARK SMILES IDX 10 77 11 78 12 79 28 80 13 81 27 82 14 83 15 84 16 85 17 86
REMARK SMILES IDX 18 87 19 89 20 90 21 91 26 92 22 93 23 94 24 95 25 96
REMARK H PARENT 3 7 85 25 53 36 8 76 18 88
REMARK Flexibility Score: inf
ROOT
ATOM      1  C   UNL A   1      34.569  20.676  25.121  1.00  0.00     0.023 C 
ENDROOT
BRANCH   1   2
ATOM      2  C   UNL A   1      35.255  21.821  24.382  1.00  0.00     0.023 C 
BRANCH   2   3
ATOM      3  C   UNL A   1      36.628  22.211  24.911  1.00  0.00     0.116 C 
BRANCH   3   4
ATOM      4  N   UNL A   1      37.461  21.066  25.250  1.00  0.00    -0.352 N 
ATOM      5  O   UNL A   1      39.310  19.989  25.962  1.00  0.00    -0.269 OA
ATOM      6  C   UNL A   1      38.698  21.046  25.851  1.00  0.00     0.251 C 
ATOM      7  H   UNL A   1      37.088  20.185  25.016  1.00  0.00     0.163 HD
BRANCH   6   8
ATOM      8  C   UNL A   1      39.294  22.311  26.332  1.00  0.00     0.039 A 
ATOM      9  C   UNL A   1      38.806  23.539  25.880  1.00  0.00     0.014 A 
ATOM     10  C   UNL A   1      40.372  22.264  27.219  1.00  0.00     0.014 A 
ATOM     11  C   UNL A   1      39.490  24.708  26.192  1.00  0.00     0.010 A 
ATOM     12  C   UNL A   1      41.006  23.450  27.600  1.00  0.00     0.010 A 
ATOM     13  C   UNL A   1      40.593  24.679  27.062  1.00  0.00    -0.014 A 
BRANCH  13  14
ATOM     14  C   UNL A   1      41.264  25.952  27.426  1.00  0.00     0.031 A 
ATOM     15  C   UNL A   1      42.635  26.286  26.906  1.00  0.00     0.074 A 
ATOM     16  C   UNL A   1      40.603  26.827  28.209  1.00  0.00     0.049 A 
ATOM     17  N   UNL A   1      43.361  27.354  27.119  1.00  0.00    -0.248 NA
ATOM     18  C   UNL A   1      43.279  25.286  26.042  1.00  0.00     0.031 C 
ATOM     19  C   UNL A   1      39.268  26.606  28.774  1.00  0.00     0.029 A 
ATOM     20  N   UNL A   1      40.946  28.077  28.653  1.00  0.00    -0.354 N 
ATOM     21  C   UNL A   1      44.553  27.152  26.432  1.00  0.00     0.074 A 
ATOM     22  C   UNL A   1      44.463  25.842  25.820  1.00  0.00     0.031 C 
ATOM     23  C   UNL A   1      38.890  27.699  29.450  1.00  0.00     0.029 A 
ATOM     24  C   UNL A   1      39.977  28.670  29.427  1.00  0.00     0.049 A 
ATOM     25  H   UNL A   1      41.805  28.509  28.439  1.00  0.00     0.167 HD
ATOM     26  C   UNL A   1      45.619  27.985  26.319  1.00  0.00     0.034 A 
ATOM     27  C   UNL A   1      39.970  29.854  30.067  1.00  0.00     0.034 A 
ATOM     28  C   UNL A   1      45.687  29.291  26.933  1.00  0.00     0.049 A 
ATOM     29  C   UNL A   1      41.175  30.745  29.952  1.00  0.00     0.074 A 
ATOM     30  C   UNL A   1      46.703  30.230  26.858  1.00  0.00     0.029 A 
ATOM     31  N   UNL A   1      44.703  29.842  27.746  1.00  0.00    -0.354 N 
ATOM     32  N   UNL A   1      42.291  30.541  29.290  1.00  0.00    -0.248 NA
ATOM     33  C   UNL A   1      41.120  32.023  30.670  1.00  0.00     0.031 C 
ATOM     34  C   UNL A   1      46.361  31.317  27.671  1.00  0.00     0.029 A 
ATOM     35  C   UNL A   1      45.101  31.091  28.201  1.00  0.00     0.049 A 
ATOM     36  H   UNL A   1      43.847  29.408  27.966  1.00  0.00     0.167 HD
ATOM     37  C   UNL A   1      43.067  31.674  29.504  1.00  0.00     0.074 A 
ATOM     38  C   UNL A   1      42.282  32.565  30.335  1.00  0.00     0.031 C 
ATOM     39  C   UNL A   1      44.317  31.954  29.053  1.00  0.00     0.034 A 
BRANCH  26  40
ATOM     40  C   UNL A   1      46.813  27.487  25.540  1.00  0.00     0.023 A 
ATOM     41  C   UNL A   1      47.068  27.907  24.222  1.00  0.00     0.031 A 
ATOM     42  C   UNL A   1      47.702  26.564  26.119  1.00  0.00     0.131 A 
ATOM     43  C   UNL A   1      48.144  27.356  23.507  1.00  0.00     0.055 A 
ATOM     44  C   UNL A   1      48.812  26.075  25.427  1.00  0.00     0.041 A 
ATOM     45  F   UNL A   1      47.500  26.112  27.367  1.00  0.00    -0.206 F 
ATOM     46  C   UNL A   1      49.031  26.460  24.108  1.00  0.00     0.022 A 
BRANCH  43  47
ATOM     47  S   UNL A   1      48.289  27.726  21.737  1.00  0.00     0.124 S 
ATOM     48  O   UNL A   1      49.392  28.685  21.724  1.00  0.00    -0.237 OA
ATOM     49  O   UNL A   1      48.576  26.416  21.164  1.00  0.00    -0.237 OA
ATOM     50  O   UNL A   1      46.983  28.284  21.394  1.00  0.00    -0.744 OA
ENDBRANCH  43  47
ENDBRANCH  26  40
BRANCH  27  51
ATOM     51  C   UNL A   1      38.799  30.243  30.900  1.00  0.00     0.023 A 
ATOM     52  C   UNL A   1      37.849  31.162  30.432  1.00  0.00     0.031 A 
ATOM     53  C   UNL A   1      38.623  29.703  32.187  1.00  0.00     0.131 A 
ATOM     54  C   UNL A   1      36.778  31.538  31.257  1.00  0.00     0.055 A 
ATOM     55  C   UNL A   1      37.531  30.044  32.986  1.00  0.00     0.041 A 
ATOM     56  F   UNL A   1      39.502  28.815  32.677  1.00  0.00    -0.206 F 
ATOM     57  C   UNL A   1      36.606  30.975  32.525  1.00  0.00     0.022 A 
BRANCH  54  58
ATOM     58  S   UNL A   1      35.644  32.826  30.675  1.00  0.00     0.124 S 
ATOM     59  O   UNL A   1      35.763  32.698  29.227  1.00  0.00    -0.237 OA
ATOM     60  O   UNL A   1      34.375  32.397  31.255  1.00  0.00    -0.237 OA
ATOM     61  O   UNL A   1      36.202  34.053  31.242  1.00  0.00    -0.744 OA
ENDBRANCH  54  58
ENDBRANCH  27  51
BRANCH  39  62
ATOM     62  C   UNL A   1      44.887  33.295  29.440  1.00  0.00     0.023 A 
ATOM     63  C   UNL A   1      44.598  34.456  28.701  1.00  0.00     0.031 A 
ATOM     64  C   UNL A   1      45.756  33.405  30.538  1.00  0.00     0.131 A 
ATOM     65  C   UNL A   1      45.221  35.667  29.036  1.00  0.00     0.055 A 
ATOM     66  C   UNL A   1      46.329  34.624  30.900  1.00  0.00     0.041 A 
ATOM     67  F   UNL A   1      46.066  32.326  31.274  1.00  0.00    -0.206 F 
ATOM     68  C   UNL A   1      46.073  35.762  30.139  1.00  0.00     0.022 A 
BRANCH  65  69
ATOM     69  S   UNL A   1      44.973  37.101  27.953  1.00  0.00     0.124 S 
ATOM     70  O   UNL A   1      44.166  36.533  26.878  1.00  0.00    -0.237 OA
ATOM     71  O   UNL A   1      44.291  38.044  28.833  1.00  0.00    -0.237 OA
ATOM     72  O   UNL A   1      46.332  37.483  27.573  1.00  0.00    -0.744 OA
ENDBRANCH  65  69
ENDBRANCH  39  62
ENDBRANCH  13  14
ENDBRANCH   6   8
ENDBRANCH   3   4
ENDBRANCH   2   3
ENDBRANCH   1   2
BRANCH   1  73
ATOM     73  C   UNL A   1      33.046  20.726  25.129  1.00  0.00     0.116 C 
BRANCH  73  74
ATOM     74  N   UNL A   1      32.493  21.296  26.347  1.00  0.00    -0.352 N 
ATOM     75  C   UNL A   1      32.101  22.588  26.598  1.00  0.00     0.251 C 
ATOM     76  H   UNL A   1      32.385  20.668  27.097  1.00  0.00     0.163 HD
ATOM     77  O   UNL A   1      31.732  22.933  27.715  1.00  0.00    -0.269 OA
BRANCH  75  78
ATOM     78  C   UNL A   1      32.152  23.585  25.511  1.00  0.00     0.039 A 
ATOM     79  C   UNL A   1      33.316  24.338  25.348  1.00  0.00     0.015 A 
ATOM     80  C   UNL A   1      31.066  23.754  24.644  1.00  0.00     0.015 A 
ATOM     81  C   UNL A   1      33.413  25.223  24.274  1.00  0.00     0.022 A 
ATOM     82  C   UNL A   1      31.184  24.595  23.540  1.00  0.00     0.022 A 
ATOM     83  C   UNL A   1      32.353  25.337  23.364  1.00  0.00     0.082 A 
BRANCH  83  84
ATOM     84  S   UNL A   1      32.564  26.464  22.016  1.00  0.00     0.240 S 
ATOM     85  O   UNL A   1      33.989  26.641  21.826  1.00  0.00    -0.207 OA
ATOM     86  O   UNL A   1      31.715  25.995  20.951  1.00  0.00    -0.207 OA
BRANCH  84  87
ATOM     87  N   UNL A   1      31.915  27.931  22.461  1.00  0.00    -0.211 NA
ATOM     88  H   UNL A   1      31.495  28.282  21.600  1.00  0.00     0.141 HD
BRANCH  87  89
ATOM     89  C   UNL A   1      30.941  28.284  23.488  1.00  0.00     0.103 C 
BRANCH  89  90
ATOM     90  C   UNL A   1      31.390  28.686  24.883  1.00  0.00     0.020 C 
ATOM     91  C   UNL A   1      31.301  27.606  25.968  1.00  0.00     0.022 C 
ATOM     92  C   UNL A   1      32.771  29.332  24.990  1.00  0.00     0.142 C 
ATOM     93  C   UNL A   1      31.805  28.258  27.250  1.00  0.00     0.137 C 
ATOM     94  S   UNL A   1      33.115  29.367  26.747  1.00  0.00     0.150 S 
ATOM     95  O   UNL A   1      32.799  30.693  27.242  1.00  0.00    -0.229 OA
ATOM     96  O   UNL A   1      34.393  28.740  27.002  1.00  0.00    -0.229 OA
ENDBRANCH  89  90
ENDBRANCH  87  89
ENDBRANCH  84  87
ENDBRANCH  83  84
ENDBRANCH  75  78
ENDBRANCH  73  74
ENDBRANCH   1  73
TORSDOF 18
ENDMDL
MODEL 2
REMARK VINA RESULT:     -11.9      4.871      9.742
REMARK SMILES O=C(NCCCCNC(=O)c1ccc(S(=O)(=O)NC[C@H]2CCS(=O)(=O)C2)cc1)c1ccc(-c2c3nc(c(-c4cc(S(=O)(=O)[O-])ccc4F)c4ccc([nH]4)c(-c4cc(S(=O)(=O)[O-])ccc4F)c4nc(c(-c5cc(S(=O)(=O)[O-])ccc5F)c5ccc2[nH]5)C=C4)C=C3)cc1
REMARK SMILES IDX 6 1 5 2 4 3 3 4 1 5 2 6 29 8 30 9 91 10 31 11 90 12 32 13
REMARK SMILES IDX 33 14 34 15 84 16 35 17 89 18 83 19 85 20 36 21 88 22 82 23
REMARK SMILES IDX 81 24 37 26 69 27 49 28 68 29 50 30 53 31 67 32 86 33 51 34
REMARK SMILES IDX 52 35 66 37 87 38 54 39 38 40 39 41 47 42 40 43 46 44 48 45
REMARK SMILES IDX 45 46 41 47 42 48 43 49 44 50 70 51 71 52 79 53 72 54 78 55
REMARK SMILES IDX 80 56 77 57 73 58 74 59 75 60 76 61 55 62 56 63 64 64 57 65
REMARK SMILES IDX 63 66 65 67 62 68 58 69 59 70 60 71 61 72 7 73 8 74 9 75
REMARK SMILES IDX 10 77 11 78 12 79 28 80 13 81 27 82 14 83 15 84 16 85 17 86
REMARK SMILES IDX 18 87 19 89 20 90 21 91 26 92 22 93 23 94 24 95 25 96
REMARK H PARENT 3 7 85 25 53 36 8 76 18 88
REMARK Flexibility Score: inf
ROOT
ATOM      1  C   UNL A   1      33.608  28.953  24.408  1.00  0.00     0.023 C 
ENDROOT
BRANCH   1   2
ATOM      2  C   UNL A   1      33.945  28.064  25.601  1.00  0.00     0.023 C 
BRANCH   2   3
ATOM      3  C   UNL A   1      33.406  28.540  26.943  1.00  0.00     0.116 C 
BRANCH   3   4
ATOM      4  N   UNL A   1      33.411  29.989  27.084  1.00  0.00    -0.352 N 
ATOM      5  O   UNL A   1      34.160  32.000  27.778  1.00  0.00    -0.269 OA
ATOM      6  C   UNL A   1      34.372  30.800  27.642  1.00  0.00     0.251 C 
ATOM      7  H   UNL A   1      32.616  30.453  26.734  1.00  0.00     0.163 HD
BRANCH   6   8
ATOM      8  C   UNL A   1      35.646  30.207  28.102  1.00  0.00     0.039 A 
ATOM      9  C   UNL A   1      35.751  29.663  29.384  1.00  0.00     0.014 A 
ATOM     10  C   UNL A   1      36.754  30.227  27.251  1.00  0.00     0.014 A 
ATOM     11  C   UNL A   1      36.996  29.281  29.869  1.00  0.00     0.010 A 
ATOM     12  C   UNL A   1      37.989  29.761  27.713  1.00  0.00     0.010 A 
ATOM     13  C   UNL A   1      38.128  29.317  29.037  1.00  0.00    -0.014 A 
BRANCH  13  14
ATOM     14  C   UNL A   1      39.433  28.843  29.565  1.00  0.00     0.031 A 
ATOM     15  C   UNL A   1      40.080  29.505  30.749  1.00  0.00     0.074 A 
ATOM     16  C   UNL A   1      40.014  27.777  28.980  1.00  0.00     0.049 A 
ATOM     17  N   UNL A   1      41.211  29.214  31.341  1.00  0.00    -0.248 NA
ATOM     18  C   UNL A   1      39.372  30.649  31.341  1.00  0.00     0.031 C 
ATOM     19  C   UNL A   1      39.475  27.058  27.821  1.00  0.00     0.029 A 
ATOM     20  N   UNL A   1      41.167  27.101  29.282  1.00  0.00    -0.354 N 
ATOM     21  C   UNL A   1      41.361  30.146  32.363  1.00  0.00     0.074 A 
ATOM     22  C   UNL A   1      40.217  31.031  32.289  1.00  0.00     0.031 C 
ATOM     23  C   UNL A   1      40.273  26.018  27.540  1.00  0.00     0.029 A 
ATOM     24  C   UNL A   1      41.411  26.034  28.450  1.00  0.00     0.049 A 
ATOM     25  H   UNL A   1      41.763  27.355  30.024  1.00  0.00     0.167 HD
ATOM     26  C   UNL A   1      42.358  30.247  33.279  1.00  0.00     0.034 A 
ATOM     27  C   UNL A   1      42.448  25.177  28.406  1.00  0.00     0.034 A 
ATOM     28  C   UNL A   1      43.488  29.349  33.339  1.00  0.00     0.049 A 
ATOM     29  C   UNL A   1      43.555  25.330  29.412  1.00  0.00     0.074 A 
ATOM     30  C   UNL A   1      44.537  29.340  34.245  1.00  0.00     0.029 A 
ATOM     31  N   UNL A   1      43.725  28.305  32.453  1.00  0.00    -0.354 N 
ATOM     32  N   UNL A   1      43.675  26.212  30.377  1.00  0.00    -0.248 NA
ATOM     33  C   UNL A   1      44.663  24.373  29.322  1.00  0.00     0.031 C 
ATOM     34  C   UNL A   1      45.435  28.333  33.869  1.00  0.00     0.029 A 
ATOM     35  C   UNL A   1      44.915  27.667  32.770  1.00  0.00     0.049 A 
ATOM     36  H   UNL A   1      43.133  28.054  31.707  1.00  0.00     0.167 HD
ATOM     37  C   UNL A   1      44.871  25.907  31.018  1.00  0.00     0.074 A 
ATOM     38  C   UNL A   1      45.419  24.747  30.344  1.00  0.00     0.031 C 
ATOM     39  C   UNL A   1      45.462  26.528  32.070  1.00  0.00     0.034 A 
BRANCH  26  40
ATOM     40  C   UNL A   1      42.290  31.394  34.259  1.00  0.00     0.023 A 
ATOM     41  C   UNL A   1      41.406  31.387  35.353  1.00  0.00     0.031 A 
ATOM     42  C   UNL A   1      43.112  32.523  34.085  1.00  0.00     0.131 A 
ATOM     43  C   UNL A   1      41.320  32.510  36.191  1.00  0.00     0.055 A 
ATOM     44  C   UNL A   1      43.072  33.606  34.965  1.00  0.00     0.041 A 
ATOM     45  F   UNL A   1      43.961  32.596  33.048  1.00  0.00    -0.206 F 
ATOM     46  C   UNL A   1      42.162  33.610  36.019  1.00  0.00     0.022 A 
BRANCH  43  47
ATOM     47  S   UNL A   1      39.996  32.567  37.430  1.00  0.00     0.124 S 
ATOM     48  O   UNL A   1      39.157  31.443  37.021  1.00  0.00    -0.237 OA
ATOM     49  O   UNL A   1      40.727  32.396  38.680  1.00  0.00    -0.237 OA
ATOM     50  O   UNL A   1      39.397  33.885  37.233  1.00  0.00    -0.744 OA
ENDBRANCH  43  47
ENDBRANCH  26  40
BRANCH  27  51
ATOM     51  C   UNL A   1      42.502  24.127  27.352  1.00  0.00     0.023 A 
ATOM     52  C   UNL A   1      41.685  22.990  27.419  1.00  0.00     0.031 A 
ATOM     53  C   UNL A   1      43.385  24.247  26.264  1.00  0.00     0.131 A 
ATOM     54  C   UNL A   1      41.789  21.998  26.431  1.00  0.00     0.055 A 
ATOM     55  C   UNL A   1      43.452  23.282  25.259  1.00  0.00     0.041 A 
ATOM     56  F   UNL A   1      44.183  25.321  26.152  1.00  0.00    -0.206 F 
ATOM     57  C   UNL A   1      42.657  22.144  25.344  1.00  0.00     0.022 A 
BRANCH  54  58
ATOM     58  S   UNL A   1      40.817  20.480  26.618  1.00  0.00     0.124 S 
ATOM     59  O   UNL A   1      40.914  20.238  28.053  1.00  0.00    -0.237 OA
ATOM     60  O   UNL A   1      39.508  20.896  26.124  1.00  0.00    -0.237 OA
ATOM     61  O   UNL A   1      41.522  19.518  25.773  1.00  0.00    -0.744 OA
ENDBRANCH  54  58
ENDBRANCH  27  51
BRANCH  39  62
ATOM     62  C   UNL A   1      46.759  25.937  32.559  1.00  0.00     0.023 A 
ATOM     63  C   UNL A   1      46.783  24.923  33.532  1.00  0.00     0.031 A 
ATOM     64  C   UNL A   1      47.986  26.418  32.070  1.00  0.00     0.131 A 
ATOM     65  C   UNL A   1      48.011  24.463  34.030  1.00  0.00     0.055 A 
ATOM     66  C   UNL A   1      49.204  25.917  32.529  1.00  0.00     0.041 A 
ATOM     67  F   UNL A   1      48.018  27.387  31.142  1.00  0.00    -0.206 F 
ATOM     68  C   UNL A   1      49.222  24.944  33.524  1.00  0.00     0.022 A 
BRANCH  65  69
ATOM     69  S   UNL A   1      48.005  23.292  35.415  1.00  0.00     0.124 S 
ATOM     70  O   UNL A   1      47.414  22.105  34.805  1.00  0.00    -0.237 OA
ATOM     71  O   UNL A   1      49.422  23.198  35.751  1.00  0.00    -0.237 OA
ATOM     72  O   UNL A   1      47.173  23.952  36.419  1.00  0.00    -0.744 OA
ENDBRANCH  65  69
ENDBRANCH  39  62
ENDBRANCH  13  14
ENDBRANCH   6   8
ENDBRANCH   3   4
ENDBRANCH   2   3
ENDBRANCH   1   2
BRANCH   1  73
ATOM     73  C   UNL A   1      33.351  28.216  23.099  1.00  0.00     0.116 C 
BRANCH  73  74
ATOM     74  N   UNL A   1      32.041  28.488  22.531  1.00  0.00    -0.352 N 
ATOM     75  C   UNL A   1      30.852  27.835  22.743  1.00  0.00     0.251 C 
ATOM     76  H   UNL A   1      32.000  29.247  21.906  1.00  0.00     0.163 HD
ATOM     77  O   UNL A   1      29.843  28.134  22.116  1.00  0.00    -0.269 OA
BRANCH  75  78
ATOM     78  C   UNL A   1      30.796  26.733  23.724  1.00  0.00     0.039 A 
ATOM     79  C   UNL A   1      31.046  25.432  23.282  1.00  0.00     0.015 A 
ATOM     80  C   UNL A   1      30.524  26.988  25.073  1.00  0.00     0.015 A 
ATOM     81  C   UNL A   1      31.081  24.391  24.209  1.00  0.00     0.022 A 
ATOM     82  C   UNL A   1      30.616  25.958  26.006  1.00  0.00     0.022 A 
ATOM     83  C   UNL A   1      30.883  24.660  25.571  1.00  0.00     0.082 A 
BRANCH  83  84
ATOM     84  S   UNL A   1      30.967  23.287  26.686  1.00  0.00     0.240 S 
ATOM     85  O   UNL A   1      32.220  23.395  27.403  1.00  0.00    -0.207 OA
ATOM     86  O   UNL A   1      29.704  23.243  27.379  1.00  0.00    -0.207 OA
BRANCH  84  87
ATOM     87  N   UNL A   1      31.004  21.888  25.783  1.00  0.00    -0.211 NA
ATOM     88  H   UNL A   1      30.229  22.001  25.130  1.00  0.00     0.141 HD
BRANCH  87  89
ATOM     89  C   UNL A   1      32.057  21.291  24.971  1.00  0.00     0.103 C 
BRANCH  89  90
ATOM     90  C   UNL A   1      33.517  21.641  25.207  1.00  0.00     0.020 C 
ATOM     91  C   UNL A   1      34.518  20.482  25.137  1.00  0.00     0.022 C 
ATOM     92  C   UNL A   1      34.083  22.788  24.371  1.00  0.00     0.142 C 
ATOM     93  C   UNL A   1      35.888  21.095  25.404  1.00  0.00     0.137 C 
ATOM     94  S   UNL A   1      35.851  22.713  24.644  1.00  0.00     0.150 S 
ATOM     95  O   UNL A   1      36.193  23.694  25.655  1.00  0.00    -0.229 OA
ATOM     96  O   UNL A   1      36.536  22.656  23.371  1.00  0.00    -0.229 OA
ENDBRANCH  89  90
ENDBRANCH  87  89
ENDBRANCH  84  87
ENDBRANCH  83  84
ENDBRANCH  75  78
ENDBRANCH  73  74
ENDBRANCH   1  73
TORSDOF 18
ENDMDL
MODEL 3
REMARK VINA RESULT:     -11.9      4.651      9.794
REMARK SMILES O=C(NCCCCNC(=O)c1ccc(S(=O)(=O)NC[C@H]2CCS(=O)(=O)C2)cc1)c1ccc(-c2c3nc(c(-c4cc(S(=O)(=O)[O-])ccc4F)c4ccc([nH]4)c(-c4cc(S(=O)(=O)[O-])ccc4F)c4nc(c(-c5cc(S(=O)(=O)[O-])ccc5F)c5ccc2[nH]5)C=C4)C=C3)cc1
REMARK SMILES IDX 6 1 5 2 4 3 3 4 1 5 2 6 29 8 30 9 91 10 31 11 90 12 32 13
REMARK SMILES IDX 33 14 34 15 84 16 35 17 89 18 83 19 85 20 36 21 88 22 82 23
REMARK SMILES IDX 81 24 37 26 69 27 49 28 68 29 50 30 53 31 67 32 86 33 51 34
REMARK SMILES IDX 52 35 66 37 87 38 54 39 38 40 39 41 47 42 40 43 46 44 48 45
REMARK SMILES IDX 45 46 41 47 42 48 43 49 44 50 70 51 71 52 79 53 72 54 78 55
REMARK SMILES IDX 80 56 77 57 73 58 74 59 75 60 76 61 55 62 56 63 64 64 57 65
REMARK SMILES IDX 63 66 65 67 62 68 58 69 59 70 60 71 61 72 7 73 8 74 9 75
REMARK SMILES IDX 10 77 11 78 12 79 28 80 13 81 27 82 14 83 15 84 16 85 17 86
REMARK SMILES IDX 18 87 19 89 20 90 21 91 26 92 22 93 23 94 24 95 25 96
REMARK H PARENT 3 7 85 25 53 36 8 76 18 88
REMARK Flexibility Score: inf
ROOT
ATOM      1  C   UNL A   1      33.636  28.898  24.432  1.00  0.00     0.023 C 
ENDROOT
BRANCH   1   2
ATOM      2  C   UNL A   1      33.945  27.976  25.607  1.00  0.00     0.023 C 
BRANCH   2   3
ATOM      3  C   UNL A   1      33.468  28.467  26.967  1.00  0.00     0.116 C 
BRANCH   3   4
ATOM      4  N   UNL A   1      33.474  29.918  27.089  1.00  0.00    -0.352 N 
ATOM      5  O   UNL A   1      34.229  31.938  27.748  1.00  0.00    -0.269 OA
ATOM      6  C   UNL A   1      34.440  30.736  27.627  1.00  0.00     0.251 C 
ATOM      7  H   UNL A   1      32.675  30.377  26.740  1.00  0.00     0.163 HD
BRANCH   6   8
ATOM      8  C   UNL A   1      35.719  30.149  28.081  1.00  0.00     0.039 A 
ATOM      9  C   UNL A   1      35.841  29.635  29.374  1.00  0.00     0.014 A 
ATOM     10  C   UNL A   1      36.814  30.145  27.215  1.00  0.00     0.014 A 
ATOM     11  C   UNL A   1      37.091  29.260  29.850  1.00  0.00     0.010 A 
ATOM     12  C   UNL A   1      38.054  29.686  27.669  1.00  0.00     0.010 A 
ATOM     13  C   UNL A   1      38.211  29.273  29.002  1.00  0.00    -0.014 A 
BRANCH  13  14
ATOM     14  C   UNL A   1      39.522  28.806  29.521  1.00  0.00     0.031 A 
ATOM     15  C   UNL A   1      40.192  29.498  30.676  1.00  0.00     0.074 A 
ATOM     16  C   UNL A   1      40.088  27.721  28.957  1.00  0.00     0.049 A 
ATOM     17  N   UNL A   1      41.331  29.217  31.257  1.00  0.00    -0.248 NA
ATOM     18  C   UNL A   1      39.499  30.662  31.246  1.00  0.00     0.031 C 
ATOM     19  C   UNL A   1      39.526  26.972  27.828  1.00  0.00     0.029 A 
ATOM     20  N   UNL A   1      41.242  27.047  29.259  1.00  0.00    -0.354 N 
ATOM     21  C   UNL A   1      41.502  30.176  32.250  1.00  0.00     0.074 A 
ATOM     22  C   UNL A   1      40.361  31.065  32.170  1.00  0.00     0.031 C 
ATOM     23  C   UNL A   1      40.314  25.921  27.563  1.00  0.00     0.029 A 
ATOM     24  C   UNL A   1      41.468  25.956  28.454  1.00  0.00     0.049 A 
ATOM     25  H   UNL A   1      41.851  27.319  29.984  1.00  0.00     0.167 HD
ATOM     26  C   UNL A   1      42.514  30.297  33.147  1.00  0.00     0.034 A 
ATOM     27  C   UNL A   1      42.499  25.093  28.418  1.00  0.00     0.034 A 
ATOM     28  C   UNL A   1      43.640  29.395  33.214  1.00  0.00     0.049 A 
ATOM     29  C   UNL A   1      43.623  25.267  29.401  1.00  0.00     0.074 A 
ATOM     30  C   UNL A   1      44.704  29.405  34.102  1.00  0.00     0.029 A 
ATOM     31  N   UNL A   1      43.858  28.325  32.354  1.00  0.00    -0.354 N 
ATOM     32  N   UNL A   1      43.763  26.175  30.339  1.00  0.00    -0.248 NA
ATOM     33  C   UNL A   1      44.725  24.302  29.320  1.00  0.00     0.031 C 
ATOM     34  C   UNL A   1      45.591  28.384  33.741  1.00  0.00     0.029 A 
ATOM     35  C   UNL A   1      45.050  27.690  32.670  1.00  0.00     0.049 A 
ATOM     36  H   UNL A   1      43.253  28.057  31.625  1.00  0.00     0.167 HD
ATOM     37  C   UNL A   1      44.968  25.881  30.969  1.00  0.00     0.074 A 
ATOM     38  C   UNL A   1      45.499  24.700  30.318  1.00  0.00     0.031 C 
ATOM     39  C   UNL A   1      45.579  26.529  31.993  1.00  0.00     0.034 A 
BRANCH  26  40
ATOM     40  C   UNL A   1      42.468  31.472  34.095  1.00  0.00     0.023 A 
ATOM     41  C   UNL A   1      41.689  31.453  35.266  1.00  0.00     0.031 A 
ATOM     42  C   UNL A   1      43.203  32.638  33.814  1.00  0.00     0.131 A 
ATOM     43  C   UNL A   1      41.613  32.597  36.075  1.00  0.00     0.055 A 
ATOM     44  C   UNL A   1      43.179  33.747  34.662  1.00  0.00     0.041 A 
ATOM     45  F   UNL A   1      43.949  32.723  32.701  1.00  0.00    -0.206 F 
ATOM     46  C   UNL A   1      42.370  33.736  35.794  1.00  0.00     0.022 A 
BRANCH  43  47
ATOM     47  S   UNL A   1      40.406  32.623  37.429  1.00  0.00     0.124 S 
ATOM     48  O   UNL A   1      39.439  31.622  36.984  1.00  0.00    -0.237 OA
ATOM     49  O   UNL A   1      41.219  32.257  38.583  1.00  0.00    -0.237 OA
ATOM     50  O   UNL A   1      39.913  33.999  37.425  1.00  0.00    -0.744 OA
ENDBRANCH  43  47
ENDBRANCH  26  40
BRANCH  27  51
ATOM     51  C   UNL A   1      42.531  24.013  27.393  1.00  0.00     0.023 A 
ATOM     52  C   UNL A   1      41.918  22.773  27.626  1.00  0.00     0.031 A 
ATOM     53  C   UNL A   1      43.187  24.209  26.164  1.00  0.00     0.131 A 
ATOM     54  C   UNL A   1      42.001  21.763  26.656  1.00  0.00     0.055 A 
ATOM     55  C   UNL A   1      43.226  23.217  25.183  1.00  0.00     0.041 A 
ATOM     56  F   UNL A   1      43.782  25.380  25.891  1.00  0.00    -0.206 F 
ATOM     57  C   UNL A   1      42.638  21.981  25.431  1.00  0.00     0.022 A 
BRANCH  54  58
ATOM     58  S   UNL A   1      41.315  20.130  27.043  1.00  0.00     0.124 S 
ATOM     59  O   UNL A   1      42.494  19.277  26.933  1.00  0.00    -0.237 OA
ATOM     60  O   UNL A   1      40.793  20.332  28.390  1.00  0.00    -0.237 OA
ATOM     61  O   UNL A   1      40.303  19.932  26.008  1.00  0.00    -0.744 OA
ENDBRANCH  54  58
ENDBRANCH  27  51
BRANCH  39  62
ATOM     62  C   UNL A   1      46.881  25.944  32.477  1.00  0.00     0.023 A 
ATOM     63  C   UNL A   1      48.092  26.194  31.808  1.00  0.00     0.031 A 
ATOM     64  C   UNL A   1      46.904  25.098  33.599  1.00  0.00     0.131 A 
ATOM     65  C   UNL A   1      49.267  25.557  32.233  1.00  0.00     0.055 A 
ATOM     66  C   UNL A   1      48.086  24.511  34.050  1.00  0.00     0.041 A 
ATOM     67  F   UNL A   1      45.774  24.824  34.271  1.00  0.00    -0.206 F 
ATOM     68  C   UNL A   1      49.275  24.729  33.358  1.00  0.00     0.022 A 
BRANCH  65  69
ATOM     69  S   UNL A   1      50.772  25.754  31.239  1.00  0.00     0.124 S 
ATOM     70  O   UNL A   1      50.359  25.203  29.952  1.00  0.00    -0.237 OA
ATOM     71  O   UNL A   1      50.985  27.197  31.276  1.00  0.00    -0.237 OA
ATOM     72  O   UNL A   1      51.766  24.963  31.961  1.00  0.00    -0.744 OA
ENDBRANCH  65  69
ENDBRANCH  39  62
ENDBRANCH  13  14
ENDBRANCH   6   8
ENDBRANCH   3   4
ENDBRANCH   2   3
ENDBRANCH   1   2
BRANCH   1  73
ATOM     73  C   UNL A   1      33.409  28.199  23.098  1.00  0.00     0.116 C 
BRANCH  73  74
ATOM     74  N   UNL A   1      32.116  28.496  22.503  1.00  0.00    -0.352 N 
ATOM     75  C   UNL A   1      30.906  27.880  22.708  1.00  0.00     0.251 C 
ATOM     76  H   UNL A   1      32.107  29.243  21.862  1.00  0.00     0.163 HD
ATOM     77  O   UNL A   1      29.916  28.195  22.058  1.00  0.00    -0.269 OA
BRANCH  75  78
ATOM     78  C   UNL A   1      30.804  26.801  23.709  1.00  0.00     0.039 A 
ATOM     79  C   UNL A   1      31.062  25.488  23.307  1.00  0.00     0.015 A 
ATOM     80  C   UNL A   1      30.480  27.087  25.041  1.00  0.00     0.015 A 
ATOM     81  C   UNL A   1      31.053  24.468  24.256  1.00  0.00     0.022 A 
ATOM     82  C   UNL A   1      30.527  26.077  25.999  1.00  0.00     0.022 A 
ATOM     83  C   UNL A   1      30.802  24.767  25.603  1.00  0.00     0.082 A 
BRANCH  83  84
ATOM     84  S   UNL A   1      30.832  23.419  26.749  1.00  0.00     0.240 S 
ATOM     85  O   UNL A   1      31.963  23.632  27.629  1.00  0.00    -0.207 OA
ATOM     86  O   UNL A   1      29.493  23.287  27.264  1.00  0.00    -0.207 OA
BRANCH  84  87
ATOM     87  N   UNL A   1      31.098  22.016  25.893  1.00  0.00    -0.211 NA
ATOM     88  H   UNL A   1      30.604  22.172  25.014  1.00  0.00     0.141 HD
BRANCH  87  89
ATOM     89  C   UNL A   1      32.331  21.354  25.484  1.00  0.00     0.103 C 
BRANCH  89  90
ATOM     90  C   UNL A   1      32.313  19.929  24.957  1.00  0.00     0.020 C 
ATOM     91  C   UNL A   1      32.421  19.760  23.437  1.00  0.00     0.022 C 
ATOM     92  C   UNL A   1      33.302  18.957  25.599  1.00  0.00     0.142 C 
ATOM     93  C   UNL A   1      32.382  18.258  23.178  1.00  0.00     0.137 C 
ATOM     94  S   UNL A   1      33.254  17.508  24.548  1.00  0.00     0.150 S 
ATOM     95  O   UNL A   1      32.375  16.533  25.163  1.00  0.00    -0.229 OA
ATOM     96  O   UNL A   1      34.597  17.170  24.128  1.00  0.00    -0.229 OA
ENDBRANCH  89  90
ENDBRANCH  87  89
ENDBRANCH  84  87
ENDBRANCH  83  84
ENDBRANCH  75  78
ENDBRANCH  73  74
ENDBRANCH   1  73
TORSDOF 18
ENDMDL
