MODEL 1
REMARK VINA RESULT:     -13.0      0.000      0.000
REMARK SMILES COc1cccc(-c2c([C@H]3c4ccccc4C(=O)N3CC(=O)NCCCCNC(=O)c3ccc(-c4c5nc(c(-c6cc(S(=O)(=O)[O-])ccc6F)c6ccc([nH]6)c(-c6cc(S(=O)(=O)[O-])ccc6F)c6nc(c(-c7cc(S(=O)(=O)[O-])ccc7F)c7ccc4[nH]7)C=C6)C=C5)cc3)c3ccccc3n2C)c1
REMARK SMILES IDX 25 1 24 2 23 3 21 4 22 5 20 7 19 8 10 9 11 10 12 11 16 12
REMARK SMILES IDX 17 13 13 14 15 15 18 16 14 17 9 18 8 19 100 20 94 21 99 22
REMARK SMILES IDX 101 23 95 24 98 25 96 26 97 27 7 28 3 29 4 30 102 31 5 32
REMARK SMILES IDX 6 33 2 34 1 35 26 36 27 37 28 38 29 39 30 41 31 42 32 43
REMARK SMILES IDX 93 44 33 45 92 46 34 47 35 48 36 49 86 50 37 51 91 52 85 53
REMARK SMILES IDX 87 54 38 55 90 56 84 57 83 58 39 60 71 61 51 62 70 63 52 64
REMARK SMILES IDX 55 65 69 66 88 67 53 68 54 69 68 71 89 72 56 73 40 74 41 75
REMARK SMILES IDX 49 76 42 77 48 78 50 79 47 80 43 81 44 82 45 83 46 84 72 85
REMARK SMILES IDX 73 86 81 87 74 88 80 89 82 90 79 91 75 92 76 93 77 94 78 95
REMARK SMILES IDX 57 96 58 97 66 98 59 99 65 100 67 101 64 102 60 103 61 104
REMARK SMILES IDX 62 105 63 106
REMARK H PARENT 23 6 28 40 87 59 55 70
REMARK Flexibility Score: inf
ROOT
ATOM      1  C   UNL A   1      31.779  28.247  27.532  1.00  0.00     0.023 C 
ENDROOT
BRANCH   1   2
ATOM      2  C   UNL A   1      31.850  26.864  26.904  1.00  0.00     0.116 C 
BRANCH   2   3
ATOM      3  N   UNL A   1      32.206  26.999  25.509  1.00  0.00    -0.355 N 
ATOM      4  C   UNL A   1      33.430  26.685  24.983  1.00  0.00     0.239 C 
ATOM      5  O   UNL A   1      33.769  27.147  23.893  1.00  0.00    -0.273 OA
ATOM      6  H   UNL A   1      31.519  27.344  24.894  1.00  0.00     0.163 HD
BRANCH   4   7
ATOM      7  C   UNL A   1      34.335  25.738  25.766  1.00  0.00     0.220 C 
BRANCH   7   8
ATOM      8  N   UNL A   1      34.164  24.277  25.635  1.00  0.00    -0.318 N 
ATOM      9  C   UNL A   1      34.818  23.713  24.468  1.00  0.00     0.150 C 
ATOM     10  C   UNL A   1      33.698  23.889  23.456  1.00  0.00    -0.008 A 
ATOM     11  C   UNL A   1      33.705  24.518  22.221  1.00  0.00     0.007 A 
ATOM     12  C   UNL A   1      32.487  23.814  24.140  1.00  0.00     0.045 A 
ATOM     13  C   UNL A   1      32.829  23.820  25.554  1.00  0.00     0.255 C 
ATOM     14  C   UNL A   1      32.491  25.032  21.720  1.00  0.00     0.000 A 
ATOM     15  C   UNL A   1      31.268  24.270  23.664  1.00  0.00     0.014 A 
ATOM     16  O   UNL A   1      32.000  23.590  26.408  1.00  0.00    -0.269 OA
ATOM     17  C   UNL A   1      31.282  24.900  22.429  1.00  0.00     0.001 A 
BRANCH   9  18
ATOM     18  C   UNL A   1      35.123  22.224  24.631  1.00  0.00     0.013 A 
ATOM     19  C   UNL A   1      36.355  21.702  25.044  1.00  0.00     0.055 A 
ATOM     20  N   UNL A   1      36.301  20.332  24.876  1.00  0.00    -0.343 N 
ATOM     21  C   UNL A   1      34.225  21.092  24.585  1.00  0.00     0.006 A 
ATOM     22  C   UNL A   1      34.988  19.929  24.725  1.00  0.00     0.049 A 
ATOM     23  C   UNL A   1      37.434  19.434  24.884  1.00  0.00     0.150 C 
ATOM     24  C   UNL A   1      32.825  20.938  24.450  1.00  0.00     0.011 A 
ATOM     25  C   UNL A   1      34.404  18.645  24.699  1.00  0.00     0.027 A 
ATOM     26  C   UNL A   1      32.233  19.671  24.433  1.00  0.00     0.001 A 
ATOM     27  C   UNL A   1      33.019  18.536  24.553  1.00  0.00     0.002 A 
BRANCH  19  28
ATOM     28  C   UNL A   1      37.469  22.487  25.587  1.00  0.00     0.002 A 
ATOM     29  C   UNL A   1      39.640  22.338  26.676  1.00  0.00     0.119 A 
ATOM     30  C   UNL A   1      39.483  23.646  27.129  1.00  0.00     0.046 A 
ATOM     31  C   UNL A   1      38.674  21.801  25.835  1.00  0.00     0.056 A 
ATOM     32  C   UNL A   1      38.341  24.382  26.793  1.00  0.00     0.005 A 
ATOM     33  C   UNL A   1      37.319  23.793  26.047  1.00  0.00     0.010 A 
BRANCH  29  34
ATOM     34  O   UNL A   1      40.732  21.665  27.152  1.00  0.00    -0.497 OA
ATOM     35  C   UNL A   1      41.148  20.517  26.410  1.00  0.00     0.278 C 
ENDBRANCH  29  34
ENDBRANCH  19  28
ENDBRANCH   9  18
ENDBRANCH   7   8
ENDBRANCH   4   7
ENDBRANCH   2   3
ENDBRANCH   1   2
BRANCH   1  36
ATOM     36  C   UNL A   1      31.832  29.424  26.592  1.00  0.00     0.023 C 
BRANCH  36  37
ATOM     37  C   UNL A   1      33.120  30.209  26.747  1.00  0.00     0.116 C 
BRANCH  37  38
ATOM     38  N   UNL A   1      32.968  31.602  27.183  1.00  0.00    -0.352 N 
ATOM     39  C   UNL A   1      33.947  32.384  27.760  1.00  0.00     0.251 C 
ATOM     40  H   UNL A   1      32.086  32.017  27.052  1.00  0.00     0.163 HD
ATOM     41  O   UNL A   1      33.751  33.544  28.093  1.00  0.00    -0.269 OA
BRANCH  39  42
ATOM     42  C   UNL A   1      35.222  31.704  28.028  1.00  0.00     0.039 A 
ATOM     43  C   UNL A   1      36.383  32.476  28.015  1.00  0.00     0.014 A 
ATOM     44  C   UNL A   1      35.182  30.445  28.629  1.00  0.00     0.014 A 
ATOM     45  C   UNL A   1      37.502  32.016  28.700  1.00  0.00     0.010 A 
ATOM     46  C   UNL A   1      36.250  30.059  29.419  1.00  0.00     0.010 A 
ATOM     47  C   UNL A   1      37.421  30.837  29.459  1.00  0.00    -0.014 A 
BRANCH  47  48
ATOM     48  C   UNL A   1      38.563  30.363  30.276  1.00  0.00     0.031 A 
ATOM     49  C   UNL A   1      38.698  30.869  31.683  1.00  0.00     0.074 A 
ATOM     50  C   UNL A   1      39.498  29.555  29.738  1.00  0.00     0.049 A 
ATOM     51  N   UNL A   1      39.666  30.689  32.542  1.00  0.00    -0.248 NA
ATOM     52  C   UNL A   1      37.622  31.750  32.164  1.00  0.00     0.031 C 
ATOM     53  C   UNL A   1      39.498  29.043  28.365  1.00  0.00     0.029 A 
ATOM     54  N   UNL A   1      40.634  29.020  30.290  1.00  0.00    -0.354 N 
ATOM     55  C   UNL A   1      39.323  31.456  33.650  1.00  0.00     0.074 A 
ATOM     56  C   UNL A   1      38.123  32.184  33.306  1.00  0.00     0.031 C 
ATOM     57  C   UNL A   1      40.553  28.227  28.200  1.00  0.00     0.029 A 
ATOM     58  C   UNL A   1      41.328  28.194  29.435  1.00  0.00     0.049 A 
ATOM     59  H   UNL A   1      40.927  29.208  31.210  1.00  0.00     0.167 HD
ATOM     60  C   UNL A   1      39.926  31.510  34.863  1.00  0.00     0.034 A 
ATOM     61  C   UNL A   1      42.461  27.492  29.636  1.00  0.00     0.034 A 
ATOM     62  C   UNL A   1      41.103  30.748  35.190  1.00  0.00     0.049 A 
ATOM     63  C   UNL A   1      43.135  27.583  30.982  1.00  0.00     0.074 A 
ATOM     64  C   UNL A   1      41.777  30.671  36.394  1.00  0.00     0.029 A 
ATOM     65  N   UNL A   1      41.784  29.928  34.297  1.00  0.00    -0.354 N 
ATOM     66  N   UNL A   1      42.778  28.276  32.040  1.00  0.00    -0.248 NA
ATOM     67  C   UNL A   1      44.362  26.798  31.159  1.00  0.00     0.031 C 
ATOM     68  C   UNL A   1      42.895  29.849  36.215  1.00  0.00     0.029 A 
ATOM     69  C   UNL A   1      42.884  29.361  34.918  1.00  0.00     0.049 A 
ATOM     70  H   UNL A   1      41.521  29.772  33.361  1.00  0.00     0.167 HD
ATOM     71  C   UNL A   1      43.722  27.983  33.020  1.00  0.00     0.074 A 
ATOM     72  C   UNL A   1      44.657  27.048  32.427  1.00  0.00     0.031 C 
ATOM     73  C   UNL A   1      43.808  28.440  34.296  1.00  0.00     0.034 A 
BRANCH  60  74
ATOM     74  C   UNL A   1      39.311  32.436  35.885  1.00  0.00     0.023 A 
ATOM     75  C   UNL A   1      39.663  33.798  35.947  1.00  0.00     0.031 A 
ATOM     76  C   UNL A   1      38.448  31.938  36.874  1.00  0.00     0.131 A 
ATOM     77  C   UNL A   1      39.260  34.578  37.040  1.00  0.00     0.055 A 
ATOM     78  C   UNL A   1      37.963  32.750  37.904  1.00  0.00     0.041 A 
ATOM     79  F   UNL A   1      38.091  30.643  36.884  1.00  0.00    -0.206 F 
ATOM     80  C   UNL A   1      38.390  34.071  38.006  1.00  0.00     0.022 A 
BRANCH  77  81
ATOM     81  S   UNL A   1      40.060  36.188  37.290  1.00  0.00     0.124 S 
ATOM     82  O   UNL A   1      39.253  36.752  38.370  1.00  0.00    -0.237 OA
ATOM     83  O   UNL A   1      41.424  35.812  37.641  1.00  0.00    -0.237 OA
ATOM     84  O   UNL A   1      39.906  36.851  35.996  1.00  0.00    -0.744 OA
ENDBRANCH  77  81
ENDBRANCH  60  74
BRANCH  61  85
ATOM     85  C   UNL A   1      43.020  26.628  28.558  1.00  0.00     0.023 A 
ATOM     86  C   UNL A   1      44.057  27.093  27.733  1.00  0.00     0.031 A 
ATOM     87  C   UNL A   1      42.513  25.339  28.318  1.00  0.00     0.131 A 
ATOM     88  C   UNL A   1      44.531  26.293  26.683  1.00  0.00     0.055 A 
ATOM     89  C   UNL A   1      43.016  24.529  27.297  1.00  0.00     0.041 A 
ATOM     90  F   UNL A   1      41.528  24.844  29.082  1.00  0.00    -0.206 F 
ATOM     91  C   UNL A   1      44.025  25.009  26.466  1.00  0.00     0.022 A 
BRANCH  88  92
ATOM     92  S   UNL A   1      45.783  26.977  25.563  1.00  0.00     0.124 S 
ATOM     93  O   UNL A   1      45.108  28.164  25.051  1.00  0.00    -0.237 OA
ATOM     94  O   UNL A   1      46.902  27.215  26.469  1.00  0.00    -0.237 OA
ATOM     95  O   UNL A   1      45.991  25.907  24.589  1.00  0.00    -0.744 OA
ENDBRANCH  88  92
ENDBRANCH  61  85
BRANCH  73  96
ATOM     96  C   UNL A   1      44.931  27.893  35.138  1.00  0.00     0.023 A 
ATOM     97  C   UNL A   1      44.782  26.718  35.893  1.00  0.00     0.031 A 
ATOM     98  C   UNL A   1      46.167  28.562  35.182  1.00  0.00     0.131 A 
ATOM     99  C   UNL A   1      45.838  26.271  36.699  1.00  0.00     0.055 A 
ATOM    100  C   UNL A   1      47.233  28.082  35.944  1.00  0.00     0.041 A 
ATOM    101  F   UNL A   1      46.360  29.689  34.479  1.00  0.00    -0.206 F 
ATOM    102  C   UNL A   1      47.067  26.936  36.717  1.00  0.00     0.022 A 
BRANCH  99 103
ATOM    103  S   UNL A   1      45.560  24.846  37.786  1.00  0.00     0.124 S 
ATOM    104  O   UNL A   1      44.370  25.255  38.525  1.00  0.00    -0.237 OA
ATOM    105  O   UNL A   1      45.375  23.756  36.833  1.00  0.00    -0.237 OA
ATOM    106  O   UNL A   1      46.787  24.774  38.577  1.00  0.00    -0.744 OA
ENDBRANCH  99 103
ENDBRANCH  73  96
ENDBRANCH  47  48
ENDBRANCH  39  42
ENDBRANCH  37  38
ENDBRANCH  36  37
ENDBRANCH   1  36
TORSDOF 18
ENDMDL
MODEL 2
REMARK VINA RESULT:     -12.9      2.288      3.398
REMARK SMILES COc1cccc(-c2c([C@H]3c4ccccc4C(=O)N3CC(=O)NCCCCNC(=O)c3ccc(-c4c5nc(c(-c6cc(S(=O)(=O)[O-])ccc6F)c6ccc([nH]6)c(-c6cc(S(=O)(=O)[O-])ccc6F)c6nc(c(-c7cc(S(=O)(=O)[O-])ccc7F)c7ccc4[nH]7)C=C6)C=C5)cc3)c3ccccc3n2C)c1
REMARK SMILES IDX 25 1 24 2 23 3 21 4 22 5 20 7 19 8 10 9 11 10 12 11 16 12
REMARK SMILES IDX 17 13 13 14 15 15 18 16 14 17 9 18 8 19 100 20 94 21 99 22
REMARK SMILES IDX 101 23 95 24 98 25 96 26 97 27 7 28 3 29 4 30 102 31 5 32
REMARK SMILES IDX 6 33 2 34 1 35 26 36 27 37 28 38 29 39 30 41 31 42 32 43
REMARK SMILES IDX 93 44 33 45 92 46 34 47 35 48 36 49 86 50 37 51 91 52 85 53
REMARK SMILES IDX 87 54 38 55 90 56 84 57 83 58 39 60 71 61 51 62 70 63 52 64
REMARK SMILES IDX 55 65 69 66 88 67 53 68 54 69 68 71 89 72 56 73 40 74 41 75
REMARK SMILES IDX 49 76 42 77 48 78 50 79 47 80 43 81 44 82 45 83 46 84 72 85
REMARK SMILES IDX 73 86 81 87 74 88 80 89 82 90 79 91 75 92 76 93 77 94 78 95
REMARK SMILES IDX 57 96 58 97 66 98 59 99 65 100 67 101 64 102 60 103 61 104
REMARK SMILES IDX 62 105 63 106
REMARK H PARENT 23 6 28 40 87 59 55 70
REMARK Flexibility Score: inf
ROOT
ATOM      1  C   UNL A   1      35.320  31.284  27.746  1.00  0.00     0.023 C 
ENDROOT
BRANCH   1   2
ATOM      2  C   UNL A   1      35.045  29.819  27.448  1.00  0.00     0.116 C 
BRANCH   2   3
ATOM      3  N   UNL A   1      33.759  29.460  28.003  1.00  0.00    -0.355 N 
ATOM      4  C   UNL A   1      32.811  28.716  27.356  1.00  0.00     0.239 C 
ATOM      5  O   UNL A   1      31.638  28.750  27.731  1.00  0.00    -0.273 OA
ATOM      6  H   UNL A   1      33.551  29.776  28.912  1.00  0.00     0.163 HD
BRANCH   4   7
ATOM      7  C   UNL A   1      33.251  27.835  26.189  1.00  0.00     0.220 C 
BRANCH   7   8
ATOM      8  N   UNL A   1      32.459  26.642  25.826  1.00  0.00    -0.318 N 
ATOM      9  C   UNL A   1      33.240  25.594  25.193  1.00  0.00     0.150 C 
ATOM     10  C   UNL A   1      33.128  26.051  23.747  1.00  0.00    -0.008 A 
ATOM     11  C   UNL A   1      34.122  26.311  22.817  1.00  0.00     0.007 A 
ATOM     12  C   UNL A   1      31.911  26.712  23.600  1.00  0.00     0.045 A 
ATOM     13  C   UNL A   1      31.378  26.867  24.944  1.00  0.00     0.255 C 
ATOM     14  C   UNL A   1      33.844  27.214  21.770  1.00  0.00     0.000 A 
ATOM     15  C   UNL A   1      31.587  27.573  22.563  1.00  0.00     0.014 A 
ATOM     16  O   UNL A   1      30.245  27.253  25.137  1.00  0.00    -0.269 OA
ATOM     17  C   UNL A   1      32.586  27.831  21.638  1.00  0.00     0.001 A 
BRANCH   9  18
ATOM     18  C   UNL A   1      32.594  24.216  25.338  1.00  0.00     0.013 A 
ATOM     19  C   UNL A   1      33.206  23.006  24.989  1.00  0.00     0.055 A 
ATOM     20  N   UNL A   1      32.246  22.017  25.076  1.00  0.00    -0.343 N 
ATOM     21  C   UNL A   1      31.362  23.843  25.999  1.00  0.00     0.006 A 
ATOM     22  C   UNL A   1      31.166  22.473  25.806  1.00  0.00     0.049 A 
ATOM     23  C   UNL A   1      32.352  20.686  24.520  1.00  0.00     0.150 C 
ATOM     24  C   UNL A   1      30.392  24.537  26.759  1.00  0.00     0.011 A 
ATOM     25  C   UNL A   1      30.033  21.802  26.312  1.00  0.00     0.027 A 
ATOM     26  C   UNL A   1      29.271  23.882  27.276  1.00  0.00     0.001 A 
ATOM     27  C   UNL A   1      29.093  22.527  27.050  1.00  0.00     0.002 A 
BRANCH  19  28
ATOM     28  C   UNL A   1      34.621  22.844  24.636  1.00  0.00     0.002 A 
ATOM     29  C   UNL A   1      36.899  23.116  25.447  1.00  0.00     0.119 A 
ATOM     30  C   UNL A   1      37.348  23.129  24.129  1.00  0.00     0.046 A 
ATOM     31  C   UNL A   1      35.552  22.882  25.692  1.00  0.00     0.056 A 
ATOM     32  C   UNL A   1      36.447  22.975  23.070  1.00  0.00     0.005 A 
ATOM     33  C   UNL A   1      35.078  22.863  23.321  1.00  0.00     0.010 A 
BRANCH  29  34
ATOM     34  O   UNL A   1      37.838  23.389  26.404  1.00  0.00    -0.497 OA
ATOM     35  C   UNL A   1      39.033  22.608  26.367  1.00  0.00     0.278 C 
ENDBRANCH  29  34
ENDBRANCH  19  28
ENDBRANCH   9  18
ENDBRANCH   7   8
ENDBRANCH   4   7
ENDBRANCH   2   3
ENDBRANCH   1   2
BRANCH   1  36
ATOM     36  C   UNL A   1      34.156  32.111  28.229  1.00  0.00     0.023 C 
BRANCH  36  37
ATOM     37  C   UNL A   1      34.564  33.541  28.517  1.00  0.00     0.116 C 
BRANCH  37  38
ATOM     38  N   UNL A   1      33.521  34.398  29.093  1.00  0.00    -0.352 N 
ATOM     39  C   UNL A   1      33.451  34.827  30.401  1.00  0.00     0.251 C 
ATOM     40  H   UNL A   1      32.803  34.695  28.487  1.00  0.00     0.163 HD
ATOM     41  O   UNL A   1      32.553  35.549  30.811  1.00  0.00    -0.269 OA
BRANCH  39  42
ATOM     42  C   UNL A   1      34.484  34.290  31.298  1.00  0.00     0.039 A 
ATOM     43  C   UNL A   1      34.283  33.016  31.828  1.00  0.00     0.014 A 
ATOM     44  C   UNL A   1      35.743  34.892  31.285  1.00  0.00     0.014 A 
ATOM     45  C   UNL A   1      35.386  32.292  32.268  1.00  0.00     0.010 A 
ATOM     46  C   UNL A   1      36.846  34.117  31.598  1.00  0.00     0.010 A 
ATOM     47  C   UNL A   1      36.678  32.813  32.096  1.00  0.00    -0.014 A 
BRANCH  47  48
ATOM     48  C   UNL A   1      37.882  32.033  32.470  1.00  0.00     0.031 A 
ATOM     49  C   UNL A   1      38.552  32.332  33.780  1.00  0.00     0.074 A 
ATOM     50  C   UNL A   1      38.403  31.130  31.616  1.00  0.00     0.049 A 
ATOM     51  N   UNL A   1      39.673  31.868  34.265  1.00  0.00    -0.248 NA
ATOM     52  C   UNL A   1      37.899  33.340  34.630  1.00  0.00     0.031 C 
ATOM     53  C   UNL A   1      37.867  30.795  30.294  1.00  0.00     0.029 A 
ATOM     54  N   UNL A   1      39.506  30.324  31.738  1.00  0.00    -0.354 N 
ATOM     55  C   UNL A   1      39.866  32.548  35.462  1.00  0.00     0.074 A 
ATOM     56  C   UNL A   1      38.811  33.530  35.566  1.00  0.00     0.031 C 
ATOM     57  C   UNL A   1      38.612  29.816  29.752  1.00  0.00     0.029 A 
ATOM     58  C   UNL A   1      39.702  29.488  30.663  1.00  0.00     0.049 A 
ATOM     59  H   UNL A   1      40.102  30.341  32.521  1.00  0.00     0.167 HD
ATOM     60  C   UNL A   1      40.810  32.340  36.413  1.00  0.00     0.034 A 
ATOM     61  C   UNL A   1      40.657  28.562  30.448  1.00  0.00     0.034 A 
ATOM     62  C   UNL A   1      41.831  31.332  36.299  1.00  0.00     0.049 A 
ATOM     63  C   UNL A   1      41.715  28.359  31.502  1.00  0.00     0.074 A 
ATOM     64  C   UNL A   1      42.809  30.983  37.211  1.00  0.00     0.029 A 
ATOM     65  N   UNL A   1      42.006  30.509  35.192  1.00  0.00    -0.354 N 
ATOM     66  N   UNL A   1      41.865  28.977  32.652  1.00  0.00    -0.248 NA
ATOM     67  C   UNL A   1      42.732  27.337  31.229  1.00  0.00     0.031 C 
ATOM     68  C   UNL A   1      43.607  29.988  36.635  1.00  0.00     0.029 A 
ATOM     69  C   UNL A   1      43.090  29.670  35.389  1.00  0.00     0.049 A 
ATOM     70  H   UNL A   1      41.439  30.519  34.386  1.00  0.00     0.167 HD
ATOM     71  C   UNL A   1      42.975  28.393  33.254  1.00  0.00     0.074 A 
ATOM     72  C   UNL A   1      43.451  27.372  32.342  1.00  0.00     0.031 C 
ATOM     73  C   UNL A   1      43.549  28.669  34.454  1.00  0.00     0.034 A 
BRANCH  60  74
ATOM     74  C   UNL A   1      40.761  33.239  37.625  1.00  0.00     0.023 A 
ATOM     75  C   UNL A   1      39.918  32.953  38.717  1.00  0.00     0.031 A 
ATOM     76  C   UNL A   1      41.478  34.446  37.652  1.00  0.00     0.131 A 
ATOM     77  C   UNL A   1      39.717  33.913  39.718  1.00  0.00     0.055 A 
ATOM     78  C   UNL A   1      41.354  35.352  38.708  1.00  0.00     0.041 A 
ATOM     79  F   UNL A   1      42.282  34.788  36.632  1.00  0.00    -0.206 F 
ATOM     80  C   UNL A   1      40.449  35.101  39.736  1.00  0.00     0.022 A 
BRANCH  77  81
ATOM     81  S   UNL A   1      38.335  33.677  40.871  1.00  0.00     0.124 S 
ATOM     82  O   UNL A   1      38.095  35.046  41.324  1.00  0.00    -0.237 OA
ATOM     83  O   UNL A   1      37.306  33.098  40.016  1.00  0.00    -0.237 OA
ATOM     84  O   UNL A   1      38.884  32.781  41.885  1.00  0.00    -0.744 OA
ENDBRANCH  77  81
ENDBRANCH  60  74
BRANCH  61  85
ATOM     85  C   UNL A   1      40.651  27.740  29.204  1.00  0.00     0.023 A 
ATOM     86  C   UNL A   1      41.552  28.014  28.161  1.00  0.00     0.031 A 
ATOM     87  C   UNL A   1      39.733  26.692  29.024  1.00  0.00     0.131 A 
ATOM     88  C   UNL A   1      41.494  27.272  26.971  1.00  0.00     0.055 A 
ATOM     89  C   UNL A   1      39.705  25.929  27.854  1.00  0.00     0.041 A 
ATOM     90  F   UNL A   1      38.855  26.384  29.992  1.00  0.00    -0.206 F 
ATOM     91  C   UNL A   1      40.583  26.225  26.815  1.00  0.00     0.022 A 
BRANCH  88  92
ATOM     92  S   UNL A   1      42.590  27.736  25.603  1.00  0.00     0.124 S 
ATOM     93  O   UNL A   1      42.587  26.523  24.794  1.00  0.00    -0.237 OA
ATOM     94  O   UNL A   1      41.897  28.888  25.036  1.00  0.00    -0.237 OA
ATOM     95  O   UNL A   1      43.856  28.040  26.268  1.00  0.00    -0.744 OA
ENDBRANCH  88  92
ENDBRANCH  61  85
BRANCH  73  96
ATOM     96  C   UNL A   1      44.727  27.819  34.854  1.00  0.00     0.023 A 
ATOM     97  C   UNL A   1      44.558  26.575  35.484  1.00  0.00     0.031 A 
ATOM     98  C   UNL A   1      46.036  28.266  34.600  1.00  0.00     0.131 A 
ATOM     99  C   UNL A   1      45.683  25.839  35.881  1.00  0.00     0.055 A 
ATOM    100  C   UNL A   1      47.150  27.504  34.948  1.00  0.00     0.041 A 
ATOM    101  F   UNL A   1      46.250  29.448  34.001  1.00  0.00    -0.206 F 
ATOM    102  C   UNL A   1      46.978  26.288  35.603  1.00  0.00     0.022 A 
BRANCH  99 103
ATOM    103  S   UNL A   1      45.434  24.317  36.836  1.00  0.00     0.124 S 
ATOM    104  O   UNL A   1      44.471  23.596  36.012  1.00  0.00    -0.237 OA
ATOM    105  O   UNL A   1      46.780  23.754  36.885  1.00  0.00    -0.237 OA
ATOM    106  O   UNL A   1      44.919  24.798  38.118  1.00  0.00    -0.744 OA
ENDBRANCH  99 103
ENDBRANCH  73  96
ENDBRANCH  47  48
ENDBRANCH  39  42
ENDBRANCH  37  38
ENDBRANCH  36  37
ENDBRANCH   1  36
TORSDOF 18
ENDMDL
MODEL 3
REMARK VINA RESULT:     -12.7      5.454     10.686
REMARK SMILES COc1cccc(-c2c([C@H]3c4ccccc4C(=O)N3CC(=O)NCCCCNC(=O)c3ccc(-c4c5nc(c(-c6cc(S(=O)(=O)[O-])ccc6F)c6ccc([nH]6)c(-c6cc(S(=O)(=O)[O-])ccc6F)c6nc(c(-c7cc(S(=O)(=O)[O-])ccc7F)c7ccc4[nH]7)C=C6)C=C5)cc3)c3ccccc3n2C)c1
REMARK SMILES IDX 25 1 24 2 23 3 21 4 22 5 20 7 19 8 10 9 11 10 12 11 16 12
REMARK SMILES IDX 17 13 13 14 15 15 18 16 14 17 9 18 8 19 100 20 94 21 99 22
REMARK SMILES IDX 101 23 95 24 98 25 96 26 97 27 7 28 3 29 4 30 102 31 5 32
REMARK SMILES IDX 6 33 2 34 1 35 26 36 27 37 28 38 29 39 30 41 31 42 32 43
REMARK SMILES IDX 93 44 33 45 92 46 34 47 35 48 36 49 86 50 37 51 91 52 85 53
REMARK SMILES IDX 87 54 38 55 90 56 84 57 83 58 39 60 71 61 51 62 70 63 52 64
REMARK SMILES IDX 55 65 69 66 88 67 53 68 54 69 68 71 89 72 56 73 40 74 41 75
REMARK SMILES IDX 49 76 42 77 48 78 50 79 47 80 43 81 44 82 45 83 46 84 72 85
REMARK SMILES IDX 73 86 81 87 74 88 80 89 82 90 79 91 75 92 76 93 77 94 78 95
REMARK SMILES IDX 57 96 58 97 66 98 59 99 65 100 67 101 64 102 60 103 61 104
REMARK SMILES IDX 62 105 63 106
REMARK H PARENT 23 6 28 40 87 59 55 70
REMARK Flexibility Score: inf
ROOT
ATOM      1  C   UNL A   1      47.500  33.276  27.754  1.00  0.00     0.023 C 
ENDROOT
BRANCH   1   2
ATOM      2  C   UNL A   1      46.990  31.956  28.310  1.00  0.00     0.116 C 
BRANCH   2   3
ATOM      3  N   UNL A   1      47.457  30.879  27.465  1.00  0.00    -0.355 N 
ATOM      4  C   UNL A   1      47.321  29.548  27.752  1.00  0.00     0.239 C 
ATOM      5  O   UNL A   1      48.035  28.720  27.185  1.00  0.00    -0.273 OA
ATOM      6  H   UNL A   1      47.905  31.122  26.623  1.00  0.00     0.163 HD
BRANCH   4   7
ATOM      7  C   UNL A   1      46.256  29.128  28.762  1.00  0.00     0.220 C 
BRANCH   7   8
ATOM      8  N   UNL A   1      44.858  28.943  28.326  1.00  0.00    -0.318 N 
ATOM      9  C   UNL A   1      44.334  27.615  28.591  1.00  0.00     0.150 C 
ATOM     10  C   UNL A   1      44.776  26.922  27.312  1.00  0.00    -0.008 A 
ATOM     11  C   UNL A   1      45.526  25.769  27.138  1.00  0.00     0.007 A 
ATOM     12  C   UNL A   1      44.804  27.875  26.296  1.00  0.00     0.045 A 
ATOM     13  C   UNL A   1      44.609  29.159  26.951  1.00  0.00     0.255 C 
ATOM     14  C   UNL A   1      46.260  25.618  25.944  1.00  0.00     0.000 A 
ATOM     15  C   UNL A   1      45.479  27.744  25.093  1.00  0.00     0.014 A 
ATOM     16  O   UNL A   1      44.412  30.172  26.315  1.00  0.00    -0.269 OA
ATOM     17  C   UNL A   1      46.228  26.590  24.926  1.00  0.00     0.001 A 
BRANCH   9  18
ATOM     18  C   UNL A   1      42.808  27.595  28.675  1.00  0.00     0.013 A 
ATOM     19  C   UNL A   1      42.013  26.453  28.509  1.00  0.00     0.055 A 
ATOM     20  N   UNL A   1      40.698  26.869  28.456  1.00  0.00    -0.343 N 
ATOM     21  C   UNL A   1      41.897  28.634  29.101  1.00  0.00     0.006 A 
ATOM     22  C   UNL A   1      40.593  28.159  28.940  1.00  0.00     0.049 A 
ATOM     23  C   UNL A   1      39.579  26.077  27.995  1.00  0.00     0.150 C 
ATOM     24  C   UNL A   1      42.052  29.939  29.626  1.00  0.00     0.011 A 
ATOM     25  C   UNL A   1      39.465  28.949  29.249  1.00  0.00     0.027 A 
ATOM     26  C   UNL A   1      40.943  30.728  29.947  1.00  0.00     0.001 A 
ATOM     27  C   UNL A   1      39.663  30.237  29.755  1.00  0.00     0.002 A 
BRANCH  19  28
ATOM     28  C   UNL A   1      42.514  25.076  28.444  1.00  0.00     0.002 A 
ATOM     29  C   UNL A   1      42.290  22.949  27.282  1.00  0.00     0.119 A 
ATOM     30  C   UNL A   1      42.868  22.310  28.377  1.00  0.00     0.046 A 
ATOM     31  C   UNL A   1      42.201  24.335  27.287  1.00  0.00     0.056 A 
ATOM     32  C   UNL A   1      43.291  23.048  29.488  1.00  0.00     0.005 A 
ATOM     33  C   UNL A   1      43.086  24.428  29.536  1.00  0.00     0.010 A 
BRANCH  29  34
ATOM     34  O   UNL A   1      41.805  22.132  26.297  1.00  0.00    -0.497 OA
ATOM     35  C   UNL A   1      40.389  21.954  26.256  1.00  0.00     0.278 C 
ENDBRANCH  29  34
ENDBRANCH  19  28
ENDBRANCH   9  18
ENDBRANCH   7   8
ENDBRANCH   4   7
ENDBRANCH   2   3
ENDBRANCH   1   2
BRANCH   1  36
ATOM     36  C   UNL A   1      47.264  33.534  26.287  1.00  0.00     0.023 C 
BRANCH  36  37
ATOM     37  C   UNL A   1      46.547  34.848  26.057  1.00  0.00     0.116 C 
BRANCH  37  38
ATOM     38  N   UNL A   1      45.316  34.772  25.261  1.00  0.00    -0.352 N 
ATOM     39  C   UNL A   1      44.031  34.706  25.755  1.00  0.00     0.251 C 
ATOM     40  H   UNL A   1      45.418  34.767  24.282  1.00  0.00     0.163 HD
ATOM     41  O   UNL A   1      43.048  34.652  25.030  1.00  0.00    -0.269 OA
BRANCH  39  42
ATOM     42  C   UNL A   1      43.920  34.620  27.218  1.00  0.00     0.039 A 
ATOM     43  C   UNL A   1      43.549  35.773  27.909  1.00  0.00     0.014 A 
ATOM     44  C   UNL A   1      43.828  33.353  27.797  1.00  0.00     0.014 A 
ATOM     45  C   UNL A   1      42.985  35.644  29.173  1.00  0.00     0.010 A 
ATOM     46  C   UNL A   1      43.144  33.224  28.992  1.00  0.00     0.010 A 
ATOM     47  C   UNL A   1      42.721  34.367  29.694  1.00  0.00    -0.014 A 
BRANCH  47  48
ATOM     48  C   UNL A   1      42.038  34.189  30.998  1.00  0.00     0.031 A 
ATOM     49  C   UNL A   1      42.871  33.877  32.207  1.00  0.00     0.074 A 
ATOM     50  C   UNL A   1      40.693  34.235  31.076  1.00  0.00     0.049 A 
ATOM     51  N   UNL A   1      42.494  33.568  33.419  1.00  0.00    -0.248 NA
ATOM     52  C   UNL A   1      44.328  33.847  32.004  1.00  0.00     0.031 C 
ATOM     53  C   UNL A   1      39.779  34.479  29.957  1.00  0.00     0.029 A 
ATOM     54  N   UNL A   1      39.860  34.077  32.154  1.00  0.00    -0.354 N 
ATOM     55  C   UNL A   1      43.666  33.284  34.109  1.00  0.00     0.074 A 
ATOM     56  C   UNL A   1      44.747  33.348  33.152  1.00  0.00     0.031 C 
ATOM     57  C   UNL A   1      38.517  34.507  30.418  1.00  0.00     0.029 A 
ATOM     58  C   UNL A   1      38.527  34.237  31.851  1.00  0.00     0.049 A 
ATOM     59  H   UNL A   1      40.184  33.869  33.060  1.00  0.00     0.167 HD
ATOM     60  C   UNL A   1      43.834  33.040  35.433  1.00  0.00     0.034 A 
ATOM     61  C   UNL A   1      37.443  34.173  32.648  1.00  0.00     0.034 A 
ATOM     62  C   UNL A   1      42.743  33.015  36.371  1.00  0.00     0.049 A 
ATOM     63  C   UNL A   1      37.642  33.876  34.113  1.00  0.00     0.074 A 
ATOM     64  C   UNL A   1      42.783  32.836  37.741  1.00  0.00     0.029 A 
ATOM     65  N   UNL A   1      41.404  33.173  36.028  1.00  0.00    -0.354 N 
ATOM     66  N   UNL A   1      38.760  33.653  34.766  1.00  0.00    -0.248 NA
ATOM     67  C   UNL A   1      36.434  33.822  34.945  1.00  0.00     0.031 C 
ATOM     68  C   UNL A   1      41.467  32.830  38.218  1.00  0.00     0.029 A 
ATOM     69  C   UNL A   1      40.609  33.070  37.156  1.00  0.00     0.049 A 
ATOM     70  H   UNL A   1      41.071  33.335  35.115  1.00  0.00     0.167 HD
ATOM     71  C   UNL A   1      38.391  33.464  36.095  1.00  0.00     0.074 A 
ATOM     72  C   UNL A   1      36.949  33.605  36.147  1.00  0.00     0.031 C 
ATOM     73  C   UNL A   1      39.170  33.203  37.176  1.00  0.00     0.034 A 
BRANCH  60  74
ATOM     74  C   UNL A   1      45.245  32.774  35.900  1.00  0.00     0.023 A 
ATOM     75  C   UNL A   1      46.104  33.826  36.274  1.00  0.00     0.031 A 
ATOM     76  C   UNL A   1      45.775  31.474  35.873  1.00  0.00     0.131 A 
ATOM     77  C   UNL A   1      47.469  33.577  36.478  1.00  0.00     0.055 A 
ATOM     78  C   UNL A   1      47.114  31.220  36.183  1.00  0.00     0.041 A 
ATOM     79  F   UNL A   1      45.014  30.431  35.505  1.00  0.00    -0.206 F 
ATOM     80  C   UNL A   1      47.976  32.277  36.462  1.00  0.00     0.022 A 
BRANCH  77  81
ATOM     81  S   UNL A   1      48.600  34.995  36.554  1.00  0.00     0.124 S 
ATOM     82  O   UNL A   1      49.802  34.444  35.931  1.00  0.00    -0.237 OA
ATOM     83  O   UNL A   1      47.888  36.008  35.783  1.00  0.00    -0.237 OA
ATOM     84  O   UNL A   1      48.716  35.264  37.985  1.00  0.00    -0.744 OA
ENDBRANCH  77  81
ENDBRANCH  60  74
BRANCH  61  85
ATOM     85  C   UNL A   1      36.079  34.415  32.096  1.00  0.00     0.023 A 
ATOM     86  C   UNL A   1      35.378  35.592  32.409  1.00  0.00     0.031 A 
ATOM     87  C   UNL A   1      35.445  33.468  31.274  1.00  0.00     0.131 A 
ATOM     88  C   UNL A   1      34.072  35.777  31.933  1.00  0.00     0.055 A 
ATOM     89  C   UNL A   1      34.159  33.675  30.769  1.00  0.00     0.041 A 
ATOM     90  F   UNL A   1      36.073  32.330  30.940  1.00  0.00    -0.206 F 
ATOM     91  C   UNL A   1      33.461  34.831  31.106  1.00  0.00     0.022 A 
BRANCH  88  92
ATOM     92  S   UNL A   1      33.155  37.251  32.459  1.00  0.00     0.124 S 
ATOM     93  O   UNL A   1      34.032  37.796  33.489  1.00  0.00    -0.237 OA
ATOM     94  O   UNL A   1      33.070  38.014  31.218  1.00  0.00    -0.237 OA
ATOM     95  O   UNL A   1      31.886  36.710  32.941  1.00  0.00    -0.744 OA
ENDBRANCH  88  92
ENDBRANCH  61  85
BRANCH  73  96
ATOM     96  C   UNL A   1      38.471  33.098  38.506  1.00  0.00     0.023 A 
ATOM     97  C   UNL A   1      38.597  34.098  39.486  1.00  0.00     0.031 A 
ATOM     98  C   UNL A   1      37.669  31.980  38.794  1.00  0.00     0.131 A 
ATOM     99  C   UNL A   1      37.967  33.937  40.728  1.00  0.00     0.055 A 
ATOM    100  C   UNL A   1      37.000  31.852  40.011  1.00  0.00     0.041 A 
ATOM    101  F   UNL A   1      37.517  30.997  37.892  1.00  0.00    -0.206 F 
ATOM    102  C   UNL A   1      37.157  32.828  40.990  1.00  0.00     0.022 A 
BRANCH  99 103
ATOM    103  S   UNL A   1      38.281  35.162  42.028  1.00  0.00     0.124 S 
ATOM    104  O   UNL A   1      38.426  36.392  41.256  1.00  0.00    -0.237 OA
ATOM    105  O   UNL A   1      37.078  35.063  42.849  1.00  0.00    -0.237 OA
ATOM    106  O   UNL A   1      39.505  34.680  42.664  1.00  0.00    -0.744 OA
ENDBRANCH  99 103
ENDBRANCH  73  96
ENDBRANCH  47  48
ENDBRANCH  39  42
ENDBRANCH  37  38
ENDBRANCH  36  37
ENDBRANCH   1  36
TORSDOF 18
ENDMDL
