MODEL 1
REMARK VINA RESULT:     -10.8      0.000      0.000
REMARK SMILES O=C(C[C@@H](NC(=O)C1CC=CC1)C1CC1)NCCCCNC(=O)c1ccc(-c2c3nc(c(-c4cc(S(=O)(=O)[O-])ccc4F)c4ccc([nH]4)c(-c4cc(S(=O)(=O)[O-])ccc4F)c4nc(c(-c5cc(S(=O)(=O)[O-])ccc5F)c5ccc2[nH]5)C=C4)C=C3)cc1
REMARK SMILES IDX 18 1 17 2 16 3 1 4 2 5 3 7 4 8 5 9 6 10 7 12 8 13 9 14 12 15
REMARK SMILES IDX 10 16 11 17 13 18 14 19 15 20 19 21 20 22 21 23 22 24 23 26
REMARK SMILES IDX 24 27 25 28 86 29 26 30 85 31 27 32 28 33 29 34 79 35 30 36
REMARK SMILES IDX 84 37 78 38 80 39 31 40 83 41 77 42 76 43 32 45 64 46 44 47
REMARK SMILES IDX 63 48 45 49 48 50 62 51 81 52 46 53 47 54 61 56 82 57 49 58
REMARK SMILES IDX 33 59 34 60 42 61 35 62 41 63 43 64 40 65 36 66 37 67 38 68
REMARK SMILES IDX 39 69 65 70 66 71 74 72 67 73 73 74 75 75 72 76 68 77 69 78
REMARK SMILES IDX 70 79 71 80 50 81 51 82 59 83 52 84 58 85 60 86 57 87 53 88
REMARK SMILES IDX 54 89 55 90 56 91
REMARK H PARENT 16 6 5 11 21 25 80 44 48 55
REMARK Flexibility Score: inf
ROOT
ATOM      1  C   UNL A   1      34.960  21.271  25.177  1.00  0.00     0.023 C 
ENDROOT
BRANCH   1   2
ATOM      2  C   UNL A   1      34.779  22.015  26.500  1.00  0.00     0.116 C 
BRANCH   2   3
ATOM      3  N   UNL A   1      33.852  23.131  26.401  1.00  0.00    -0.356 N 
ATOM      4  O   UNL A   1      35.343  24.622  25.488  1.00  0.00    -0.275 OA
ATOM      5  C   UNL A   1      34.201  24.344  25.845  1.00  0.00     0.222 C 
ATOM      6  H   UNL A   1      32.937  23.017  26.744  1.00  0.00     0.163 HD
BRANCH   5   7
ATOM      7  C   UNL A   1      33.046  25.320  25.657  1.00  0.00     0.125 C 
BRANCH   7   8
ATOM      8  C   UNL A   1      33.579  26.665  25.142  1.00  0.00     0.094 C 
BRANCH   8   9
ATOM      9  N   UNL A   1      33.675  26.696  23.677  1.00  0.00    -0.352 N 
ATOM     10  C   UNL A   1      32.950  26.368  22.591  1.00  0.00     0.223 C 
ATOM     11  H   UNL A   1      34.541  27.076  23.403  1.00  0.00     0.163 HD
ATOM     12  O   UNL A   1      33.657  26.188  21.585  1.00  0.00    -0.275 OA
BRANCH  10  13
ATOM     13  C   UNL A   1      31.433  26.358  22.397  1.00  0.00     0.086 C 
ATOM     14  C   UNL A   1      30.489  25.500  23.232  1.00  0.00     0.040 C 
ATOM     15  C   UNL A   1      30.885  27.796  22.442  1.00  0.00     0.040 C 
ATOM     16  C   UNL A   1      29.596  26.495  23.908  1.00  0.00    -0.030 C 
ATOM     17  C   UNL A   1      29.802  27.738  23.465  1.00  0.00    -0.030 C 
ENDBRANCH  10  13
ENDBRANCH   8   9
BRANCH   8  18
ATOM     18  C   UNL A   1      32.901  27.871  25.708  1.00  0.00     0.012 C 
ATOM     19  C   UNL A   1      33.661  29.011  26.345  1.00  0.00     0.006 C 
ATOM     20  C   UNL A   1      33.065  29.183  24.980  1.00  0.00     0.006 C 
ENDBRANCH   8  18
ENDBRANCH   7   8
ENDBRANCH   5   7
ENDBRANCH   2   3
ENDBRANCH   1   2
BRANCH   1  21
ATOM     21  C   UNL A   1      36.367  21.337  24.577  1.00  0.00     0.023 C 
BRANCH  21  22
ATOM     22  C   UNL A   1      37.429  21.994  25.454  1.00  0.00     0.116 C 
BRANCH  22  23
ATOM     23  N   UNL A   1      38.481  21.071  25.850  1.00  0.00    -0.352 N 
ATOM     24  C   UNL A   1      39.714  21.334  26.405  1.00  0.00     0.251 C 
ATOM     25  H   UNL A   1      38.282  20.119  25.699  1.00  0.00     0.163 HD
ATOM     26  O   UNL A   1      40.531  20.426  26.510  1.00  0.00    -0.269 OA
BRANCH  24  27
ATOM     27  C   UNL A   1      40.064  22.706  26.841  1.00  0.00     0.039 A 
ATOM     28  C   UNL A   1      40.918  22.869  27.936  1.00  0.00     0.014 A 
ATOM     29  C   UNL A   1      39.554  23.831  26.185  1.00  0.00     0.014 A 
ATOM     30  C   UNL A   1      41.317  24.152  28.323  1.00  0.00     0.010 A 
ATOM     31  C   UNL A   1      40.015  25.103  26.524  1.00  0.00     0.010 A 
ATOM     32  C   UNL A   1      40.904  25.279  27.595  1.00  0.00    -0.014 A 
BRANCH  32  33
ATOM     33  C   UNL A   1      41.399  26.643  27.933  1.00  0.00     0.031 A 
ATOM     34  C   UNL A   1      42.825  27.029  27.641  1.00  0.00     0.074 A 
ATOM     35  C   UNL A   1      40.580  27.517  28.554  1.00  0.00     0.049 A 
ATOM     36  N   UNL A   1      43.458  28.138  27.927  1.00  0.00    -0.248 NA
ATOM     37  C   UNL A   1      43.653  26.023  26.959  1.00  0.00     0.031 C 
ATOM     38  C   UNL A   1      39.188  27.252  28.923  1.00  0.00     0.029 A 
ATOM     39  N   UNL A   1      40.799  28.800  28.993  1.00  0.00    -0.354 N 
ATOM     40  C   UNL A   1      44.759  27.963  27.466  1.00  0.00     0.074 A 
ATOM     41  C   UNL A   1      44.838  26.615  26.942  1.00  0.00     0.031 C 
ATOM     42  C   UNL A   1      38.672  28.343  29.510  1.00  0.00     0.029 A 
ATOM     43  C   UNL A   1      39.707  29.368  29.610  1.00  0.00     0.049 A 
ATOM     44  H   UNL A   1      41.656  29.270  28.877  1.00  0.00     0.167 HD
ATOM     45  C   UNL A   1      45.786  28.850  27.457  1.00  0.00     0.034 A 
ATOM     46  C   UNL A   1      39.558  30.568  30.207  1.00  0.00     0.034 A 
ATOM     47  C   UNL A   1      45.693  30.191  27.985  1.00  0.00     0.049 A 
ATOM     48  C   UNL A   1      40.728  31.520  30.230  1.00  0.00     0.074 A 
ATOM     49  C   UNL A   1      46.658  31.183  27.991  1.00  0.00     0.029 A 
ATOM     50  N   UNL A   1      44.574  30.727  28.611  1.00  0.00    -0.354 N 
ATOM     51  N   UNL A   1      41.939  31.355  29.748  1.00  0.00    -0.248 NA
ATOM     52  C   UNL A   1      40.509  32.826  30.866  1.00  0.00     0.031 C 
ATOM     53  C   UNL A   1      46.152  32.285  28.686  1.00  0.00     0.029 A 
ATOM     54  C   UNL A   1      44.839  32.020  29.036  1.00  0.00     0.049 A 
ATOM     55  H   UNL A   1      43.718  30.256  28.735  1.00  0.00     0.167 HD
ATOM     56  C   UNL A   1      42.612  32.549  29.995  1.00  0.00     0.074 A 
ATOM     57  C   UNL A   1      41.668  33.429  30.652  1.00  0.00     0.031 C 
ATOM     58  C   UNL A   1      43.893  32.888  29.701  1.00  0.00     0.034 A 
BRANCH  45  59
ATOM     59  C   UNL A   1      47.104  28.385  26.882  1.00  0.00     0.023 A 
ATOM     60  C   UNL A   1      47.279  28.193  25.499  1.00  0.00     0.031 A 
ATOM     61  C   UNL A   1      48.197  28.113  27.725  1.00  0.00     0.131 A 
ATOM     62  C   UNL A   1      48.485  27.671  25.011  1.00  0.00     0.055 A 
ATOM     63  C   UNL A   1      49.424  27.677  27.222  1.00  0.00     0.041 A 
ATOM     64  F   UNL A   1      48.087  28.256  29.055  1.00  0.00    -0.206 F 
ATOM     65  C   UNL A   1      49.569  27.438  25.859  1.00  0.00     0.022 A 
BRANCH  62  66
ATOM     66  S   UNL A   1      48.566  27.159  23.273  1.00  0.00     0.124 S 
ATOM     67  O   UNL A   1      49.980  27.367  22.969  1.00  0.00    -0.237 OA
ATOM     68  O   UNL A   1      48.122  25.772  23.331  1.00  0.00    -0.237 OA
ATOM     69  O   UNL A   1      47.651  28.079  22.600  1.00  0.00    -0.744 OA
ENDBRANCH  62  66
ENDBRANCH  45  59
BRANCH  46  70
ATOM     70  C   UNL A   1      38.265  30.937  30.856  1.00  0.00     0.023 A 
ATOM     71  C   UNL A   1      37.262  31.615  30.145  1.00  0.00     0.031 A 
ATOM     72  C   UNL A   1      38.034  30.659  32.216  1.00  0.00     0.131 A 
ATOM     73  C   UNL A   1      36.098  32.039  30.808  1.00  0.00     0.055 A 
ATOM     74  C   UNL A   1      36.848  31.029  32.855  1.00  0.00     0.041 A 
ATOM     75  F   UNL A   1      38.958  30.013  32.944  1.00  0.00    -0.206 F 
ATOM     76  C   UNL A   1      35.879  31.736  32.154  1.00  0.00     0.022 A 
BRANCH  73  77
ATOM     77  S   UNL A   1      34.920  33.086  29.910  1.00  0.00     0.124 S 
ATOM     78  O   UNL A   1      34.335  32.136  28.970  1.00  0.00    -0.237 OA
ATOM     79  O   UNL A   1      34.047  33.549  30.984  1.00  0.00    -0.237 OA
ATOM     80  O   UNL A   1      35.768  34.115  29.311  1.00  0.00    -0.744 OA
ENDBRANCH  73  77
ENDBRANCH  46  70
BRANCH  58  81
ATOM     81  C   UNL A   1      44.331  34.294  30.043  1.00  0.00     0.023 A 
ATOM     82  C   UNL A   1      44.126  35.372  29.164  1.00  0.00     0.031 A 
ATOM     83  C   UNL A   1      44.970  34.556  31.268  1.00  0.00     0.131 A 
ATOM     84  C   UNL A   1      44.610  36.647  29.496  1.00  0.00     0.055 A 
ATOM     85  C   UNL A   1      45.388  35.839  31.623  1.00  0.00     0.041 A 
ATOM     86  F   UNL A   1      45.198  33.565  32.146  1.00  0.00    -0.206 F 
ATOM     87  C   UNL A   1      45.221  36.891  30.728  1.00  0.00     0.022 A 
BRANCH  84  88
ATOM     88  S   UNL A   1      44.521  37.965  28.252  1.00  0.00     0.124 S 
ATOM     89  O   UNL A   1      45.577  38.870  28.694  1.00  0.00    -0.237 OA
ATOM     90  O   UNL A   1      44.781  37.241  27.011  1.00  0.00    -0.237 OA
ATOM     91  O   UNL A   1      43.161  38.481  28.394  1.00  0.00    -0.744 OA
ENDBRANCH  84  88
ENDBRANCH  58  81
ENDBRANCH  32  33
ENDBRANCH  24  27
ENDBRANCH  22  23
ENDBRANCH  21  22
ENDBRANCH   1  21
TORSDOF 18
ENDMDL
MODEL 2
REMARK VINA RESULT:     -10.7      2.559      8.445
REMARK SMILES O=C(C[C@@H](NC(=O)C1CC=CC1)C1CC1)NCCCCNC(=O)c1ccc(-c2c3nc(c(-c4cc(S(=O)(=O)[O-])ccc4F)c4ccc([nH]4)c(-c4cc(S(=O)(=O)[O-])ccc4F)c4nc(c(-c5cc(S(=O)(=O)[O-])ccc5F)c5ccc2[nH]5)C=C4)C=C3)cc1
REMARK SMILES IDX 18 1 17 2 16 3 1 4 2 5 3 7 4 8 5 9 6 10 7 12 8 13 9 14 12 15
REMARK SMILES IDX 10 16 11 17 13 18 14 19 15 20 19 21 20 22 21 23 22 24 23 26
REMARK SMILES IDX 24 27 25 28 86 29 26 30 85 31 27 32 28 33 29 34 79 35 30 36
REMARK SMILES IDX 84 37 78 38 80 39 31 40 83 41 77 42 76 43 32 45 64 46 44 47
REMARK SMILES IDX 63 48 45 49 48 50 62 51 81 52 46 53 47 54 61 56 82 57 49 58
REMARK SMILES IDX 33 59 34 60 42 61 35 62 41 63 43 64 40 65 36 66 37 67 38 68
REMARK SMILES IDX 39 69 65 70 66 71 74 72 67 73 73 74 75 75 72 76 68 77 69 78
REMARK SMILES IDX 70 79 71 80 50 81 51 82 59 83 52 84 58 85 60 86 57 87 53 88
REMARK SMILES IDX 54 89 55 90 56 91
REMARK H PARENT 16 6 5 11 21 25 80 44 48 55
REMARK Flexibility Score: inf
ROOT
ATOM      1  C   UNL A   1      37.426  21.354  24.681  1.00  0.00     0.023 C 
ENDROOT
BRANCH   1   2
ATOM      2  C   UNL A   1      35.980  21.376  25.174  1.00  0.00     0.116 C 
BRANCH   2   3
ATOM      3  N   UNL A   1      35.072  22.029  24.243  1.00  0.00    -0.356 N 
ATOM      4  O   UNL A   1      35.363  24.158  25.056  1.00  0.00    -0.275 OA
ATOM      5  C   UNL A   1      34.877  23.394  24.227  1.00  0.00     0.222 C 
ATOM      6  H   UNL A   1      34.577  21.474  23.600  1.00  0.00     0.163 HD
BRANCH   5   7
ATOM      7  C   UNL A   1      34.040  23.908  23.061  1.00  0.00     0.125 C 
BRANCH   7   8
ATOM      8  C   UNL A   1      33.014  24.931  23.568  1.00  0.00     0.094 C 
BRANCH   8   9
ATOM      9  N   UNL A   1      33.575  26.286  23.645  1.00  0.00    -0.352 N 
ATOM     10  C   UNL A   1      33.580  27.353  24.465  1.00  0.00     0.223 C 
ATOM     11  H   UNL A   1      34.118  26.472  22.845  1.00  0.00     0.163 HD
ATOM     12  O   UNL A   1      33.847  28.409  23.868  1.00  0.00    -0.275 OA
BRANCH  10  13
ATOM     13  C   UNL A   1      33.477  27.411  25.990  1.00  0.00     0.086 C 
ATOM     14  C   UNL A   1      33.995  28.581  26.819  1.00  0.00     0.040 C 
ATOM     15  C   UNL A   1      32.024  27.161  26.432  1.00  0.00     0.040 C 
ATOM     16  C   UNL A   1      32.775  29.103  27.514  1.00  0.00    -0.030 C 
ATOM     17  C   UNL A   1      31.710  28.321  27.315  1.00  0.00    -0.030 C 
ENDBRANCH  10  13
ENDBRANCH   8   9
BRANCH   8  18
ATOM     18  C   UNL A   1      31.686  24.888  22.881  1.00  0.00     0.012 C 
ATOM     19  C   UNL A   1      30.551  24.011  23.354  1.00  0.00     0.006 C 
ATOM     20  C   UNL A   1      30.500  25.489  23.594  1.00  0.00     0.006 C 
ENDBRANCH   8  18
ENDBRANCH   7   8
ENDBRANCH   5   7
ENDBRANCH   2   3
ENDBRANCH   1   2
BRANCH   1  21
ATOM     21  C   UNL A   1      38.222  20.097  25.043  1.00  0.00     0.023 C 
BRANCH  21  22
ATOM     22  C   UNL A   1      39.325  20.291  26.081  1.00  0.00     0.116 C 
BRANCH  22  23
ATOM     23  N   UNL A   1      40.333  19.243  26.033  1.00  0.00    -0.352 N 
ATOM     24  C   UNL A   1      41.705  19.345  26.088  1.00  0.00     0.251 C 
ATOM     25  H   UNL A   1      39.982  18.328  25.949  1.00  0.00     0.163 HD
ATOM     26  O   UNL A   1      42.390  18.354  25.859  1.00  0.00    -0.269 OA
BRANCH  24  27
ATOM     27  C   UNL A   1      42.351  20.645  26.387  1.00  0.00     0.039 A 
ATOM     28  C   UNL A   1      42.745  21.463  25.325  1.00  0.00     0.014 A 
ATOM     29  C   UNL A   1      42.575  21.059  27.703  1.00  0.00     0.014 A 
ATOM     30  C   UNL A   1      43.293  22.724  25.583  1.00  0.00     0.010 A 
ATOM     31  C   UNL A   1      43.050  22.346  27.957  1.00  0.00     0.010 A 
ATOM     32  C   UNL A   1      43.411  23.195  26.900  1.00  0.00    -0.014 A 
BRANCH  32  33
ATOM     33  C   UNL A   1      43.901  24.573  27.188  1.00  0.00     0.031 A 
ATOM     34  C   UNL A   1      42.951  25.628  27.691  1.00  0.00     0.074 A 
ATOM     35  C   UNL A   1      45.189  24.889  26.944  1.00  0.00     0.049 A 
ATOM     36  N   UNL A   1      43.172  26.896  27.928  1.00  0.00    -0.248 NA
ATOM     37  C   UNL A   1      41.565  25.203  27.936  1.00  0.00     0.031 C 
ATOM     38  C   UNL A   1      46.200  23.967  26.424  1.00  0.00     0.029 A 
ATOM     39  N   UNL A   1      45.869  26.074  27.092  1.00  0.00    -0.354 N 
ATOM     40  C   UNL A   1      41.953  27.423  28.343  1.00  0.00     0.074 A 
ATOM     41  C   UNL A   1      40.985  26.349  28.262  1.00  0.00     0.031 C 
ATOM     42  C   UNL A   1      47.373  24.612  26.318  1.00  0.00     0.029 A 
ATOM     43  C   UNL A   1      47.190  26.006  26.710  1.00  0.00     0.049 A 
ATOM     44  H   UNL A   1      45.451  26.894  27.439  1.00  0.00     0.167 HD
ATOM     45  C   UNL A   1      41.672  28.678  28.776  1.00  0.00     0.034 A 
ATOM     46  C   UNL A   1      48.142  26.960  26.659  1.00  0.00     0.034 A 
ATOM     47  C   UNL A   1      42.648  29.739  28.851  1.00  0.00     0.049 A 
ATOM     48  C   UNL A   1      47.794  28.360  27.099  1.00  0.00     0.074 A 
ATOM     49  C   UNL A   1      42.479  31.034  29.311  1.00  0.00     0.029 A 
ATOM     50  N   UNL A   1      43.973  29.635  28.445  1.00  0.00    -0.354 N 
ATOM     51  N   UNL A   1      46.647  28.831  27.533  1.00  0.00    -0.248 NA
ATOM     52  C   UNL A   1      48.872  29.357  27.053  1.00  0.00     0.031 C 
ATOM     53  C   UNL A   1      43.674  31.731  29.111  1.00  0.00     0.029 A 
ATOM     54  C   UNL A   1      44.620  30.851  28.612  1.00  0.00     0.049 A 
ATOM     55  H   UNL A   1      44.391  28.818  28.090  1.00  0.00     0.167 HD
ATOM     56  C   UNL A   1      46.878  30.168  27.842  1.00  0.00     0.074 A 
ATOM     57  C   UNL A   1      48.275  30.424  27.562  1.00  0.00     0.031 C 
ATOM     58  C   UNL A   1      46.013  31.100  28.319  1.00  0.00     0.034 A 
BRANCH  45  59
ATOM     59  C   UNL A   1      40.244  28.973  29.176  1.00  0.00     0.023 A 
ATOM     60  C   UNL A   1      39.848  29.011  30.525  1.00  0.00     0.031 A 
ATOM     61  C   UNL A   1      39.261  29.204  28.197  1.00  0.00     0.131 A 
ATOM     62  C   UNL A   1      38.498  29.194  30.855  1.00  0.00     0.055 A 
ATOM     63  C   UNL A   1      37.933  29.474  28.537  1.00  0.00     0.041 A 
ATOM     64  F   UNL A   1      39.570  29.161  26.892  1.00  0.00    -0.206 F 
ATOM     65  C   UNL A   1      37.541  29.454  29.872  1.00  0.00     0.022 A 
BRANCH  62  66
ATOM     66  S   UNL A   1      37.985  28.938  32.576  1.00  0.00     0.124 S 
ATOM     67  O   UNL A   1      36.625  29.473  32.561  1.00  0.00    -0.237 OA
ATOM     68  O   UNL A   1      38.102  27.494  32.729  1.00  0.00    -0.237 OA
ATOM     69  O   UNL A   1      38.947  29.728  33.343  1.00  0.00    -0.744 OA
ENDBRANCH  62  66
ENDBRANCH  45  59
BRANCH  46  70
ATOM     70  C   UNL A   1      49.510  26.639  26.154  1.00  0.00     0.023 A 
ATOM     71  C   UNL A   1      49.939  27.077  24.890  1.00  0.00     0.031 A 
ATOM     72  C   UNL A   1      50.392  25.843  26.908  1.00  0.00     0.131 A 
ATOM     73  C   UNL A   1      51.191  26.674  24.398  1.00  0.00     0.055 A 
ATOM     74  C   UNL A   1      51.661  25.498  26.439  1.00  0.00     0.041 A 
ATOM     75  F   UNL A   1      50.034  25.397  28.122  1.00  0.00    -0.206 F 
ATOM     76  C   UNL A   1      52.061  25.901  25.170  1.00  0.00     0.022 A 
BRANCH  73  77
ATOM     77  S   UNL A   1      51.626  27.090  22.686  1.00  0.00     0.124 S 
ATOM     78  O   UNL A   1      50.364  26.853  21.994  1.00  0.00    -0.237 OA
ATOM     79  O   UNL A   1      52.040  28.484  22.809  1.00  0.00    -0.237 OA
ATOM     80  O   UNL A   1      52.698  26.148  22.369  1.00  0.00    -0.744 OA
ENDBRANCH  73  77
ENDBRANCH  46  70
BRANCH  58  81
ATOM     81  C   UNL A   1      46.573  32.472  28.619  1.00  0.00     0.023 A 
ATOM     82  C   UNL A   1      46.557  33.506  27.667  1.00  0.00     0.031 A 
ATOM     83  C   UNL A   1      47.138  32.744  29.878  1.00  0.00     0.131 A 
ATOM     84  C   UNL A   1      47.149  34.743  27.967  1.00  0.00     0.055 A 
ATOM     85  C   UNL A   1      47.663  33.997  30.195  1.00  0.00     0.041 A 
ATOM     86  F   UNL A   1      47.186  31.794  30.826  1.00  0.00    -0.206 F 
ATOM     87  C   UNL A   1      47.684  35.001  29.232  1.00  0.00     0.022 A 
BRANCH  84  88
ATOM     88  S   UNL A   1      47.304  35.980  26.649  1.00  0.00     0.124 S 
ATOM     89  O   UNL A   1      45.922  36.123  26.204  1.00  0.00    -0.237 OA
ATOM     90  O   UNL A   1      47.867  37.124  27.359  1.00  0.00    -0.237 OA
ATOM     91  O   UNL A   1      48.203  35.345  25.686  1.00  0.00    -0.744 OA
ENDBRANCH  84  88
ENDBRANCH  58  81
ENDBRANCH  32  33
ENDBRANCH  24  27
ENDBRANCH  22  23
ENDBRANCH  21  22
ENDBRANCH   1  21
TORSDOF 18
ENDMDL
MODEL 3
REMARK VINA RESULT:     -10.6      4.594      9.715
REMARK SMILES O=C(C[C@@H](NC(=O)C1CC=CC1)C1CC1)NCCCCNC(=O)c1ccc(-c2c3nc(c(-c4cc(S(=O)(=O)[O-])ccc4F)c4ccc([nH]4)c(-c4cc(S(=O)(=O)[O-])ccc4F)c4nc(c(-c5cc(S(=O)(=O)[O-])ccc5F)c5ccc2[nH]5)C=C4)C=C3)cc1
REMARK SMILES IDX 18 1 17 2 16 3 1 4 2 5 3 7 4 8 5 9 6 10 7 12 8 13 9 14 12 15
REMARK SMILES IDX 10 16 11 17 13 18 14 19 15 20 19 21 20 22 21 23 22 24 23 26
REMARK SMILES IDX 24 27 25 28 86 29 26 30 85 31 27 32 28 33 29 34 79 35 30 36
REMARK SMILES IDX 84 37 78 38 80 39 31 40 83 41 77 42 76 43 32 45 64 46 44 47
REMARK SMILES IDX 63 48 45 49 48 50 62 51 81 52 46 53 47 54 61 56 82 57 49 58
REMARK SMILES IDX 33 59 34 60 42 61 35 62 41 63 43 64 40 65 36 66 37 67 38 68
REMARK SMILES IDX 39 69 65 70 66 71 74 72 67 73 73 74 75 75 72 76 68 77 69 78
REMARK SMILES IDX 70 79 71 80 50 81 51 82 59 83 52 84 58 85 60 86 57 87 53 88
REMARK SMILES IDX 54 89 55 90 56 91
REMARK H PARENT 16 6 5 11 21 25 80 44 48 55
REMARK Flexibility Score: inf
ROOT
ATOM      1  C   UNL A   1      32.767  27.151  26.017  1.00  0.00     0.023 C 
ENDROOT
BRANCH   1   2
ATOM      2  C   UNL A   1      31.657  26.233  26.528  1.00  0.00     0.116 C 
BRANCH   2   3
ATOM      3  N   UNL A   1      31.963  24.821  26.356  1.00  0.00    -0.356 N 
ATOM      4  O   UNL A   1      29.943  24.028  27.108  1.00  0.00    -0.275 OA
ATOM      5  C   UNL A   1      31.048  23.823  26.614  1.00  0.00     0.222 C 
ATOM      6  H   UNL A   1      32.861  24.568  26.044  1.00  0.00     0.163 HD
BRANCH   5   7
ATOM      7  C   UNL A   1      31.488  22.425  26.194  1.00  0.00     0.125 C 
BRANCH   7   8
ATOM      8  C   UNL A   1      32.529  22.524  25.070  1.00  0.00     0.094 C 
BRANCH   8   9
ATOM      9  N   UNL A   1      33.603  21.534  25.223  1.00  0.00    -0.352 N 
ATOM     10  C   UNL A   1      34.868  21.317  24.815  1.00  0.00     0.223 C 
ATOM     11  H   UNL A   1      33.305  20.799  25.805  1.00  0.00     0.163 HD
ATOM     12  O   UNL A   1      35.184  20.116  24.868  1.00  0.00    -0.275 OA
BRANCH  10  13
ATOM     13  C   UNL A   1      35.970  22.322  24.479  1.00  0.00     0.086 C 
ATOM     14  C   UNL A   1      35.957  23.770  24.957  1.00  0.00     0.040 C 
ATOM     15  C   UNL A   1      37.347  21.742  24.852  1.00  0.00     0.040 C 
ATOM     16  C   UNL A   1      37.201  23.891  25.783  1.00  0.00    -0.030 C 
ATOM     17  C   UNL A   1      37.961  22.795  25.711  1.00  0.00    -0.030 C 
ENDBRANCH  10  13
ENDBRANCH   8   9
BRANCH   8  18
ATOM     18  C   UNL A   1      31.963  22.561  23.686  1.00  0.00     0.012 C 
ATOM     19  C   UNL A   1      31.793  23.845  22.908  1.00  0.00     0.006 C 
ATOM     20  C   UNL A   1      32.896  22.896  22.548  1.00  0.00     0.006 C 
ENDBRANCH   8  18
ENDBRANCH   7   8
ENDBRANCH   5   7
ENDBRANCH   2   3
ENDBRANCH   1   2
BRANCH   1  21
ATOM     21  C   UNL A   1      33.009  28.411  26.852  1.00  0.00     0.023 C 
BRANCH  21  22
ATOM     22  C   UNL A   1      33.770  29.533  26.149  1.00  0.00     0.116 C 
BRANCH  22  23
ATOM     23  N   UNL A   1      33.667  30.805  26.846  1.00  0.00    -0.352 N 
ATOM     24  C   UNL A   1      34.448  31.315  27.859  1.00  0.00     0.251 C 
ATOM     25  H   UNL A   1      32.931  31.387  26.550  1.00  0.00     0.163 HD
ATOM     26  O   UNL A   1      34.095  32.339  28.434  1.00  0.00    -0.269 OA
BRANCH  24  27
ATOM     27  C   UNL A   1      35.688  30.617  28.276  1.00  0.00     0.039 A 
ATOM     28  C   UNL A   1      36.879  30.897  27.599  1.00  0.00     0.014 A 
ATOM     29  C   UNL A   1      35.684  29.688  29.320  1.00  0.00     0.014 A 
ATOM     30  C   UNL A   1      38.074  30.303  28.019  1.00  0.00     0.010 A 
ATOM     31  C   UNL A   1      36.888  29.158  29.785  1.00  0.00     0.010 A 
ATOM     32  C   UNL A   1      38.097  29.461  29.142  1.00  0.00    -0.014 A 
BRANCH  32  33
ATOM     33  C   UNL A   1      39.376  28.899  29.661  1.00  0.00     0.031 A 
ATOM     34  C   UNL A   1      40.076  29.551  30.824  1.00  0.00     0.074 A 
ATOM     35  C   UNL A   1      39.935  27.834  29.051  1.00  0.00     0.049 A 
ATOM     36  N   UNL A   1      41.228  29.255  31.369  1.00  0.00    -0.248 NA
ATOM     37  C   UNL A   1      39.401  30.704  31.438  1.00  0.00     0.031 C 
ATOM     38  C   UNL A   1      39.374  27.135  27.894  1.00  0.00     0.029 A 
ATOM     39  N   UNL A   1      41.103  27.159  29.310  1.00  0.00    -0.354 N 
ATOM     40  C   UNL A   1      41.420  30.186  32.385  1.00  0.00     0.074 A 
ATOM     41  C   UNL A   1      40.294  31.095  32.334  1.00  0.00     0.031 C 
ATOM     42  C   UNL A   1      40.183  26.118  27.559  1.00  0.00     0.029 A 
ATOM     43  C   UNL A   1      41.348  26.122  28.438  1.00  0.00     0.049 A 
ATOM     44  H   UNL A   1      41.708  27.393  30.050  1.00  0.00     0.167 HD
ATOM     45  C   UNL A   1      42.427  30.262  33.292  1.00  0.00     0.034 A 
ATOM     46  C   UNL A   1      42.399  25.282  28.342  1.00  0.00     0.034 A 
ATOM     47  C   UNL A   1      43.544  29.348  33.329  1.00  0.00     0.049 A 
ATOM     48  C   UNL A   1      43.531  25.416  29.330  1.00  0.00     0.074 A 
ATOM     49  C   UNL A   1      44.597  29.310  34.228  1.00  0.00     0.029 A 
ATOM     50  N   UNL A   1      43.763  28.317  32.423  1.00  0.00    -0.354 N 
ATOM     51  N   UNL A   1      43.674  26.274  30.314  1.00  0.00    -0.248 NA
ATOM     52  C   UNL A   1      44.639  24.460  29.202  1.00  0.00     0.031 C 
ATOM     53  C   UNL A   1      45.487  28.312  33.821  1.00  0.00     0.029 A 
ATOM     54  C   UNL A   1      44.949  27.663  32.723  1.00  0.00     0.049 A 
ATOM     55  H   UNL A   1      43.164  28.085  31.678  1.00  0.00     0.167 HD
ATOM     56  C   UNL A   1      44.871  25.938  30.940  1.00  0.00     0.074 A 
ATOM     57  C   UNL A   1      45.401  24.790  30.235  1.00  0.00     0.031 C 
ATOM     58  C   UNL A   1      45.476  26.523  32.006  1.00  0.00     0.034 A 
BRANCH  45  59
ATOM     59  C   UNL A   1      42.375  31.388  34.298  1.00  0.00     0.023 A 
ATOM     60  C   UNL A   1      41.484  31.366  35.386  1.00  0.00     0.031 A 
ATOM     61  C   UNL A   1      43.215  32.508  34.162  1.00  0.00     0.131 A 
ATOM     62  C   UNL A   1      41.397  32.471  36.245  1.00  0.00     0.055 A 
ATOM     63  C   UNL A   1      43.186  33.567  35.073  1.00  0.00     0.041 A 
ATOM     64  F   UNL A   1      44.073  32.600  33.134  1.00  0.00    -0.206 F 
ATOM     65  C   UNL A   1      42.261  33.560  36.112  1.00  0.00     0.022 A 
BRANCH  62  66
ATOM     66  S   UNL A   1      40.037  32.531  37.443  1.00  0.00     0.124 S 
ATOM     67  O   UNL A   1      39.181  31.445  36.973  1.00  0.00    -0.237 OA
ATOM     68  O   UNL A   1      40.722  32.302  38.710  1.00  0.00    -0.237 OA
ATOM     69  O   UNL A   1      39.482  33.872  37.267  1.00  0.00    -0.744 OA
ENDBRANCH  62  66
ENDBRANCH  45  59
BRANCH  46  70
ATOM     70  C   UNL A   1      42.451  24.254  27.260  1.00  0.00     0.023 A 
ATOM     71  C   UNL A   1      41.885  22.981  27.440  1.00  0.00     0.031 A 
ATOM     72  C   UNL A   1      43.113  24.514  26.046  1.00  0.00     0.131 A 
ATOM     73  C   UNL A   1      42.038  22.000  26.446  1.00  0.00     0.055 A 
ATOM     74  C   UNL A   1      43.208  23.555  25.036  1.00  0.00     0.041 A 
ATOM     75  F   UNL A   1      43.671  25.714  25.821  1.00  0.00    -0.206 F 
ATOM     76  C   UNL A   1      42.682  22.284  25.239  1.00  0.00     0.022 A 
BRANCH  73  77
ATOM     77  S   UNL A   1      41.474  20.313  26.797  1.00  0.00     0.124 S 
ATOM     78  O   UNL A   1      40.067  20.530  27.113  1.00  0.00    -0.237 OA
ATOM     79  O   UNL A   1      41.751  19.632  25.536  1.00  0.00    -0.237 OA
ATOM     80  O   UNL A   1      42.311  19.901  27.923  1.00  0.00    -0.744 OA
ENDBRANCH  73  77
ENDBRANCH  46  70
BRANCH  58  81
ATOM     81  C   UNL A   1      46.756  25.893  32.505  1.00  0.00     0.023 A 
ATOM     82  C   UNL A   1      47.998  26.149  31.898  1.00  0.00     0.031 A 
ATOM     83  C   UNL A   1      46.728  25.015  33.604  1.00  0.00     0.131 A 
ATOM     84  C   UNL A   1      49.149  25.489  32.355  1.00  0.00     0.055 A 
ATOM     85  C   UNL A   1      47.886  24.415  34.098  1.00  0.00     0.041 A 
ATOM     86  F   UNL A   1      45.570  24.729  34.222  1.00  0.00    -0.206 F 
ATOM     87  C   UNL A   1      49.104  24.639  33.463  1.00  0.00     0.022 A 
BRANCH  84  88
ATOM     88  S   UNL A   1      50.691  25.674  31.418  1.00  0.00     0.124 S 
ATOM     89  O   UNL A   1      51.194  26.952  31.912  1.00  0.00    -0.237 OA
ATOM     90  O   UNL A   1      51.446  24.492  31.822  1.00  0.00    -0.237 OA
ATOM     91  O   UNL A   1      50.248  25.679  30.024  1.00  0.00    -0.744 OA
ENDBRANCH  84  88
ENDBRANCH  58  81
ENDBRANCH  32  33
ENDBRANCH  24  27
ENDBRANCH  22  23
ENDBRANCH  21  22
ENDBRANCH   1  21
TORSDOF 18
ENDMDL
