MODEL 1
REMARK VINA RESULT:     -11.6      0.000      0.000
REMARK SMILES C[C@@H]1CCC[C@H](S[C@@H]2CCC[C@]([NH2+]C3CC3)(C(=O)NCCCCNC(=O)c3ccc(-c4c5nc(c(-c6cc(S(=O)(=O)[O-])ccc6F)c6ccc([nH]6)c(-c6cc(S(=O)(=O)[O-])ccc6F)c6nc(c(-c7cc(S(=O)(=O)[O-])ccc7F)c7ccc4[nH]7)C=C6)C=C5)cc3)C2)C1
REMARK SMILES IDX 22 1 21 2 20 3 19 4 17 5 18 6 12 8 8 9 9 10 90 11 10 12
REMARK SMILES IDX 11 13 7 14 6 15 1 16 2 17 3 18 91 19 4 20 5 21 13 22 14 25
REMARK SMILES IDX 15 26 16 27 23 28 24 29 25 30 26 32 27 33 28 34 89 35 29 36
REMARK SMILES IDX 88 37 30 38 31 39 32 40 82 41 33 42 87 43 81 44 83 45 34 46
REMARK SMILES IDX 86 47 80 48 79 49 35 51 67 52 47 53 66 54 48 55 51 56 65 57
REMARK SMILES IDX 84 58 49 59 50 60 64 62 85 63 52 64 36 65 37 66 45 67 38 68
REMARK SMILES IDX 44 69 46 70 43 71 39 72 40 73 41 74 42 75 68 76 69 77 77 78
REMARK SMILES IDX 70 79 76 80 78 81 75 82 71 83 72 84 73 85 74 86 53 87 54 88
REMARK SMILES IDX 62 89 55 90 61 91 63 92 60 93 56 94 57 95 58 96 59 97
REMARK H PARENT 19 7 13 23 13 24 24 31 83 50 51 61
REMARK Flexibility Score: inf
ROOT
ATOM      1  C   UNL A   1      31.673  31.610  26.462  1.00  0.00     0.023 C 
ENDROOT
BRANCH   1   2
ATOM      2  C   UNL A   1      31.701  30.087  26.385  1.00  0.00     0.023 C 
BRANCH   2   3
ATOM      3  C   UNL A   1      33.067  29.477  26.090  1.00  0.00     0.116 C 
BRANCH   3   4
ATOM      4  N   UNL A   1      33.488  29.635  24.711  1.00  0.00    -0.351 N 
ATOM      5  C   UNL A   1      33.467  28.793  23.633  1.00  0.00     0.281 C 
ATOM      6  O   UNL A   1      33.855  29.282  22.567  1.00  0.00    -0.268 OA
ATOM      7  H   UNL A   1      33.863  30.523  24.511  1.00  0.00     0.163 HD
BRANCH   5   8
ATOM      8  C   UNL A   1      32.958  27.317  23.726  1.00  0.00     0.176 C 
ATOM      9  C   UNL A   1      33.557  25.001  24.774  1.00  0.00     0.053 C 
ATOM     10  C   UNL A   1      33.710  24.355  23.400  1.00  0.00     0.015 C 
ATOM     11  C   UNL A   1      33.735  26.516  24.807  1.00  0.00     0.093 C 
ATOM     12  C   UNL A   1      32.966  25.140  22.326  1.00  0.00     0.008 C 
ATOM     13  C   UNL A   1      33.299  26.628  22.371  1.00  0.00     0.079 C 
BRANCH   9  14
ATOM     14  S   UNL A   1      34.450  24.108  26.133  1.00  0.00    -0.155 SA
BRANCH  14  15
ATOM     15  C   UNL A   1      33.379  22.793  26.889  1.00  0.00     0.047 C 
ATOM     16  C   UNL A   1      34.794  20.333  24.796  1.00  0.00     0.007 C 
ATOM     17  C   UNL A   1      33.637  20.432  25.796  1.00  0.00    -0.013 C 
ATOM     18  C   UNL A   1      32.238  20.621  25.171  1.00  0.00     0.003 C 
ATOM     19  C   UNL A   1      33.989  21.385  26.941  1.00  0.00     0.017 C 
ATOM     20  C   UNL A   1      31.496  21.942  25.388  1.00  0.00     0.001 C 
ATOM     21  C   UNL A   1      31.883  22.722  26.629  1.00  0.00     0.014 C 
ENDBRANCH  14  15
ENDBRANCH   9  14
BRANCH   8  22
ATOM     22  N   UNL A   1      31.505  27.296  24.013  1.00  0.00    -0.331 N 
ATOM     23  H   UNL A   1      31.377  27.820  24.879  1.00  0.00     0.347 HD
ATOM     24  H   UNL A   1      31.299  26.297  24.004  1.00  0.00     0.347 HD
BRANCH  22  25
ATOM     25  C   UNL A   1      30.511  27.827  23.059  1.00  0.00     0.183 C 
ATOM     26  C   UNL A   1      29.011  27.755  23.150  1.00  0.00     0.071 C 
ATOM     27  C   UNL A   1      29.699  29.061  23.374  1.00  0.00     0.071 C 
ENDBRANCH  22  25
ENDBRANCH   8  22
ENDBRANCH   5   8
ENDBRANCH   3   4
ENDBRANCH   2   3
ENDBRANCH   1   2
BRANCH   1  28
ATOM     28  C   UNL A   1      32.873  32.238  27.161  1.00  0.00     0.116 C 
BRANCH  28  29
ATOM     29  N   UNL A   1      32.636  33.614  27.572  1.00  0.00    -0.352 N 
ATOM     30  C   UNL A   1      33.267  34.359  28.541  1.00  0.00     0.251 C 
ATOM     31  H   UNL A   1      31.920  34.082  27.085  1.00  0.00     0.163 HD
ATOM     32  O   UNL A   1      32.851  35.471  28.823  1.00  0.00    -0.269 OA
BRANCH  30  33
ATOM     33  C   UNL A   1      34.419  33.775  29.257  1.00  0.00     0.039 A 
ATOM     34  C   UNL A   1      34.179  32.836  30.260  1.00  0.00     0.014 A 
ATOM     35  C   UNL A   1      35.726  34.115  28.899  1.00  0.00     0.014 A 
ATOM     36  C   UNL A   1      35.255  32.179  30.857  1.00  0.00     0.010 A 
ATOM     37  C   UNL A   1      36.792  33.402  29.436  1.00  0.00     0.010 A 
ATOM     38  C   UNL A   1      36.566  32.425  30.418  1.00  0.00    -0.014 A 
BRANCH  38  39
ATOM     39  C   UNL A   1      37.720  31.677  30.981  1.00  0.00     0.031 A 
ATOM     40  C   UNL A   1      38.211  31.996  32.366  1.00  0.00     0.074 A 
ATOM     41  C   UNL A   1      38.353  30.757  30.227  1.00  0.00     0.049 A 
ATOM     42  N   UNL A   1      39.254  31.532  33.002  1.00  0.00    -0.248 NA
ATOM     43  C   UNL A   1      37.440  32.996  33.125  1.00  0.00     0.031 C 
ATOM     44  C   UNL A   1      37.988  30.390  28.855  1.00  0.00     0.029 A 
ATOM     45  N   UNL A   1      39.443  29.968  30.499  1.00  0.00    -0.354 N 
ATOM     46  C   UNL A   1      39.267  32.179  34.232  1.00  0.00     0.074 A 
ATOM     47  C   UNL A   1      38.170  33.123  34.223  1.00  0.00     0.031 C 
ATOM     48  C   UNL A   1      38.826  29.437  28.416  1.00  0.00     0.029 A 
ATOM     49  C   UNL A   1      39.816  29.157  29.451  1.00  0.00     0.049 A 
ATOM     50  H   UNL A   1      39.913  29.980  31.363  1.00  0.00     0.167 HD
ATOM     51  C   UNL A   1      40.097  31.982  35.285  1.00  0.00     0.034 A 
ATOM     52  C   UNL A   1      40.850  28.299  29.334  1.00  0.00     0.034 A 
ATOM     53  C   UNL A   1      41.180  31.031  35.283  1.00  0.00     0.049 A 
ATOM     54  C   UNL A   1      41.781  28.124  30.510  1.00  0.00     0.074 A 
ATOM     55  C   UNL A   1      42.071  30.737  36.300  1.00  0.00     0.029 A 
ATOM     56  N   UNL A   1      41.519  30.217  34.210  1.00  0.00    -0.354 N 
ATOM     57  N   UNL A   1      41.756  28.720  31.680  1.00  0.00    -0.248 NA
ATOM     58  C   UNL A   1      42.868  27.149  30.357  1.00  0.00     0.031 C 
ATOM     59  C   UNL A   1      42.982  29.787  35.825  1.00  0.00     0.029 A 
ATOM     60  C   UNL A   1      42.615  29.433  34.535  1.00  0.00     0.049 A 
ATOM     61  H   UNL A   1      41.050  30.198  33.344  1.00  0.00     0.167 HD
ATOM     62  C   UNL A   1      42.801  28.163  32.411  1.00  0.00     0.074 A 
ATOM     63  C   UNL A   1      43.422  27.172  31.559  1.00  0.00     0.031 C 
ATOM     64  C   UNL A   1      43.215  28.444  33.673  1.00  0.00     0.034 A 
BRANCH  51  65
ATOM     65  C   UNL A   1      39.861  32.815  36.520  1.00  0.00     0.023 A 
ATOM     66  C   UNL A   1      38.986  32.388  37.534  1.00  0.00     0.031 A 
ATOM     67  C   UNL A   1      40.507  34.052  36.686  1.00  0.00     0.131 A 
ATOM     68  C   UNL A   1      38.731  33.217  38.636  1.00  0.00     0.055 A 
ATOM     69  C   UNL A   1      40.310  34.839  37.824  1.00  0.00     0.041 A 
ATOM     70  F   UNL A   1      41.336  34.523  35.741  1.00  0.00    -0.206 F 
ATOM     71  C   UNL A   1      39.408  34.427  38.801  1.00  0.00     0.022 A 
BRANCH  68  72
ATOM     72  S   UNL A   1      37.412  32.746  39.788  1.00  0.00     0.124 S 
ATOM     73  O   UNL A   1      36.264  32.638  38.890  1.00  0.00    -0.237 OA
ATOM     74  O   UNL A   1      37.908  31.492  40.342  1.00  0.00    -0.237 OA
ATOM     75  O   UNL A   1      37.359  33.866  40.725  1.00  0.00    -0.744 OA
ENDBRANCH  68  72
ENDBRANCH  51  65
BRANCH  52  76
ATOM     76  C   UNL A   1      41.087  27.552  28.063  1.00  0.00     0.023 A 
ATOM     77  C   UNL A   1      40.800  26.182  27.965  1.00  0.00     0.031 A 
ATOM     78  C   UNL A   1      41.679  28.180  26.952  1.00  0.00     0.131 A 
ATOM     79  C   UNL A   1      41.174  25.467  26.814  1.00  0.00     0.055 A 
ATOM     80  C   UNL A   1      41.987  27.479  25.785  1.00  0.00     0.041 A 
ATOM     81  F   UNL A   1      41.971  29.490  26.986  1.00  0.00    -0.206 F 
ATOM     82  C   UNL A   1      41.754  26.109  25.718  1.00  0.00     0.022 A 
BRANCH  79  83
ATOM     83  S   UNL A   1      41.013  23.660  26.827  1.00  0.00     0.124 S 
ATOM     84  O   UNL A   1      41.406  23.337  28.194  1.00  0.00    -0.237 OA
ATOM     85  O   UNL A   1      39.601  23.482  26.506  1.00  0.00    -0.237 OA
ATOM     86  O   UNL A   1      41.947  23.230  25.790  1.00  0.00    -0.744 OA
ENDBRANCH  79  83
ENDBRANCH  52  76
BRANCH  64  87
ATOM     87  C   UNL A   1      44.354  27.620  34.222  1.00  0.00     0.023 A 
ATOM     88  C   UNL A   1      44.131  26.423  34.922  1.00  0.00     0.031 A 
ATOM     89  C   UNL A   1      45.681  28.050  34.048  1.00  0.00     0.131 A 
ATOM     90  C   UNL A   1      45.215  25.725  35.474  1.00  0.00     0.055 A 
ATOM     91  C   UNL A   1      46.760  27.320  34.547  1.00  0.00     0.041 A 
ATOM     92  F   UNL A   1      45.951  29.188  33.388  1.00  0.00    -0.206 F 
ATOM     93  C   UNL A   1      46.530  26.157  35.276  1.00  0.00     0.022 A 
BRANCH  90  94
ATOM     94  S   UNL A   1      44.880  24.293  36.535  1.00  0.00     0.124 S 
ATOM     95  O   UNL A   1      44.068  23.452  35.663  1.00  0.00    -0.237 OA
ATOM     96  O   UNL A   1      46.223  23.800  36.827  1.00  0.00    -0.237 OA
ATOM     97  O   UNL A   1      44.172  24.870  37.677  1.00  0.00    -0.744 OA
ENDBRANCH  90  94
ENDBRANCH  64  87
ENDBRANCH  38  39
ENDBRANCH  30  33
ENDBRANCH  28  29
ENDBRANCH   1  28
TORSDOF 18
ENDMDL
MODEL 2
REMARK VINA RESULT:     -11.5      6.063      9.622
REMARK SMILES C[C@@H]1CCC[C@H](S[C@@H]2CCC[C@]([NH2+]C3CC3)(C(=O)NCCCCNC(=O)c3ccc(-c4c5nc(c(-c6cc(S(=O)(=O)[O-])ccc6F)c6ccc([nH]6)c(-c6cc(S(=O)(=O)[O-])ccc6F)c6nc(c(-c7cc(S(=O)(=O)[O-])ccc7F)c7ccc4[nH]7)C=C6)C=C5)cc3)C2)C1
REMARK SMILES IDX 22 1 21 2 20 3 19 4 17 5 18 6 12 8 8 9 9 10 90 11 10 12
REMARK SMILES IDX 11 13 7 14 6 15 1 16 2 17 3 18 91 19 4 20 5 21 13 22 14 25
REMARK SMILES IDX 15 26 16 27 23 28 24 29 25 30 26 32 27 33 28 34 89 35 29 36
REMARK SMILES IDX 88 37 30 38 31 39 32 40 82 41 33 42 87 43 81 44 83 45 34 46
REMARK SMILES IDX 86 47 80 48 79 49 35 51 67 52 47 53 66 54 48 55 51 56 65 57
REMARK SMILES IDX 84 58 49 59 50 60 64 62 85 63 52 64 36 65 37 66 45 67 38 68
REMARK SMILES IDX 44 69 46 70 43 71 39 72 40 73 41 74 42 75 68 76 69 77 77 78
REMARK SMILES IDX 70 79 76 80 78 81 75 82 71 83 72 84 73 85 74 86 53 87 54 88
REMARK SMILES IDX 62 89 55 90 61 91 63 92 60 93 56 94 57 95 58 96 59 97
REMARK H PARENT 19 7 13 23 13 24 24 31 83 50 51 61
REMARK Flexibility Score: inf
ROOT
ATOM      1  C   UNL A   1      37.786  20.831  25.061  1.00  0.00     0.023 C 
ENDROOT
BRANCH   1   2
ATOM      2  C   UNL A   1      37.052  22.050  24.513  1.00  0.00     0.023 C 
BRANCH   2   3
ATOM      3  C   UNL A   1      36.548  23.032  25.566  1.00  0.00     0.116 C 
BRANCH   3   4
ATOM      4  N   UNL A   1      35.805  22.400  26.640  1.00  0.00    -0.351 N 
ATOM      5  C   UNL A   1      34.478  22.396  26.972  1.00  0.00     0.281 C 
ATOM      6  O   UNL A   1      34.172  21.686  27.935  1.00  0.00    -0.268 OA
ATOM      7  H   UNL A   1      36.366  21.870  27.250  1.00  0.00     0.163 HD
BRANCH   5   8
ATOM      8  C   UNL A   1      33.406  23.206  26.172  1.00  0.00     0.176 C 
ATOM      9  C   UNL A   1      32.756  25.646  25.500  1.00  0.00     0.053 C 
ATOM     10  C   UNL A   1      31.432  25.561  26.254  1.00  0.00     0.015 C 
ATOM     11  C   UNL A   1      33.842  24.685  25.977  1.00  0.00     0.093 C 
ATOM     12  C   UNL A   1      31.000  24.114  26.466  1.00  0.00     0.008 C 
ATOM     13  C   UNL A   1      32.122  23.263  27.052  1.00  0.00     0.079 C 
BRANCH   9  14
ATOM     14  S   UNL A   1      33.355  27.378  25.217  1.00  0.00    -0.155 SA
BRANCH  14  15
ATOM     15  C   UNL A   1      33.171  27.869  23.436  1.00  0.00     0.047 C 
ATOM     16  C   UNL A   1      29.755  26.996  23.470  1.00  0.00     0.007 C 
ATOM     17  C   UNL A   1      30.800  27.416  22.431  1.00  0.00    -0.013 C 
ATOM     18  C   UNL A   1      31.420  26.262  21.614  1.00  0.00     0.003 C 
ATOM     19  C   UNL A   1      31.793  28.413  23.033  1.00  0.00     0.017 C 
ATOM     20  C   UNL A   1      32.900  25.923  21.804  1.00  0.00     0.001 C 
ATOM     21  C   UNL A   1      33.778  27.052  22.307  1.00  0.00     0.014 C 
ENDBRANCH  14  15
ENDBRANCH   9  14
BRANCH   8  22
ATOM     22  N   UNL A   1      33.157  22.565  24.859  1.00  0.00    -0.331 N 
ATOM     23  H   UNL A   1      34.055  22.542  24.378  1.00  0.00     0.347 HD
ATOM     24  H   UNL A   1      32.405  23.141  24.480  1.00  0.00     0.347 HD
BRANCH  22  25
ATOM     25  C   UNL A   1      32.593  21.206  24.748  1.00  0.00     0.183 C 
ATOM     26  C   UNL A   1      32.397  20.384  23.502  1.00  0.00     0.071 C 
ATOM     27  C   UNL A   1      33.472  20.009  24.468  1.00  0.00     0.071 C 
ENDBRANCH  22  25
ENDBRANCH   8  22
ENDBRANCH   5   8
ENDBRANCH   3   4
ENDBRANCH   2   3
ENDBRANCH   1   2
BRANCH   1  28
ATOM     28  C   UNL A   1      39.095  21.141  25.778  1.00  0.00     0.116 C 
BRANCH  28  29
ATOM     29  N   UNL A   1      39.971  19.983  25.891  1.00  0.00    -0.352 N 
ATOM     30  C   UNL A   1      41.323  19.929  26.132  1.00  0.00     0.251 C 
ATOM     31  H   UNL A   1      39.530  19.110  25.778  1.00  0.00     0.163 HD
ATOM     32  O   UNL A   1      41.910  18.860  26.078  1.00  0.00    -0.269 OA
BRANCH  30  33
ATOM     33  C   UNL A   1      42.052  21.183  26.411  1.00  0.00     0.039 A 
ATOM     34  C   UNL A   1      42.339  22.042  25.350  1.00  0.00     0.014 A 
ATOM     35  C   UNL A   1      42.399  21.528  27.720  1.00  0.00     0.014 A 
ATOM     36  C   UNL A   1      42.910  23.287  25.612  1.00  0.00     0.010 A 
ATOM     37  C   UNL A   1      42.891  22.800  27.986  1.00  0.00     0.010 A 
ATOM     38  C   UNL A   1      43.150  23.693  26.935  1.00  0.00    -0.014 A 
BRANCH  38  39
ATOM     39  C   UNL A   1      43.679  25.047  27.241  1.00  0.00     0.031 A 
ATOM     40  C   UNL A   1      42.761  26.095  27.806  1.00  0.00     0.074 A 
ATOM     41  C   UNL A   1      44.962  25.343  26.957  1.00  0.00     0.049 A 
ATOM     42  N   UNL A   1      42.998  27.357  28.050  1.00  0.00    -0.248 NA
ATOM     43  C   UNL A   1      41.383  25.672  28.109  1.00  0.00     0.031 C 
ATOM     44  C   UNL A   1      45.936  24.417  26.371  1.00  0.00     0.029 A 
ATOM     45  N   UNL A   1      45.671  26.509  27.111  1.00  0.00    -0.354 N 
ATOM     46  C   UNL A   1      41.804  27.880  28.534  1.00  0.00     0.074 A 
ATOM     47  C   UNL A   1      40.825  26.815  28.477  1.00  0.00     0.031 C 
ATOM     48  C   UNL A   1      47.115  25.045  26.235  1.00  0.00     0.029 A 
ATOM     49  C   UNL A   1      46.974  26.429  26.677  1.00  0.00     0.049 A 
ATOM     50  H   UNL A   1      45.283  27.327  27.498  1.00  0.00     0.167 HD
ATOM     51  C   UNL A   1      41.553  29.123  29.011  1.00  0.00     0.034 A 
ATOM     52  C   UNL A   1      47.939  27.369  26.623  1.00  0.00     0.034 A 
ATOM     53  C   UNL A   1      42.542  30.171  29.069  1.00  0.00     0.049 A 
ATOM     54  C   UNL A   1      47.624  28.756  27.130  1.00  0.00     0.074 A 
ATOM     55  C   UNL A   1      42.403  31.462  29.550  1.00  0.00     0.029 A 
ATOM     56  N   UNL A   1      43.855  30.049  28.635  1.00  0.00    -0.354 N 
ATOM     57  N   UNL A   1      46.497  29.223  27.617  1.00  0.00    -0.248 NA
ATOM     58  C   UNL A   1      48.714  29.740  27.095  1.00  0.00     0.031 C 
ATOM     59  C   UNL A   1      43.613  32.135  29.354  1.00  0.00     0.029 A 
ATOM     60  C   UNL A   1      44.531  31.244  28.820  1.00  0.00     0.049 A 
ATOM     61  H   UNL A   1      44.249  29.232  28.250  1.00  0.00     0.167 HD
ATOM     62  C   UNL A   1      46.757  30.541  27.979  1.00  0.00     0.074 A 
ATOM     63  C   UNL A   1      48.150  30.788  27.673  1.00  0.00     0.031 C 
ATOM     64  C   UNL A   1      45.923  31.468  28.515  1.00  0.00     0.034 A 
BRANCH  51  65
ATOM     65  C   UNL A   1      40.157  29.410  29.503  1.00  0.00     0.023 A 
ATOM     66  C   UNL A   1      39.867  29.486  30.877  1.00  0.00     0.031 A 
ATOM     67  C   UNL A   1      39.101  29.602  28.595  1.00  0.00     0.131 A 
ATOM     68  C   UNL A   1      38.546  29.681  31.304  1.00  0.00     0.055 A 
ATOM     69  C   UNL A   1      37.801  29.875  29.026  1.00  0.00     0.041 A 
ATOM     70  F   UNL A   1      39.314  29.518  27.273  1.00  0.00    -0.206 F 
ATOM     71  C   UNL A   1      37.515  29.904  30.389  1.00  0.00     0.022 A 
BRANCH  68  72
ATOM     72  S   UNL A   1      38.175  29.520  33.072  1.00  0.00     0.124 S 
ATOM     73  O   UNL A   1      39.455  29.053  33.599  1.00  0.00    -0.237 OA
ATOM     74  O   UNL A   1      37.789  30.877  33.440  1.00  0.00    -0.237 OA
ATOM     75  O   UNL A   1      37.097  28.533  33.108  1.00  0.00    -0.744 OA
ENDBRANCH  68  72
ENDBRANCH  51  65
BRANCH  52  76
ATOM     76  C   UNL A   1      49.285  27.057  26.057  1.00  0.00     0.023 A 
ATOM     77  C   UNL A   1      49.653  27.501  24.778  1.00  0.00     0.031 A 
ATOM     78  C   UNL A   1      50.194  26.242  26.755  1.00  0.00     0.131 A 
ATOM     79  C   UNL A   1      50.859  27.068  24.204  1.00  0.00     0.055 A 
ATOM     80  C   UNL A   1      51.422  25.868  26.208  1.00  0.00     0.041 A 
ATOM     81  F   UNL A   1      49.898  25.791  27.985  1.00  0.00    -0.206 F 
ATOM     82  C   UNL A   1      51.753  26.265  24.915  1.00  0.00     0.022 A 
BRANCH  79  83
ATOM     83  S   UNL A   1      51.181  27.461  22.462  1.00  0.00     0.124 S 
ATOM     84  O   UNL A   1      51.062  28.915  22.460  1.00  0.00    -0.237 OA
ATOM     85  O   UNL A   1      52.525  26.927  22.277  1.00  0.00    -0.237 OA
ATOM     86  O   UNL A   1      50.122  26.746  21.753  1.00  0.00    -0.744 OA
ENDBRANCH  79  83
ENDBRANCH  52  76
BRANCH  64  87
ATOM     87  C   UNL A   1      46.519  32.811  28.860  1.00  0.00     0.023 A 
ATOM     88  C   UNL A   1      46.517  33.878  27.946  1.00  0.00     0.031 A 
ATOM     89  C   UNL A   1      47.105  33.018  30.121  1.00  0.00     0.131 A 
ATOM     90  C   UNL A   1      47.143  35.087  28.284  1.00  0.00     0.055 A 
ATOM     91  C   UNL A   1      47.672  34.243  30.474  1.00  0.00     0.041 A 
ATOM     92  F   UNL A   1      47.135  32.033  31.032  1.00  0.00    -0.206 F 
ATOM     93  C   UNL A   1      47.705  35.282  29.549  1.00  0.00     0.022 A 
BRANCH  90  94
ATOM     94  S   UNL A   1      47.295  36.373  27.014  1.00  0.00     0.124 S 
ATOM     95  O   UNL A   1      47.995  35.666  25.947  1.00  0.00    -0.237 OA
ATOM     96  O   UNL A   1      45.901  36.713  26.746  1.00  0.00    -0.237 OA
ATOM     97  O   UNL A   1      48.070  37.420  27.678  1.00  0.00    -0.744 OA
ENDBRANCH  90  94
ENDBRANCH  64  87
ENDBRANCH  38  39
ENDBRANCH  30  33
ENDBRANCH  28  29
ENDBRANCH   1  28
TORSDOF 18
ENDMDL
MODEL 3
REMARK VINA RESULT:     -11.4      1.660      7.682
REMARK SMILES C[C@@H]1CCC[C@H](S[C@@H]2CCC[C@]([NH2+]C3CC3)(C(=O)NCCCCNC(=O)c3ccc(-c4c5nc(c(-c6cc(S(=O)(=O)[O-])ccc6F)c6ccc([nH]6)c(-c6cc(S(=O)(=O)[O-])ccc6F)c6nc(c(-c7cc(S(=O)(=O)[O-])ccc7F)c7ccc4[nH]7)C=C6)C=C5)cc3)C2)C1
REMARK SMILES IDX 22 1 21 2 20 3 19 4 17 5 18 6 12 8 8 9 9 10 90 11 10 12
REMARK SMILES IDX 11 13 7 14 6 15 1 16 2 17 3 18 91 19 4 20 5 21 13 22 14 25
REMARK SMILES IDX 15 26 16 27 23 28 24 29 25 30 26 32 27 33 28 34 89 35 29 36
REMARK SMILES IDX 88 37 30 38 31 39 32 40 82 41 33 42 87 43 81 44 83 45 34 46
REMARK SMILES IDX 86 47 80 48 79 49 35 51 67 52 47 53 66 54 48 55 51 56 65 57
REMARK SMILES IDX 84 58 49 59 50 60 64 62 85 63 52 64 36 65 37 66 45 67 38 68
REMARK SMILES IDX 44 69 46 70 43 71 39 72 40 73 41 74 42 75 68 76 69 77 77 78
REMARK SMILES IDX 70 79 76 80 78 81 75 82 71 83 72 84 73 85 74 86 53 87 54 88
REMARK SMILES IDX 62 89 55 90 61 91 63 92 60 93 56 94 57 95 58 96 59 97
REMARK H PARENT 19 7 13 23 13 24 24 31 83 50 51 61
REMARK Flexibility Score: inf
ROOT
ATOM      1  C   UNL A   1      31.421  31.998  26.961  1.00  0.00     0.023 C 
ENDROOT
BRANCH   1   2
ATOM      2  C   UNL A   1      31.402  30.959  25.845  1.00  0.00     0.023 C 
BRANCH   2   3
ATOM      3  C   UNL A   1      32.507  29.910  25.916  1.00  0.00     0.116 C 
BRANCH   3   4
ATOM      4  N   UNL A   1      33.273  29.789  24.690  1.00  0.00    -0.351 N 
ATOM      5  C   UNL A   1      33.199  28.927  23.631  1.00  0.00     0.281 C 
ATOM      6  O   UNL A   1      33.984  29.153  22.704  1.00  0.00    -0.268 OA
ATOM      7  H   UNL A   1      33.988  30.461  24.603  1.00  0.00     0.163 HD
BRANCH   5   8
ATOM      8  C   UNL A   1      32.170  27.751  23.572  1.00  0.00     0.176 C 
ATOM      9  C   UNL A   1      31.733  25.356  24.521  1.00  0.00     0.053 C 
ATOM     10  C   UNL A   1      31.800  24.732  23.130  1.00  0.00     0.015 C 
ATOM     11  C   UNL A   1      32.456  26.692  24.672  1.00  0.00     0.093 C 
ATOM     12  C   UNL A   1      31.537  25.764  22.039  1.00  0.00     0.008 C 
ATOM     13  C   UNL A   1      32.392  27.014  22.218  1.00  0.00     0.079 C 
BRANCH   9  14
ATOM     14  S   UNL A   1      32.059  24.163  25.902  1.00  0.00    -0.155 SA
BRANCH  14  15
ATOM     15  C   UNL A   1      33.875  24.034  26.265  1.00  0.00     0.047 C 
ATOM     16  C   UNL A   1      34.525  22.901  22.990  1.00  0.00     0.007 C 
ATOM     17  C   UNL A   1      35.300  23.061  24.301  1.00  0.00    -0.013 C 
ATOM     18  C   UNL A   1      35.471  21.769  25.129  1.00  0.00     0.003 C 
ATOM     19  C   UNL A   1      34.812  24.288  25.075  1.00  0.00     0.017 C 
ATOM     20  C   UNL A   1      34.764  21.650  26.482  1.00  0.00     0.001 C 
ATOM     21  C   UNL A   1      34.441  22.959  27.177  1.00  0.00     0.014 C 
ENDBRANCH  14  15
ENDBRANCH   9  14
BRANCH   8  22
ATOM     22  N   UNL A   1      30.790  28.273  23.706  1.00  0.00    -0.331 N 
ATOM     23  H   UNL A   1      30.681  28.546  24.682  1.00  0.00     0.347 HD
ATOM     24  H   UNL A   1      30.233  27.500  23.342  1.00  0.00     0.347 HD
BRANCH  22  25
ATOM     25  C   UNL A   1      30.303  29.411  22.902  1.00  0.00     0.183 C 
ATOM     26  C   UNL A   1      29.102  29.458  21.996  1.00  0.00     0.071 C 
ATOM     27  C   UNL A   1      29.068  30.185  23.300  1.00  0.00     0.071 C 
ENDBRANCH  22  25
ENDBRANCH   8  22
ENDBRANCH   5   8
ENDBRANCH   3   4
ENDBRANCH   2   3
ENDBRANCH   1   2
BRANCH   1  28
ATOM     28  C   UNL A   1      32.774  32.660  27.196  1.00  0.00     0.116 C 
BRANCH  28  29
ATOM     29  N   UNL A   1      32.664  33.992  27.775  1.00  0.00    -0.352 N 
ATOM     30  C   UNL A   1      33.413  34.579  28.767  1.00  0.00     0.251 C 
ATOM     31  H   UNL A   1      31.948  34.554  27.401  1.00  0.00     0.163 HD
ATOM     32  O   UNL A   1      33.096  35.674  29.203  1.00  0.00    -0.269 OA
BRANCH  30  33
ATOM     33  C   UNL A   1      34.571  33.848  29.318  1.00  0.00     0.039 A 
ATOM     34  C   UNL A   1      35.856  34.289  29.002  1.00  0.00     0.014 A 
ATOM     35  C   UNL A   1      34.383  32.767  30.184  1.00  0.00     0.014 A 
ATOM     36  C   UNL A   1      36.957  33.692  29.615  1.00  0.00     0.010 A 
ATOM     37  C   UNL A   1      35.475  32.228  30.855  1.00  0.00     0.010 A 
ATOM     38  C   UNL A   1      36.772  32.688  30.579  1.00  0.00    -0.014 A 
BRANCH  38  39
ATOM     39  C   UNL A   1      37.925  32.096  31.305  1.00  0.00     0.031 A 
ATOM     40  C   UNL A   1      38.710  30.979  30.674  1.00  0.00     0.074 A 
ATOM     41  C   UNL A   1      38.226  32.526  32.546  1.00  0.00     0.049 A 
ATOM     42  N   UNL A   1      39.683  30.265  31.176  1.00  0.00    -0.248 NA
ATOM     43  C   UNL A   1      38.326  30.594  29.305  1.00  0.00     0.031 C 
ATOM     44  C   UNL A   1      37.511  33.579  33.274  1.00  0.00     0.029 A 
ATOM     45  N   UNL A   1      39.204  32.127  33.423  1.00  0.00    -0.354 N 
ATOM     46  C   UNL A   1      40.028  29.349  30.189  1.00  0.00     0.074 A 
ATOM     47  C   UNL A   1      39.109  29.549  29.088  1.00  0.00     0.031 C 
ATOM     48  C   UNL A   1      38.087  33.753  34.475  1.00  0.00     0.029 A 
ATOM     49  C   UNL A   1      39.179  32.796  34.626  1.00  0.00     0.049 A 
ATOM     50  H   UNL A   1      39.863  31.427  33.211  1.00  0.00     0.167 HD
ATOM     51  C   UNL A   1      41.038  28.445  30.186  1.00  0.00     0.034 A 
ATOM     52  C   UNL A   1      39.937  32.642  35.729  1.00  0.00     0.034 A 
ATOM     53  C   UNL A   1      41.950  28.263  31.287  1.00  0.00     0.049 A 
ATOM     54  C   UNL A   1      41.034  31.604  35.713  1.00  0.00     0.074 A 
ATOM     55  C   UNL A   1      43.020  27.389  31.385  1.00  0.00     0.029 A 
ATOM     56  N   UNL A   1      41.904  28.969  32.482  1.00  0.00    -0.354 N 
ATOM     57  N   UNL A   1      41.368  30.770  34.755  1.00  0.00    -0.248 NA
ATOM     58  C   UNL A   1      41.866  31.497  36.919  1.00  0.00     0.031 C 
ATOM     59  C   UNL A   1      43.584  27.528  32.658  1.00  0.00     0.029 A 
ATOM     60  C   UNL A   1      42.914  28.539  33.328  1.00  0.00     0.049 A 
ATOM     61  H   UNL A   1      41.248  29.671  32.698  1.00  0.00     0.167 HD
ATOM     62  C   UNL A   1      42.471  30.068  35.233  1.00  0.00     0.074 A 
ATOM     63  C   UNL A   1      42.757  30.590  36.552  1.00  0.00     0.031 C 
ATOM     64  C   UNL A   1      43.186  29.079  34.638  1.00  0.00     0.034 A 
BRANCH  51  65
ATOM     65  C   UNL A   1      41.200  27.588  28.956  1.00  0.00     0.023 A 
ATOM     66  C   UNL A   1      42.205  27.851  28.009  1.00  0.00     0.031 A 
ATOM     67  C   UNL A   1      40.338  26.503  28.718  1.00  0.00     0.131 A 
ATOM     68  C   UNL A   1      42.285  27.082  26.839  1.00  0.00     0.055 A 
ATOM     69  C   UNL A   1      40.472  25.692  27.589  1.00  0.00     0.041 A 
ATOM     70  F   UNL A   1      39.344  26.219  29.574  1.00  0.00    -0.206 F 
ATOM     71  C   UNL A   1      41.443  25.987  26.635  1.00  0.00     0.022 A 
BRANCH  68  72
ATOM     72  S   UNL A   1      43.427  27.609  25.532  1.00  0.00     0.124 S 
ATOM     73  O   UNL A   1      42.506  27.883  24.432  1.00  0.00    -0.237 OA
ATOM     74  O   UNL A   1      44.074  28.772  26.128  1.00  0.00    -0.237 OA
ATOM     75  O   UNL A   1      44.288  26.445  25.340  1.00  0.00    -0.744 OA
ENDBRANCH  68  72
ENDBRANCH  51  65
BRANCH  52  76
ATOM     76  C   UNL A   1      39.690  33.463  36.952  1.00  0.00     0.023 A 
ATOM     77  C   UNL A   1      39.058  32.913  38.078  1.00  0.00     0.031 A 
ATOM     78  C   UNL A   1      40.010  34.833  36.983  1.00  0.00     0.131 A 
ATOM     79  C   UNL A   1      38.697  33.739  39.154  1.00  0.00     0.055 A 
ATOM     80  C   UNL A   1      39.709  35.637  38.084  1.00  0.00     0.041 A 
ATOM     81  F   UNL A   1      40.619  35.413  35.937  1.00  0.00    -0.206 F 
ATOM     82  C   UNL A   1      39.030  35.095  39.171  1.00  0.00     0.022 A 
BRANCH  79  83
ATOM     83  S   UNL A   1      37.666  33.042  40.474  1.00  0.00     0.124 S 
ATOM     84  O   UNL A   1      38.306  31.750  40.698  1.00  0.00    -0.237 OA
ATOM     85  O   UNL A   1      37.826  34.030  41.535  1.00  0.00    -0.237 OA
ATOM     86  O   UNL A   1      36.337  32.985  39.870  1.00  0.00    -0.744 OA
ENDBRANCH  79  83
ENDBRANCH  52  76
BRANCH  64  87
ATOM     87  C   UNL A   1      44.382  28.547  35.391  1.00  0.00     0.023 A 
ATOM     88  C   UNL A   1      44.257  27.542  36.364  1.00  0.00     0.031 A 
ATOM     89  C   UNL A   1      45.663  29.066  35.133  1.00  0.00     0.131 A 
ATOM     90  C   UNL A   1      45.385  27.127  37.087  1.00  0.00     0.055 A 
ATOM     91  C   UNL A   1      46.791  28.605  35.812  1.00  0.00     0.041 A 
ATOM     92  F   UNL A   1      45.839  30.029  34.214  1.00  0.00    -0.206 F 
ATOM     93  C   UNL A   1      46.654  27.640  36.805  1.00  0.00     0.022 A 
BRANCH  90  94
ATOM     94  S   UNL A   1      45.158  25.972  38.467  1.00  0.00     0.124 S 
ATOM     95  O   UNL A   1      45.053  24.691  37.777  1.00  0.00    -0.237 OA
ATOM     96  O   UNL A   1      46.374  26.178  39.248  1.00  0.00    -0.237 OA
ATOM     97  O   UNL A   1      43.927  26.437  39.104  1.00  0.00    -0.744 OA
ENDBRANCH  90  94
ENDBRANCH  64  87
ENDBRANCH  38  39
ENDBRANCH  30  33
ENDBRANCH  28  29
ENDBRANCH   1  28
TORSDOF 18
ENDMDL
