MODEL 1
REMARK VINA RESULT:     -13.5      0.000      0.000
REMARK SMILES O=C(NCCCCNC(=O)[C@@H](Cc1ccc(O)cc1)Nc1c2ccccc2nc2ccccc12)c1ccc(-c2c3nc(c(-c4cc(S(=O)(=O)[O-])ccc4F)c4ccc([nH]4)c(-c4cc(S(=O)(=O)[O-])ccc4F)c4nc(c(-c5cc(S(=O)(=O)[O-])ccc5F)c5ccc2[nH]5)C=C4)C=C3)cc1
REMARK SMILES IDX 5 1 4 2 3 3 1 4 2 5 35 7 36 8 97 9 37 10 96 11 38 12 39 13
REMARK SMILES IDX 40 14 90 15 41 16 95 17 89 18 91 19 42 20 94 21 88 22 87 23
REMARK SMILES IDX 43 25 75 26 55 27 74 28 56 29 59 30 73 31 92 32 57 33 58 34
REMARK SMILES IDX 72 36 93 37 60 38 44 39 45 40 53 41 46 42 52 43 54 44 51 45
REMARK SMILES IDX 47 46 48 47 49 48 50 49 76 50 77 51 85 52 78 53 84 54 86 55
REMARK SMILES IDX 83 56 79 57 80 58 81 59 82 60 61 61 62 62 70 63 63 64 69 65
REMARK SMILES IDX 71 66 68 67 64 68 65 69 66 70 67 71 6 72 7 73 8 74 9 75
REMARK SMILES IDX 10 77 11 78 12 79 13 80 14 81 19 82 15 83 18 84 16 85 17 86
REMARK SMILES IDX 20 88 21 90 22 91 34 92 23 93 27 94 29 95 33 96 24 97 26 98
REMARK SMILES IDX 28 99 30 100 32 101 25 102 31 103
REMARK H PARENT 3 6 91 24 59 35 8 76 17 87 20 89
REMARK Flexibility Score: inf
ROOT
ATOM      1  C   UNL A   1      31.939  28.142  25.721  1.00  0.00     0.023 C 
ENDROOT
BRANCH   1   2
ATOM      2  C   UNL A   1      32.958  29.274  25.748  1.00  0.00     0.116 C 
BRANCH   2   3
ATOM      3  N   UNL A   1      32.497  30.500  26.395  1.00  0.00    -0.352 N 
ATOM      4  O   UNL A   1      32.690  32.330  27.717  1.00  0.00    -0.269 OA
ATOM      5  C   UNL A   1      33.220  31.341  27.217  1.00  0.00     0.251 C 
ATOM      6  H   UNL A   1      31.562  30.755  26.225  1.00  0.00     0.163 HD
BRANCH   5   7
ATOM      7  C   UNL A   1      34.626  30.980  27.514  1.00  0.00     0.039 A 
ATOM      8  C   UNL A   1      34.955  29.645  27.757  1.00  0.00     0.014 A 
ATOM      9  C   UNL A   1      35.565  31.988  27.740  1.00  0.00     0.014 A 
ATOM     10  C   UNL A   1      36.128  29.348  28.439  1.00  0.00     0.010 A 
ATOM     11  C   UNL A   1      36.795  31.667  28.329  1.00  0.00     0.010 A 
ATOM     12  C   UNL A   1      37.057  30.355  28.757  1.00  0.00    -0.014 A 
BRANCH  12  13
ATOM     13  C   UNL A   1      38.256  30.002  29.574  1.00  0.00     0.031 A 
ATOM     14  C   UNL A   1      38.368  30.421  31.022  1.00  0.00     0.074 A 
ATOM     15  C   UNL A   1      39.214  29.223  29.033  1.00  0.00     0.049 A 
ATOM     16  N   UNL A   1      39.319  30.166  31.886  1.00  0.00    -0.248 NA
ATOM     17  C   UNL A   1      37.276  31.242  31.568  1.00  0.00     0.031 C 
ATOM     18  C   UNL A   1      39.222  28.744  27.650  1.00  0.00     0.029 A 
ATOM     19  N   UNL A   1      40.337  28.661  29.585  1.00  0.00    -0.354 N 
ATOM     20  C   UNL A   1      38.967  30.828  33.061  1.00  0.00     0.074 A 
ATOM     21  C   UNL A   1      37.720  31.513  32.788  1.00  0.00     0.031 C 
ATOM     22  C   UNL A   1      40.249  27.899  27.483  1.00  0.00     0.029 A 
ATOM     23  C   UNL A   1      41.020  27.837  28.720  1.00  0.00     0.049 A 
ATOM     24  H   UNL A   1      40.628  28.832  30.510  1.00  0.00     0.167 HD
ATOM     25  C   UNL A   1      39.618  30.861  34.252  1.00  0.00     0.034 A 
ATOM     26  C   UNL A   1      42.146  27.118  28.892  1.00  0.00     0.034 A 
ATOM     27  C   UNL A   1      40.842  30.143  34.526  1.00  0.00     0.049 A 
ATOM     28  C   UNL A   1      42.844  27.165  30.222  1.00  0.00     0.074 A 
ATOM     29  C   UNL A   1      41.563  30.084  35.707  1.00  0.00     0.029 A 
ATOM     30  N   UNL A   1      41.527  29.356  33.608  1.00  0.00    -0.354 N 
ATOM     31  N   UNL A   1      42.503  27.813  31.311  1.00  0.00    -0.248 NA
ATOM     32  C   UNL A   1      44.081  26.385  30.343  1.00  0.00     0.031 C 
ATOM     33  C   UNL A   1      42.709  29.310  35.488  1.00  0.00     0.029 A 
ATOM     34  C   UNL A   1      42.672  28.829  34.190  1.00  0.00     0.049 A 
ATOM     35  H   UNL A   1      41.241  29.196  32.680  1.00  0.00     0.167 HD
ATOM     36  C   UNL A   1      43.482  27.509  32.252  1.00  0.00     0.074 A 
ATOM     37  C   UNL A   1      44.409  26.600  31.608  1.00  0.00     0.031 C 
ATOM     38  C   UNL A   1      43.601  27.942  33.533  1.00  0.00     0.034 A 
BRANCH  25  39
ATOM     39  C   UNL A   1      39.046  31.749  35.335  1.00  0.00     0.023 A 
ATOM     40  C   UNL A   1      38.505  31.228  36.524  1.00  0.00     0.031 A 
ATOM     41  C   UNL A   1      39.019  33.146  35.160  1.00  0.00     0.131 A 
ATOM     42  C   UNL A   1      37.898  32.088  37.453  1.00  0.00     0.055 A 
ATOM     43  C   UNL A   1      38.484  34.002  36.125  1.00  0.00     0.041 A 
ATOM     44  F   UNL A   1      39.505  33.702  34.039  1.00  0.00    -0.206 F 
ATOM     45  C   UNL A   1      37.903  33.473  37.273  1.00  0.00     0.022 A 
BRANCH  42  46
ATOM     46  S   UNL A   1      36.967  31.359  38.830  1.00  0.00     0.124 S 
ATOM     47  O   UNL A   1      37.919  31.484  39.931  1.00  0.00    -0.237 OA
ATOM     48  O   UNL A   1      35.790  32.217  38.903  1.00  0.00    -0.237 OA
ATOM     49  O   UNL A   1      36.715  29.989  38.388  1.00  0.00    -0.744 OA
ENDBRANCH  42  46
ENDBRANCH  25  39
BRANCH  26  50
ATOM     50  C   UNL A   1      42.694  26.314  27.766  1.00  0.00     0.023 A 
ATOM     51  C   UNL A   1      42.281  24.990  27.554  1.00  0.00     0.031 A 
ATOM     52  C   UNL A   1      43.645  26.861  26.886  1.00  0.00     0.131 A 
ATOM     53  C   UNL A   1      42.839  24.247  26.503  1.00  0.00     0.055 A 
ATOM     54  C   UNL A   1      44.161  26.133  25.814  1.00  0.00     0.041 A 
ATOM     55  F   UNL A   1      44.066  28.126  27.044  1.00  0.00    -0.206 F 
ATOM     56  C   UNL A   1      43.765  24.814  25.623  1.00  0.00     0.022 A 
BRANCH  53  57
ATOM     57  S   UNL A   1      42.376  22.502  26.330  1.00  0.00     0.124 S 
ATOM     58  O   UNL A   1      42.827  21.946  27.600  1.00  0.00    -0.237 OA
ATOM     59  O   UNL A   1      40.931  22.590  26.145  1.00  0.00    -0.237 OA
ATOM     60  O   UNL A   1      43.126  22.066  25.154  1.00  0.00    -0.744 OA
ENDBRANCH  53  57
ENDBRANCH  26  50
BRANCH  38  61
ATOM     61  C   UNL A   1      44.768  27.402  34.320  1.00  0.00     0.023 A 
ATOM     62  C   UNL A   1      44.677  26.197  35.040  1.00  0.00     0.031 A 
ATOM     63  C   UNL A   1      45.970  28.127  34.390  1.00  0.00     0.131 A 
ATOM     64  C   UNL A   1      45.746  25.785  35.850  1.00  0.00     0.055 A 
ATOM     65  C   UNL A   1      47.051  27.683  35.154  1.00  0.00     0.041 A 
ATOM     66  F   UNL A   1      46.109  29.284  33.724  1.00  0.00    -0.206 F 
ATOM     67  C   UNL A   1      46.938  26.514  35.901  1.00  0.00     0.022 A 
BRANCH  64  68
ATOM     68  S   UNL A   1      45.521  24.337  36.919  1.00  0.00     0.124 S 
ATOM     69  O   UNL A   1      44.658  23.488  36.105  1.00  0.00    -0.237 OA
ATOM     70  O   UNL A   1      46.892  23.866  37.099  1.00  0.00    -0.237 OA
ATOM     71  O   UNL A   1      44.895  24.890  38.118  1.00  0.00    -0.744 OA
ENDBRANCH  64  68
ENDBRANCH  38  61
ENDBRANCH  12  13
ENDBRANCH   5   7
ENDBRANCH   2   3
ENDBRANCH   1   2
BRANCH   1  72
ATOM     72  C   UNL A   1      32.131  27.082  26.797  1.00  0.00     0.023 C 
BRANCH  72  73
ATOM     73  C   UNL A   1      32.146  25.638  26.298  1.00  0.00     0.116 C 
BRANCH  73  74
ATOM     74  N   UNL A   1      31.065  24.878  26.881  1.00  0.00    -0.354 N 
ATOM     75  C   UNL A   1      30.624  23.611  26.674  1.00  0.00     0.242 C 
ATOM     76  H   UNL A   1      30.548  25.373  27.558  1.00  0.00     0.163 HD
ATOM     77  O   UNL A   1      29.561  23.317  27.238  1.00  0.00    -0.273 OA
BRANCH  75  78
ATOM     78  C   UNL A   1      31.364  22.537  25.828  1.00  0.00     0.173 C 
BRANCH  78  79
ATOM     79  C   UNL A   1      31.334  22.747  24.292  1.00  0.00     0.070 C 
BRANCH  79  80
ATOM     80  C   UNL A   1      31.814  23.979  23.547  1.00  0.00    -0.045 A 
ATOM     81  C   UNL A   1      31.007  25.053  23.147  1.00  0.00     0.007 A 
ATOM     82  C   UNL A   1      33.199  24.080  23.298  1.00  0.00     0.007 A 
ATOM     83  C   UNL A   1      31.534  26.107  22.384  1.00  0.00     0.046 A 
ATOM     84  C   UNL A   1      33.735  25.149  22.577  1.00  0.00     0.046 A 
ATOM     85  C   UNL A   1      32.890  26.131  22.085  1.00  0.00     0.115 A 
BRANCH  85  86
ATOM     86  O   UNL A   1      33.432  27.106  21.303  1.00  0.00    -0.508 OA
ATOM     87  H   UNL A   1      34.343  27.315  21.379  1.00  0.00     0.293 HD
ENDBRANCH  85  86
ENDBRANCH  79  80
ENDBRANCH  78  79
BRANCH  78  88
ATOM     88  N   UNL A   1      32.681  22.204  26.381  1.00  0.00    -0.372 N 
ATOM     89  H   UNL A   1      32.860  22.569  27.277  1.00  0.00     0.161 HD
BRANCH  88  90
ATOM     90  C   UNL A   1      33.725  21.443  25.827  1.00  0.00     0.054 A 
ATOM     91  C   UNL A   1      33.602  20.086  25.340  1.00  0.00     0.024 A 
ATOM     92  C   UNL A   1      35.015  22.090  25.715  1.00  0.00     0.024 A 
ATOM     93  C   UNL A   1      32.430  19.275  25.267  1.00  0.00     0.012 A 
ATOM     94  C   UNL A   1      34.778  19.472  24.852  1.00  0.00     0.073 A 
ATOM     95  C   UNL A   1      36.075  21.344  25.163  1.00  0.00     0.073 A 
ATOM     96  C   UNL A   1      35.325  23.422  26.124  1.00  0.00     0.012 A 
ATOM     97  C   UNL A   1      32.433  17.947  24.828  1.00  0.00     0.001 A 
ATOM     98  C   UNL A   1      34.767  18.154  24.409  1.00  0.00     0.029 A 
ATOM     99  N   UNL A   1      35.957  20.081  24.763  1.00  0.00    -0.248 NA
ATOM    100  C   UNL A   1      37.334  21.914  25.014  1.00  0.00     0.029 A 
ATOM    101  C   UNL A   1      36.600  23.976  25.974  1.00  0.00     0.001 A 
ATOM    102  C   UNL A   1      33.614  17.377  24.406  1.00  0.00     0.002 A 
ATOM    103  C   UNL A   1      37.609  23.219  25.409  1.00  0.00     0.002 A 
ENDBRANCH  88  90
ENDBRANCH  78  88
ENDBRANCH  75  78
ENDBRANCH  73  74
ENDBRANCH  72  73
ENDBRANCH   1  72
TORSDOF 19
ENDMDL
MODEL 2
REMARK VINA RESULT:     -13.5      1.540      2.565
REMARK SMILES O=C(NCCCCNC(=O)[C@@H](Cc1ccc(O)cc1)Nc1c2ccccc2nc2ccccc12)c1ccc(-c2c3nc(c(-c4cc(S(=O)(=O)[O-])ccc4F)c4ccc([nH]4)c(-c4cc(S(=O)(=O)[O-])ccc4F)c4nc(c(-c5cc(S(=O)(=O)[O-])ccc5F)c5ccc2[nH]5)C=C4)C=C3)cc1
REMARK SMILES IDX 5 1 4 2 3 3 1 4 2 5 35 7 36 8 97 9 37 10 96 11 38 12 39 13
REMARK SMILES IDX 40 14 90 15 41 16 95 17 89 18 91 19 42 20 94 21 88 22 87 23
REMARK SMILES IDX 43 25 75 26 55 27 74 28 56 29 59 30 73 31 92 32 57 33 58 34
REMARK SMILES IDX 72 36 93 37 60 38 44 39 45 40 53 41 46 42 52 43 54 44 51 45
REMARK SMILES IDX 47 46 48 47 49 48 50 49 76 50 77 51 85 52 78 53 84 54 86 55
REMARK SMILES IDX 83 56 79 57 80 58 81 59 82 60 61 61 62 62 70 63 63 64 69 65
REMARK SMILES IDX 71 66 68 67 64 68 65 69 66 70 67 71 6 72 7 73 8 74 9 75
REMARK SMILES IDX 10 77 11 78 12 79 13 80 14 81 19 82 15 83 18 84 16 85 17 86
REMARK SMILES IDX 20 88 21 90 22 91 34 92 23 93 27 94 29 95 33 96 24 97 26 98
REMARK SMILES IDX 28 99 30 100 32 101 25 102 31 103
REMARK H PARENT 3 6 91 24 59 35 8 76 17 87 20 89
REMARK Flexibility Score: inf
ROOT
ATOM      1  C   UNL A   1      31.711  28.739  25.956  1.00  0.00     0.023 C 
ENDROOT
BRANCH   1   2
ATOM      2  C   UNL A   1      32.855  29.738  26.077  1.00  0.00     0.116 C 
BRANCH   2   3
ATOM      3  N   UNL A   1      32.482  31.033  26.640  1.00  0.00    -0.352 N 
ATOM      4  O   UNL A   1      32.817  32.946  27.809  1.00  0.00    -0.269 OA
ATOM      5  C   UNL A   1      33.277  31.894  27.371  1.00  0.00     0.251 C 
ATOM      6  H   UNL A   1      31.556  31.325  26.481  1.00  0.00     0.163 HD
BRANCH   5   7
ATOM      7  C   UNL A   1      34.672  31.480  27.650  1.00  0.00     0.039 A 
ATOM      8  C   UNL A   1      34.958  30.131  27.860  1.00  0.00     0.014 A 
ATOM      9  C   UNL A   1      35.645  32.452  27.892  1.00  0.00     0.014 A 
ATOM     10  C   UNL A   1      36.125  29.779  28.528  1.00  0.00     0.010 A 
ATOM     11  C   UNL A   1      36.868  32.078  28.465  1.00  0.00     0.010 A 
ATOM     12  C   UNL A   1      37.089  30.748  28.862  1.00  0.00    -0.014 A 
BRANCH  12  13
ATOM     13  C   UNL A   1      38.281  30.338  29.663  1.00  0.00     0.031 A 
ATOM     14  C   UNL A   1      38.435  30.756  31.107  1.00  0.00     0.074 A 
ATOM     15  C   UNL A   1      39.189  29.509  29.111  1.00  0.00     0.049 A 
ATOM     16  N   UNL A   1      39.385  30.455  31.958  1.00  0.00    -0.248 NA
ATOM     17  C   UNL A   1      37.396  31.633  31.665  1.00  0.00     0.031 C 
ATOM     18  C   UNL A   1      39.152  29.024  27.730  1.00  0.00     0.029 A 
ATOM     19  N   UNL A   1      40.291  28.892  29.649  1.00  0.00    -0.354 N 
ATOM     20  C   UNL A   1      39.085  31.139  33.134  1.00  0.00     0.074 A 
ATOM     21  C   UNL A   1      37.871  31.886  32.877  1.00  0.00     0.031 C 
ATOM     22  C   UNL A   1      40.132  28.127  27.552  1.00  0.00     0.029 A 
ATOM     23  C   UNL A   1      40.917  28.031  28.777  1.00  0.00     0.049 A 
ATOM     24  H   UNL A   1      40.603  29.051  30.568  1.00  0.00     0.167 HD
ATOM     25  C   UNL A   1      39.755  31.143  34.315  1.00  0.00     0.034 A 
ATOM     26  C   UNL A   1      42.007  27.256  28.936  1.00  0.00     0.034 A 
ATOM     27  C   UNL A   1      40.945  30.364  34.575  1.00  0.00     0.049 A 
ATOM     28  C   UNL A   1      42.727  27.271  30.255  1.00  0.00     0.074 A 
ATOM     29  C   UNL A   1      41.679  30.273  35.745  1.00  0.00     0.029 A 
ATOM     30  N   UNL A   1      41.575  29.540  33.650  1.00  0.00    -0.354 N 
ATOM     31  N   UNL A   1      42.436  27.940  31.346  1.00  0.00    -0.248 NA
ATOM     32  C   UNL A   1      43.924  26.430  30.361  1.00  0.00     0.031 C 
ATOM     33  C   UNL A   1      42.782  29.441  35.512  1.00  0.00     0.029 A 
ATOM     34  C   UNL A   1      42.700  28.957  34.217  1.00  0.00     0.049 A 
ATOM     35  H   UNL A   1      41.267  29.391  32.727  1.00  0.00     0.167 HD
ATOM     36  C   UNL A   1      43.412  27.590  32.274  1.00  0.00     0.074 A 
ATOM     37  C   UNL A   1      44.282  26.633  31.620  1.00  0.00     0.031 C 
ATOM     38  C   UNL A   1      43.573  28.021  33.550  1.00  0.00     0.034 A 
BRANCH  25  39
ATOM     39  C   UNL A   1      39.245  32.063  35.404  1.00  0.00     0.023 A 
ATOM     40  C   UNL A   1      39.674  33.397  35.520  1.00  0.00     0.031 A 
ATOM     41  C   UNL A   1      38.330  31.583  36.359  1.00  0.00     0.131 A 
ATOM     42  C   UNL A   1      39.247  34.178  36.605  1.00  0.00     0.055 A 
ATOM     43  C   UNL A   1      37.848  32.391  37.392  1.00  0.00     0.041 A 
ATOM     44  F   UNL A   1      37.896  30.314  36.312  1.00  0.00    -0.206 F 
ATOM     45  C   UNL A   1      38.320  33.692  37.530  1.00  0.00     0.022 A 
BRANCH  42  46
ATOM     46  S   UNL A   1      40.036  35.790  36.878  1.00  0.00     0.124 S 
ATOM     47  O   UNL A   1      39.654  36.515  35.669  1.00  0.00    -0.237 OA
ATOM     48  O   UNL A   1      39.411  36.241  38.116  1.00  0.00    -0.237 OA
ATOM     49  O   UNL A   1      41.457  35.465  36.977  1.00  0.00    -0.744 OA
ENDBRANCH  42  46
ENDBRANCH  25  39
BRANCH  26  50
ATOM     50  C   UNL A   1      42.497  26.420  27.805  1.00  0.00     0.023 A 
ATOM     51  C   UNL A   1      42.269  25.036  27.777  1.00  0.00     0.031 A 
ATOM     52  C   UNL A   1      43.206  26.998  26.737  1.00  0.00     0.131 A 
ATOM     53  C   UNL A   1      42.770  24.270  26.713  1.00  0.00     0.055 A 
ATOM     54  C   UNL A   1      43.659  26.240  25.659  1.00  0.00     0.041 A 
ATOM     55  F   UNL A   1      43.442  28.320  26.716  1.00  0.00    -0.206 F 
ATOM     56  C   UNL A   1      43.450  24.864  25.647  1.00  0.00     0.022 A 
BRANCH  53  57
ATOM     57  S   UNL A   1      42.564  22.469  26.766  1.00  0.00     0.124 S 
ATOM     58  O   UNL A   1      42.154  22.257  28.150  1.00  0.00    -0.237 OA
ATOM     59  O   UNL A   1      41.537  22.252  25.752  1.00  0.00    -0.237 OA
ATOM     60  O   UNL A   1      43.891  21.965  26.422  1.00  0.00    -0.744 OA
ENDBRANCH  53  57
ENDBRANCH  26  50
BRANCH  38  61
ATOM     61  C   UNL A   1      44.722  27.426  34.323  1.00  0.00     0.023 A 
ATOM     62  C   UNL A   1      44.573  26.245  35.073  1.00  0.00     0.031 A 
ATOM     63  C   UNL A   1      45.969  28.073  34.347  1.00  0.00     0.131 A 
ATOM     64  C   UNL A   1      45.634  25.784  35.867  1.00  0.00     0.055 A 
ATOM     65  C   UNL A   1      47.039  27.579  35.096  1.00  0.00     0.041 A 
ATOM     66  F   UNL A   1      46.164  29.205  33.651  1.00  0.00    -0.206 F 
ATOM     67  C   UNL A   1      46.870  26.436  35.873  1.00  0.00     0.022 A 
BRANCH  64  68
ATOM     68  S   UNL A   1      45.344  24.377  36.975  1.00  0.00     0.124 S 
ATOM     69  O   UNL A   1      46.691  24.085  37.455  1.00  0.00    -0.237 OA
ATOM     70  O   UNL A   1      44.425  24.940  37.960  1.00  0.00    -0.237 OA
ATOM     71  O   UNL A   1      44.765  23.362  36.097  1.00  0.00    -0.744 OA
ENDBRANCH  64  68
ENDBRANCH  38  61
ENDBRANCH  12  13
ENDBRANCH   5   7
ENDBRANCH   2   3
ENDBRANCH   1   2
BRANCH   1  72
ATOM     72  C   UNL A   1      31.798  27.550  26.903  1.00  0.00     0.023 C 
BRANCH  72  73
ATOM     73  C   UNL A   1      32.327  26.257  26.283  1.00  0.00     0.116 C 
BRANCH  73  74
ATOM     74  N   UNL A   1      31.783  25.100  26.955  1.00  0.00    -0.354 N 
ATOM     75  C   UNL A   1      31.406  23.876  26.505  1.00  0.00     0.242 C 
ATOM     76  H   UNL A   1      31.663  25.222  27.925  1.00  0.00     0.163 HD
ATOM     77  O   UNL A   1      30.829  23.158  27.334  1.00  0.00    -0.273 OA
BRANCH  75  78
ATOM     78  C   UNL A   1      31.673  23.331  25.074  1.00  0.00     0.173 C 
BRANCH  78  79
ATOM     79  C   UNL A   1      30.696  23.816  23.973  1.00  0.00     0.070 C 
BRANCH  79  80
ATOM     80  C   UNL A   1      30.515  25.247  23.500  1.00  0.00    -0.045 A 
ATOM     81  C   UNL A   1      29.535  26.137  23.960  1.00  0.00     0.007 A 
ATOM     82  C   UNL A   1      31.458  25.740  22.573  1.00  0.00     0.007 A 
ATOM     83  C   UNL A   1      29.398  27.415  23.394  1.00  0.00     0.046 A 
ATOM     84  C   UNL A   1      31.351  27.026  22.039  1.00  0.00     0.046 A 
ATOM     85  C   UNL A   1      30.294  27.837  22.420  1.00  0.00     0.115 A 
BRANCH  85  86
ATOM     86  O   UNL A   1      30.165  29.047  21.807  1.00  0.00    -0.508 OA
ATOM     87  H   UNL A   1      30.853  29.369  21.258  1.00  0.00     0.293 HD
ENDBRANCH  85  86
ENDBRANCH  79  80
ENDBRANCH  78  79
BRANCH  78  88
ATOM     88  N   UNL A   1      33.093  23.393  24.712  1.00  0.00    -0.372 N 
ATOM     89  H   UNL A   1      33.381  24.238  24.297  1.00  0.00     0.161 HD
BRANCH  88  90
ATOM     90  C   UNL A   1      34.105  22.430  24.867  1.00  0.00     0.054 A 
ATOM     91  C   UNL A   1      35.460  22.704  25.291  1.00  0.00     0.024 A 
ATOM     92  C   UNL A   1      33.741  21.054  24.604  1.00  0.00     0.024 A 
ATOM     93  C   UNL A   1      36.030  23.952  25.682  1.00  0.00     0.012 A 
ATOM     94  C   UNL A   1      36.348  21.605  25.350  1.00  0.00     0.073 A 
ATOM     95  C   UNL A   1      34.741  20.072  24.753  1.00  0.00     0.073 A 
ATOM     96  C   UNL A   1      32.455  20.588  24.195  1.00  0.00     0.012 A 
ATOM     97  C   UNL A   1      37.377  24.117  26.023  1.00  0.00     0.001 A 
ATOM     98  C   UNL A   1      37.682  21.778  25.699  1.00  0.00     0.029 A 
ATOM     99  N   UNL A   1      35.995  20.346  25.098  1.00  0.00    -0.248 NA
ATOM    100  C   UNL A   1      34.450  18.731  24.532  1.00  0.00     0.029 A 
ATOM    101  C   UNL A   1      32.183  19.236  23.967  1.00  0.00     0.001 A 
ATOM    102  C   UNL A   1      38.213  23.023  26.020  1.00  0.00     0.002 A 
ATOM    103  C   UNL A   1      33.185  18.301  24.144  1.00  0.00     0.002 A 
ENDBRANCH  88  90
ENDBRANCH  78  88
ENDBRANCH  75  78
ENDBRANCH  73  74
ENDBRANCH  72  73
ENDBRANCH   1  72
TORSDOF 19
ENDMDL
MODEL 3
REMARK VINA RESULT:     -13.5      2.029      4.170
REMARK SMILES O=C(NCCCCNC(=O)[C@@H](Cc1ccc(O)cc1)Nc1c2ccccc2nc2ccccc12)c1ccc(-c2c3nc(c(-c4cc(S(=O)(=O)[O-])ccc4F)c4ccc([nH]4)c(-c4cc(S(=O)(=O)[O-])ccc4F)c4nc(c(-c5cc(S(=O)(=O)[O-])ccc5F)c5ccc2[nH]5)C=C4)C=C3)cc1
REMARK SMILES IDX 5 1 4 2 3 3 1 4 2 5 35 7 36 8 97 9 37 10 96 11 38 12 39 13
REMARK SMILES IDX 40 14 90 15 41 16 95 17 89 18 91 19 42 20 94 21 88 22 87 23
REMARK SMILES IDX 43 25 75 26 55 27 74 28 56 29 59 30 73 31 92 32 57 33 58 34
REMARK SMILES IDX 72 36 93 37 60 38 44 39 45 40 53 41 46 42 52 43 54 44 51 45
REMARK SMILES IDX 47 46 48 47 49 48 50 49 76 50 77 51 85 52 78 53 84 54 86 55
REMARK SMILES IDX 83 56 79 57 80 58 81 59 82 60 61 61 62 62 70 63 63 64 69 65
REMARK SMILES IDX 71 66 68 67 64 68 65 69 66 70 67 71 6 72 7 73 8 74 9 75
REMARK SMILES IDX 10 77 11 78 12 79 13 80 14 81 19 82 15 83 18 84 16 85 17 86
REMARK SMILES IDX 20 88 21 90 22 91 34 92 23 93 27 94 29 95 33 96 24 97 26 98
REMARK SMILES IDX 28 99 30 100 32 101 25 102 31 103
REMARK H PARENT 3 6 91 24 59 35 8 76 17 87 20 89
REMARK Flexibility Score: inf
ROOT
ATOM      1  C   UNL A   1      31.723  29.182  26.126  1.00  0.00     0.023 C 
ENDROOT
BRANCH   1   2
ATOM      2  C   UNL A   1      32.809  30.247  26.035  1.00  0.00     0.116 C 
BRANCH   2   3
ATOM      3  N   UNL A   1      32.487  31.510  26.696  1.00  0.00    -0.352 N 
ATOM      4  O   UNL A   1      32.889  33.304  28.020  1.00  0.00    -0.269 OA
ATOM      5  C   UNL A   1      33.307  32.270  27.506  1.00  0.00     0.251 C 
ATOM      6  H   UNL A   1      31.579  31.859  26.546  1.00  0.00     0.163 HD
BRANCH   5   7
ATOM      7  C   UNL A   1      34.675  31.767  27.773  1.00  0.00     0.039 A 
ATOM      8  C   UNL A   1      34.862  30.419  28.086  1.00  0.00     0.014 A 
ATOM      9  C   UNL A   1      35.730  32.672  27.903  1.00  0.00     0.014 A 
ATOM     10  C   UNL A   1      36.023  30.028  28.742  1.00  0.00     0.010 A 
ATOM     11  C   UNL A   1      36.941  32.246  28.465  1.00  0.00     0.010 A 
ATOM     12  C   UNL A   1      37.072  30.939  28.963  1.00  0.00    -0.014 A 
BRANCH  12  13
ATOM     13  C   UNL A   1      38.258  30.498  29.756  1.00  0.00     0.031 A 
ATOM     14  C   UNL A   1      38.429  30.907  31.201  1.00  0.00     0.074 A 
ATOM     15  C   UNL A   1      39.143  29.650  29.197  1.00  0.00     0.049 A 
ATOM     16  N   UNL A   1      39.377  30.582  32.046  1.00  0.00    -0.248 NA
ATOM     17  C   UNL A   1      37.414  31.807  31.768  1.00  0.00     0.031 C 
ATOM     18  C   UNL A   1      39.088  29.171  27.814  1.00  0.00     0.029 A 
ATOM     19  N   UNL A   1      40.233  29.005  29.727  1.00  0.00    -0.354 N 
ATOM     20  C   UNL A   1      39.099  31.268  33.226  1.00  0.00     0.074 A 
ATOM     21  C   UNL A   1      37.901  32.043  32.978  1.00  0.00     0.031 C 
ATOM     22  C   UNL A   1      40.046  28.252  27.629  1.00  0.00     0.029 A 
ATOM     23  C   UNL A   1      40.835  28.133  28.849  1.00  0.00     0.049 A 
ATOM     24  H   UNL A   1      40.554  29.154  30.645  1.00  0.00     0.167 HD
ATOM     25  C   UNL A   1      39.774  31.252  34.404  1.00  0.00     0.034 A 
ATOM     26  C   UNL A   1      41.907  27.332  29.000  1.00  0.00     0.034 A 
ATOM     27  C   UNL A   1      40.947  30.445  34.654  1.00  0.00     0.049 A 
ATOM     28  C   UNL A   1      42.634  27.326  30.315  1.00  0.00     0.074 A 
ATOM     29  C   UNL A   1      41.685  30.332  35.821  1.00  0.00     0.029 A 
ATOM     30  N   UNL A   1      41.553  29.609  33.724  1.00  0.00    -0.354 N 
ATOM     31  N   UNL A   1      42.364  27.998  31.410  1.00  0.00    -0.248 NA
ATOM     32  C   UNL A   1      43.812  26.457  30.412  1.00  0.00     0.031 C 
ATOM     33  C   UNL A   1      42.767  29.475  35.579  1.00  0.00     0.029 A 
ATOM     34  C   UNL A   1      42.667  28.998  34.283  1.00  0.00     0.049 A 
ATOM     35  H   UNL A   1      41.237  29.471  32.802  1.00  0.00     0.167 HD
ATOM     36  C   UNL A   1      43.337  27.622  32.331  1.00  0.00     0.074 A 
ATOM     37  C   UNL A   1      44.180  26.647  31.670  1.00  0.00     0.031 C 
ATOM     38  C   UNL A   1      43.514  28.045  33.608  1.00  0.00     0.034 A 
BRANCH  25  39
ATOM     39  C   UNL A   1      39.292  32.180  35.498  1.00  0.00     0.023 A 
ATOM     40  C   UNL A   1      39.703  33.522  35.578  1.00  0.00     0.031 A 
ATOM     41  C   UNL A   1      38.423  31.700  36.495  1.00  0.00     0.131 A 
ATOM     42  C   UNL A   1      39.305  34.313  36.669  1.00  0.00     0.055 A 
ATOM     43  C   UNL A   1      37.968  32.515  37.535  1.00  0.00     0.041 A 
ATOM     44  F   UNL A   1      38.008  30.423  36.483  1.00  0.00    -0.206 F 
ATOM     45  C   UNL A   1      38.423  33.826  37.635  1.00  0.00     0.022 A 
BRANCH  42  46
ATOM     46  S   UNL A   1      40.077  35.940  36.887  1.00  0.00     0.124 S 
ATOM     47  O   UNL A   1      39.296  36.494  37.991  1.00  0.00    -0.237 OA
ATOM     48  O   UNL A   1      41.460  35.594  37.195  1.00  0.00    -0.237 OA
ATOM     49  O   UNL A   1      39.869  36.596  35.598  1.00  0.00    -0.744 OA
ENDBRANCH  42  46
ENDBRANCH  25  39
BRANCH  26  50
ATOM     50  C   UNL A   1      42.371  26.489  27.863  1.00  0.00     0.023 A 
ATOM     51  C   UNL A   1      41.897  25.180  27.693  1.00  0.00     0.031 A 
ATOM     52  C   UNL A   1      43.302  26.984  26.933  1.00  0.00     0.131 A 
ATOM     53  C   UNL A   1      42.377  24.399  26.631  1.00  0.00     0.055 A 
ATOM     54  C   UNL A   1      43.739  26.220  25.851  1.00  0.00     0.041 A 
ATOM     55  F   UNL A   1      43.779  28.234  27.049  1.00  0.00    -0.206 F 
ATOM     56  C   UNL A   1      43.283  24.915  25.700  1.00  0.00     0.022 A 
BRANCH  53  57
ATOM     57  S   UNL A   1      41.837  22.672  26.509  1.00  0.00     0.124 S 
ATOM     58  O   UNL A   1      40.385  22.814  26.485  1.00  0.00    -0.237 OA
ATOM     59  O   UNL A   1      42.461  22.247  25.260  1.00  0.00    -0.237 OA
ATOM     60  O   UNL A   1      42.386  22.058  27.716  1.00  0.00    -0.744 OA
ENDBRANCH  53  57
ENDBRANCH  26  50
BRANCH  38  61
ATOM     61  C   UNL A   1      44.653  27.419  34.373  1.00  0.00     0.023 A 
ATOM     62  C   UNL A   1      44.482  26.237  35.115  1.00  0.00     0.031 A 
ATOM     63  C   UNL A   1      45.914  28.041  34.398  1.00  0.00     0.131 A 
ATOM     64  C   UNL A   1      45.535  25.747  35.902  1.00  0.00     0.055 A 
ATOM     65  C   UNL A   1      46.975  27.519  35.140  1.00  0.00     0.041 A 
ATOM     66  F   UNL A   1      46.130  29.173  33.709  1.00  0.00    -0.206 F 
ATOM     67  C   UNL A   1      46.785  26.374  35.909  1.00  0.00     0.022 A 
BRANCH  64  68
ATOM     68  S   UNL A   1      45.220  24.339  37.001  1.00  0.00     0.124 S 
ATOM     69  O   UNL A   1      44.633  23.365  36.087  1.00  0.00    -0.237 OA
ATOM     70  O   UNL A   1      46.557  24.024  37.496  1.00  0.00    -0.237 OA
ATOM     71  O   UNL A   1      44.302  24.883  38.001  1.00  0.00    -0.744 OA
ENDBRANCH  64  68
ENDBRANCH  38  61
ENDBRANCH  12  13
ENDBRANCH   5   7
ENDBRANCH   2   3
ENDBRANCH   1   2
BRANCH   1  72
ATOM     72  C   UNL A   1      31.998  28.072  27.129  1.00  0.00     0.023 C 
BRANCH  72  73
ATOM     73  C   UNL A   1      32.237  26.689  26.525  1.00  0.00     0.116 C 
BRANCH  73  74
ATOM     74  N   UNL A   1      31.201  25.764  26.922  1.00  0.00    -0.354 N 
ATOM     75  C   UNL A   1      30.575  24.756  26.263  1.00  0.00     0.242 C 
ATOM     76  H   UNL A   1      30.888  25.888  27.848  1.00  0.00     0.163 HD
ATOM     77  O   UNL A   1      29.610  24.250  26.854  1.00  0.00    -0.273 OA
BRANCH  75  78
ATOM     78  C   UNL A   1      31.002  24.198  24.876  1.00  0.00     0.173 C 
BRANCH  78  79
ATOM     79  C   UNL A   1      31.051  22.653  24.755  1.00  0.00     0.070 C 
BRANCH  79  80
ATOM     80  C   UNL A   1      32.303  21.793  24.760  1.00  0.00    -0.045 A 
ATOM     81  C   UNL A   1      32.331  20.399  24.619  1.00  0.00     0.007 A 
ATOM     82  C   UNL A   1      33.542  22.463  24.845  1.00  0.00     0.007 A 
ATOM     83  C   UNL A   1      33.536  19.687  24.725  1.00  0.00     0.046 A 
ATOM     84  C   UNL A   1      34.747  21.761  24.908  1.00  0.00     0.046 A 
ATOM     85  C   UNL A   1      34.731  20.375  24.894  1.00  0.00     0.115 A 
BRANCH  85  86
ATOM     86  O   UNL A   1      35.915  19.722  25.055  1.00  0.00    -0.508 OA
ATOM     87  H   UNL A   1      35.922  18.814  25.287  1.00  0.00     0.293 HD
ENDBRANCH  85  86
ENDBRANCH  79  80
ENDBRANCH  78  79
BRANCH  78  88
ATOM     88  N   UNL A   1      30.325  24.884  23.770  1.00  0.00    -0.372 N 
ATOM     89  H   UNL A   1      29.801  24.300  23.176  1.00  0.00     0.161 HD
BRANCH  88  90
ATOM     90  C   UNL A   1      30.313  26.247  23.429  1.00  0.00     0.054 A 
ATOM     91  C   UNL A   1      29.146  27.102  23.447  1.00  0.00     0.024 A 
ATOM     92  C   UNL A   1      31.582  26.838  23.057  1.00  0.00     0.024 A 
ATOM     93  C   UNL A   1      27.817  26.777  23.852  1.00  0.00     0.012 A 
ATOM     94  C   UNL A   1      29.327  28.442  23.032  1.00  0.00     0.073 A 
ATOM     95  C   UNL A   1      31.591  28.204  22.711  1.00  0.00     0.073 A 
ATOM     96  C   UNL A   1      32.837  26.162  22.996  1.00  0.00     0.012 A 
ATOM     97  C   UNL A   1      26.743  27.670  23.777  1.00  0.00     0.001 A 
ATOM     98  C   UNL A   1      28.254  29.323  22.970  1.00  0.00     0.029 A 
ATOM     99  N   UNL A   1      30.501  28.965  22.687  1.00  0.00    -0.248 NA
ATOM    100  C   UNL A   1      32.779  28.833  22.360  1.00  0.00     0.029 A 
ATOM    101  C   UNL A   1      34.022  26.809  22.633  1.00  0.00     0.001 A 
ATOM    102  C   UNL A   1      26.961  28.951  23.321  1.00  0.00     0.002 A 
ATOM    103  C   UNL A   1      33.993  28.155  22.320  1.00  0.00     0.002 A 
ENDBRANCH  88  90
ENDBRANCH  78  88
ENDBRANCH  75  78
ENDBRANCH  73  74
ENDBRANCH  72  73
ENDBRANCH   1  72
TORSDOF 19
ENDMDL
