MODEL 1
REMARK VINA RESULT:     -14.0      0.000      0.000
REMARK SMILES Cc1c(C(=O)Nc2ccc(C(=O)Nc3ccccc3C(=O)NCCCCNC(=O)c3ccc(-c4c5nc(c(-c6cc(S(=O)(=O)[O-])ccc6F)c6ccc([nH]6)c(-c6cc(S(=O)(=O)[O-])ccc6F)c6nc(c(-c7cc(S(=O)(=O)[O-])ccc7F)c7ccc4[nH]7)C=C6)C=C5)cc3)cc2)cccc1[N+](=O)[O-]
REMARK SMILES IDX 23 1 22 2 20 3 21 4 19 6 14 7 15 8 16 9 18 10 17 11 13 12
REMARK SMILES IDX 11 13 12 14 10 16 7 17 8 18 94 19 9 20 93 21 6 22 4 23 5 24
REMARK SMILES IDX 3 26 1 27 2 28 98 29 95 30 97 31 96 32 99 33 100 34 101 35
REMARK SMILES IDX 24 36 25 37 26 38 27 39 28 40 29 42 30 43 31 44 92 45 32 46
REMARK SMILES IDX 91 47 33 48 34 49 35 50 85 51 36 52 90 53 84 54 86 55 37 56
REMARK SMILES IDX 89 57 83 58 82 59 38 61 70 62 50 63 69 64 51 65 54 66 68 67
REMARK SMILES IDX 87 68 52 69 53 70 67 72 88 73 55 74 39 75 40 76 48 77 41 78
REMARK SMILES IDX 47 79 49 80 46 81 42 82 43 83 44 84 45 85 71 86 72 87 80 88
REMARK SMILES IDX 73 89 79 90 81 91 78 92 74 93 75 94 76 95 77 96 56 97 57 98
REMARK SMILES IDX 65 99 58 100 64 101 66 102 63 103 59 104 60 105 61 106
REMARK SMILES IDX 62 107
REMARK H PARENT 22 5 13 15 6 25 27 41 86 60 54 71
REMARK Flexibility Score: inf
ROOT
ATOM      1  C   UNL A   1      30.885  31.359  26.263  1.00  0.00     0.116 C 
ENDROOT
BRANCH   1   2
ATOM      2  N   UNL A   1      30.516  32.263  25.168  1.00  0.00    -0.352 N 
ATOM      3  C   UNL A   1      29.661  32.170  24.088  1.00  0.00     0.253 C 
ATOM      4  O   UNL A   1      29.444  33.196  23.442  1.00  0.00    -0.269 OA
ATOM      5  H   UNL A   1      30.982  33.129  25.213  1.00  0.00     0.163 HD
BRANCH   3   6
ATOM      6  C   UNL A   1      29.045  30.890  23.637  1.00  0.00     0.063 A 
ATOM      7  C   UNL A   1      29.812  29.822  23.102  1.00  0.00     0.054 A 
ATOM      8  C   UNL A   1      29.158  28.646  22.682  1.00  0.00     0.027 A 
ATOM      9  C   UNL A   1      27.782  28.496  22.832  1.00  0.00     0.002 A 
ATOM     10  C   UNL A   1      27.648  30.760  23.650  1.00  0.00     0.016 A 
ATOM     11  C   UNL A   1      27.025  29.559  23.301  1.00  0.00     0.001 A 
BRANCH   7  12
ATOM     12  N   UNL A   1      31.219  29.758  22.965  1.00  0.00    -0.321 N 
ATOM     13  C   UNL A   1      32.182  28.967  23.554  1.00  0.00     0.255 C 
ATOM     14  O   UNL A   1      33.370  29.250  23.384  1.00  0.00    -0.269 OA
ATOM     15  H   UNL A   1      31.582  30.406  22.320  1.00  0.00     0.170 HD
BRANCH  13  16
ATOM     16  C   UNL A   1      31.853  27.664  24.193  1.00  0.00     0.040 A 
ATOM     17  C   UNL A   1      30.890  25.234  25.240  1.00  0.00     0.041 A 
ATOM     18  C   UNL A   1      30.937  26.378  26.019  1.00  0.00     0.027 A 
ATOM     19  C   UNL A   1      31.477  25.268  23.972  1.00  0.00     0.027 A 
ATOM     20  C   UNL A   1      31.312  27.594  25.471  1.00  0.00     0.016 A 
ATOM     21  C   UNL A   1      31.961  26.480  23.453  1.00  0.00     0.016 A 
BRANCH  17  22
ATOM     22  N   UNL A   1      30.186  24.082  25.635  1.00  0.00    -0.322 N 
ATOM     23  C   UNL A   1      30.635  22.849  26.081  1.00  0.00     0.256 C 
ATOM     24  O   UNL A   1      29.822  21.958  26.329  1.00  0.00    -0.269 OA
ATOM     25  H   UNL A   1      29.206  24.167  25.585  1.00  0.00     0.170 HD
BRANCH  23  26
ATOM     26  C   UNL A   1      32.080  22.552  26.295  1.00  0.00     0.049 A 
ATOM     27  C   UNL A   1      32.482  21.824  23.887  1.00  0.00     0.053 C 
ATOM     28  C   UNL A   1      32.917  21.950  25.323  1.00  0.00     0.039 A 
ATOM     29  C   UNL A   1      34.153  21.436  25.780  1.00  0.00     0.273 A 
ATOM     30  C   UNL A   1      32.569  22.832  27.584  1.00  0.00     0.014 A 
ATOM     31  C   UNL A   1      34.628  21.692  27.077  1.00  0.00     0.086 A 
ATOM     32  C   UNL A   1      33.850  22.430  27.963  1.00  0.00     0.008 A 
BRANCH  29  33
ATOM     33  N   UNL A   1      34.945  20.514  24.959  1.00  0.00     0.063 N 
ATOM     34  O   UNL A   1      34.448  19.408  24.702  1.00  0.00    -0.258 OA
ATOM     35  O   UNL A   1      36.040  20.911  24.538  1.00  0.00    -0.258 OA
ENDBRANCH  29  33
ENDBRANCH  23  26
ENDBRANCH  17  22
ENDBRANCH  13  16
ENDBRANCH   7  12
ENDBRANCH   3   6
ENDBRANCH   1   2
BRANCH   1  36
ATOM     36  C   UNL A   1      32.254  31.601  26.915  1.00  0.00     0.023 C 
BRANCH  36  37
ATOM     37  C   UNL A   1      33.338  30.557  26.678  1.00  0.00     0.023 C 
BRANCH  37  38
ATOM     38  C   UNL A   1      34.041  30.103  27.948  1.00  0.00     0.116 C 
BRANCH  38  39
ATOM     39  N   UNL A   1      34.820  31.139  28.620  1.00  0.00    -0.352 N 
ATOM     40  C   UNL A   1      36.071  31.030  29.214  1.00  0.00     0.251 C 
ATOM     41  H   UNL A   1      34.405  32.031  28.659  1.00  0.00     0.163 HD
ATOM     42  O   UNL A   1      36.583  31.959  29.818  1.00  0.00    -0.269 OA
BRANCH  40  43
ATOM     43  C   UNL A   1      36.846  29.788  28.978  1.00  0.00     0.039 A 
ATOM     44  C   UNL A   1      37.135  28.997  30.096  1.00  0.00     0.014 A 
ATOM     45  C   UNL A   1      37.516  29.591  27.775  1.00  0.00     0.014 A 
ATOM     46  C   UNL A   1      38.272  28.198  30.084  1.00  0.00     0.010 A 
ATOM     47  C   UNL A   1      38.704  28.889  27.798  1.00  0.00     0.010 A 
ATOM     48  C   UNL A   1      39.116  28.252  28.974  1.00  0.00    -0.014 A 
BRANCH  48  49
ATOM     49  C   UNL A   1      40.493  27.776  29.001  1.00  0.00     0.031 A 
ATOM     50  C   UNL A   1      40.812  26.403  28.572  1.00  0.00     0.074 A 
ATOM     51  C   UNL A   1      41.485  28.611  29.380  1.00  0.00     0.049 A 
ATOM     52  N   UNL A   1      41.864  25.750  28.928  1.00  0.00    -0.248 NA
ATOM     53  C   UNL A   1      39.908  25.623  27.740  1.00  0.00     0.031 C 
ATOM     54  C   UNL A   1      42.924  28.398  29.262  1.00  0.00     0.029 A 
ATOM     55  N   UNL A   1      41.366  29.730  30.204  1.00  0.00    -0.354 N 
ATOM     56  C   UNL A   1      41.931  24.607  28.162  1.00  0.00     0.074 A 
ATOM     57  C   UNL A   1      40.646  24.535  27.511  1.00  0.00     0.031 C 
ATOM     58  C   UNL A   1      43.549  29.151  30.180  1.00  0.00     0.029 A 
ATOM     59  C   UNL A   1      42.525  29.771  31.001  1.00  0.00     0.049 A 
ATOM     60  H   UNL A   1      40.615  30.367  30.224  1.00  0.00     0.167 HD
ATOM     61  C   UNL A   1      43.120  23.942  28.073  1.00  0.00     0.034 A 
ATOM     62  C   UNL A   1      42.438  29.681  32.360  1.00  0.00     0.034 A 
ATOM     63  C   UNL A   1      44.101  24.486  29.021  1.00  0.00     0.049 A 
ATOM     64  C   UNL A   1      43.150  28.473  32.929  1.00  0.00     0.074 A 
ATOM     65  C   UNL A   1      45.196  25.323  28.885  1.00  0.00     0.029 A 
ATOM     66  N   UNL A   1      43.842  24.405  30.388  1.00  0.00    -0.354 N 
ATOM     67  N   UNL A   1      43.557  27.453  32.220  1.00  0.00    -0.248 NA
ATOM     68  C   UNL A   1      43.454  28.317  34.346  1.00  0.00     0.031 C 
ATOM     69  C   UNL A   1      45.546  25.804  30.178  1.00  0.00     0.029 A 
ATOM     70  C   UNL A   1      44.690  25.232  31.103  1.00  0.00     0.049 A 
ATOM     71  H   UNL A   1      43.148  23.836  30.792  1.00  0.00     0.167 HD
ATOM     72  C   UNL A   1      44.133  26.515  33.041  1.00  0.00     0.074 A 
ATOM     73  C   UNL A   1      44.072  27.123  34.359  1.00  0.00     0.031 C 
ATOM     74  C   UNL A   1      44.594  25.317  32.560  1.00  0.00     0.034 A 
BRANCH  61  75
ATOM     75  C   UNL A   1      43.494  23.002  26.936  1.00  0.00     0.023 A 
ATOM     76  C   UNL A   1      42.966  21.691  26.924  1.00  0.00     0.031 A 
ATOM     77  C   UNL A   1      44.402  23.277  25.893  1.00  0.00     0.131 A 
ATOM     78  C   UNL A   1      43.407  20.720  26.001  1.00  0.00     0.055 A 
ATOM     79  C   UNL A   1      44.882  22.303  25.007  1.00  0.00     0.041 A 
ATOM     80  F   UNL A   1      44.830  24.515  25.626  1.00  0.00    -0.206 F 
ATOM     81  C   UNL A   1      44.394  21.010  25.064  1.00  0.00     0.022 A 
BRANCH  78  82
ATOM     82  S   UNL A   1      42.674  19.061  26.030  1.00  0.00     0.124 S 
ATOM     83  O   UNL A   1      42.595  18.783  27.461  1.00  0.00    -0.237 OA
ATOM     84  O   UNL A   1      41.407  19.271  25.340  1.00  0.00    -0.237 OA
ATOM     85  O   UNL A   1      43.645  18.248  25.297  1.00  0.00    -0.744 OA
ENDBRANCH  78  82
ENDBRANCH  61  75
BRANCH  62  86
ATOM     86  C   UNL A   1      41.207  30.326  32.904  1.00  0.00     0.023 A 
ATOM     87  C   UNL A   1      41.153  31.738  32.848  1.00  0.00     0.031 A 
ATOM     88  C   UNL A   1      40.002  29.632  33.067  1.00  0.00     0.131 A 
ATOM     89  C   UNL A   1      39.921  32.399  32.754  1.00  0.00     0.055 A 
ATOM     90  C   UNL A   1      38.771  30.306  33.058  1.00  0.00     0.041 A 
ATOM     91  F   UNL A   1      39.982  28.292  33.100  1.00  0.00    -0.206 F 
ATOM     92  C   UNL A   1      38.725  31.688  32.849  1.00  0.00     0.022 A 
BRANCH  89  93
ATOM     93  S   UNL A   1      39.906  34.135  32.209  1.00  0.00     0.124 S 
ATOM     94  O   UNL A   1      38.895  34.726  33.078  1.00  0.00    -0.237 OA
ATOM     95  O   UNL A   1      41.280  34.575  32.452  1.00  0.00    -0.237 OA
ATOM     96  O   UNL A   1      39.553  34.051  30.795  1.00  0.00    -0.744 OA
ENDBRANCH  89  93
ENDBRANCH  62  86
BRANCH  74  97
ATOM     97  C   UNL A   1      45.071  24.135  33.394  1.00  0.00     0.023 A 
ATOM     98  C   UNL A   1      46.355  24.034  33.948  1.00  0.00     0.031 A 
ATOM     99  C   UNL A   1      44.193  23.068  33.717  1.00  0.00     0.131 A 
ATOM    100  C   UNL A   1      46.752  22.904  34.690  1.00  0.00     0.055 A 
ATOM    101  C   UNL A   1      44.562  21.985  34.523  1.00  0.00     0.041 A 
ATOM    102  F   UNL A   1      42.928  23.029  33.273  1.00  0.00    -0.206 F 
ATOM    103  C   UNL A   1      45.857  21.887  35.002  1.00  0.00     0.022 A 
BRANCH 100 104
ATOM    104  S   UNL A   1      48.492  22.768  35.181  1.00  0.00     0.124 S 
ATOM    105  O   UNL A   1      48.737  21.336  35.023  1.00  0.00    -0.237 OA
ATOM    106  O   UNL A   1      49.159  23.634  34.214  1.00  0.00    -0.237 OA
ATOM    107  O   UNL A   1      48.503  23.251  36.560  1.00  0.00    -0.744 OA
ENDBRANCH 100 104
ENDBRANCH  74  97
ENDBRANCH  48  49
ENDBRANCH  40  43
ENDBRANCH  38  39
ENDBRANCH  37  38
ENDBRANCH  36  37
ENDBRANCH   1  36
TORSDOF 19
ENDMDL
MODEL 2
REMARK VINA RESULT:     -13.1      2.372      3.165
REMARK SMILES Cc1c(C(=O)Nc2ccc(C(=O)Nc3ccccc3C(=O)NCCCCNC(=O)c3ccc(-c4c5nc(c(-c6cc(S(=O)(=O)[O-])ccc6F)c6ccc([nH]6)c(-c6cc(S(=O)(=O)[O-])ccc6F)c6nc(c(-c7cc(S(=O)(=O)[O-])ccc7F)c7ccc4[nH]7)C=C6)C=C5)cc3)cc2)cccc1[N+](=O)[O-]
REMARK SMILES IDX 23 1 22 2 20 3 21 4 19 6 14 7 15 8 16 9 18 10 17 11 13 12
REMARK SMILES IDX 11 13 12 14 10 16 7 17 8 18 94 19 9 20 93 21 6 22 4 23 5 24
REMARK SMILES IDX 3 26 1 27 2 28 98 29 95 30 97 31 96 32 99 33 100 34 101 35
REMARK SMILES IDX 24 36 25 37 26 38 27 39 28 40 29 42 30 43 31 44 92 45 32 46
REMARK SMILES IDX 91 47 33 48 34 49 35 50 85 51 36 52 90 53 84 54 86 55 37 56
REMARK SMILES IDX 89 57 83 58 82 59 38 61 70 62 50 63 69 64 51 65 54 66 68 67
REMARK SMILES IDX 87 68 52 69 53 70 67 72 88 73 55 74 39 75 40 76 48 77 41 78
REMARK SMILES IDX 47 79 49 80 46 81 42 82 43 83 44 84 45 85 71 86 72 87 80 88
REMARK SMILES IDX 73 89 79 90 81 91 78 92 74 93 75 94 76 95 77 96 56 97 57 98
REMARK SMILES IDX 65 99 58 100 64 101 66 102 63 103 59 104 60 105 61 106
REMARK SMILES IDX 62 107
REMARK H PARENT 22 5 13 15 6 25 27 41 86 60 54 71
REMARK Flexibility Score: inf
ROOT
ATOM      1  C   UNL A   1      32.901  32.812  27.982  1.00  0.00     0.116 C 
ENDROOT
BRANCH   1   2
ATOM      2  N   UNL A   1      31.856  32.564  26.982  1.00  0.00    -0.352 N 
ATOM      3  C   UNL A   1      31.518  31.485  26.190  1.00  0.00     0.253 C 
ATOM      4  O   UNL A   1      30.455  31.543  25.571  1.00  0.00    -0.269 OA
ATOM      5  H   UNL A   1      31.266  33.339  26.844  1.00  0.00     0.163 HD
BRANCH   3   6
ATOM      6  C   UNL A   1      32.396  30.295  26.005  1.00  0.00     0.063 A 
ATOM      7  C   UNL A   1      32.356  29.493  24.835  1.00  0.00     0.054 A 
ATOM      8  C   UNL A   1      33.207  28.374  24.737  1.00  0.00     0.027 A 
ATOM      9  C   UNL A   1      34.121  28.074  25.745  1.00  0.00     0.002 A 
ATOM     10  C   UNL A   1      33.230  29.889  27.059  1.00  0.00     0.016 A 
ATOM     11  C   UNL A   1      34.121  28.823  26.913  1.00  0.00     0.001 A 
BRANCH   7  12
ATOM     12  N   UNL A   1      31.570  29.698  23.678  1.00  0.00    -0.321 N 
ATOM     13  C   UNL A   1      30.953  28.834  22.799  1.00  0.00     0.255 C 
ATOM     14  O   UNL A   1      30.475  29.287  21.755  1.00  0.00    -0.269 OA
ATOM     15  H   UNL A   1      31.434  30.648  23.457  1.00  0.00     0.170 HD
BRANCH  13  16
ATOM     16  C   UNL A   1      30.644  27.424  23.161  1.00  0.00     0.040 A 
ATOM     17  C   UNL A   1      30.351  24.782  24.088  1.00  0.00     0.041 A 
ATOM     18  C   UNL A   1      30.976  25.050  22.882  1.00  0.00     0.027 A 
ATOM     19  C   UNL A   1      29.726  25.835  24.763  1.00  0.00     0.027 A 
ATOM     20  C   UNL A   1      31.212  26.354  22.480  1.00  0.00     0.016 A 
ATOM     21  C   UNL A   1      29.870  27.153  24.297  1.00  0.00     0.016 A 
BRANCH  17  22
ATOM     22  N   UNL A   1      30.413  23.518  24.705  1.00  0.00    -0.322 N 
ATOM     23  C   UNL A   1      31.494  22.778  25.155  1.00  0.00     0.256 C 
ATOM     24  O   UNL A   1      31.310  21.656  25.627  1.00  0.00    -0.269 OA
ATOM     25  H   UNL A   1      29.537  23.087  24.838  1.00  0.00     0.170 HD
BRANCH  23  26
ATOM     26  C   UNL A   1      32.893  23.292  25.109  1.00  0.00     0.049 A 
ATOM     27  C   UNL A   1      33.451  22.127  22.914  1.00  0.00     0.053 C 
ATOM     28  C   UNL A   1      33.852  22.892  24.147  1.00  0.00     0.039 A 
ATOM     29  C   UNL A   1      35.202  23.205  24.428  1.00  0.00     0.273 A 
ATOM     30  C   UNL A   1      33.250  24.163  26.155  1.00  0.00     0.014 A 
ATOM     31  C   UNL A   1      35.561  24.051  25.492  1.00  0.00     0.086 A 
ATOM     32  C   UNL A   1      34.574  24.564  26.327  1.00  0.00     0.008 A 
BRANCH  29  33
ATOM     33  N   UNL A   1      36.302  22.569  23.695  1.00  0.00     0.063 N 
ATOM     34  O   UNL A   1      36.769  23.181  22.723  1.00  0.00    -0.258 OA
ATOM     35  O   UNL A   1      36.724  21.483  24.114  1.00  0.00    -0.258 OA
ENDBRANCH  29  33
ENDBRANCH  23  26
ENDBRANCH  17  22
ENDBRANCH  13  16
ENDBRANCH   7  12
ENDBRANCH   3   6
ENDBRANCH   1   2
BRANCH   1  36
ATOM     36  C   UNL A   1      33.329  34.275  28.171  1.00  0.00     0.023 C 
BRANCH  36  37
ATOM     37  C   UNL A   1      34.777  34.627  27.854  1.00  0.00     0.023 C 
BRANCH  37  38
ATOM     38  C   UNL A   1      35.791  33.888  28.713  1.00  0.00     0.116 C 
BRANCH  38  39
ATOM     39  N   UNL A   1      35.358  33.627  30.083  1.00  0.00    -0.352 N 
ATOM     40  C   UNL A   1      35.362  32.423  30.775  1.00  0.00     0.251 C 
ATOM     41  H   UNL A   1      35.020  34.405  30.581  1.00  0.00     0.163 HD
ATOM     42  O   UNL A   1      34.895  32.321  31.898  1.00  0.00    -0.269 OA
BRANCH  40  43
ATOM     43  C   UNL A   1      36.079  31.276  30.169  1.00  0.00     0.039 A 
ATOM     44  C   UNL A   1      36.479  30.249  31.032  1.00  0.00     0.014 A 
ATOM     45  C   UNL A   1      36.602  31.368  28.883  1.00  0.00     0.014 A 
ATOM     46  C   UNL A   1      37.591  29.482  30.703  1.00  0.00     0.010 A 
ATOM     47  C   UNL A   1      37.771  30.689  28.604  1.00  0.00     0.010 A 
ATOM     48  C   UNL A   1      38.302  29.799  29.545  1.00  0.00    -0.014 A 
BRANCH  48  49
ATOM     49  C   UNL A   1      39.664  29.339  29.300  1.00  0.00     0.031 A 
ATOM     50  C   UNL A   1      39.921  27.930  28.957  1.00  0.00     0.074 A 
ATOM     51  C   UNL A   1      40.688  30.219  29.346  1.00  0.00     0.049 A 
ATOM     52  N   UNL A   1      41.047  27.328  29.126  1.00  0.00    -0.248 NA
ATOM     53  C   UNL A   1      38.875  27.055  28.447  1.00  0.00     0.031 C 
ATOM     54  C   UNL A   1      42.067  30.005  28.918  1.00  0.00     0.029 A 
ATOM     55  N   UNL A   1      40.725  31.421  30.051  1.00  0.00    -0.354 N 
ATOM     56  C   UNL A   1      40.974  26.108  28.492  1.00  0.00     0.074 A 
ATOM     57  C   UNL A   1      39.576  25.953  28.170  1.00  0.00     0.031 C 
ATOM     58  C   UNL A   1      42.861  30.861  29.580  1.00  0.00     0.029 A 
ATOM     59  C   UNL A   1      42.034  31.560  30.546  1.00  0.00     0.049 A 
ATOM     60  H   UNL A   1      39.978  32.051  30.178  1.00  0.00     0.167 HD
ATOM     61  C   UNL A   1      42.132  25.446  28.198  1.00  0.00     0.034 A 
ATOM     62  C   UNL A   1      42.267  31.621  31.889  1.00  0.00     0.034 A 
ATOM     63  C   UNL A   1      43.286  26.100  28.828  1.00  0.00     0.049 A 
ATOM     64  C   UNL A   1      43.132  30.490  32.402  1.00  0.00     0.074 A 
ATOM     65  C   UNL A   1      44.291  26.925  28.351  1.00  0.00     0.029 A 
ATOM     66  N   UNL A   1      43.354  26.170  30.218  1.00  0.00    -0.354 N 
ATOM     67  N   UNL A   1      43.397  29.401  31.730  1.00  0.00    -0.248 NA
ATOM     68  C   UNL A   1      43.760  30.496  33.717  1.00  0.00     0.031 C 
ATOM     69  C   UNL A   1      44.915  27.550  29.468  1.00  0.00     0.029 A 
ATOM     70  C   UNL A   1      44.315  27.078  30.623  1.00  0.00     0.049 A 
ATOM     71  H   UNL A   1      42.791  25.644  30.831  1.00  0.00     0.167 HD
ATOM     72  C   UNL A   1      44.179  28.564  32.489  1.00  0.00     0.074 A 
ATOM     73  C   UNL A   1      44.404  29.316  33.712  1.00  0.00     0.031 C 
ATOM     74  C   UNL A   1      44.556  27.324  32.044  1.00  0.00     0.034 A 
BRANCH  61  75
ATOM     75  C   UNL A   1      42.264  24.388  27.113  1.00  0.00     0.023 A 
ATOM     76  C   UNL A   1      41.765  23.088  27.353  1.00  0.00     0.031 A 
ATOM     77  C   UNL A   1      42.920  24.544  25.874  1.00  0.00     0.131 A 
ATOM     78  C   UNL A   1      42.010  22.021  26.463  1.00  0.00     0.055 A 
ATOM     79  C   UNL A   1      43.211  23.477  25.013  1.00  0.00     0.041 A 
ATOM     80  F   UNL A   1      43.263  25.742  25.393  1.00  0.00    -0.206 F 
ATOM     81  C   UNL A   1      42.766  22.202  25.309  1.00  0.00     0.022 A 
BRANCH  78  82
ATOM     82  S   UNL A   1      41.324  20.381  26.825  1.00  0.00     0.124 S 
ATOM     83  O   UNL A   1      40.258  20.265  25.834  1.00  0.00    -0.237 OA
ATOM     84  O   UNL A   1      42.480  19.514  26.637  1.00  0.00    -0.237 OA
ATOM     85  O   UNL A   1      40.866  20.503  28.209  1.00  0.00    -0.744 OA
ENDBRANCH  78  82
ENDBRANCH  61  75
BRANCH  62  86
ATOM     86  C   UNL A   1      41.174  32.314  32.634  1.00  0.00     0.023 A 
ATOM     87  C   UNL A   1      40.197  31.489  33.239  1.00  0.00     0.031 A 
ATOM     88  C   UNL A   1      41.295  33.630  33.095  1.00  0.00     0.131 A 
ATOM     89  C   UNL A   1      39.521  31.916  34.389  1.00  0.00     0.055 A 
ATOM     90  C   UNL A   1      40.553  34.083  34.196  1.00  0.00     0.041 A 
ATOM     91  F   UNL A   1      42.220  34.454  32.582  1.00  0.00    -0.206 F 
ATOM     92  C   UNL A   1      39.701  33.210  34.880  1.00  0.00     0.022 A 
BRANCH  89  93
ATOM     93  S   UNL A   1      38.649  30.675  35.395  1.00  0.00     0.124 S 
ATOM     94  O   UNL A   1      38.142  29.755  34.385  1.00  0.00    -0.237 OA
ATOM     95  O   UNL A   1      39.705  30.143  36.258  1.00  0.00    -0.237 OA
ATOM     96  O   UNL A   1      37.639  31.453  36.107  1.00  0.00    -0.744 OA
ENDBRANCH  89  93
ENDBRANCH  62  86
BRANCH  74  97
ATOM     97  C   UNL A   1      45.252  26.246  32.865  1.00  0.00     0.023 A 
ATOM     98  C   UNL A   1      44.583  25.347  33.706  1.00  0.00     0.031 A 
ATOM     99  C   UNL A   1      46.655  26.050  32.771  1.00  0.00     0.131 A 
ATOM    100  C   UNL A   1      45.281  24.386  34.465  1.00  0.00     0.055 A 
ATOM    101  C   UNL A   1      47.339  25.042  33.462  1.00  0.00     0.041 A 
ATOM    102  F   UNL A   1      47.431  26.822  31.997  1.00  0.00    -0.206 F 
ATOM    103  C   UNL A   1      46.654  24.211  34.332  1.00  0.00     0.022 A 
BRANCH 100 104
ATOM    104  S   UNL A   1      44.353  23.415  35.682  1.00  0.00     0.124 S 
ATOM    105  O   UNL A   1      45.156  22.198  35.771  1.00  0.00    -0.237 OA
ATOM    106  O   UNL A   1      44.380  24.277  36.859  1.00  0.00    -0.237 OA
ATOM    107  O   UNL A   1      43.040  23.247  35.064  1.00  0.00    -0.744 OA
ENDBRANCH 100 104
ENDBRANCH  74  97
ENDBRANCH  48  49
ENDBRANCH  40  43
ENDBRANCH  38  39
ENDBRANCH  37  38
ENDBRANCH  36  37
ENDBRANCH   1  36
TORSDOF 19
ENDMDL
MODEL 3
REMARK VINA RESULT:     -12.9      2.660      3.856
REMARK SMILES Cc1c(C(=O)Nc2ccc(C(=O)Nc3ccccc3C(=O)NCCCCNC(=O)c3ccc(-c4c5nc(c(-c6cc(S(=O)(=O)[O-])ccc6F)c6ccc([nH]6)c(-c6cc(S(=O)(=O)[O-])ccc6F)c6nc(c(-c7cc(S(=O)(=O)[O-])ccc7F)c7ccc4[nH]7)C=C6)C=C5)cc3)cc2)cccc1[N+](=O)[O-]
REMARK SMILES IDX 23 1 22 2 20 3 21 4 19 6 14 7 15 8 16 9 18 10 17 11 13 12
REMARK SMILES IDX 11 13 12 14 10 16 7 17 8 18 94 19 9 20 93 21 6 22 4 23 5 24
REMARK SMILES IDX 3 26 1 27 2 28 98 29 95 30 97 31 96 32 99 33 100 34 101 35
REMARK SMILES IDX 24 36 25 37 26 38 27 39 28 40 29 42 30 43 31 44 92 45 32 46
REMARK SMILES IDX 91 47 33 48 34 49 35 50 85 51 36 52 90 53 84 54 86 55 37 56
REMARK SMILES IDX 89 57 83 58 82 59 38 61 70 62 50 63 69 64 51 65 54 66 68 67
REMARK SMILES IDX 87 68 52 69 53 70 67 72 88 73 55 74 39 75 40 76 48 77 41 78
REMARK SMILES IDX 47 79 49 80 46 81 42 82 43 83 44 84 45 85 71 86 72 87 80 88
REMARK SMILES IDX 73 89 79 90 81 91 78 92 74 93 75 94 76 95 77 96 56 97 57 98
REMARK SMILES IDX 65 99 58 100 64 101 66 102 63 103 59 104 60 105 61 106
REMARK SMILES IDX 62 107
REMARK H PARENT 22 5 13 15 6 25 27 41 86 60 54 71
REMARK Flexibility Score: inf
ROOT
ATOM      1  C   UNL A   1      33.534  28.410  26.390  1.00  0.00     0.116 C 
ENDROOT
BRANCH   1   2
ATOM      2  N   UNL A   1      34.032  28.549  25.017  1.00  0.00    -0.352 N 
ATOM      3  C   UNL A   1      33.448  28.877  23.809  1.00  0.00     0.253 C 
ATOM      4  O   UNL A   1      34.195  29.082  22.852  1.00  0.00    -0.269 OA
ATOM      5  H   UNL A   1      34.997  28.369  24.938  1.00  0.00     0.163 HD
BRANCH   3   6
ATOM      6  C   UNL A   1      31.974  28.933  23.598  1.00  0.00     0.063 A 
ATOM      7  C   UNL A   1      31.335  28.285  22.509  1.00  0.00     0.054 A 
ATOM      8  C   UNL A   1      29.937  28.395  22.367  1.00  0.00     0.027 A 
ATOM      9  C   UNL A   1      29.169  29.083  23.304  1.00  0.00     0.002 A 
ATOM     10  C   UNL A   1      31.191  29.729  24.449  1.00  0.00     0.016 A 
ATOM     11  C   UNL A   1      29.799  29.763  24.336  1.00  0.00     0.001 A 
BRANCH   7  12
ATOM     12  N   UNL A   1      31.934  27.469  21.522  1.00  0.00    -0.321 N 
ATOM     13  C   UNL A   1      32.695  26.321  21.591  1.00  0.00     0.255 C 
ATOM     14  O   UNL A   1      33.249  25.913  20.568  1.00  0.00    -0.269 OA
ATOM     15  H   UNL A   1      31.776  27.782  20.602  1.00  0.00     0.170 HD
BRANCH  13  16
ATOM     16  C   UNL A   1      32.687  25.438  22.789  1.00  0.00     0.040 A 
ATOM     17  C   UNL A   1      32.548  24.070  25.245  1.00  0.00     0.041 A 
ATOM     18  C   UNL A   1      33.755  24.540  24.758  1.00  0.00     0.027 A 
ATOM     19  C   UNL A   1      31.421  24.148  24.421  1.00  0.00     0.027 A 
ATOM     20  C   UNL A   1      33.805  25.303  23.603  1.00  0.00     0.016 A 
ATOM     21  C   UNL A   1      31.493  24.827  23.194  1.00  0.00     0.016 A 
BRANCH  17  22
ATOM     22  N   UNL A   1      32.394  23.619  26.570  1.00  0.00    -0.322 N 
ATOM     23  C   UNL A   1      32.836  22.463  27.194  1.00  0.00     0.256 C 
ATOM     24  O   UNL A   1      32.537  22.253  28.370  1.00  0.00    -0.269 OA
ATOM     25  H   UNL A   1      31.884  24.228  27.151  1.00  0.00     0.170 HD
BRANCH  23  26
ATOM     26  C   UNL A   1      33.687  21.454  26.502  1.00  0.00     0.049 A 
ATOM     27  C   UNL A   1      35.852  22.746  26.868  1.00  0.00     0.053 C 
ATOM     28  C   UNL A   1      35.065  21.634  26.226  1.00  0.00     0.039 A 
ATOM     29  C   UNL A   1      35.646  20.751  25.287  1.00  0.00     0.273 A 
ATOM     30  C   UNL A   1      33.012  20.307  26.046  1.00  0.00     0.014 A 
ATOM     31  C   UNL A   1      34.960  19.621  24.809  1.00  0.00     0.086 A 
ATOM     32  C   UNL A   1      33.656  19.379  25.227  1.00  0.00     0.008 A 
BRANCH  29  33
ATOM     33  N   UNL A   1      36.949  21.035  24.678  1.00  0.00     0.063 N 
ATOM     34  O   UNL A   1      37.892  20.286  24.973  1.00  0.00    -0.258 OA
ATOM     35  O   UNL A   1      37.020  21.976  23.876  1.00  0.00    -0.258 OA
ENDBRANCH  29  33
ENDBRANCH  23  26
ENDBRANCH  17  22
ENDBRANCH  13  16
ENDBRANCH   7  12
ENDBRANCH   3   6
ENDBRANCH   1   2
BRANCH   1  36
ATOM     36  C   UNL A   1      33.477  29.695  27.228  1.00  0.00     0.023 C 
BRANCH  36  37
ATOM     37  C   UNL A   1      34.760  30.140  27.919  1.00  0.00     0.023 C 
BRANCH  37  38
ATOM     38  C   UNL A   1      35.121  31.595  27.665  1.00  0.00     0.116 C 
BRANCH  38  39
ATOM     39  N   UNL A   1      34.234  32.566  28.299  1.00  0.00    -0.352 N 
ATOM     40  C   UNL A   1      34.459  33.326  29.438  1.00  0.00     0.251 C 
ATOM     41  H   UNL A   1      33.362  32.698  27.862  1.00  0.00     0.163 HD
ATOM     42  O   UNL A   1      33.598  34.048  29.915  1.00  0.00    -0.269 OA
BRANCH  40  43
ATOM     43  C   UNL A   1      35.833  33.352  29.996  1.00  0.00     0.039 A 
ATOM     44  C   UNL A   1      36.834  33.914  29.194  1.00  0.00     0.014 A 
ATOM     45  C   UNL A   1      36.161  32.577  31.104  1.00  0.00     0.014 A 
ATOM     46  C   UNL A   1      38.146  33.482  29.347  1.00  0.00     0.010 A 
ATOM     47  C   UNL A   1      37.439  32.062  31.185  1.00  0.00     0.010 A 
ATOM     48  C   UNL A   1      38.412  32.462  30.261  1.00  0.00    -0.014 A 
BRANCH  48  49
ATOM     49  C   UNL A   1      39.639  31.676  30.237  1.00  0.00     0.031 A 
ATOM     50  C   UNL A   1      39.639  30.318  29.665  1.00  0.00     0.074 A 
ATOM     51  C   UNL A   1      40.789  32.210  30.703  1.00  0.00     0.049 A 
ATOM     52  N   UNL A   1      40.499  29.402  29.950  1.00  0.00    -0.248 NA
ATOM     53  C   UNL A   1      38.598  29.863  28.755  1.00  0.00     0.031 C 
ATOM     54  C   UNL A   1      42.141  31.678  30.562  1.00  0.00     0.029 A 
ATOM     55  N   UNL A   1      40.914  33.235  31.641  1.00  0.00    -0.354 N 
ATOM     56  C   UNL A   1      40.317  28.361  29.067  1.00  0.00     0.074 A 
ATOM     57  C   UNL A   1      39.067  28.660  28.412  1.00  0.00     0.031 C 
ATOM     58  C   UNL A   1      42.901  32.164  31.556  1.00  0.00     0.029 A 
ATOM     59  C   UNL A   1      42.030  32.920  32.438  1.00  0.00     0.049 A 
ATOM     60  H   UNL A   1      40.333  34.025  31.729  1.00  0.00     0.167 HD
ATOM     61  C   UNL A   1      41.319  27.448  28.908  1.00  0.00     0.034 A 
ATOM     62  C   UNL A   1      41.890  32.713  33.779  1.00  0.00     0.034 A 
ATOM     63  C   UNL A   1      42.376  27.645  29.909  1.00  0.00     0.049 A 
ATOM     64  C   UNL A   1      42.286  31.319  34.217  1.00  0.00     0.074 A 
ATOM     65  C   UNL A   1      43.639  28.211  29.862  1.00  0.00     0.029 A 
ATOM     66  N   UNL A   1      42.072  27.487  31.260  1.00  0.00    -0.354 N 
ATOM     67  N   UNL A   1      42.461  30.311  33.404  1.00  0.00    -0.248 NA
ATOM     68  C   UNL A   1      42.510  30.952  35.610  1.00  0.00     0.031 C 
ATOM     69  C   UNL A   1      44.060  28.460  31.199  1.00  0.00     0.029 A 
ATOM     70  C   UNL A   1      43.071  28.013  32.058  1.00  0.00     0.049 A 
ATOM     71  H   UNL A   1      41.254  27.059  31.600  1.00  0.00     0.167 HD
ATOM     72  C   UNL A   1      42.781  29.184  34.120  1.00  0.00     0.074 A 
ATOM     73  C   UNL A   1      42.831  29.651  35.496  1.00  0.00     0.031 C 
ATOM     74  C   UNL A   1      42.961  27.968  33.515  1.00  0.00     0.034 A 
BRANCH  61  75
ATOM     75  C   UNL A   1      41.492  26.568  27.678  1.00  0.00     0.023 A 
ATOM     76  C   UNL A   1      41.255  25.179  27.786  1.00  0.00     0.031 A 
ATOM     77  C   UNL A   1      41.950  26.988  26.412  1.00  0.00     0.131 A 
ATOM     78  C   UNL A   1      41.564  24.289  26.736  1.00  0.00     0.055 A 
ATOM     79  C   UNL A   1      42.306  26.102  25.386  1.00  0.00     0.041 A 
ATOM     80  F   UNL A   1      42.020  28.277  26.069  1.00  0.00    -0.206 F 
ATOM     81  C   UNL A   1      42.126  24.741  25.547  1.00  0.00     0.022 A 
BRANCH  78  82
ATOM     82  S   UNL A   1      41.218  22.519  26.936  1.00  0.00     0.124 S 
ATOM     83  O   UNL A   1      41.668  21.970  25.660  1.00  0.00    -0.237 OA
ATOM     84  O   UNL A   1      42.017  22.178  28.106  1.00  0.00    -0.237 OA
ATOM     85  O   UNL A   1      39.771  22.478  27.147  1.00  0.00    -0.744 OA
ENDBRANCH  78  82
ENDBRANCH  61  75
BRANCH  62  86
ATOM     86  C   UNL A   1      40.831  33.570  34.389  1.00  0.00     0.023 A 
ATOM     87  C   UNL A   1      39.700  32.903  34.914  1.00  0.00     0.031 A 
ATOM     88  C   UNL A   1      41.078  34.878  34.822  1.00  0.00     0.131 A 
ATOM     89  C   UNL A   1      38.977  33.460  35.977  1.00  0.00     0.055 A 
ATOM     90  C   UNL A   1      40.298  35.467  35.829  1.00  0.00     0.041 A 
ATOM     91  F   UNL A   1      42.149  35.555  34.383  1.00  0.00    -0.206 F 
ATOM     92  C   UNL A   1      39.277  34.739  36.447  1.00  0.00     0.022 A 
BRANCH  89  93
ATOM     93  S   UNL A   1      37.856  32.383  36.924  1.00  0.00     0.124 S 
ATOM     94  O   UNL A   1      36.641  33.186  36.998  1.00  0.00    -0.237 OA
ATOM     95  O   UNL A   1      37.767  31.181  36.095  1.00  0.00    -0.237 OA
ATOM     96  O   UNL A   1      38.558  32.180  38.189  1.00  0.00    -0.744 OA
ENDBRANCH  89  93
ENDBRANCH  62  86
BRANCH  74  97
ATOM     97  C   UNL A   1      43.128  26.628  34.220  1.00  0.00     0.023 A 
ATOM     98  C   UNL A   1      44.359  25.981  34.392  1.00  0.00     0.031 A 
ATOM     99  C   UNL A   1      42.018  25.972  34.813  1.00  0.00     0.131 A 
ATOM    100  C   UNL A   1      44.452  24.727  35.029  1.00  0.00     0.055 A 
ATOM    101  C   UNL A   1      42.122  24.767  35.517  1.00  0.00     0.041 A 
ATOM    102  F   UNL A   1      40.776  26.475  34.745  1.00  0.00    -0.206 F 
ATOM    103  C   UNL A   1      43.344  24.125  35.614  1.00  0.00     0.022 A 
BRANCH 100 104
ATOM    104  S   UNL A   1      46.051  23.872  35.013  1.00  0.00     0.124 S 
ATOM    105  O   UNL A   1      45.681  22.552  34.508  1.00  0.00    -0.237 OA
ATOM    106  O   UNL A   1      46.839  24.699  34.104  1.00  0.00    -0.237 OA
ATOM    107  O   UNL A   1      46.476  23.905  36.410  1.00  0.00    -0.744 OA
ENDBRANCH 100 104
ENDBRANCH  74  97
ENDBRANCH  48  49
ENDBRANCH  40  43
ENDBRANCH  38  39
ENDBRANCH  37  38
ENDBRANCH  36  37
ENDBRANCH   1  36
TORSDOF 19
ENDMDL
