MODEL 1
REMARK VINA RESULT:     -12.1      0.000      0.000
REMARK SMILES CCCn1nc(C(=O)NCCCCNC(=O)c2ccc(-c3c4nc(c(-c5cc(S(=O)(=O)[O-])ccc5F)c5ccc([nH]5)c(-c5cc(S(=O)(=O)[O-])ccc5F)c5nc(c(-c6cc(S(=O)(=O)[O-])ccc6F)c6ccc3[nH]6)C=C5)C=C4)cc2)c2c1CC[C@@H]([NH+]1CC[NH+](Cc3ccccn3)CC1)C2
REMARK SMILES IDX 11 1 10 2 9 3 7 4 8 5 6 7 4 8 5 9 81 10 80 11 82 12 98 13
REMARK SMILES IDX 83 14 84 15 3 16 2 17 1 18 85 19 86 20 97 21 87 23 96 24
REMARK SMILES IDX 88 25 89 27 90 28 91 29 95 30 92 31 94 32 93 33 12 34 13 35
REMARK SMILES IDX 14 36 15 37 16 39 17 40 18 41 79 42 19 43 78 44 20 45 21 46
REMARK SMILES IDX 22 47 72 48 23 49 77 50 71 51 73 52 24 53 76 54 70 55 69 56
REMARK SMILES IDX 25 58 57 59 37 60 56 61 38 62 41 63 55 64 74 65 39 66 40 67
REMARK SMILES IDX 54 69 75 70 42 71 26 72 27 73 35 74 28 75 34 76 36 77 33 78
REMARK SMILES IDX 29 79 30 80 31 81 32 82 58 83 59 84 67 85 60 86 66 87 68 88
REMARK SMILES IDX 65 89 61 90 62 91 63 92 64 93 43 94 44 95 52 96 45 97 51 98
REMARK SMILES IDX 53 99 50 100 46 101 47 102 48 103 49 104
REMARK H PARENT 9 6 85 22 88 26 14 38 73 57 41 68
REMARK Flexibility Score: inf
ROOT
ATOM      1  C   UNL A   1      45.859  32.368  26.959  1.00  0.00     0.023 C 
ENDROOT
BRANCH   1   2
ATOM      2  C   UNL A   1      46.419  30.958  27.241  1.00  0.00     0.116 C 
BRANCH   2   3
ATOM      3  N   UNL A   1      46.373  30.078  26.077  1.00  0.00    -0.351 N 
ATOM      4  C   UNL A   1      45.937  28.801  25.782  1.00  0.00     0.272 C 
ATOM      5  O   UNL A   1      45.955  28.556  24.566  1.00  0.00    -0.267 OA
ATOM      6  H   UNL A   1      46.759  30.516  25.283  1.00  0.00     0.163 HD
BRANCH   4   7
ATOM      7  C   UNL A   1      45.517  27.753  26.757  1.00  0.00     0.153 A 
ATOM      8  N   UNL A   1      44.176  26.888  28.240  1.00  0.00    -0.269 N 
ATOM      9  N   UNL A   1      44.496  28.036  27.602  1.00  0.00    -0.167 NA
ATOM     10  C   UNL A   1      45.059  25.896  27.945  1.00  0.00     0.043 A 
ATOM     11  C   UNL A   1      45.883  26.396  26.953  1.00  0.00     0.012 A 
ATOM     12  C   UNL A   1      45.066  24.481  28.397  1.00  0.00     0.062 C 
ATOM     13  C   UNL A   1      46.821  25.523  26.217  1.00  0.00     0.105 C 
ATOM     14  C   UNL A   1      46.345  23.772  27.934  1.00  0.00     0.072 C 
ATOM     15  C   UNL A   1      46.648  24.013  26.448  1.00  0.00     0.189 C 
BRANCH   8  16
ATOM     16  C   UNL A   1      42.922  26.908  28.979  1.00  0.00     0.144 C 
BRANCH  16  17
ATOM     17  C   UNL A   1      42.780  27.677  30.298  1.00  0.00     0.020 C 
ATOM     18  C   UNL A   1      43.916  27.418  31.276  1.00  0.00     0.006 C 
ENDBRANCH  16  17
ENDBRANCH   8  16
BRANCH  15  19
ATOM     19  N   UNL A   1      45.694  23.350  25.568  1.00  0.00    -0.323 N 
ATOM     20  C   UNL A   1      44.787  24.031  24.671  1.00  0.00     0.324 C 
ATOM     21  C   UNL A   1      45.633  21.899  25.586  1.00  0.00     0.324 C 
ATOM     22  H   UNL A   1      45.888  24.352  25.608  1.00  0.00     0.348 HD
ATOM     23  C   UNL A   1      43.325  23.537  24.800  1.00  0.00     0.324 C 
ATOM     24  C   UNL A   1      44.337  21.315  24.977  1.00  0.00     0.324 C 
ATOM     25  N   UNL A   1      43.123  22.122  25.132  1.00  0.00    -0.321 N 
ATOM     26  H   UNL A   1      42.496  21.779  24.404  1.00  0.00     0.348 HD
BRANCH  25  27
ATOM     27  C   UNL A   1      42.319  21.851  26.333  1.00  0.00     0.319 C 
BRANCH  27  28
ATOM     28  C   UNL A   1      40.916  22.431  26.475  1.00  0.00     0.095 A 
ATOM     29  C   UNL A   1      40.721  23.664  27.098  1.00  0.00     0.030 A 
ATOM     30  N   UNL A   1      39.884  21.761  25.899  1.00  0.00    -0.255 NA
ATOM     31  C   UNL A   1      39.428  24.184  27.201  1.00  0.00     0.004 A 
ATOM     32  C   UNL A   1      38.640  22.281  26.026  1.00  0.00     0.111 A 
ATOM     33  C   UNL A   1      38.362  23.471  26.673  1.00  0.00     0.020 A 
ENDBRANCH  27  28
ENDBRANCH  25  27
ENDBRANCH  15  19
ENDBRANCH   4   7
ENDBRANCH   2   3
ENDBRANCH   1   2
BRANCH   1  34
ATOM     34  C   UNL A   1      44.777  32.505  25.887  1.00  0.00     0.023 C 
BRANCH  34  35
ATOM     35  C   UNL A   1      44.064  33.854  25.897  1.00  0.00     0.116 C 
BRANCH  35  36
ATOM     36  N   UNL A   1      44.960  34.991  26.143  1.00  0.00    -0.352 N 
ATOM     37  C   UNL A   1      44.747  36.032  27.031  1.00  0.00     0.251 C 
ATOM     38  H   UNL A   1      45.795  35.017  25.623  1.00  0.00     0.163 HD
ATOM     39  O   UNL A   1      45.303  37.116  26.898  1.00  0.00    -0.269 OA
BRANCH  37  40
ATOM     40  C   UNL A   1      43.830  35.778  28.154  1.00  0.00     0.039 A 
ATOM     41  C   UNL A   1      42.514  36.241  28.137  1.00  0.00     0.014 A 
ATOM     42  C   UNL A   1      44.290  34.918  29.150  1.00  0.00     0.014 A 
ATOM     43  C   UNL A   1      41.618  35.735  29.079  1.00  0.00     0.010 A 
ATOM     44  C   UNL A   1      43.378  34.342  30.004  1.00  0.00     0.010 A 
ATOM     45  C   UNL A   1      42.044  34.754  29.989  1.00  0.00    -0.014 A 
BRANCH  45  46
ATOM     46  C   UNL A   1      41.070  34.044  30.824  1.00  0.00     0.031 A 
ATOM     47  C   UNL A   1      41.413  33.917  32.272  1.00  0.00     0.074 A 
ATOM     48  C   UNL A   1      39.818  33.744  30.411  1.00  0.00     0.049 A 
ATOM     49  N   UNL A   1      41.635  32.837  32.945  1.00  0.00    -0.248 NA
ATOM     50  C   UNL A   1      41.632  35.146  33.052  1.00  0.00     0.031 C 
ATOM     51  C   UNL A   1      39.182  34.081  29.134  1.00  0.00     0.029 A 
ATOM     52  N   UNL A   1      38.795  33.191  31.119  1.00  0.00    -0.354 N 
ATOM     53  C   UNL A   1      41.800  33.220  34.275  1.00  0.00     0.074 A 
ATOM     54  C   UNL A   1      41.970  34.650  34.246  1.00  0.00     0.031 C 
ATOM     55  C   UNL A   1      37.842  33.970  29.258  1.00  0.00     0.029 A 
ATOM     56  C   UNL A   1      37.540  33.386  30.553  1.00  0.00     0.049 A 
ATOM     57  H   UNL A   1      38.932  32.696  31.959  1.00  0.00     0.167 HD
ATOM     58  C   UNL A   1      41.575  32.350  35.304  1.00  0.00     0.034 A 
ATOM     59  C   UNL A   1      36.331  33.125  31.114  1.00  0.00     0.034 A 
ATOM     60  C   UNL A   1      41.510  30.986  34.821  1.00  0.00     0.049 A 
ATOM     61  C   UNL A   1      36.562  32.113  32.175  1.00  0.00     0.074 A 
ATOM     62  C   UNL A   1      42.361  30.180  34.087  1.00  0.00     0.029 A 
ATOM     63  N   UNL A   1      40.278  30.375  34.739  1.00  0.00    -0.354 N 
ATOM     64  N   UNL A   1      36.975  30.900  31.929  1.00  0.00    -0.248 NA
ATOM     65  C   UNL A   1      36.801  32.583  33.531  1.00  0.00     0.031 C 
ATOM     66  C   UNL A   1      41.505  29.494  33.174  1.00  0.00     0.029 A 
ATOM     67  C   UNL A   1      40.187  29.845  33.475  1.00  0.00     0.049 A 
ATOM     68  H   UNL A   1      39.596  30.327  35.448  1.00  0.00     0.167 HD
ATOM     69  C   UNL A   1      37.903  30.629  32.922  1.00  0.00     0.074 A 
ATOM     70  C   UNL A   1      37.673  31.656  33.939  1.00  0.00     0.031 C 
ATOM     71  C   UNL A   1      38.958  29.785  32.706  1.00  0.00     0.034 A 
BRANCH  58  72
ATOM     72  C   UNL A   1      41.078  32.717  36.691  1.00  0.00     0.023 A 
ATOM     73  C   UNL A   1      39.782  32.286  37.048  1.00  0.00     0.031 A 
ATOM     74  C   UNL A   1      41.653  33.678  37.551  1.00  0.00     0.131 A 
ATOM     75  C   UNL A   1      39.080  32.884  38.109  1.00  0.00     0.055 A 
ATOM     76  C   UNL A   1      40.978  34.215  38.654  1.00  0.00     0.041 A 
ATOM     77  F   UNL A   1      42.856  34.219  37.331  1.00  0.00    -0.206 F 
ATOM     78  C   UNL A   1      39.670  33.848  38.917  1.00  0.00     0.022 A 
BRANCH  75  79
ATOM     79  S   UNL A   1      37.312  32.521  38.282  1.00  0.00     0.124 S 
ATOM     80  O   UNL A   1      37.046  33.006  39.632  1.00  0.00    -0.237 OA
ATOM     81  O   UNL A   1      36.738  33.302  37.192  1.00  0.00    -0.237 OA
ATOM     82  O   UNL A   1      37.245  31.071  38.113  1.00  0.00    -0.744 OA
ENDBRANCH  75  79
ENDBRANCH  58  72
BRANCH  59  83
ATOM     83  C   UNL A   1      35.072  33.901  30.954  1.00  0.00     0.023 A 
ATOM     84  C   UNL A   1      34.658  34.874  31.885  1.00  0.00     0.031 A 
ATOM     85  C   UNL A   1      34.363  33.852  29.731  1.00  0.00     0.131 A 
ATOM     86  C   UNL A   1      33.583  35.741  31.578  1.00  0.00     0.055 A 
ATOM     87  C   UNL A   1      33.295  34.703  29.437  1.00  0.00     0.041 A 
ATOM     88  F   UNL A   1      34.739  33.028  28.739  1.00  0.00    -0.206 F 
ATOM     89  C   UNL A   1      32.907  35.661  30.359  1.00  0.00     0.022 A 
BRANCH  86  90
ATOM     90  S   UNL A   1      33.117  37.074  32.730  1.00  0.00     0.124 S 
ATOM     91  O   UNL A   1      31.733  36.740  33.046  1.00  0.00    -0.237 OA
ATOM     92  O   UNL A   1      34.086  36.913  33.808  1.00  0.00    -0.237 OA
ATOM     93  O   UNL A   1      33.290  38.289  31.932  1.00  0.00    -0.744 OA
ENDBRANCH  86  90
ENDBRANCH  59  83
BRANCH  71  94
ATOM     94  C   UNL A   1      38.964  28.905  31.471  1.00  0.00     0.023 A 
ATOM     95  C   UNL A   1      39.420  29.301  30.192  1.00  0.00     0.031 A 
ATOM     96  C   UNL A   1      38.608  27.553  31.639  1.00  0.00     0.131 A 
ATOM     97  C   UNL A   1      39.489  28.362  29.143  1.00  0.00     0.055 A 
ATOM     98  C   UNL A   1      38.701  26.622  30.606  1.00  0.00     0.041 A 
ATOM     99  F   UNL A   1      38.192  27.101  32.834  1.00  0.00    -0.206 F 
ATOM    100  C   UNL A   1      39.135  27.026  29.349  1.00  0.00     0.022 A 
BRANCH  97 101
ATOM    101  S   UNL A   1      40.017  28.865  27.472  1.00  0.00     0.124 S 
ATOM    102  O   UNL A   1      40.273  27.601  26.793  1.00  0.00    -0.237 OA
ATOM    103  O   UNL A   1      38.865  29.625  26.993  1.00  0.00    -0.237 OA
ATOM    104  O   UNL A   1      41.213  29.673  27.726  1.00  0.00    -0.744 OA
ENDBRANCH  97 101
ENDBRANCH  71  94
ENDBRANCH  45  46
ENDBRANCH  37  40
ENDBRANCH  35  36
ENDBRANCH  34  35
ENDBRANCH   1  34
TORSDOF 19
ENDMDL
MODEL 2
REMARK VINA RESULT:     -11.3      5.297     11.781
REMARK SMILES CCCn1nc(C(=O)NCCCCNC(=O)c2ccc(-c3c4nc(c(-c5cc(S(=O)(=O)[O-])ccc5F)c5ccc([nH]5)c(-c5cc(S(=O)(=O)[O-])ccc5F)c5nc(c(-c6cc(S(=O)(=O)[O-])ccc6F)c6ccc3[nH]6)C=C5)C=C4)cc2)c2c1CC[C@@H]([NH+]1CC[NH+](Cc3ccccn3)CC1)C2
REMARK SMILES IDX 11 1 10 2 9 3 7 4 8 5 6 7 4 8 5 9 81 10 80 11 82 12 98 13
REMARK SMILES IDX 83 14 84 15 3 16 2 17 1 18 85 19 86 20 97 21 87 23 96 24
REMARK SMILES IDX 88 25 89 27 90 28 91 29 95 30 92 31 94 32 93 33 12 34 13 35
REMARK SMILES IDX 14 36 15 37 16 39 17 40 18 41 79 42 19 43 78 44 20 45 21 46
REMARK SMILES IDX 22 47 72 48 23 49 77 50 71 51 73 52 24 53 76 54 70 55 69 56
REMARK SMILES IDX 25 58 57 59 37 60 56 61 38 62 41 63 55 64 74 65 39 66 40 67
REMARK SMILES IDX 54 69 75 70 42 71 26 72 27 73 35 74 28 75 34 76 36 77 33 78
REMARK SMILES IDX 29 79 30 80 31 81 32 82 58 83 59 84 67 85 60 86 66 87 68 88
REMARK SMILES IDX 65 89 61 90 62 91 63 92 64 93 43 94 44 95 52 96 45 97 51 98
REMARK SMILES IDX 53 99 50 100 46 101 47 102 48 103 49 104
REMARK H PARENT 9 6 85 22 88 26 14 38 73 57 41 68
REMARK Flexibility Score: inf
ROOT
ATOM      1  C   UNL A   1      38.806  22.765  26.339  1.00  0.00     0.023 C 
ENDROOT
BRANCH   1   2
ATOM      2  C   UNL A   1      37.683  23.587  25.673  1.00  0.00     0.116 C 
BRANCH   2   3
ATOM      3  N   UNL A   1      37.491  23.259  24.263  1.00  0.00    -0.351 N 
ATOM      4  C   UNL A   1      36.440  22.942  23.424  1.00  0.00     0.272 C 
ATOM      5  O   UNL A   1      36.769  22.920  22.228  1.00  0.00    -0.267 OA
ATOM      6  H   UNL A   1      38.347  23.268  23.775  1.00  0.00     0.163 HD
BRANCH   4   7
ATOM      7  C   UNL A   1      35.044  22.604  23.830  1.00  0.00     0.153 A 
ATOM      8  N   UNL A   1      33.552  21.453  24.922  1.00  0.00    -0.269 N 
ATOM      9  N   UNL A   1      34.835  21.444  24.499  1.00  0.00    -0.167 NA
ATOM     10  C   UNL A   1      32.873  22.520  24.418  1.00  0.00     0.043 A 
ATOM     11  C   UNL A   1      33.813  23.305  23.775  1.00  0.00     0.012 A 
ATOM     12  C   UNL A   1      31.464  22.929  24.649  1.00  0.00     0.062 C 
ATOM     13  C   UNL A   1      33.486  24.667  23.303  1.00  0.00     0.105 C 
ATOM     14  C   UNL A   1      31.090  24.113  23.748  1.00  0.00     0.072 C 
ATOM     15  C   UNL A   1      32.139  25.234  23.782  1.00  0.00     0.189 C 
BRANCH   8  16
ATOM     16  C   UNL A   1      33.205  20.434  25.901  1.00  0.00     0.144 C 
BRANCH  16  17
ATOM     17  C   UNL A   1      32.894  18.992  25.483  1.00  0.00     0.020 C 
ATOM     18  C   UNL A   1      32.497  18.857  24.021  1.00  0.00     0.006 C 
ENDBRANCH  16  17
ENDBRANCH   8  16
BRANCH  15  19
ATOM     19  N   UNL A   1      32.173  25.930  25.061  1.00  0.00    -0.323 N 
ATOM     20  C   UNL A   1      31.071  26.000  25.994  1.00  0.00     0.324 C 
ATOM     21  C   UNL A   1      33.397  26.617  25.438  1.00  0.00     0.324 C 
ATOM     22  H   UNL A   1      31.409  25.356  24.704  1.00  0.00     0.348 HD
ATOM     23  C   UNL A   1      30.774  27.443  26.473  1.00  0.00     0.324 C 
ATOM     24  C   UNL A   1      33.211  27.666  26.560  1.00  0.00     0.324 C 
ATOM     25  N   UNL A   1      31.917  28.354  26.601  1.00  0.00    -0.321 N 
ATOM     26  H   UNL A   1      31.850  28.712  27.554  1.00  0.00     0.348 HD
BRANCH  25  27
ATOM     27  C   UNL A   1      31.831  29.606  25.834  1.00  0.00     0.319 C 
BRANCH  27  28
ATOM     28  C   UNL A   1      31.049  29.664  24.527  1.00  0.00     0.095 A 
ATOM     29  C   UNL A   1      30.012  30.582  24.363  1.00  0.00     0.030 A 
ATOM     30  N   UNL A   1      31.453  28.867  23.503  1.00  0.00    -0.255 NA
ATOM     31  C   UNL A   1      29.321  30.629  23.149  1.00  0.00     0.004 A 
ATOM     32  C   UNL A   1      30.757  28.922  22.342  1.00  0.00     0.111 A 
ATOM     33  C   UNL A   1      29.687  29.770  22.124  1.00  0.00     0.020 A 
ENDBRANCH  27  28
ENDBRANCH  25  27
ENDBRANCH  15  19
ENDBRANCH   4   7
ENDBRANCH   2   3
ENDBRANCH   1   2
BRANCH   1  34
ATOM     34  C   UNL A   1      39.159  21.409  25.726  1.00  0.00     0.023 C 
BRANCH  34  35
ATOM     35  C   UNL A   1      39.774  20.425  26.717  1.00  0.00     0.116 C 
BRANCH  35  36
ATOM     36  N   UNL A   1      40.848  19.605  26.144  1.00  0.00    -0.352 N 
ATOM     37  C   UNL A   1      42.124  20.031  25.814  1.00  0.00     0.251 C 
ATOM     38  H   UNL A   1      40.640  18.658  25.976  1.00  0.00     0.163 HD
ATOM     39  O   UNL A   1      42.811  19.433  24.994  1.00  0.00    -0.269 OA
BRANCH  37  40
ATOM     40  C   UNL A   1      42.629  21.229  26.502  1.00  0.00     0.039 A 
ATOM     41  C   UNL A   1      42.880  22.415  25.810  1.00  0.00     0.014 A 
ATOM     42  C   UNL A   1      42.687  21.170  27.894  1.00  0.00     0.014 A 
ATOM     43  C   UNL A   1      43.078  23.585  26.542  1.00  0.00     0.010 A 
ATOM     44  C   UNL A   1      42.774  22.343  28.607  1.00  0.00     0.010 A 
ATOM     45  C   UNL A   1      42.986  23.554  27.944  1.00  0.00    -0.014 A 
BRANCH  45  46
ATOM     46  C   UNL A   1      42.957  24.802  28.713  1.00  0.00     0.031 A 
ATOM     47  C   UNL A   1      41.804  25.713  28.444  1.00  0.00     0.074 A 
ATOM     48  C   UNL A   1      43.746  25.031  29.786  1.00  0.00     0.049 A 
ATOM     49  N   UNL A   1      41.832  26.908  27.954  1.00  0.00    -0.248 NA
ATOM     50  C   UNL A   1      40.440  25.202  28.657  1.00  0.00     0.031 C 
ATOM     51  C   UNL A   1      44.713  24.121  30.407  1.00  0.00     0.029 A 
ATOM     52  N   UNL A   1      43.739  26.090  30.640  1.00  0.00    -0.354 N 
ATOM     53  C   UNL A   1      40.525  27.391  28.001  1.00  0.00     0.074 A 
ATOM     54  C   UNL A   1      39.699  26.242  28.266  1.00  0.00     0.031 C 
ATOM     55  C   UNL A   1      44.993  24.549  31.657  1.00  0.00     0.029 A 
ATOM     56  C   UNL A   1      44.370  25.846  31.855  1.00  0.00     0.049 A 
ATOM     57  H   UNL A   1      43.324  26.955  30.418  1.00  0.00     0.167 HD
ATOM     58  C   UNL A   1      40.257  28.731  28.022  1.00  0.00     0.034 A 
ATOM     59  C   UNL A   1      44.358  26.630  32.964  1.00  0.00     0.034 A 
ATOM     60  C   UNL A   1      41.426  29.496  27.642  1.00  0.00     0.049 A 
ATOM     61  C   UNL A   1      44.038  28.007  32.512  1.00  0.00     0.074 A 
ATOM     62  C   UNL A   1      42.264  29.498  26.541  1.00  0.00     0.029 A 
ATOM     63  N   UNL A   1      42.126  30.161  28.625  1.00  0.00    -0.354 N 
ATOM     64  N   UNL A   1      44.823  28.705  31.738  1.00  0.00    -0.248 NA
ATOM     65  C   UNL A   1      42.644  28.425  32.516  1.00  0.00     0.031 C 
ATOM     66  C   UNL A   1      43.575  29.639  27.089  1.00  0.00     0.029 A 
ATOM     67  C   UNL A   1      43.447  29.816  28.468  1.00  0.00     0.049 A 
ATOM     68  H   UNL A   1      41.753  30.765  29.307  1.00  0.00     0.167 HD
ATOM     69  C   UNL A   1      43.974  29.333  30.840  1.00  0.00     0.074 A 
ATOM     70  C   UNL A   1      42.643  29.210  31.435  1.00  0.00     0.031 C 
ATOM     71  C   UNL A   1      44.375  29.639  29.568  1.00  0.00     0.034 A 
BRANCH  58  72
ATOM     72  C   UNL A   1      39.070  29.393  28.698  1.00  0.00     0.023 A 
ATOM     73  C   UNL A   1      39.106  29.501  30.105  1.00  0.00     0.031 A 
ATOM     74  C   UNL A   1      37.816  29.654  28.103  1.00  0.00     0.131 A 
ATOM     75  C   UNL A   1      37.934  29.721  30.850  1.00  0.00     0.055 A 
ATOM     76  C   UNL A   1      36.666  29.948  28.846  1.00  0.00     0.041 A 
ATOM     77  F   UNL A   1      37.604  29.552  26.787  1.00  0.00    -0.206 F 
ATOM     78  C   UNL A   1      36.710  29.946  30.229  1.00  0.00     0.022 A 
BRANCH  75  79
ATOM     79  S   UNL A   1      38.006  29.503  32.648  1.00  0.00     0.124 S 
ATOM     80  O   UNL A   1      37.493  28.146  32.798  1.00  0.00    -0.237 OA
ATOM     81  O   UNL A   1      39.428  29.688  32.916  1.00  0.00    -0.237 OA
ATOM     82  O   UNL A   1      37.133  30.561  33.153  1.00  0.00    -0.744 OA
ENDBRANCH  75  79
ENDBRANCH  58  72
BRANCH  59  83
ATOM     83  C   UNL A   1      44.340  26.187  34.385  1.00  0.00     0.023 A 
ATOM     84  C   UNL A   1      45.475  26.261  35.216  1.00  0.00     0.031 A 
ATOM     85  C   UNL A   1      43.109  25.894  35.017  1.00  0.00     0.131 A 
ATOM     86  C   UNL A   1      45.353  26.046  36.609  1.00  0.00     0.055 A 
ATOM     87  C   UNL A   1      42.995  25.672  36.392  1.00  0.00     0.041 A 
ATOM     88  F   UNL A   1      41.955  25.895  34.332  1.00  0.00    -0.206 F 
ATOM     89  C   UNL A   1      44.119  25.758  37.197  1.00  0.00     0.022 A 
BRANCH  86  90
ATOM     90  S   UNL A   1      46.796  26.251  37.703  1.00  0.00     0.124 S 
ATOM     91  O   UNL A   1      47.069  27.679  37.590  1.00  0.00    -0.237 OA
ATOM     92  O   UNL A   1      46.285  25.787  38.989  1.00  0.00    -0.237 OA
ATOM     93  O   UNL A   1      47.807  25.381  37.100  1.00  0.00    -0.744 OA
ENDBRANCH  86  90
ENDBRANCH  59  83
BRANCH  71  94
ATOM     94  C   UNL A   1      45.849  29.561  29.216  1.00  0.00     0.023 A 
ATOM     95  C   UNL A   1      46.525  28.390  28.803  1.00  0.00     0.031 A 
ATOM     96  C   UNL A   1      46.568  30.771  29.175  1.00  0.00     0.131 A 
ATOM     97  C   UNL A   1      47.871  28.458  28.386  1.00  0.00     0.055 A 
ATOM     98  C   UNL A   1      47.891  30.839  28.738  1.00  0.00     0.041 A 
ATOM     99  F   UNL A   1      45.980  31.926  29.527  1.00  0.00    -0.206 F 
ATOM    100  C   UNL A   1      48.550  29.679  28.350  1.00  0.00     0.022 A 
BRANCH  97 101
ATOM    101  S   UNL A   1      48.778  26.953  27.907  1.00  0.00     0.124 S 
ATOM    102  O   UNL A   1      47.764  25.907  27.947  1.00  0.00    -0.237 OA
ATOM    103  O   UNL A   1      49.287  27.299  26.582  1.00  0.00    -0.237 OA
ATOM    104  O   UNL A   1      49.810  26.838  28.941  1.00  0.00    -0.744 OA
ENDBRANCH  97 101
ENDBRANCH  71  94
ENDBRANCH  45  46
ENDBRANCH  37  40
ENDBRANCH  35  36
ENDBRANCH  34  35
ENDBRANCH   1  34
TORSDOF 19
ENDMDL
MODEL 3
REMARK VINA RESULT:     -10.7      5.281     11.944
REMARK SMILES CCCn1nc(C(=O)NCCCCNC(=O)c2ccc(-c3c4nc(c(-c5cc(S(=O)(=O)[O-])ccc5F)c5ccc([nH]5)c(-c5cc(S(=O)(=O)[O-])ccc5F)c5nc(c(-c6cc(S(=O)(=O)[O-])ccc6F)c6ccc3[nH]6)C=C5)C=C4)cc2)c2c1CC[C@@H]([NH+]1CC[NH+](Cc3ccccn3)CC1)C2
REMARK SMILES IDX 11 1 10 2 9 3 7 4 8 5 6 7 4 8 5 9 81 10 80 11 82 12 98 13
REMARK SMILES IDX 83 14 84 15 3 16 2 17 1 18 85 19 86 20 97 21 87 23 96 24
REMARK SMILES IDX 88 25 89 27 90 28 91 29 95 30 92 31 94 32 93 33 12 34 13 35
REMARK SMILES IDX 14 36 15 37 16 39 17 40 18 41 79 42 19 43 78 44 20 45 21 46
REMARK SMILES IDX 22 47 72 48 23 49 77 50 71 51 73 52 24 53 76 54 70 55 69 56
REMARK SMILES IDX 25 58 57 59 37 60 56 61 38 62 41 63 55 64 74 65 39 66 40 67
REMARK SMILES IDX 54 69 75 70 42 71 26 72 27 73 35 74 28 75 34 76 36 77 33 78
REMARK SMILES IDX 29 79 30 80 31 81 32 82 58 83 59 84 67 85 60 86 66 87 68 88
REMARK SMILES IDX 65 89 61 90 62 91 63 92 64 93 43 94 44 95 52 96 45 97 51 98
REMARK SMILES IDX 53 99 50 100 46 101 47 102 48 103 49 104
REMARK H PARENT 9 6 85 22 88 26 14 38 73 57 41 68
REMARK Flexibility Score: inf
ROOT
ATOM      1  C   UNL A   1      39.031  22.359  26.390  1.00  0.00     0.023 C 
ENDROOT
BRANCH   1   2
ATOM      2  C   UNL A   1      37.800  23.138  25.881  1.00  0.00     0.116 C 
BRANCH   2   3
ATOM      3  N   UNL A   1      37.675  23.128  24.427  1.00  0.00    -0.351 N 
ATOM      4  C   UNL A   1      36.672  22.960  23.491  1.00  0.00     0.272 C 
ATOM      5  O   UNL A   1      37.042  23.222  22.337  1.00  0.00    -0.267 OA
ATOM      6  H   UNL A   1      38.545  23.287  23.993  1.00  0.00     0.163 HD
BRANCH   4   7
ATOM      7  C   UNL A   1      35.285  22.473  23.747  1.00  0.00     0.153 A 
ATOM      8  N   UNL A   1      33.819  21.114  24.613  1.00  0.00    -0.269 N 
ATOM      9  N   UNL A   1      35.128  21.248  24.304  1.00  0.00    -0.167 NA
ATOM     10  C   UNL A   1      33.090  22.160  24.137  1.00  0.00     0.043 A 
ATOM     11  C   UNL A   1      34.003  23.072  23.640  1.00  0.00     0.012 A 
ATOM     12  C   UNL A   1      31.636  22.430  24.276  1.00  0.00     0.062 C 
ATOM     13  C   UNL A   1      33.594  24.437  23.248  1.00  0.00     0.105 C 
ATOM     14  C   UNL A   1      31.230  23.650  23.440  1.00  0.00     0.072 C 
ATOM     15  C   UNL A   1      32.168  24.848  23.651  1.00  0.00     0.189 C 
BRANCH   8  16
ATOM     16  C   UNL A   1      33.488  19.991  25.477  1.00  0.00     0.144 C 
BRANCH  16  17
ATOM     17  C   UNL A   1      33.058  18.636  24.903  1.00  0.00     0.020 C 
ATOM     18  C   UNL A   1      32.571  17.657  25.960  1.00  0.00     0.006 C 
ENDBRANCH  16  17
ENDBRANCH   8  16
BRANCH  15  19
ATOM     19  N   UNL A   1      32.038  25.434  24.979  1.00  0.00    -0.323 N 
ATOM     20  C   UNL A   1      30.806  25.511  25.731  1.00  0.00     0.324 C 
ATOM     21  C   UNL A   1      33.224  25.994  25.603  1.00  0.00     0.324 C 
ATOM     22  H   UNL A   1      31.308  24.949  24.456  1.00  0.00     0.348 HD
ATOM     23  C   UNL A   1      30.524  26.928  26.288  1.00  0.00     0.324 C 
ATOM     24  C   UNL A   1      32.923  26.960  26.773  1.00  0.00     0.324 C 
ATOM     25  N   UNL A   1      31.685  27.738  26.675  1.00  0.00    -0.321 N 
ATOM     26  H   UNL A   1      31.487  28.021  27.635  1.00  0.00     0.348 HD
BRANCH  25  27
ATOM     27  C   UNL A   1      31.800  29.051  26.023  1.00  0.00     0.319 C 
BRANCH  27  28
ATOM     28  C   UNL A   1      31.408  29.228  24.560  1.00  0.00     0.095 A 
ATOM     29  C   UNL A   1      32.271  28.817  23.543  1.00  0.00     0.030 A 
ATOM     30  N   UNL A   1      30.167  29.705  24.282  1.00  0.00    -0.255 NA
ATOM     31  C   UNL A   1      31.883  28.972  22.210  1.00  0.00     0.004 A 
ATOM     32  C   UNL A   1      29.823  29.858  22.981  1.00  0.00     0.111 A 
ATOM     33  C   UNL A   1      30.643  29.522  21.920  1.00  0.00     0.020 A 
ENDBRANCH  27  28
ENDBRANCH  25  27
ENDBRANCH  15  19
ENDBRANCH   4   7
ENDBRANCH   2   3
ENDBRANCH   1   2
BRANCH   1  34
ATOM     34  C   UNL A   1      39.378  21.041  25.697  1.00  0.00     0.023 C 
BRANCH  34  35
ATOM     35  C   UNL A   1      39.971  19.990  26.632  1.00  0.00     0.116 C 
BRANCH  35  36
ATOM     36  N   UNL A   1      41.092  19.246  26.045  1.00  0.00    -0.352 N 
ATOM     37  C   UNL A   1      42.317  19.766  25.663  1.00  0.00     0.251 C 
ATOM     38  H   UNL A   1      40.959  18.280  25.910  1.00  0.00     0.163 HD
ATOM     39  O   UNL A   1      43.026  19.203  24.836  1.00  0.00    -0.269 OA
BRANCH  37  40
ATOM     40  C   UNL A   1      42.741  21.022  26.301  1.00  0.00     0.039 A 
ATOM     41  C   UNL A   1      42.921  22.191  25.560  1.00  0.00     0.014 A 
ATOM     42  C   UNL A   1      42.793  21.025  27.695  1.00  0.00     0.014 A 
ATOM     43  C   UNL A   1      43.040  23.401  26.243  1.00  0.00     0.010 A 
ATOM     44  C   UNL A   1      42.801  22.230  28.358  1.00  0.00     0.010 A 
ATOM     45  C   UNL A   1      42.941  23.423  27.644  1.00  0.00    -0.014 A 
BRANCH  45  46
ATOM     46  C   UNL A   1      42.828  24.698  28.360  1.00  0.00     0.031 A 
ATOM     47  C   UNL A   1      41.495  25.370  28.298  1.00  0.00     0.074 A 
ATOM     48  C   UNL A   1      43.751  25.138  29.243  1.00  0.00     0.049 A 
ATOM     49  N   UNL A   1      41.205  26.514  27.771  1.00  0.00    -0.248 NA
ATOM     50  C   UNL A   1      40.317  24.644  28.799  1.00  0.00     0.031 C 
ATOM     51  C   UNL A   1      44.972  24.459  29.688  1.00  0.00     0.029 A 
ATOM     52  N   UNL A   1      43.711  26.237  30.044  1.00  0.00    -0.354 N 
ATOM     53  C   UNL A   1      39.864  26.761  28.065  1.00  0.00     0.074 A 
ATOM     54  C   UNL A   1      39.334  25.507  28.531  1.00  0.00     0.031 C 
ATOM     55  C   UNL A   1      45.401  25.017  30.840  1.00  0.00     0.029 A 
ATOM     56  C   UNL A   1      44.598  26.195  31.114  1.00  0.00     0.049 A 
ATOM     57  H   UNL A   1      43.107  26.998  29.880  1.00  0.00     0.167 HD
ATOM     58  C   UNL A   1      39.360  28.031  28.093  1.00  0.00     0.034 A 
ATOM     59  C   UNL A   1      44.653  27.041  32.175  1.00  0.00     0.034 A 
ATOM     60  C   UNL A   1      40.271  28.961  27.458  1.00  0.00     0.049 A 
ATOM     61  C   UNL A   1      44.001  28.304  31.750  1.00  0.00     0.074 A 
ATOM     62  C   UNL A   1      40.867  29.032  26.212  1.00  0.00     0.029 A 
ATOM     63  N   UNL A   1      41.010  29.807  28.257  1.00  0.00    -0.354 N 
ATOM     64  N   UNL A   1      44.478  29.074  30.809  1.00  0.00    -0.248 NA
ATOM     65  C   UNL A   1      42.581  28.470  32.020  1.00  0.00     0.031 C 
ATOM     66  C   UNL A   1      42.208  29.440  26.478  1.00  0.00     0.029 A 
ATOM     67  C   UNL A   1      42.317  29.689  27.848  1.00  0.00     0.049 A 
ATOM     68  H   UNL A   1      40.669  30.383  28.978  1.00  0.00     0.167 HD
ATOM     69  C   UNL A   1      43.371  29.477  30.080  1.00  0.00     0.074 A 
ATOM     70  C   UNL A   1      42.226  29.164  30.935  1.00  0.00     0.031 C 
ATOM     71  C   UNL A   1      43.456  29.757  28.743  1.00  0.00     0.034 A 
BRANCH  58  72
ATOM     72  C   UNL A   1      38.223  28.520  28.971  1.00  0.00     0.023 A 
ATOM     73  C   UNL A   1      37.254  29.353  28.369  1.00  0.00     0.031 A 
ATOM     74  C   UNL A   1      38.182  28.467  30.382  1.00  0.00     0.131 A 
ATOM     75  C   UNL A   1      36.409  30.166  29.144  1.00  0.00     0.055 A 
ATOM     76  C   UNL A   1      37.286  29.222  31.147  1.00  0.00     0.041 A 
ATOM     77  F   UNL A   1      39.057  27.760  31.105  1.00  0.00    -0.206 F 
ATOM     78  C   UNL A   1      36.417  30.107  30.533  1.00  0.00     0.022 A 
BRANCH  75  79
ATOM     79  S   UNL A   1      35.444  31.449  28.302  1.00  0.00     0.124 S 
ATOM     80  O   UNL A   1      34.789  30.679  27.250  1.00  0.00    -0.237 OA
ATOM     81  O   UNL A   1      34.585  31.932  29.377  1.00  0.00    -0.237 OA
ATOM     82  O   UNL A   1      36.461  32.393  27.844  1.00  0.00    -0.744 OA
ENDBRANCH  75  79
ENDBRANCH  58  72
BRANCH  59  83
ATOM     83  C   UNL A   1      44.991  26.704  33.585  1.00  0.00     0.023 A 
ATOM     84  C   UNL A   1      45.243  25.385  34.009  1.00  0.00     0.031 A 
ATOM     85  C   UNL A   1      45.301  27.735  34.502  1.00  0.00     0.131 A 
ATOM     86  C   UNL A   1      45.779  25.140  35.295  1.00  0.00     0.055 A 
ATOM     87  C   UNL A   1      45.822  27.489  35.775  1.00  0.00     0.041 A 
ATOM     88  F   UNL A   1      45.189  29.029  34.161  1.00  0.00    -0.206 F 
ATOM     89  C   UNL A   1      46.073  26.186  36.173  1.00  0.00     0.022 A 
BRANCH  86  90
ATOM     90  S   UNL A   1      46.213  23.446  35.806  1.00  0.00     0.124 S 
ATOM     91  O   UNL A   1      46.408  22.777  34.525  1.00  0.00    -0.237 OA
ATOM     92  O   UNL A   1      47.407  23.656  36.617  1.00  0.00    -0.237 OA
ATOM     93  O   UNL A   1      45.037  23.006  36.557  1.00  0.00    -0.744 OA
ENDBRANCH  86  90
ENDBRANCH  59  83
BRANCH  71  94
ATOM     94  C   UNL A   1      44.823  29.915  28.104  1.00  0.00     0.023 A 
ATOM     95  C   UNL A   1      45.608  31.089  28.143  1.00  0.00     0.031 A 
ATOM     96  C   UNL A   1      45.407  28.765  27.536  1.00  0.00     0.131 A 
ATOM     97  C   UNL A   1      46.916  31.085  27.615  1.00  0.00     0.055 A 
ATOM     98  C   UNL A   1      46.709  28.758  27.038  1.00  0.00     0.041 A 
ATOM     99  F   UNL A   1      44.728  27.607  27.490  1.00  0.00    -0.206 F 
ATOM    100  C   UNL A   1      47.466  29.923  27.068  1.00  0.00     0.022 A 
BRANCH  97 101
ATOM    101  S   UNL A   1      47.923  32.604  27.602  1.00  0.00     0.124 S 
ATOM    102  O   UNL A   1      46.941  33.672  27.464  1.00  0.00    -0.237 OA
ATOM    103  O   UNL A   1      48.615  32.534  28.887  1.00  0.00    -0.237 OA
ATOM    104  O   UNL A   1      48.791  32.422  26.437  1.00  0.00    -0.744 OA
ENDBRANCH  97 101
ENDBRANCH  71  94
ENDBRANCH  45  46
ENDBRANCH  37  40
ENDBRANCH  35  36
ENDBRANCH  34  35
ENDBRANCH   1  34
TORSDOF 19
ENDMDL
