MODEL 1
REMARK VINA RESULT:     -12.0      0.000      0.000
REMARK SMILES Cc1cnc(NC(=O)NC[C@H]2CC[C@H](C(=O)NCCCCNC(=O)c3ccc(-c4c5nc(c(-c6cc(S(=O)(=O)[O-])ccc6F)c6ccc([nH]6)c(-c6cc(S(=O)(=O)[O-])ccc6F)c6nc(c(-c7cc(S(=O)(=O)[O-])ccc7F)c7ccc4[nH]7)C=C6)C=C5)cc3)O2)s1
REMARK SMILES IDX 19 1 18 2 17 3 15 4 16 5 14 7 11 8 12 9 88 10 13 11 10 12
REMARK SMILES IDX 9 13 6 14 7 15 8 17 5 19 1 20 2 21 3 22 89 23 4 24 20 25
REMARK SMILES IDX 21 26 22 27 23 28 24 30 25 31 26 32 87 33 27 34 86 35 28 36
REMARK SMILES IDX 29 37 30 38 80 39 31 40 85 41 79 42 81 43 32 44 84 45 78 46
REMARK SMILES IDX 77 47 33 49 65 50 45 51 64 52 46 53 49 54 63 55 82 56 47 57
REMARK SMILES IDX 48 58 62 60 83 61 50 62 34 63 35 64 43 65 36 66 42 67 44 68
REMARK SMILES IDX 41 69 37 70 38 71 39 72 40 73 66 74 67 75 75 76 68 77 74 78
REMARK SMILES IDX 76 79 73 80 69 81 70 82 71 83 72 84 51 85 52 86 60 87 53 88
REMARK SMILES IDX 59 89 61 90 58 91 54 92 55 93 56 94 57 95
REMARK H PARENT 17 6 6 16 9 18 22 29 81 48 49 59
REMARK Flexibility Score: inf
ROOT
ATOM      1  C   UNL A   1      31.792  30.531  26.869  1.00  0.00     0.023 C 
ENDROOT
BRANCH   1   2
ATOM      2  C   UNL A   1      32.363  30.024  25.545  1.00  0.00     0.116 C 
BRANCH   2   3
ATOM      3  N   UNL A   1      31.371  30.010  24.494  1.00  0.00    -0.354 N 
ATOM      4  C   UNL A   1      30.777  28.965  23.851  1.00  0.00     0.249 C 
ATOM      5  O   UNL A   1      29.926  29.241  22.997  1.00  0.00    -0.272 OA
ATOM      6  H   UNL A   1      31.077  30.900  24.193  1.00  0.00     0.163 HD
BRANCH   4   7
ATOM      7  C   UNL A   1      31.191  27.490  24.085  1.00  0.00     0.207 C 
ATOM      8  C   UNL A   1      32.650  26.521  25.644  1.00  0.00     0.138 C 
ATOM      9  C   UNL A   1      33.462  26.823  24.407  1.00  0.00     0.037 C 
ATOM     10  O   UNL A   1      31.323  27.024  25.427  1.00  0.00    -0.363 OA
ATOM     11  C   UNL A   1      32.462  27.140  23.333  1.00  0.00     0.045 C 
BRANCH   8  12
ATOM     12  C   UNL A   1      32.639  25.079  26.173  1.00  0.00     0.149 C 
BRANCH  12  13
ATOM     13  N   UNL A   1      31.392  24.550  26.703  1.00  0.00    -0.335 N 
ATOM     14  N   UNL A   1      31.097  22.189  26.413  1.00  0.00    -0.284 N 
ATOM     15  C   UNL A   1      30.759  23.391  26.876  1.00  0.00     0.321 C 
ATOM     16  H   UNL A   1      30.358  21.545  26.495  1.00  0.00     0.174 HD
ATOM     17  O   UNL A   1      29.661  23.472  27.445  1.00  0.00    -0.248 OA
ATOM     18  H   UNL A   1      30.836  25.287  27.043  1.00  0.00     0.165 HD
BRANCH  14  19
ATOM     19  C   UNL A   1      32.198  21.624  25.858  1.00  0.00     0.190 A 
ATOM     20  C   UNL A   1      35.898  21.092  25.020  1.00  0.00     0.058 C 
ATOM     21  C   UNL A   1      34.425  21.054  25.185  1.00  0.00     0.023 A 
ATOM     22  C   UNL A   1      33.441  20.793  24.254  1.00  0.00     0.128 A 
ATOM     23  S   UNL A   1      33.671  21.427  26.684  1.00  0.00    -0.102 S 
ATOM     24  N   UNL A   1      32.153  21.061  24.673  1.00  0.00    -0.228 NA
ENDBRANCH  14  19
ENDBRANCH  12  13
ENDBRANCH   8  12
ENDBRANCH   4   7
ENDBRANCH   2   3
ENDBRANCH   1   2
BRANCH   1  25
ATOM     25  C   UNL A   1      31.562  32.042  26.931  1.00  0.00     0.023 C 
BRANCH  25  26
ATOM     26  C   UNL A   1      32.828  32.876  27.091  1.00  0.00     0.116 C 
BRANCH  26  27
ATOM     27  N   UNL A   1      32.616  34.148  27.765  1.00  0.00    -0.352 N 
ATOM     28  C   UNL A   1      33.331  34.669  28.824  1.00  0.00     0.251 C 
ATOM     29  H   UNL A   1      31.875  34.701  27.426  1.00  0.00     0.163 HD
ATOM     30  O   UNL A   1      32.980  35.711  29.355  1.00  0.00    -0.269 OA
BRANCH  28  31
ATOM     31  C   UNL A   1      34.489  33.903  29.333  1.00  0.00     0.039 A 
ATOM     32  C   UNL A   1      35.777  34.328  29.004  1.00  0.00     0.014 A 
ATOM     33  C   UNL A   1      34.297  32.828  30.204  1.00  0.00     0.014 A 
ATOM     34  C   UNL A   1      36.877  33.725  29.619  1.00  0.00     0.010 A 
ATOM     35  C   UNL A   1      35.387  32.282  30.872  1.00  0.00     0.010 A 
ATOM     36  C   UNL A   1      36.688  32.729  30.592  1.00  0.00    -0.014 A 
BRANCH  36  37
ATOM     37  C   UNL A   1      37.835  32.143  31.331  1.00  0.00     0.031 A 
ATOM     38  C   UNL A   1      38.620  31.015  30.722  1.00  0.00     0.074 A 
ATOM     39  C   UNL A   1      38.111  32.564  32.580  1.00  0.00     0.049 A 
ATOM     40  N   UNL A   1      39.589  30.304  31.239  1.00  0.00    -0.248 NA
ATOM     41  C   UNL A   1      38.233  30.610  29.363  1.00  0.00     0.031 C 
ATOM     42  C   UNL A   1      37.379  33.607  33.303  1.00  0.00     0.029 A 
ATOM     43  N   UNL A   1      39.071  32.156  33.471  1.00  0.00    -0.354 N 
ATOM     44  C   UNL A   1      39.920  29.359  30.272  1.00  0.00     0.074 A 
ATOM     45  C   UNL A   1      38.993  29.543  29.176  1.00  0.00     0.031 C 
ATOM     46  C   UNL A   1      37.923  33.764  34.520  1.00  0.00     0.029 A 
ATOM     47  C   UNL A   1      39.017  32.811  34.680  1.00  0.00     0.049 A 
ATOM     48  H   UNL A   1      39.737  31.461  33.266  1.00  0.00     0.167 HD
ATOM     49  C   UNL A   1      40.924  28.446  30.284  1.00  0.00     0.034 A 
ATOM     50  C   UNL A   1      39.757  32.654  35.796  1.00  0.00     0.034 A 
ATOM     51  C   UNL A   1      41.839  28.281  31.387  1.00  0.00     0.049 A 
ATOM     52  C   UNL A   1      40.865  31.633  35.794  1.00  0.00     0.074 A 
ATOM     53  C   UNL A   1      42.919  27.423  31.494  1.00  0.00     0.029 A 
ATOM     54  N   UNL A   1      41.776  28.985  32.585  1.00  0.00    -0.354 N 
ATOM     55  N   UNL A   1      41.207  30.786  34.851  1.00  0.00    -0.248 NA
ATOM     56  C   UNL A   1      41.698  31.561  37.001  1.00  0.00     0.031 C 
ATOM     57  C   UNL A   1      43.472  27.567  32.772  1.00  0.00     0.029 A 
ATOM     58  C   UNL A   1      42.782  28.565  33.441  1.00  0.00     0.049 A 
ATOM     59  H   UNL A   1      41.113  29.682  32.793  1.00  0.00     0.167 HD
ATOM     60  C   UNL A   1      42.309  30.093  35.343  1.00  0.00     0.074 A 
ATOM     61  C   UNL A   1      42.584  30.634  36.660  1.00  0.00     0.031 C 
ATOM     62  C   UNL A   1      43.031  29.103  34.759  1.00  0.00     0.034 A 
BRANCH  49  63
ATOM     63  C   UNL A   1      41.053  27.555  29.071  1.00  0.00     0.023 A 
ATOM     64  C   UNL A   1      42.080  27.748  28.129  1.00  0.00     0.031 A 
ATOM     65  C   UNL A   1      40.108  26.549  28.812  1.00  0.00     0.131 A 
ATOM     66  C   UNL A   1      42.077  27.023  26.928  1.00  0.00     0.055 A 
ATOM     67  C   UNL A   1      40.165  25.763  27.658  1.00  0.00     0.041 A 
ATOM     68  F   UNL A   1      39.093  26.328  29.663  1.00  0.00    -0.206 F 
ATOM     69  C   UNL A   1      41.140  26.013  26.696  1.00  0.00     0.022 A 
BRANCH  66  70
ATOM     70  S   UNL A   1      43.196  27.549  25.601  1.00  0.00     0.124 S 
ATOM     71  O   UNL A   1      43.822  26.282  25.225  1.00  0.00    -0.237 OA
ATOM     72  O   UNL A   1      42.279  28.122  24.624  1.00  0.00    -0.237 OA
ATOM     73  O   UNL A   1      44.085  28.503  26.260  1.00  0.00    -0.744 OA
ENDBRANCH  66  70
ENDBRANCH  49  63
BRANCH  50  74
ATOM     74  C   UNL A   1      39.469  33.472  37.006  1.00  0.00     0.023 A 
ATOM     75  C   UNL A   1      38.738  32.947  38.081  1.00  0.00     0.031 A 
ATOM     76  C   UNL A   1      39.915  34.803  37.096  1.00  0.00     0.131 A 
ATOM     77  C   UNL A   1      38.441  33.760  39.188  1.00  0.00     0.055 A 
ATOM     78  C   UNL A   1      39.655  35.594  38.216  1.00  0.00     0.041 A 
ATOM     79  F   UNL A   1      40.630  35.349  36.099  1.00  0.00    -0.206 F 
ATOM     80  C   UNL A   1      38.905  35.075  39.268  1.00  0.00     0.022 A 
BRANCH  77  81
ATOM     81  S   UNL A   1      37.390  33.087  40.504  1.00  0.00     0.124 S 
ATOM     82  O   UNL A   1      36.346  32.417  39.738  1.00  0.00    -0.237 OA
ATOM     83  O   UNL A   1      38.320  32.218  41.219  1.00  0.00    -0.237 OA
ATOM     84  O   UNL A   1      36.963  34.275  41.239  1.00  0.00    -0.744 OA
ENDBRANCH  77  81
ENDBRANCH  50  74
BRANCH  62  85
ATOM     85  C   UNL A   1      44.211  28.571  35.534  1.00  0.00     0.023 A 
ATOM     86  C   UNL A   1      44.078  27.511  36.447  1.00  0.00     0.031 A 
ATOM     87  C   UNL A   1      45.485  29.141  35.361  1.00  0.00     0.131 A 
ATOM     88  C   UNL A   1      45.190  27.088  37.192  1.00  0.00     0.055 A 
ATOM     89  C   UNL A   1      46.598  28.679  36.063  1.00  0.00     0.041 A 
ATOM     90  F   UNL A   1      45.668  30.158  34.503  1.00  0.00    -0.206 F 
ATOM     91  C   UNL A   1      46.452  27.654  36.994  1.00  0.00     0.022 A 
BRANCH  88  92
ATOM     92  S   UNL A   1      44.949  25.841  38.487  1.00  0.00     0.124 S 
ATOM     93  O   UNL A   1      46.213  25.910  39.213  1.00  0.00    -0.237 OA
ATOM     94  O   UNL A   1      43.779  26.349  39.195  1.00  0.00    -0.237 OA
ATOM     95  O   UNL A   1      44.730  24.605  37.737  1.00  0.00    -0.744 OA
ENDBRANCH  88  92
ENDBRANCH  62  85
ENDBRANCH  36  37
ENDBRANCH  28  31
ENDBRANCH  26  27
ENDBRANCH  25  26
ENDBRANCH   1  25
TORSDOF 17
ENDMDL
MODEL 2
REMARK VINA RESULT:     -11.9      5.543      8.659
REMARK SMILES Cc1cnc(NC(=O)NC[C@H]2CC[C@H](C(=O)NCCCCNC(=O)c3ccc(-c4c5nc(c(-c6cc(S(=O)(=O)[O-])ccc6F)c6ccc([nH]6)c(-c6cc(S(=O)(=O)[O-])ccc6F)c6nc(c(-c7cc(S(=O)(=O)[O-])ccc7F)c7ccc4[nH]7)C=C6)C=C5)cc3)O2)s1
REMARK SMILES IDX 19 1 18 2 17 3 15 4 16 5 14 7 11 8 12 9 88 10 13 11 10 12
REMARK SMILES IDX 9 13 6 14 7 15 8 17 5 19 1 20 2 21 3 22 89 23 4 24 20 25
REMARK SMILES IDX 21 26 22 27 23 28 24 30 25 31 26 32 87 33 27 34 86 35 28 36
REMARK SMILES IDX 29 37 30 38 80 39 31 40 85 41 79 42 81 43 32 44 84 45 78 46
REMARK SMILES IDX 77 47 33 49 65 50 45 51 64 52 46 53 49 54 63 55 82 56 47 57
REMARK SMILES IDX 48 58 62 60 83 61 50 62 34 63 35 64 43 65 36 66 42 67 44 68
REMARK SMILES IDX 41 69 37 70 38 71 39 72 40 73 66 74 67 75 75 76 68 77 74 78
REMARK SMILES IDX 76 79 73 80 69 81 70 82 71 83 72 84 51 85 52 86 60 87 53 88
REMARK SMILES IDX 59 89 61 90 58 91 54 92 55 93 56 94 57 95
REMARK H PARENT 17 6 6 16 9 18 22 29 81 48 49 59
REMARK Flexibility Score: inf
ROOT
ATOM      1  C   UNL A   1      35.806  20.920  25.119  1.00  0.00     0.023 C 
ENDROOT
BRANCH   1   2
ATOM      2  C   UNL A   1      34.366  20.603  25.523  1.00  0.00     0.116 C 
BRANCH   2   3
ATOM      3  N   UNL A   1      33.995  21.246  26.763  1.00  0.00    -0.354 N 
ATOM      4  C   UNL A   1      32.915  22.020  27.071  1.00  0.00     0.249 C 
ATOM      5  O   UNL A   1      32.827  22.423  28.236  1.00  0.00    -0.272 OA
ATOM      6  H   UNL A   1      34.623  21.101  27.507  1.00  0.00     0.163 HD
BRANCH   4   7
ATOM      7  C   UNL A   1      31.876  22.471  26.012  1.00  0.00     0.207 C 
ATOM      8  C   UNL A   1      31.827  24.332  24.587  1.00  0.00     0.138 C 
ATOM      9  C   UNL A   1      31.095  24.723  25.850  1.00  0.00     0.037 C 
ATOM     10  O   UNL A   1      32.349  23.009  24.779  1.00  0.00    -0.363 OA
ATOM     11  C   UNL A   1      30.867  23.442  26.599  1.00  0.00     0.045 C 
BRANCH   8  12
ATOM     12  C   UNL A   1      31.091  24.473  23.247  1.00  0.00     0.149 C 
BRANCH  12  13
ATOM     13  N   UNL A   1      31.876  24.770  22.059  1.00  0.00    -0.335 N 
ATOM     14  N   UNL A   1      32.625  27.040  21.888  1.00  0.00    -0.284 N 
ATOM     15  C   UNL A   1      32.562  25.766  21.503  1.00  0.00     0.321 C 
ATOM     16  H   UNL A   1      33.018  27.613  21.192  1.00  0.00     0.174 HD
ATOM     17  O   UNL A   1      33.116  25.489  20.429  1.00  0.00    -0.248 OA
ATOM     18  H   UNL A   1      31.912  23.976  21.477  1.00  0.00     0.165 HD
BRANCH  14  19
ATOM     19  C   UNL A   1      32.286  27.750  22.993  1.00  0.00     0.190 A 
ATOM     20  C   UNL A   1      31.885  28.593  26.708  1.00  0.00     0.058 C 
ATOM     21  C   UNL A   1      31.929  28.535  25.227  1.00  0.00     0.023 A 
ATOM     22  C   UNL A   1      30.986  28.935  24.302  1.00  0.00     0.128 A 
ATOM     23  S   UNL A   1      33.256  27.840  24.386  1.00  0.00    -0.102 S 
ATOM     24  N   UNL A   1      31.234  28.536  23.004  1.00  0.00    -0.228 NA
ENDBRANCH  14  19
ENDBRANCH  12  13
ENDBRANCH   8  12
ENDBRANCH   4   7
ENDBRANCH   2   3
ENDBRANCH   1   2
BRANCH   1  25
ATOM     25  C   UNL A   1      36.038  22.357  24.651  1.00  0.00     0.023 C 
BRANCH  25  26
ATOM     26  C   UNL A   1      37.169  23.089  25.364  1.00  0.00     0.116 C 
BRANCH  26  27
ATOM     27  N   UNL A   1      38.202  22.210  25.891  1.00  0.00    -0.352 N 
ATOM     28  C   UNL A   1      39.313  22.564  26.629  1.00  0.00     0.251 C 
ATOM     29  H   UNL A   1      38.095  21.250  25.698  1.00  0.00     0.163 HD
ATOM     30  O   UNL A   1      40.151  21.728  26.926  1.00  0.00    -0.269 OA
BRANCH  28  31
ATOM     31  C   UNL A   1      39.488  23.987  26.994  1.00  0.00     0.039 A 
ATOM     32  C   UNL A   1      39.199  24.390  28.299  1.00  0.00     0.014 A 
ATOM     33  C   UNL A   1      40.023  24.891  26.074  1.00  0.00     0.014 A 
ATOM     34  C   UNL A   1      39.527  25.685  28.706  1.00  0.00     0.010 A 
ATOM     35  C   UNL A   1      40.419  26.153  26.502  1.00  0.00     0.010 A 
ATOM     36  C   UNL A   1      40.182  26.561  27.824  1.00  0.00    -0.014 A 
BRANCH  36  37
ATOM     37  C   UNL A   1      40.629  27.908  28.262  1.00  0.00     0.031 A 
ATOM     38  C   UNL A   1      42.096  28.231  28.307  1.00  0.00     0.074 A 
ATOM     39  C   UNL A   1      39.724  28.803  28.701  1.00  0.00     0.049 A 
ATOM     40  N   UNL A   1      42.696  29.307  28.747  1.00  0.00    -0.248 NA
ATOM     41  C   UNL A   1      43.010  27.184  27.827  1.00  0.00     0.031 C 
ATOM     42  C   UNL A   1      38.277  28.582  28.767  1.00  0.00     0.029 A 
ATOM     43  N   UNL A   1      39.886  30.074  29.192  1.00  0.00    -0.354 N 
ATOM     44  C   UNL A   1      44.059  29.063  28.608  1.00  0.00     0.074 A 
ATOM     45  C   UNL A   1      44.191  27.707  28.117  1.00  0.00     0.031 C 
ATOM     46  C   UNL A   1      37.685  29.682  29.258  1.00  0.00     0.029 A 
ATOM     47  C   UNL A   1      38.708  30.673  29.576  1.00  0.00     0.049 A 
ATOM     48  H   UNL A   1      40.762  30.517  29.263  1.00  0.00     0.167 HD
ATOM     49  C   UNL A   1      45.101  29.901  28.836  1.00  0.00     0.034 A 
ATOM     50  C   UNL A   1      38.479  31.879  30.132  1.00  0.00     0.034 A 
ATOM     51  C   UNL A   1      44.947  31.251  29.323  1.00  0.00     0.049 A 
ATOM     52  C   UNL A   1      39.648  32.797  30.383  1.00  0.00     0.074 A 
ATOM     53  C   UNL A   1      45.924  32.205  29.549  1.00  0.00     0.029 A 
ATOM     54  N   UNL A   1      43.736  31.837  29.670  1.00  0.00    -0.354 N 
ATOM     55  N   UNL A   1      40.928  32.576  30.191  1.00  0.00    -0.248 NA
ATOM     56  C   UNL A   1      39.338  34.132  30.909  1.00  0.00     0.031 C 
ATOM     57  C   UNL A   1      45.311  33.344  30.085  1.00  0.00     0.029 A 
ATOM     58  C   UNL A   1      43.943  33.129  30.129  1.00  0.00     0.049 A 
ATOM     59  H   UNL A   1      42.857  31.398  29.600  1.00  0.00     0.167 HD
ATOM     60  C   UNL A   1      41.575  33.754  30.553  1.00  0.00     0.074 A 
ATOM     61  C   UNL A   1      40.542  34.686  30.959  1.00  0.00     0.031 C 
ATOM     62  C   UNL A   1      42.901  34.040  30.547  1.00  0.00     0.034 A 
BRANCH  49  63
ATOM     63  C   UNL A   1      46.487  29.358  28.575  1.00  0.00     0.023 A 
ATOM     64  C   UNL A   1      46.951  29.137  27.266  1.00  0.00     0.031 A 
ATOM     65  C   UNL A   1      47.328  28.991  29.639  1.00  0.00     0.131 A 
ATOM     66  C   UNL A   1      48.168  28.472  27.055  1.00  0.00     0.055 A 
ATOM     67  C   UNL A   1      48.583  28.416  29.422  1.00  0.00     0.041 A 
ATOM     68  F   UNL A   1      46.936  29.159  30.912  1.00  0.00    -0.206 F 
ATOM     69  C   UNL A   1      49.001  28.133  28.124  1.00  0.00     0.022 A 
BRANCH  66  70
ATOM     70  S   UNL A   1      48.555  27.894  25.379  1.00  0.00     0.124 S 
ATOM     71  O   UNL A   1      48.553  26.444  25.561  1.00  0.00    -0.237 OA
ATOM     72  O   UNL A   1      47.453  28.441  24.596  1.00  0.00    -0.237 OA
ATOM     73  O   UNL A   1      49.866  28.479  25.109  1.00  0.00    -0.744 OA
ENDBRANCH  66  70
ENDBRANCH  49  63
BRANCH  50  74
ATOM     74  C   UNL A   1      37.094  32.283  30.498  1.00  0.00     0.023 A 
ATOM     75  C   UNL A   1      36.235  32.869  29.556  1.00  0.00     0.031 A 
ATOM     76  C   UNL A   1      36.613  32.099  31.806  1.00  0.00     0.131 A 
ATOM     77  C   UNL A   1      34.950  33.283  29.944  1.00  0.00     0.055 A 
ATOM     78  C   UNL A   1      35.320  32.472  32.178  1.00  0.00     0.041 A 
ATOM     79  F   UNL A   1      37.391  31.531  32.742  1.00  0.00    -0.206 F 
ATOM     80  C   UNL A   1      34.483  33.078  31.245  1.00  0.00     0.022 A 
BRANCH  77  81
ATOM     81  S   UNL A   1      33.912  34.146  28.733  1.00  0.00     0.124 S 
ATOM     82  O   UNL A   1      32.848  34.676  29.578  1.00  0.00    -0.237 OA
ATOM     83  O   UNL A   1      34.842  35.126  28.181  1.00  0.00    -0.237 OA
ATOM     84  O   UNL A   1      33.510  33.086  27.812  1.00  0.00    -0.744 OA
ENDBRANCH  77  81
ENDBRANCH  50  74
BRANCH  62  85
ATOM     85  C   UNL A   1      43.300  35.435  30.961  1.00  0.00     0.023 A 
ATOM     86  C   UNL A   1      43.461  36.468  30.021  1.00  0.00     0.031 A 
ATOM     87  C   UNL A   1      43.531  35.731  32.316  1.00  0.00     0.131 A 
ATOM     88  C   UNL A   1      43.893  37.735  30.442  1.00  0.00     0.055 A 
ATOM     89  C   UNL A   1      43.906  37.008  32.736  1.00  0.00     0.041 A 
ATOM     90  F   UNL A   1      43.394  34.782  33.256  1.00  0.00    -0.206 F 
ATOM     91  C   UNL A   1      44.100  38.015  31.795  1.00  0.00     0.022 A 
BRANCH  88  92
ATOM     92  S   UNL A   1      44.261  38.992  29.188  1.00  0.00     0.124 S 
ATOM     93  O   UNL A   1      45.107  38.253  28.257  1.00  0.00    -0.237 OA
ATOM     94  O   UNL A   1      42.932  39.344  28.700  1.00  0.00    -0.237 OA
ATOM     95  O   UNL A   1      44.940  40.043  29.945  1.00  0.00    -0.744 OA
ENDBRANCH  88  92
ENDBRANCH  62  85
ENDBRANCH  36  37
ENDBRANCH  28  31
ENDBRANCH  26  27
ENDBRANCH  25  26
ENDBRANCH   1  25
TORSDOF 17
ENDMDL
MODEL 3
REMARK VINA RESULT:     -11.9      3.434      8.488
REMARK SMILES Cc1cnc(NC(=O)NC[C@H]2CC[C@H](C(=O)NCCCCNC(=O)c3ccc(-c4c5nc(c(-c6cc(S(=O)(=O)[O-])ccc6F)c6ccc([nH]6)c(-c6cc(S(=O)(=O)[O-])ccc6F)c6nc(c(-c7cc(S(=O)(=O)[O-])ccc7F)c7ccc4[nH]7)C=C6)C=C5)cc3)O2)s1
REMARK SMILES IDX 19 1 18 2 17 3 15 4 16 5 14 7 11 8 12 9 88 10 13 11 10 12
REMARK SMILES IDX 9 13 6 14 7 15 8 17 5 19 1 20 2 21 3 22 89 23 4 24 20 25
REMARK SMILES IDX 21 26 22 27 23 28 24 30 25 31 26 32 87 33 27 34 86 35 28 36
REMARK SMILES IDX 29 37 30 38 80 39 31 40 85 41 79 42 81 43 32 44 84 45 78 46
REMARK SMILES IDX 77 47 33 49 65 50 45 51 64 52 46 53 49 54 63 55 82 56 47 57
REMARK SMILES IDX 48 58 62 60 83 61 50 62 34 63 35 64 43 65 36 66 42 67 44 68
REMARK SMILES IDX 41 69 37 70 38 71 39 72 40 73 66 74 67 75 75 76 68 77 74 78
REMARK SMILES IDX 76 79 73 80 69 81 70 82 71 83 72 84 51 85 52 86 60 87 53 88
REMARK SMILES IDX 59 89 61 90 58 91 54 92 55 93 56 94 57 95
REMARK H PARENT 17 6 6 16 9 18 22 29 81 48 49 59
REMARK Flexibility Score: inf
ROOT
ATOM      1  C   UNL A   1      31.411  29.995  25.151  1.00  0.00     0.023 C 
ENDROOT
BRANCH   1   2
ATOM      2  C   UNL A   1      31.200  29.318  23.797  1.00  0.00     0.116 C 
BRANCH   2   3
ATOM      3  N   UNL A   1      32.451  28.996  23.147  1.00  0.00    -0.354 N 
ATOM      4  C   UNL A   1      32.845  27.866  22.494  1.00  0.00     0.249 C 
ATOM      5  O   UNL A   1      33.978  27.870  21.999  1.00  0.00    -0.272 OA
ATOM      6  H   UNL A   1      33.129  29.709  23.182  1.00  0.00     0.163 HD
BRANCH   4   7
ATOM      7  C   UNL A   1      31.977  26.583  22.436  1.00  0.00     0.207 C 
ATOM      8  C   UNL A   1      32.122  24.562  23.615  1.00  0.00     0.138 C 
ATOM      9  C   UNL A   1      32.921  24.391  22.344  1.00  0.00     0.037 C 
ATOM     10  O   UNL A   1      31.658  25.920  23.658  1.00  0.00    -0.363 OA
ATOM     11  C   UNL A   1      32.556  25.560  21.476  1.00  0.00     0.045 C 
BRANCH   8  12
ATOM     12  C   UNL A   1      30.995  23.560  23.907  1.00  0.00     0.149 C 
BRANCH  12  13
ATOM     13  N   UNL A   1      30.475  23.486  25.263  1.00  0.00    -0.335 N 
ATOM     14  N   UNL A   1      31.819  22.221  26.791  1.00  0.00    -0.284 N 
ATOM     15  C   UNL A   1      30.800  23.014  26.465  1.00  0.00     0.321 C 
ATOM     16  H   UNL A   1      31.713  21.842  27.693  1.00  0.00     0.174 HD
ATOM     17  O   UNL A   1      29.981  23.254  27.364  1.00  0.00    -0.248 OA
ATOM     18  H   UNL A   1      29.596  23.929  25.307  1.00  0.00     0.165 HD
BRANCH  14  19
ATOM     19  C   UNL A   1      32.966  21.801  26.200  1.00  0.00     0.190 A 
ATOM     20  C   UNL A   1      36.285  22.013  24.298  1.00  0.00     0.058 C 
ATOM     21  C   UNL A   1      35.063  21.645  25.055  1.00  0.00     0.023 A 
ATOM     22  C   UNL A   1      34.219  20.566  24.891  1.00  0.00     0.128 A 
ATOM     23  S   UNL A   1      34.441  22.638  26.311  1.00  0.00    -0.102 S 
ATOM     24  N   UNL A   1      33.041  20.631  25.608  1.00  0.00    -0.228 NA
ENDBRANCH  14  19
ENDBRANCH  12  13
ENDBRANCH   8  12
ENDBRANCH   4   7
ENDBRANCH   2   3
ENDBRANCH   1   2
BRANCH   1  25
ATOM     25  C   UNL A   1      32.187  29.159  26.170  1.00  0.00     0.023 C 
BRANCH  25  26
ATOM     26  C   UNL A   1      33.553  29.718  26.551  1.00  0.00     0.116 C 
BRANCH  26  27
ATOM     27  N   UNL A   1      33.500  31.027  27.184  1.00  0.00    -0.352 N 
ATOM     28  C   UNL A   1      34.416  31.577  28.057  1.00  0.00     0.251 C 
ATOM     29  H   UNL A   1      32.719  31.584  26.964  1.00  0.00     0.163 HD
ATOM     30  O   UNL A   1      34.196  32.654  28.589  1.00  0.00    -0.269 OA
BRANCH  28  31
ATOM     31  C   UNL A   1      35.636  30.802  28.375  1.00  0.00     0.039 A 
ATOM     32  C   UNL A   1      36.857  31.215  27.839  1.00  0.00     0.014 A 
ATOM     33  C   UNL A   1      35.580  29.733  29.271  1.00  0.00     0.014 A 
ATOM     34  C   UNL A   1      38.037  30.604  28.270  1.00  0.00     0.010 A 
ATOM     35  C   UNL A   1      36.759  29.180  29.756  1.00  0.00     0.010 A 
ATOM     36  C   UNL A   1      38.001  29.614  29.265  1.00  0.00    -0.014 A 
BRANCH  36  37
ATOM     37  C   UNL A   1      39.248  29.020  29.811  1.00  0.00     0.031 A 
ATOM     38  C   UNL A   1      39.923  29.652  30.996  1.00  0.00     0.074 A 
ATOM     39  C   UNL A   1      39.815  27.969  29.188  1.00  0.00     0.049 A 
ATOM     40  N   UNL A   1      41.062  29.349  31.562  1.00  0.00    -0.248 NA
ATOM     41  C   UNL A   1      39.239  30.807  31.596  1.00  0.00     0.031 C 
ATOM     42  C   UNL A   1      39.289  27.309  27.991  1.00  0.00     0.029 A 
ATOM     43  N   UNL A   1      40.969  27.281  29.464  1.00  0.00    -0.354 N 
ATOM     44  C   UNL A   1      41.238  30.281  32.579  1.00  0.00     0.074 A 
ATOM     45  C   UNL A   1      40.126  31.204  32.494  1.00  0.00     0.031 C 
ATOM     46  C   UNL A   1      40.111  26.306  27.644  1.00  0.00     0.029 A 
ATOM     47  C   UNL A   1      41.240  26.273  28.568  1.00  0.00     0.049 A 
ATOM     48  H   UNL A   1      41.550  27.487  30.232  1.00  0.00     0.167 HD
ATOM     49  C   UNL A   1      42.217  30.343  33.516  1.00  0.00     0.034 A 
ATOM     50  C   UNL A   1      42.286  25.425  28.491  1.00  0.00     0.034 A 
ATOM     51  C   UNL A   1      43.316  29.411  33.584  1.00  0.00     0.049 A 
ATOM     52  C   UNL A   1      43.367  25.509  29.537  1.00  0.00     0.074 A 
ATOM     53  C   UNL A   1      44.341  29.348  34.513  1.00  0.00     0.029 A 
ATOM     54  N   UNL A   1      43.542  28.380  32.678  1.00  0.00    -0.354 N 
ATOM     55  N   UNL A   1      43.491  26.359  30.530  1.00  0.00    -0.248 NA
ATOM     56  C   UNL A   1      44.438  24.509  29.462  1.00  0.00     0.031 C 
ATOM     57  C   UNL A   1      45.213  28.319  34.137  1.00  0.00     0.029 A 
ATOM     58  C   UNL A   1      44.698  27.692  33.014  1.00  0.00     0.049 A 
ATOM     59  H   UNL A   1      42.963  28.170  31.910  1.00  0.00     0.167 HD
ATOM     60  C   UNL A   1      44.645  25.983  31.211  1.00  0.00     0.074 A 
ATOM     61  C   UNL A   1      45.169  24.819  30.524  1.00  0.00     0.031 C 
ATOM     62  C   UNL A   1      45.217  26.544  32.306  1.00  0.00     0.034 A 
BRANCH  49  63
ATOM     63  C   UNL A   1      42.137  31.472  34.517  1.00  0.00     0.023 A 
ATOM     64  C   UNL A   1      41.182  31.466  35.551  1.00  0.00     0.031 A 
ATOM     65  C   UNL A   1      42.970  32.598  34.403  1.00  0.00     0.131 A 
ATOM     66  C   UNL A   1      41.013  32.600  36.358  1.00  0.00     0.055 A 
ATOM     67  C   UNL A   1      42.861  33.686  35.271  1.00  0.00     0.041 A 
ATOM     68  F   UNL A   1      43.888  32.673  33.426  1.00  0.00    -0.206 F 
ATOM     69  C   UNL A   1      41.863  33.702  36.242  1.00  0.00     0.022 A 
BRANCH  66  70
ATOM     70  S   UNL A   1      39.550  32.686  37.428  1.00  0.00     0.124 S 
ATOM     71  O   UNL A   1      38.955  33.955  37.012  1.00  0.00    -0.237 OA
ATOM     72  O   UNL A   1      38.816  31.483  37.054  1.00  0.00    -0.237 OA
ATOM     73  O   UNL A   1      40.112  32.683  38.777  1.00  0.00    -0.744 OA
ENDBRANCH  66  70
ENDBRANCH  49  63
BRANCH  50  74
ATOM     74  C   UNL A   1      42.366  24.434  27.383  1.00  0.00     0.023 A 
ATOM     75  C   UNL A   1      41.608  23.253  27.408  1.00  0.00     0.031 A 
ATOM     76  C   UNL A   1      43.216  24.652  26.284  1.00  0.00     0.131 A 
ATOM     77  C   UNL A   1      41.742  22.316  26.370  1.00  0.00     0.055 A 
ATOM     78  C   UNL A   1      43.314  23.738  25.234  1.00  0.00     0.041 A 
ATOM     79  F   UNL A   1      43.952  25.773  26.207  1.00  0.00    -0.206 F 
ATOM     80  C   UNL A   1      42.580  22.556  25.278  1.00  0.00     0.022 A 
BRANCH  77  81
ATOM     81  S   UNL A   1      40.841  20.747  26.495  1.00  0.00     0.124 S 
ATOM     82  O   UNL A   1      39.546  21.102  25.927  1.00  0.00    -0.237 OA
ATOM     83  O   UNL A   1      41.672  19.856  25.691  1.00  0.00    -0.237 OA
ATOM     84  O   UNL A   1      40.840  20.468  27.929  1.00  0.00    -0.744 OA
ENDBRANCH  77  81
ENDBRANCH  50  74
BRANCH  62  85
ATOM     85  C   UNL A   1      46.458  25.877  32.846  1.00  0.00     0.023 A 
ATOM     86  C   UNL A   1      47.725  26.105  32.282  1.00  0.00     0.031 A 
ATOM     87  C   UNL A   1      46.367  24.993  33.936  1.00  0.00     0.131 A 
ATOM     88  C   UNL A   1      48.844  25.416  32.776  1.00  0.00     0.055 A 
ATOM     89  C   UNL A   1      47.491  24.353  34.459  1.00  0.00     0.041 A 
ATOM     90  F   UNL A   1      45.181  24.737  34.511  1.00  0.00    -0.206 F 
ATOM     91  C   UNL A   1      48.737  24.555  33.871  1.00  0.00     0.022 A 
BRANCH  88  92
ATOM     92  S   UNL A   1      50.429  25.596  31.915  1.00  0.00     0.124 S 
ATOM     93  O   UNL A   1      51.342  25.880  33.017  1.00  0.00    -0.237 OA
ATOM     94  O   UNL A   1      50.587  24.294  31.275  1.00  0.00    -0.237 OA
ATOM     95  O   UNL A   1      50.197  26.711  30.998  1.00  0.00    -0.744 OA
ENDBRANCH  88  92
ENDBRANCH  62  85
ENDBRANCH  36  37
ENDBRANCH  28  31
ENDBRANCH  26  27
ENDBRANCH  25  26
ENDBRANCH   1  25
TORSDOF 17
ENDMDL
