MODEL 1
REMARK VINA RESULT:     -11.4      0.000      0.000
REMARK SMILES O=C(CCCc1ccc2c(c1Br)C=CC2)NCCCCNC(=O)c1ccc(-c2c3nc(c(-c4cc(S(=O)(=O)[O-])ccc4F)c4ccc([nH]4)c(-c4cc(S(=O)(=O)[O-])ccc4F)c4nc(c(-c5cc(S(=O)(=O)[O-])ccc5F)c5ccc2[nH]5)C=C4)C=C3)cc1
REMARK SMILES IDX 18 1 17 2 16 3 1 4 2 5 3 7 4 8 5 9 6 10 7 11 11 12 8 13
REMARK SMILES IDX 10 14 12 15 9 16 13 17 15 18 14 19 19 20 20 21 21 22 22 23
REMARK SMILES IDX 23 25 24 26 25 27 86 28 26 29 85 30 27 31 28 32 29 33 79 34
REMARK SMILES IDX 30 35 84 36 78 37 80 38 31 39 83 40 77 41 76 42 32 44 64 45
REMARK SMILES IDX 44 46 63 47 45 48 48 49 62 50 81 51 46 52 47 53 61 55 82 56
REMARK SMILES IDX 49 57 33 58 34 59 42 60 35 61 41 62 43 63 40 64 36 65 37 66
REMARK SMILES IDX 38 67 39 68 65 69 66 70 74 71 67 72 73 73 75 74 72 75 68 76
REMARK SMILES IDX 69 77 70 78 71 79 50 80 51 81 59 82 52 83 58 84 60 85 57 86
REMARK SMILES IDX 53 87 54 88 55 89 56 90
REMARK H PARENT 16 6 21 24 80 43 48 54
REMARK Flexibility Score: inf
ROOT
ATOM      1  C   UNL A   1      31.600  30.904  26.125  1.00  0.00     0.023 C 
ENDROOT
BRANCH   1   2
ATOM      2  C   UNL A   1      32.586  29.954  26.806  1.00  0.00     0.116 C 
BRANCH   2   3
ATOM      3  N   UNL A   1      32.399  28.579  26.395  1.00  0.00    -0.356 N 
ATOM      4  O   UNL A   1      31.370  27.858  28.315  1.00  0.00    -0.275 OA
ATOM      5  C   UNL A   1      31.786  27.637  27.183  1.00  0.00     0.220 C 
ATOM      6  H   UNL A   1      32.726  28.306  25.507  1.00  0.00     0.163 HD
BRANCH   5   7
ATOM      7  C   UNL A   1      31.659  26.276  26.526  1.00  0.00     0.100 C 
BRANCH   7   8
ATOM      8  C   UNL A   1      32.704  26.042  25.431  1.00  0.00     0.015 C 
BRANCH   8   9
ATOM      9  C   UNL A   1      32.173  25.880  23.993  1.00  0.00     0.037 C 
BRANCH   9  10
ATOM     10  C   UNL A   1      30.887  26.620  23.681  1.00  0.00    -0.033 A 
ATOM     11  C   UNL A   1      29.666  25.930  23.895  1.00  0.00     0.005 A 
ATOM     12  C   UNL A   1      30.835  27.947  23.202  1.00  0.00     0.028 A 
ATOM     13  C   UNL A   1      28.426  26.554  23.764  1.00  0.00     0.005 A 
ATOM     14  C   UNL A   1      29.593  28.562  23.053  1.00  0.00    -0.008 A 
ATOM     15  Br  UNL A   1      32.405  28.894  22.702  1.00  0.00    -0.050 Br
ATOM     16  C   UNL A   1      28.410  27.873  23.359  1.00  0.00    -0.036 A 
ATOM     17  C   UNL A   1      29.224  29.893  22.576  1.00  0.00     0.005 C 
ATOM     18  C   UNL A   1      27.215  28.755  23.133  1.00  0.00     0.063 C 
ATOM     19  C   UNL A   1      27.887  30.001  22.623  1.00  0.00    -0.022 C 
ENDBRANCH   9  10
ENDBRANCH   8   9
ENDBRANCH   7   8
ENDBRANCH   5   7
ENDBRANCH   2   3
ENDBRANCH   1   2
BRANCH   1  20
ATOM     20  C   UNL A   1      31.474  32.295  26.757  1.00  0.00     0.023 C 
BRANCH  20  21
ATOM     21  C   UNL A   1      32.778  32.910  27.257  1.00  0.00     0.116 C 
BRANCH  21  22
ATOM     22  N   UNL A   1      32.578  34.251  27.782  1.00  0.00    -0.352 N 
ATOM     23  C   UNL A   1      33.171  34.843  28.870  1.00  0.00     0.251 C 
ATOM     24  H   UNL A   1      31.932  34.809  27.291  1.00  0.00     0.163 HD
ATOM     25  O   UNL A   1      32.741  35.909  29.302  1.00  0.00    -0.269 OA
BRANCH  23  26
ATOM     26  C   UNL A   1      34.320  34.186  29.529  1.00  0.00     0.039 A 
ATOM     27  C   UNL A   1      35.612  34.453  29.071  1.00  0.00     0.014 A 
ATOM     28  C   UNL A   1      34.117  33.295  30.589  1.00  0.00     0.014 A 
ATOM     29  C   UNL A   1      36.708  33.860  29.703  1.00  0.00     0.010 A 
ATOM     30  C   UNL A   1      35.213  32.739  31.247  1.00  0.00     0.010 A 
ATOM     31  C   UNL A   1      36.518  33.010  30.805  1.00  0.00    -0.014 A 
BRANCH  31  32
ATOM     32  C   UNL A   1      37.673  32.379  31.491  1.00  0.00     0.031 A 
ATOM     33  C   UNL A   1      38.375  31.210  30.860  1.00  0.00     0.074 A 
ATOM     34  C   UNL A   1      38.061  32.824  32.701  1.00  0.00     0.049 A 
ATOM     35  N   UNL A   1      39.386  30.515  31.313  1.00  0.00    -0.248 NA
ATOM     36  C   UNL A   1      37.869  30.752  29.555  1.00  0.00     0.031 C 
ATOM     37  C   UNL A   1      37.437  33.928  33.429  1.00  0.00     0.029 A 
ATOM     38  N   UNL A   1      39.064  32.397  33.538  1.00  0.00    -0.354 N 
ATOM     39  C   UNL A   1      39.636  29.541  30.355  1.00  0.00     0.074 A 
ATOM     40  C   UNL A   1      38.641  29.701  29.318  1.00  0.00     0.031 C 
ATOM     41  C   UNL A   1      38.075  34.099  34.598  1.00  0.00     0.029 A 
ATOM     42  C   UNL A   1      39.135  33.098  34.720  1.00  0.00     0.049 A 
ATOM     43  H   UNL A   1      39.675  31.658  33.313  1.00  0.00     0.167 HD
ATOM     44  C   UNL A   1      40.621  28.613  30.332  1.00  0.00     0.034 A 
ATOM     45  C   UNL A   1      39.955  32.953  35.781  1.00  0.00     0.034 A 
ATOM     46  C   UNL A   1      41.620  28.473  31.360  1.00  0.00     0.049 A 
ATOM     47  C   UNL A   1      41.038  31.903  35.738  1.00  0.00     0.074 A 
ATOM     48  C   UNL A   1      42.694  27.601  31.389  1.00  0.00     0.029 A 
ATOM     49  N   UNL A   1      41.671  29.212  32.531  1.00  0.00    -0.354 N 
ATOM     50  N   UNL A   1      41.323  31.055  34.780  1.00  0.00    -0.248 NA
ATOM     51  C   UNL A   1      41.920  31.797  36.910  1.00  0.00     0.031 C 
ATOM     52  C   UNL A   1      43.360  27.772  32.601  1.00  0.00     0.029 A 
ATOM     53  C   UNL A   1      42.742  28.797  33.302  1.00  0.00     0.049 A 
ATOM     54  H   UNL A   1      41.039  29.926  32.778  1.00  0.00     0.167 HD
ATOM     55  C   UNL A   1      42.433  30.337  35.217  1.00  0.00     0.074 A 
ATOM     56  C   UNL A   1      42.777  30.860  36.522  1.00  0.00     0.031 C 
ATOM     57  C   UNL A   1      43.102  29.337  34.591  1.00  0.00     0.034 A 
BRANCH  44  58
ATOM     58  C   UNL A   1      40.708  27.683  29.152  1.00  0.00     0.023 A 
ATOM     59  C   UNL A   1      41.608  27.955  28.106  1.00  0.00     0.031 A 
ATOM     60  C   UNL A   1      39.802  26.619  28.996  1.00  0.00     0.131 A 
ATOM     61  C   UNL A   1      41.558  27.194  26.933  1.00  0.00     0.055 A 
ATOM     62  C   UNL A   1      39.782  25.840  27.839  1.00  0.00     0.041 A 
ATOM     63  F   UNL A   1      38.925  26.322  29.969  1.00  0.00    -0.206 F 
ATOM     64  C   UNL A   1      40.655  26.134  26.796  1.00  0.00     0.022 A 
BRANCH  61  65
ATOM     65  S   UNL A   1      42.629  27.581  25.522  1.00  0.00     0.124 S 
ATOM     66  O   UNL A   1      43.936  27.721  26.163  1.00  0.00    -0.237 OA
ATOM     67  O   UNL A   1      42.467  26.397  24.684  1.00  0.00    -0.237 OA
ATOM     68  O   UNL A   1      42.069  28.818  24.987  1.00  0.00    -0.744 OA
ENDBRANCH  61  65
ENDBRANCH  44  58
BRANCH  45  69
ATOM     69  C   UNL A   1      39.810  33.878  36.942  1.00  0.00     0.023 A 
ATOM     70  C   UNL A   1      39.247  33.439  38.154  1.00  0.00     0.031 A 
ATOM     71  C   UNL A   1      40.141  35.238  36.819  1.00  0.00     0.131 A 
ATOM     72  C   UNL A   1      38.979  34.363  39.172  1.00  0.00     0.055 A 
ATOM     73  C   UNL A   1      39.933  36.144  37.860  1.00  0.00     0.041 A 
ATOM     74  F   UNL A   1      40.668  35.704  35.676  1.00  0.00    -0.206 F 
ATOM     75  C   UNL A   1      39.335  35.709  39.040  1.00  0.00     0.022 A 
BRANCH  72  76
ATOM     76  S   UNL A   1      38.068  33.868  40.661  1.00  0.00     0.124 S 
ATOM     77  O   UNL A   1      37.359  35.094  41.013  1.00  0.00    -0.237 OA
ATOM     78  O   UNL A   1      37.235  32.780  40.153  1.00  0.00    -0.237 OA
ATOM     79  O   UNL A   1      39.115  33.459  41.590  1.00  0.00    -0.744 OA
ENDBRANCH  72  76
ENDBRANCH  45  69
BRANCH  57  80
ATOM     80  C   UNL A   1      44.301  28.722  35.269  1.00  0.00     0.023 A 
ATOM     81  C   UNL A   1      44.118  27.701  36.221  1.00  0.00     0.031 A 
ATOM     82  C   UNL A   1      45.588  29.262  35.109  1.00  0.00     0.131 A 
ATOM     83  C   UNL A   1      45.195  27.286  37.014  1.00  0.00     0.055 A 
ATOM     84  C   UNL A   1      46.668  28.813  35.871  1.00  0.00     0.041 A 
ATOM     85  F   UNL A   1      45.809  30.244  34.222  1.00  0.00    -0.206 F 
ATOM     86  C   UNL A   1      46.471  27.831  36.838  1.00  0.00     0.022 A 
BRANCH  83  87
ATOM     87  S   UNL A   1      44.964  26.081  38.351  1.00  0.00     0.124 S 
ATOM     88  O   UNL A   1      46.183  26.260  39.135  1.00  0.00    -0.237 OA
ATOM     89  O   UNL A   1      43.738  26.561  38.985  1.00  0.00    -0.237 OA
ATOM     90  O   UNL A   1      44.856  24.802  37.658  1.00  0.00    -0.744 OA
ENDBRANCH  83  87
ENDBRANCH  57  80
ENDBRANCH  31  32
ENDBRANCH  23  26
ENDBRANCH  21  22
ENDBRANCH  20  21
ENDBRANCH   1  20
TORSDOF 17
ENDMDL
MODEL 2
REMARK VINA RESULT:     -11.3      0.352      7.885
REMARK SMILES O=C(CCCc1ccc2c(c1Br)C=CC2)NCCCCNC(=O)c1ccc(-c2c3nc(c(-c4cc(S(=O)(=O)[O-])ccc4F)c4ccc([nH]4)c(-c4cc(S(=O)(=O)[O-])ccc4F)c4nc(c(-c5cc(S(=O)(=O)[O-])ccc5F)c5ccc2[nH]5)C=C4)C=C3)cc1
REMARK SMILES IDX 18 1 17 2 16 3 1 4 2 5 3 7 4 8 5 9 6 10 7 11 11 12 8 13
REMARK SMILES IDX 10 14 12 15 9 16 13 17 15 18 14 19 19 20 20 21 21 22 22 23
REMARK SMILES IDX 23 25 24 26 25 27 86 28 26 29 85 30 27 31 28 32 29 33 79 34
REMARK SMILES IDX 30 35 84 36 78 37 80 38 31 39 83 40 77 41 76 42 32 44 64 45
REMARK SMILES IDX 44 46 63 47 45 48 48 49 62 50 81 51 46 52 47 53 61 55 82 56
REMARK SMILES IDX 49 57 33 58 34 59 42 60 35 61 41 62 43 63 40 64 36 65 37 66
REMARK SMILES IDX 38 67 39 68 65 69 66 70 74 71 67 72 73 73 75 74 72 75 68 76
REMARK SMILES IDX 69 77 70 78 71 79 50 80 51 81 59 82 52 83 58 84 60 85 57 86
REMARK SMILES IDX 53 87 54 88 55 89 56 90
REMARK H PARENT 16 6 21 24 80 43 48 54
REMARK Flexibility Score: inf
ROOT
ATOM      1  C   UNL A   1      31.463  30.942  26.058  1.00  0.00     0.023 C 
ENDROOT
BRANCH   1   2
ATOM      2  C   UNL A   1      32.441  29.942  26.677  1.00  0.00     0.116 C 
BRANCH   2   3
ATOM      3  N   UNL A   1      32.164  28.580  26.275  1.00  0.00    -0.356 N 
ATOM      4  O   UNL A   1      31.514  27.813  28.338  1.00  0.00    -0.275 OA
ATOM      5  C   UNL A   1      31.703  27.620  27.142  1.00  0.00     0.220 C 
ATOM      6  H   UNL A   1      32.312  28.330  25.335  1.00  0.00     0.163 HD
BRANCH   5   7
ATOM      7  C   UNL A   1      31.438  26.279  26.486  1.00  0.00     0.100 C 
BRANCH   7   8
ATOM      8  C   UNL A   1      32.520  25.884  25.477  1.00  0.00     0.015 C 
BRANCH   8   9
ATOM      9  C   UNL A   1      32.119  25.913  23.989  1.00  0.00     0.037 C 
BRANCH   9  10
ATOM     10  C   UNL A   1      30.828  26.643  23.671  1.00  0.00    -0.033 A 
ATOM     11  C   UNL A   1      29.611  25.951  23.901  1.00  0.00     0.005 A 
ATOM     12  C   UNL A   1      30.769  27.962  23.172  1.00  0.00     0.028 A 
ATOM     13  C   UNL A   1      28.369  26.568  23.765  1.00  0.00     0.005 A 
ATOM     14  C   UNL A   1      29.524  28.570  23.019  1.00  0.00    -0.008 A 
ATOM     15  Br  UNL A   1      32.333  28.908  22.651  1.00  0.00    -0.050 Br
ATOM     16  C   UNL A   1      28.345  27.881  23.341  1.00  0.00    -0.036 A 
ATOM     17  C   UNL A   1      29.147  29.891  22.524  1.00  0.00     0.005 C 
ATOM     18  C   UNL A   1      27.146  28.754  23.107  1.00  0.00     0.063 C 
ATOM     19  C   UNL A   1      27.810  29.995  22.575  1.00  0.00    -0.022 C 
ENDBRANCH   9  10
ENDBRANCH   8   9
ENDBRANCH   7   8
ENDBRANCH   5   7
ENDBRANCH   2   3
ENDBRANCH   1   2
BRANCH   1  20
ATOM     20  C   UNL A   1      31.376  32.304  26.755  1.00  0.00     0.023 C 
BRANCH  20  21
ATOM     21  C   UNL A   1      32.702  32.872  27.256  1.00  0.00     0.116 C 
BRANCH  21  22
ATOM     22  N   UNL A   1      32.542  34.200  27.825  1.00  0.00    -0.352 N 
ATOM     23  C   UNL A   1      33.176  34.749  28.912  1.00  0.00     0.251 C 
ATOM     24  H   UNL A   1      31.893  34.784  27.369  1.00  0.00     0.163 HD
ATOM     25  O   UNL A   1      32.779  35.810  29.386  1.00  0.00    -0.269 OA
BRANCH  23  26
ATOM     26  C   UNL A   1      34.330  34.053  29.519  1.00  0.00     0.039 A 
ATOM     27  C   UNL A   1      35.618  34.348  29.066  1.00  0.00     0.014 A 
ATOM     28  C   UNL A   1      34.136  33.099  30.524  1.00  0.00     0.014 A 
ATOM     29  C   UNL A   1      36.719  33.717  29.650  1.00  0.00     0.010 A 
ATOM     30  C   UNL A   1      35.238  32.503  31.137  1.00  0.00     0.010 A 
ATOM     31  C   UNL A   1      36.539  32.801  30.700  1.00  0.00    -0.014 A 
BRANCH  31  32
ATOM     32  C   UNL A   1      37.700  32.128  31.336  1.00  0.00     0.031 A 
ATOM     33  C   UNL A   1      38.224  32.620  32.655  1.00  0.00     0.074 A 
ATOM     34  C   UNL A   1      38.312  31.107  30.706  1.00  0.00     0.049 A 
ATOM     35  N   UNL A   1      39.236  32.177  33.354  1.00  0.00    -0.248 NA
ATOM     36  C   UNL A   1      37.529  33.766  33.264  1.00  0.00     0.031 C 
ATOM     37  C   UNL A   1      37.916  30.564  29.407  1.00  0.00     0.029 A 
ATOM     38  N   UNL A   1      39.404  30.353  31.065  1.00  0.00    -0.354 N 
ATOM     39  C   UNL A   1      39.302  32.988  34.480  1.00  0.00     0.074 A 
ATOM     40  C   UNL A   1      38.259  33.981  34.349  1.00  0.00     0.031 C 
ATOM     41  C   UNL A   1      38.745  29.558  29.083  1.00  0.00     0.029 A 
ATOM     42  C   UNL A   1      39.751  29.403  30.133  1.00  0.00     0.049 A 
ATOM     43  H   UNL A   1      39.891  30.481  31.911  1.00  0.00     0.167 HD
ATOM     44  C   UNL A   1      40.141  32.896  35.538  1.00  0.00     0.034 A 
ATOM     45  C   UNL A   1      40.762  28.510  30.121  1.00  0.00     0.034 A 
ATOM     46  C   UNL A   1      41.165  31.893  35.669  1.00  0.00     0.049 A 
ATOM     47  C   UNL A   1      41.693  28.435  31.306  1.00  0.00     0.074 A 
ATOM     48  C   UNL A   1      42.021  31.686  36.737  1.00  0.00     0.029 A 
ATOM     49  N   UNL A   1      41.474  30.937  34.716  1.00  0.00    -0.354 N 
ATOM     50  N   UNL A   1      41.679  29.144  32.410  1.00  0.00    -0.248 NA
ATOM     51  C   UNL A   1      42.768  27.432  31.256  1.00  0.00     0.031 C 
ATOM     52  C   UNL A   1      42.885  30.643  36.405  1.00  0.00     0.029 A 
ATOM     53  C   UNL A   1      42.527  30.155  35.158  1.00  0.00     0.049 A 
ATOM     54  H   UNL A   1      41.014  30.830  33.851  1.00  0.00     0.167 HD
ATOM     55  C   UNL A   1      42.718  28.655  33.196  1.00  0.00     0.074 A 
ATOM     56  C   UNL A   1      43.333  27.579  32.449  1.00  0.00     0.031 C 
ATOM     57  C   UNL A   1      43.122  29.064  34.425  1.00  0.00     0.034 A 
BRANCH  44  58
ATOM     58  C   UNL A   1      39.987  33.880  36.667  1.00  0.00     0.023 A 
ATOM     59  C   UNL A   1      39.430  33.465  37.890  1.00  0.00     0.031 A 
ATOM     60  C   UNL A   1      40.254  35.249  36.482  1.00  0.00     0.131 A 
ATOM     61  C   UNL A   1      39.122  34.417  38.869  1.00  0.00     0.055 A 
ATOM     62  C   UNL A   1      39.979  36.187  37.476  1.00  0.00     0.041 A 
ATOM     63  F   UNL A   1      40.787  35.690  35.331  1.00  0.00    -0.206 F 
ATOM     64  C   UNL A   1      39.400  35.773  38.672  1.00  0.00     0.022 A 
BRANCH  61  65
ATOM     65  S   UNL A   1      38.306  33.936  40.415  1.00  0.00     0.124 S 
ATOM     66  O   UNL A   1      39.147  32.829  40.870  1.00  0.00    -0.237 OA
ATOM     67  O   UNL A   1      38.404  35.160  41.204  1.00  0.00    -0.237 OA
ATOM     68  O   UNL A   1      36.961  33.556  39.997  1.00  0.00    -0.744 OA
ENDBRANCH  61  65
ENDBRANCH  44  58
BRANCH  45  69
ATOM     69  C   UNL A   1      40.893  27.577  28.966  1.00  0.00     0.023 A 
ATOM     70  C   UNL A   1      41.847  27.802  27.956  1.00  0.00     0.031 A 
ATOM     71  C   UNL A   1      39.998  26.506  28.805  1.00  0.00     0.131 A 
ATOM     72  C   UNL A   1      41.845  27.002  26.806  1.00  0.00     0.055 A 
ATOM     73  C   UNL A   1      40.042  25.671  27.687  1.00  0.00     0.041 A 
ATOM     74  F   UNL A   1      39.064  26.262  29.736  1.00  0.00    -0.206 F 
ATOM     75  C   UNL A   1      40.961  25.927  26.673  1.00  0.00     0.022 A 
BRANCH  72  76
ATOM     76  S   UNL A   1      42.923  27.394  25.399  1.00  0.00     0.124 S 
ATOM     77  O   UNL A   1      44.152  27.818  26.060  1.00  0.00    -0.237 OA
ATOM     78  O   UNL A   1      42.987  26.109  24.707  1.00  0.00    -0.237 OA
ATOM     79  O   UNL A   1      42.199  28.441  24.687  1.00  0.00    -0.744 OA
ENDBRANCH  72  76
ENDBRANCH  45  69
BRANCH  57  80
ATOM     80  C   UNL A   1      44.276  28.355  35.089  1.00  0.00     0.023 A 
ATOM     81  C   UNL A   1      44.023  27.380  36.074  1.00  0.00     0.031 A 
ATOM     82  C   UNL A   1      45.603  28.764  34.882  1.00  0.00     0.131 A 
ATOM     83  C   UNL A   1      45.078  26.885  36.850  1.00  0.00     0.055 A 
ATOM     84  C   UNL A   1      46.657  28.234  35.628  1.00  0.00     0.041 A 
ATOM     85  F   UNL A   1      45.891  29.698  33.961  1.00  0.00    -0.206 F 
ATOM     86  C   UNL A   1      46.394  27.300  36.627  1.00  0.00     0.022 A 
BRANCH  83  87
ATOM     87  S   UNL A   1      44.770  25.743  38.226  1.00  0.00     0.124 S 
ATOM     88  O   UNL A   1      43.827  26.500  39.045  1.00  0.00    -0.237 OA
ATOM     89  O   UNL A   1      44.209  24.582  37.540  1.00  0.00    -0.237 OA
ATOM     90  O   UNL A   1      46.087  25.546  38.823  1.00  0.00    -0.744 OA
ENDBRANCH  83  87
ENDBRANCH  57  80
ENDBRANCH  31  32
ENDBRANCH  23  26
ENDBRANCH  21  22
ENDBRANCH  20  21
ENDBRANCH   1  20
TORSDOF 17
ENDMDL
MODEL 3
REMARK VINA RESULT:     -11.2      4.515     10.275
REMARK SMILES O=C(CCCc1ccc2c(c1Br)C=CC2)NCCCCNC(=O)c1ccc(-c2c3nc(c(-c4cc(S(=O)(=O)[O-])ccc4F)c4ccc([nH]4)c(-c4cc(S(=O)(=O)[O-])ccc4F)c4nc(c(-c5cc(S(=O)(=O)[O-])ccc5F)c5ccc2[nH]5)C=C4)C=C3)cc1
REMARK SMILES IDX 18 1 17 2 16 3 1 4 2 5 3 7 4 8 5 9 6 10 7 11 11 12 8 13
REMARK SMILES IDX 10 14 12 15 9 16 13 17 15 18 14 19 19 20 20 21 21 22 22 23
REMARK SMILES IDX 23 25 24 26 25 27 86 28 26 29 85 30 27 31 28 32 29 33 79 34
REMARK SMILES IDX 30 35 84 36 78 37 80 38 31 39 83 40 77 41 76 42 32 44 64 45
REMARK SMILES IDX 44 46 63 47 45 48 48 49 62 50 81 51 46 52 47 53 61 55 82 56
REMARK SMILES IDX 49 57 33 58 34 59 42 60 35 61 41 62 43 63 40 64 36 65 37 66
REMARK SMILES IDX 38 67 39 68 65 69 66 70 74 71 67 72 73 73 75 74 72 75 68 76
REMARK SMILES IDX 69 77 70 78 71 79 50 80 51 81 59 82 52 83 58 84 60 85 57 86
REMARK SMILES IDX 53 87 54 88 55 89 56 90
REMARK H PARENT 16 6 21 24 80 43 48 54
REMARK Flexibility Score: inf
ROOT
ATOM      1  C   UNL A   1      33.014  35.505  32.600  1.00  0.00     0.023 C 
ENDROOT
BRANCH   1   2
ATOM      2  C   UNL A   1      33.843  34.226  32.470  1.00  0.00     0.116 C 
BRANCH   2   3
ATOM      3  N   UNL A   1      34.514  33.877  33.704  1.00  0.00    -0.356 N 
ATOM      4  O   UNL A   1      36.309  35.282  33.444  1.00  0.00    -0.275 OA
ATOM      5  C   UNL A   1      35.696  34.450  34.103  1.00  0.00     0.220 C 
ATOM      6  H   UNL A   1      34.103  33.197  34.284  1.00  0.00     0.163 HD
BRANCH   5   7
ATOM      7  C   UNL A   1      36.188  33.963  35.453  1.00  0.00     0.100 C 
BRANCH   7   8
ATOM      8  C   UNL A   1      37.525  33.222  35.369  1.00  0.00     0.015 C 
BRANCH   8   9
ATOM      9  C   UNL A   1      37.498  31.819  34.731  1.00  0.00     0.037 C 
BRANCH   9  10
ATOM     10  C   UNL A   1      38.834  31.104  34.663  1.00  0.00    -0.033 A 
ATOM     11  C   UNL A   1      39.869  31.567  35.514  1.00  0.00     0.005 A 
ATOM     12  C   UNL A   1      39.100  30.008  33.813  1.00  0.00     0.028 A 
ATOM     13  C   UNL A   1      41.091  30.905  35.626  1.00  0.00     0.005 A 
ATOM     14  C   UNL A   1      40.332  29.361  33.913  1.00  0.00    -0.008 A 
ATOM     15  Br  UNL A   1      37.853  29.430  32.500  1.00  0.00    -0.050 Br
ATOM     16  C   UNL A   1      41.298  29.797  34.832  1.00  0.00    -0.036 A 
ATOM     17  C   UNL A   1      40.892  28.232  33.176  1.00  0.00     0.005 C 
ATOM     18  C   UNL A   1      42.521  28.929  34.758  1.00  0.00     0.063 C 
ATOM     19  C   UNL A   1      42.123  27.988  33.653  1.00  0.00    -0.022 C 
ENDBRANCH   9  10
ENDBRANCH   8   9
ENDBRANCH   7   8
ENDBRANCH   5   7
ENDBRANCH   2   3
ENDBRANCH   1   2
BRANCH   1  20
ATOM     20  C   UNL A   1      32.551  36.134  31.281  1.00  0.00     0.023 C 
BRANCH  20  21
ATOM     21  C   UNL A   1      33.454  35.875  30.078  1.00  0.00     0.116 C 
BRANCH  21  22
ATOM     22  N   UNL A   1      32.853  34.939  29.142  1.00  0.00    -0.352 N 
ATOM     23  C   UNL A   1      33.434  33.871  28.505  1.00  0.00     0.251 C 
ATOM     24  H   UNL A   1      31.901  35.091  28.939  1.00  0.00     0.163 HD
ATOM     25  O   UNL A   1      32.844  33.304  27.588  1.00  0.00    -0.269 OA
BRANCH  23  26
ATOM     26  C   UNL A   1      34.779  33.413  28.915  1.00  0.00     0.039 A 
ATOM     27  C   UNL A   1      34.890  32.392  29.863  1.00  0.00     0.014 A 
ATOM     28  C   UNL A   1      35.926  34.003  28.374  1.00  0.00     0.014 A 
ATOM     29  C   UNL A   1      36.155  31.932  30.239  1.00  0.00     0.010 A 
ATOM     30  C   UNL A   1      37.186  33.512  28.718  1.00  0.00     0.010 A 
ATOM     31  C   UNL A   1      37.311  32.478  29.658  1.00  0.00    -0.014 A 
BRANCH  31  32
ATOM     32  C   UNL A   1      38.662  31.994  30.043  1.00  0.00     0.031 A 
ATOM     33  C   UNL A   1      39.452  32.725  31.091  1.00  0.00     0.074 A 
ATOM     34  C   UNL A   1      39.196  30.928  29.418  1.00  0.00     0.049 A 
ATOM     35  N   UNL A   1      40.651  32.467  31.545  1.00  0.00    -0.248 NA
ATOM     36  C   UNL A   1      38.819  33.906  31.702  1.00  0.00     0.031 C 
ATOM     37  C   UNL A   1      38.539  30.158  28.362  1.00  0.00     0.029 A 
ATOM     38  N   UNL A   1      40.416  30.314  29.570  1.00  0.00    -0.354 N 
ATOM     39  C   UNL A   1      40.918  33.451  32.489  1.00  0.00     0.074 A 
ATOM     40  C   UNL A   1      39.777  34.339  32.510  1.00  0.00     0.031 C 
ATOM     41  C   UNL A   1      39.358  29.169  27.968  1.00  0.00     0.029 A 
ATOM     42  C   UNL A   1      40.610  29.251  28.719  1.00  0.00     0.049 A 
ATOM     43  H   UNL A   1      41.088  30.607  30.227  1.00  0.00     0.167 HD
ATOM     44  C   UNL A   1      42.005  33.585  33.284  1.00  0.00     0.034 A 
ATOM     45  C   UNL A   1      41.673  28.436  28.557  1.00  0.00     0.034 A 
ATOM     46  C   UNL A   1      43.128  32.684  33.271  1.00  0.00     0.049 A 
ATOM     47  C   UNL A   1      42.880  28.613  29.445  1.00  0.00     0.074 A 
ATOM     48  C   UNL A   1      44.246  32.708  34.085  1.00  0.00     0.029 A 
ATOM     49  N   UNL A   1      43.281  31.610  32.409  1.00  0.00    -0.354 N 
ATOM     50  N   UNL A   1      43.075  29.487  30.403  1.00  0.00    -0.248 NA
ATOM     51  C   UNL A   1      44.005  27.687  29.246  1.00  0.00     0.031 C 
ATOM     52  C   UNL A   1      45.101  31.684  33.679  1.00  0.00     0.029 A 
ATOM     53  C   UNL A   1      44.489  30.980  32.654  1.00  0.00     0.049 A 
ATOM     54  H   UNL A   1      42.629  31.336  31.724  1.00  0.00     0.167 HD
ATOM     55  C   UNL A   1      44.327  29.200  30.939  1.00  0.00     0.074 A 
ATOM     56  C   UNL A   1      44.839  28.060  30.209  1.00  0.00     0.031 C 
ATOM     57  C   UNL A   1      44.987  29.826  31.945  1.00  0.00     0.034 A 
BRANCH  44  58
ATOM     58  C   UNL A   1      42.043  34.725  34.266  1.00  0.00     0.023 A 
ATOM     59  C   UNL A   1      41.434  34.588  35.526  1.00  0.00     0.031 A 
ATOM     60  C   UNL A   1      42.550  35.985  33.900  1.00  0.00     0.131 A 
ATOM     61  C   UNL A   1      41.314  35.704  36.362  1.00  0.00     0.055 A 
ATOM     62  C   UNL A   1      42.460  37.084  34.753  1.00  0.00     0.041 A 
ATOM     63  F   UNL A   1      43.140  36.162  32.706  1.00  0.00    -0.206 F 
ATOM     64  C   UNL A   1      41.829  36.949  35.986  1.00  0.00     0.022 A 
BRANCH  61  65
ATOM     65  S   UNL A   1      40.442  35.593  37.948  1.00  0.00     0.124 S 
ATOM     66  O   UNL A   1      41.510  35.887  38.902  1.00  0.00    -0.237 OA
ATOM     67  O   UNL A   1      39.425  36.631  37.808  1.00  0.00    -0.237 OA
ATOM     68  O   UNL A   1      39.947  34.221  37.980  1.00  0.00    -0.744 OA
ENDBRANCH  61  65
ENDBRANCH  44  58
BRANCH  45  69
ATOM     69  C   UNL A   1      41.600  27.340  27.548  1.00  0.00     0.023 A 
ATOM     70  C   UNL A   1      41.287  26.022  27.931  1.00  0.00     0.031 A 
ATOM     71  C   UNL A   1      41.942  27.577  26.207  1.00  0.00     0.131 A 
ATOM     72  C   UNL A   1      41.379  24.985  26.993  1.00  0.00     0.055 A 
ATOM     73  C   UNL A   1      41.968  26.551  25.261  1.00  0.00     0.041 A 
ATOM     74  F   UNL A   1      42.260  28.815  25.800  1.00  0.00    -0.206 F 
ATOM     75  C   UNL A   1      41.699  25.244  25.656  1.00  0.00     0.022 A 
BRANCH  72  76
ATOM     76  S   UNL A   1      41.183  23.253  27.500  1.00  0.00     0.124 S 
ATOM     77  O   UNL A   1      39.734  23.126  27.615  1.00  0.00    -0.237 OA
ATOM     78  O   UNL A   1      41.794  22.544  26.378  1.00  0.00    -0.237 OA
ATOM     79  O   UNL A   1      41.923  23.172  28.755  1.00  0.00    -0.744 OA
ENDBRANCH  72  76
ENDBRANCH  45  69
BRANCH  57  80
ATOM     80  C   UNL A   1      46.341  29.310  32.364  1.00  0.00     0.023 A 
ATOM     81  C   UNL A   1      46.434  28.332  33.374  1.00  0.00     0.031 A 
ATOM     82  C   UNL A   1      47.526  29.905  31.902  1.00  0.00     0.131 A 
ATOM     83  C   UNL A   1      47.682  28.014  33.923  1.00  0.00     0.055 A 
ATOM     84  C   UNL A   1      48.772  29.553  32.422  1.00  0.00     0.041 A 
ATOM     85  F   UNL A   1      47.486  30.850  30.949  1.00  0.00    -0.206 F 
ATOM     86  C   UNL A   1      48.852  28.614  33.447  1.00  0.00     0.022 A 
BRANCH  83  87
ATOM     87  S   UNL A   1      47.823  26.872  35.325  1.00  0.00     0.124 S 
ATOM     88  O   UNL A   1      47.836  27.787  36.464  1.00  0.00    -0.237 OA
ATOM     89  O   UNL A   1      46.612  26.066  35.186  1.00  0.00    -0.237 OA
ATOM     90  O   UNL A   1      49.079  26.169  35.083  1.00  0.00    -0.744 OA
ENDBRANCH  83  87
ENDBRANCH  57  80
ENDBRANCH  31  32
ENDBRANCH  23  26
ENDBRANCH  21  22
ENDBRANCH  20  21
ENDBRANCH   1  20
TORSDOF 17
ENDMDL
