MODEL 1
REMARK VINA RESULT:     -13.0      0.000      0.000
REMARK SMILES CN1N[C@H](C(=O)N[C@@H](CC2=c3ccccc3=NC2)C(=O)NCCCCNC(=O)c2ccc(-c3c4nc(c(-c5cc(S(=O)(=O)[O-])ccc5F)c5ccc([nH]5)c(-c5cc(S(=O)(=O)[O-])ccc5F)c5nc(c(-c6cc(S(=O)(=O)[O-])ccc6F)c6ccc3[nH]6)C=C5)C=C4)cc2)c2ccccc2C1=O
REMARK SMILES IDX 24 1 23 2 22 3 21 4 19 5 20 6 8 8 7 9 5 10 6 11 4 13 1 14
REMARK SMILES IDX 2 15 3 16 98 17 97 19 99 20 92 21 96 22 93 23 95 24 94 25
REMARK SMILES IDX 9 26 10 27 11 28 18 29 12 30 16 31 17 32 13 33 15 34 14 35
REMARK SMILES IDX 25 36 26 37 27 38 28 40 29 41 30 42 91 43 31 44 90 45 32 46
REMARK SMILES IDX 33 47 34 48 84 49 35 50 89 51 83 52 85 53 36 54 88 55 82 56
REMARK SMILES IDX 81 57 37 59 69 60 49 61 68 62 50 63 53 64 67 65 86 66 51 67
REMARK SMILES IDX 52 68 66 70 87 71 54 72 38 73 39 74 47 75 40 76 46 77 48 78
REMARK SMILES IDX 45 79 41 80 42 81 43 82 44 83 70 84 71 85 79 86 72 87 78 88
REMARK SMILES IDX 80 89 77 90 73 91 74 92 75 93 76 94 55 95 56 96 64 97 57 98
REMARK SMILES IDX 63 99 65 100 62 101 58 102 59 103 60 104 61 105
REMARK H PARENT 21 7 7 12 3 18 26 39 85 58 53 69
REMARK Flexibility Score: inf
ROOT
ATOM      1  C   UNL A   1      36.887  21.547  23.945  1.00  0.00     0.023 C 
ENDROOT
BRANCH   1   2
ATOM      2  C   UNL A   1      36.679  22.948  23.387  1.00  0.00     0.023 C 
BRANCH   2   3
ATOM      3  C   UNL A   1      35.298  23.547  23.605  1.00  0.00     0.116 C 
BRANCH   3   4
ATOM      4  N   UNL A   1      35.157  24.462  24.705  1.00  0.00    -0.354 N 
ATOM      5  C   UNL A   1      34.068  25.245  24.985  1.00  0.00     0.242 C 
ATOM      6  O   UNL A   1      33.921  25.591  26.163  1.00  0.00    -0.273 OA
ATOM      7  H   UNL A   1      35.922  24.534  25.320  1.00  0.00     0.163 HD
BRANCH   5   8
ATOM      8  C   UNL A   1      32.951  25.548  23.938  1.00  0.00     0.175 C 
BRANCH   8   9
ATOM      9  N   UNL A   1      31.585  25.572  24.490  1.00  0.00    -0.342 N 
ATOM     10  C   UNL A   1      30.806  24.575  25.006  1.00  0.00     0.244 C 
ATOM     11  O   UNL A   1      29.742  24.914  25.539  1.00  0.00    -0.273 OA
ATOM     12  H   UNL A   1      31.159  26.460  24.487  1.00  0.00     0.164 HD
BRANCH  10  13
ATOM     13  C   UNL A   1      31.156  23.076  24.865  1.00  0.00     0.195 C 
ATOM     14  C   UNL A   1      31.835  20.956  21.941  1.00  0.00     0.169 C 
ATOM     15  N   UNL A   1      32.076  21.562  23.236  1.00  0.00    -0.276 N 
ATOM     16  N   UNL A   1      31.602  22.875  23.469  1.00  0.00    -0.215 NA
ATOM     17  C   UNL A   1      33.002  20.984  24.110  1.00  0.00     0.268 C 
ATOM     18  H   UNL A   1      30.817  23.056  22.844  1.00  0.00     0.149 HD
ATOM     19  C   UNL A   1      33.084  21.583  25.474  1.00  0.00     0.046 A 
ATOM     20  O   UNL A   1      33.674  19.995  23.827  1.00  0.00    -0.268 OA
ATOM     21  C   UNL A   1      32.145  22.551  25.874  1.00  0.00    -0.007 A 
ATOM     22  C   UNL A   1      34.036  21.101  26.378  1.00  0.00     0.014 A 
ATOM     23  C   UNL A   1      32.104  22.933  27.224  1.00  0.00     0.007 A 
ATOM     24  C   UNL A   1      34.024  21.540  27.700  1.00  0.00     0.001 A 
ATOM     25  C   UNL A   1      33.044  22.435  28.128  1.00  0.00     0.000 A 
ENDBRANCH  10  13
ENDBRANCH   8   9
BRANCH   8  26
ATOM     26  C   UNL A   1      33.342  26.807  23.077  1.00  0.00     0.068 C 
BRANCH  26  27
ATOM     27  C   UNL A   1      32.861  28.153  23.555  1.00  0.00    -0.037 C 
ATOM     28  C   UNL A   1      33.168  28.881  24.629  1.00  0.00     0.001 A 
ATOM     29  C   UNL A   1      31.762  28.864  22.816  1.00  0.00     0.174 C 
ATOM     30  C   UNL A   1      34.197  28.965  25.608  1.00  0.00     0.010 A 
ATOM     31  C   UNL A   1      31.871  29.555  24.853  1.00  0.00     0.065 A 
ATOM     32  N   UNL A   1      31.037  29.619  23.861  1.00  0.00    -0.280 NA
ATOM     33  C   UNL A   1      33.910  29.452  26.826  1.00  0.00     0.001 A 
ATOM     34  C   UNL A   1      31.579  29.935  26.255  1.00  0.00     0.028 A 
ATOM     35  C   UNL A   1      32.550  29.815  27.176  1.00  0.00     0.002 A 
ENDBRANCH  26  27
ENDBRANCH   8  26
ENDBRANCH   5   8
ENDBRANCH   3   4
ENDBRANCH   2   3
ENDBRANCH   1   2
BRANCH   1  36
ATOM     36  C   UNL A   1      37.487  21.458  25.346  1.00  0.00     0.116 C 
BRANCH  36  37
ATOM     37  N   UNL A   1      38.691  20.635  25.444  1.00  0.00    -0.352 N 
ATOM     38  C   UNL A   1      39.844  20.843  26.171  1.00  0.00     0.251 C 
ATOM     39  H   UNL A   1      38.676  19.808  24.911  1.00  0.00     0.163 HD
ATOM     40  O   UNL A   1      40.761  20.026  26.120  1.00  0.00    -0.269 OA
BRANCH  38  41
ATOM     41  C   UNL A   1      39.992  22.101  26.932  1.00  0.00     0.039 A 
ATOM     42  C   UNL A   1      39.307  23.244  26.525  1.00  0.00     0.014 A 
ATOM     43  C   UNL A   1      40.967  22.172  27.929  1.00  0.00     0.014 A 
ATOM     44  C   UNL A   1      39.797  24.486  26.907  1.00  0.00     0.010 A 
ATOM     45  C   UNL A   1      41.376  23.422  28.398  1.00  0.00     0.010 A 
ATOM     46  C   UNL A   1      40.865  24.591  27.817  1.00  0.00    -0.014 A 
BRANCH  46  47
ATOM     47  C   UNL A   1      41.469  25.925  28.087  1.00  0.00     0.031 A 
ATOM     48  C   UNL A   1      42.816  26.297  27.516  1.00  0.00     0.074 A 
ATOM     49  C   UNL A   1      40.764  26.837  28.784  1.00  0.00     0.049 A 
ATOM     50  N   UNL A   1      43.480  27.419  27.637  1.00  0.00    -0.248 NA
ATOM     51  C   UNL A   1      43.514  25.282  26.709  1.00  0.00     0.031 C 
ATOM     52  C   UNL A   1      39.445  26.597  29.367  1.00  0.00     0.029 A 
ATOM     53  N   UNL A   1      41.033  28.147  29.092  1.00  0.00    -0.354 N 
ATOM     54  C   UNL A   1      44.681  27.232  26.959  1.00  0.00     0.074 A 
ATOM     55  C   UNL A   1      44.668  25.881  26.445  1.00  0.00     0.031 C 
ATOM     56  C   UNL A   1      38.989  27.737  29.902  1.00  0.00     0.029 A 
ATOM     57  C   UNL A   1      40.017  28.767  29.780  1.00  0.00     0.049 A 
ATOM     58  H   UNL A   1      41.873  28.598  28.845  1.00  0.00     0.167 HD
ATOM     59  C   UNL A   1      45.695  28.112  26.772  1.00  0.00     0.034 A 
ATOM     60  C   UNL A   1      39.923  30.016  30.279  1.00  0.00     0.034 A 
ATOM     61  C   UNL A   1      45.676  29.471  27.249  1.00  0.00     0.049 A 
ATOM     62  C   UNL A   1      41.064  30.972  30.066  1.00  0.00     0.074 A 
ATOM     63  C   UNL A   1      46.639  30.450  27.074  1.00  0.00     0.029 A 
ATOM     64  N   UNL A   1      44.647  30.050  27.977  1.00  0.00    -0.354 N 
ATOM     65  N   UNL A   1      42.182  30.783  29.406  1.00  0.00    -0.248 NA
ATOM     66  C   UNL A   1      40.943  32.307  30.668  1.00  0.00     0.031 C 
ATOM     67  C   UNL A   1      46.217  31.602  27.738  1.00  0.00     0.029 A 
ATOM     68  C   UNL A   1      44.963  31.364  28.279  1.00  0.00     0.049 A 
ATOM     69  H   UNL A   1      43.815  29.594  28.239  1.00  0.00     0.167 HD
ATOM     70  C   UNL A   1      42.896  31.972  29.510  1.00  0.00     0.074 A 
ATOM     71  C   UNL A   1      42.067  32.888  30.267  1.00  0.00     0.031 C 
ATOM     72  C   UNL A   1      44.130  32.272  29.032  1.00  0.00     0.034 A 
BRANCH  59  73
ATOM     73  C   UNL A   1      46.921  27.659  26.016  1.00  0.00     0.023 A 
ATOM     74  C   UNL A   1      47.055  27.966  24.649  1.00  0.00     0.031 A 
ATOM     75  C   UNL A   1      47.883  26.821  26.607  1.00  0.00     0.131 A 
ATOM     76  C   UNL A   1      48.111  27.416  23.911  1.00  0.00     0.055 A 
ATOM     77  C   UNL A   1      48.952  26.303  25.875  1.00  0.00     0.041 A 
ATOM     78  F   UNL A   1      47.800  26.501  27.909  1.00  0.00    -0.206 F 
ATOM     79  C   UNL A   1      49.063  26.590  24.517  1.00  0.00     0.022 A 
BRANCH  76  80
ATOM     80  S   UNL A   1      48.259  27.700  22.125  1.00  0.00     0.124 S 
ATOM     81  O   UNL A   1      49.401  28.610  22.062  1.00  0.00    -0.237 OA
ATOM     82  O   UNL A   1      48.507  26.353  21.620  1.00  0.00    -0.237 OA
ATOM     83  O   UNL A   1      46.977  28.288  21.755  1.00  0.00    -0.744 OA
ENDBRANCH  76  80
ENDBRANCH  59  73
BRANCH  60  84
ATOM     84  C   UNL A   1      38.674  30.410  30.994  1.00  0.00     0.023 A 
ATOM     85  C   UNL A   1      37.609  31.011  30.299  1.00  0.00     0.031 A 
ATOM     86  C   UNL A   1      38.591  30.331  32.394  1.00  0.00     0.131 A 
ATOM     87  C   UNL A   1      36.555  31.597  31.009  1.00  0.00     0.055 A 
ATOM     88  C   UNL A   1      37.497  30.845  33.093  1.00  0.00     0.041 A 
ATOM     89  F   UNL A   1      39.587  29.777  33.102  1.00  0.00    -0.206 F 
ATOM     90  C   UNL A   1      36.484  31.505  32.402  1.00  0.00     0.022 A 
BRANCH  87  91
ATOM     91  S   UNL A   1      35.343  32.649  30.163  1.00  0.00     0.124 S 
ATOM     92  O   UNL A   1      34.963  31.820  29.024  1.00  0.00    -0.237 OA
ATOM     93  O   UNL A   1      34.321  32.816  31.194  1.00  0.00    -0.237 OA
ATOM     94  O   UNL A   1      36.098  33.856  29.844  1.00  0.00    -0.744 OA
ENDBRANCH  87  91
ENDBRANCH  60  84
BRANCH  72  95
ATOM     95  C   UNL A   1      44.694  33.642  29.312  1.00  0.00     0.023 A 
ATOM     96  C   UNL A   1      44.374  34.723  28.468  1.00  0.00     0.031 A 
ATOM     97  C   UNL A   1      45.659  33.838  30.314  1.00  0.00     0.131 A 
ATOM     98  C   UNL A   1      45.046  35.943  28.619  1.00  0.00     0.055 A 
ATOM     99  C   UNL A   1      46.294  35.068  30.487  1.00  0.00     0.041 A 
ATOM    100  F   UNL A   1      46.001  32.833  31.136  1.00  0.00    -0.206 F 
ATOM    101  C   UNL A   1      45.999  36.123  29.628  1.00  0.00     0.022 A 
BRANCH  98 102
ATOM    102  S   UNL A   1      44.770  37.312  27.462  1.00  0.00     0.124 S 
ATOM    103  O   UNL A   1      43.568  36.872  26.755  1.00  0.00    -0.237 OA
ATOM    104  O   UNL A   1      44.582  38.445  28.364  1.00  0.00    -0.237 OA
ATOM    105  O   UNL A   1      45.987  37.344  26.658  1.00  0.00    -0.744 OA
ENDBRANCH  98 102
ENDBRANCH  72  95
ENDBRANCH  46  47
ENDBRANCH  38  41
ENDBRANCH  36  37
ENDBRANCH   1  36
TORSDOF 18
ENDMDL
MODEL 2
REMARK VINA RESULT:     -12.9      0.592      7.090
REMARK SMILES CN1N[C@H](C(=O)N[C@@H](CC2=c3ccccc3=NC2)C(=O)NCCCCNC(=O)c2ccc(-c3c4nc(c(-c5cc(S(=O)(=O)[O-])ccc5F)c5ccc([nH]5)c(-c5cc(S(=O)(=O)[O-])ccc5F)c5nc(c(-c6cc(S(=O)(=O)[O-])ccc6F)c6ccc3[nH]6)C=C5)C=C4)cc2)c2ccccc2C1=O
REMARK SMILES IDX 24 1 23 2 22 3 21 4 19 5 20 6 8 8 7 9 5 10 6 11 4 13 1 14
REMARK SMILES IDX 2 15 3 16 98 17 97 19 99 20 92 21 96 22 93 23 95 24 94 25
REMARK SMILES IDX 9 26 10 27 11 28 18 29 12 30 16 31 17 32 13 33 15 34 14 35
REMARK SMILES IDX 25 36 26 37 27 38 28 40 29 41 30 42 91 43 31 44 90 45 32 46
REMARK SMILES IDX 33 47 34 48 84 49 35 50 89 51 83 52 85 53 36 54 88 55 82 56
REMARK SMILES IDX 81 57 37 59 69 60 49 61 68 62 50 63 53 64 67 65 86 66 51 67
REMARK SMILES IDX 52 68 66 70 87 71 54 72 38 73 39 74 47 75 40 76 46 77 48 78
REMARK SMILES IDX 45 79 41 80 42 81 43 82 44 83 70 84 71 85 79 86 72 87 78 88
REMARK SMILES IDX 80 89 77 90 73 91 74 92 75 93 76 94 55 95 56 96 64 97 57 98
REMARK SMILES IDX 63 99 65 100 62 101 58 102 59 103 60 104 61 105
REMARK H PARENT 21 7 7 12 3 18 26 39 85 58 53 69
REMARK Flexibility Score: inf
ROOT
ATOM      1  C   UNL A   1      36.865  21.588  24.136  1.00  0.00     0.023 C 
ENDROOT
BRANCH   1   2
ATOM      2  C   UNL A   1      36.688  22.920  23.419  1.00  0.00     0.023 C 
BRANCH   2   3
ATOM      3  C   UNL A   1      35.328  23.579  23.579  1.00  0.00     0.116 C 
BRANCH   3   4
ATOM      4  N   UNL A   1      35.171  24.477  24.690  1.00  0.00    -0.354 N 
ATOM      5  C   UNL A   1      34.072  25.245  24.977  1.00  0.00     0.242 C 
ATOM      6  O   UNL A   1      33.917  25.573  26.159  1.00  0.00    -0.273 OA
ATOM      7  H   UNL A   1      35.933  24.549  25.310  1.00  0.00     0.163 HD
BRANCH   5   8
ATOM      8  C   UNL A   1      32.958  25.551  23.929  1.00  0.00     0.175 C 
BRANCH   8   9
ATOM      9  N   UNL A   1      31.591  25.581  24.480  1.00  0.00    -0.342 N 
ATOM     10  C   UNL A   1      30.810  24.589  25.001  1.00  0.00     0.244 C 
ATOM     11  O   UNL A   1      29.746  24.934  25.532  1.00  0.00    -0.273 OA
ATOM     12  H   UNL A   1      31.168  26.470  24.472  1.00  0.00     0.164 HD
BRANCH  10  13
ATOM     13  C   UNL A   1      31.155  23.088  24.868  1.00  0.00     0.195 C 
ATOM     14  C   UNL A   1      31.838  20.953  21.955  1.00  0.00     0.169 C 
ATOM     15  N   UNL A   1      32.076  21.565  23.249  1.00  0.00    -0.276 N 
ATOM     16  N   UNL A   1      31.606  22.880  23.474  1.00  0.00    -0.215 NA
ATOM     17  C   UNL A   1      32.997  20.988  24.129  1.00  0.00     0.268 C 
ATOM     18  H   UNL A   1      30.823  23.061  22.846  1.00  0.00     0.149 HD
ATOM     19  C   UNL A   1      33.077  21.593  25.490  1.00  0.00     0.046 A 
ATOM     20  O   UNL A   1      33.668  19.995  23.852  1.00  0.00    -0.268 OA
ATOM     21  C   UNL A   1      32.140  22.565  25.883  1.00  0.00    -0.007 A 
ATOM     22  C   UNL A   1      34.025  21.113  26.399  1.00  0.00     0.014 A 
ATOM     23  C   UNL A   1      32.096  22.954  27.231  1.00  0.00     0.007 A 
ATOM     24  C   UNL A   1      34.011  21.557  27.719  1.00  0.00     0.001 A 
ATOM     25  C   UNL A   1      33.032  22.457  28.139  1.00  0.00     0.000 A 
ENDBRANCH  10  13
ENDBRANCH   8   9
BRANCH   8  26
ATOM     26  C   UNL A   1      33.355  26.807  23.066  1.00  0.00     0.068 C 
BRANCH  26  27
ATOM     27  C   UNL A   1      32.883  28.156  23.544  1.00  0.00    -0.037 C 
ATOM     28  C   UNL A   1      33.185  28.876  24.625  1.00  0.00     0.001 A 
ATOM     29  C   UNL A   1      31.801  28.883  22.795  1.00  0.00     0.174 C 
ATOM     30  C   UNL A   1      34.203  28.944  25.617  1.00  0.00     0.010 A 
ATOM     31  C   UNL A   1      31.893  29.563  24.837  1.00  0.00     0.065 A 
ATOM     32  N   UNL A   1      31.072  29.641  23.834  1.00  0.00    -0.280 NA
ATOM     33  C   UNL A   1      33.907  29.429  26.833  1.00  0.00     0.001 A 
ATOM     34  C   UNL A   1      31.589  29.941  26.237  1.00  0.00     0.028 A 
ATOM     35  C   UNL A   1      32.546  29.806  27.169  1.00  0.00     0.002 A 
ENDBRANCH  26  27
ENDBRANCH   8  26
ENDBRANCH   5   8
ENDBRANCH   3   4
ENDBRANCH   2   3
ENDBRANCH   1   2
BRANCH   1  36
ATOM     36  C   UNL A   1      37.540  21.641  25.504  1.00  0.00     0.116 C 
BRANCH  36  37
ATOM     37  N   UNL A   1      38.802  20.908  25.591  1.00  0.00    -0.352 N 
ATOM     38  C   UNL A   1      39.958  21.221  26.277  1.00  0.00     0.251 C 
ATOM     39  H   UNL A   1      38.831  20.065  25.084  1.00  0.00     0.163 HD
ATOM     40  O   UNL A   1      40.928  20.469  26.223  1.00  0.00    -0.269 OA
BRANCH  38  41
ATOM     41  C   UNL A   1      40.036  22.510  26.993  1.00  0.00     0.039 A 
ATOM     42  C   UNL A   1      39.325  23.611  26.524  1.00  0.00     0.014 A 
ATOM     43  C   UNL A   1      40.976  22.653  28.017  1.00  0.00     0.014 A 
ATOM     44  C   UNL A   1      39.758  24.883  26.873  1.00  0.00     0.010 A 
ATOM     45  C   UNL A   1      41.326  23.933  28.450  1.00  0.00     0.010 A 
ATOM     46  C   UNL A   1      40.792  25.061  27.810  1.00  0.00    -0.014 A 
BRANCH  46  47
ATOM     47  C   UNL A   1      41.340  26.425  28.048  1.00  0.00     0.031 A 
ATOM     48  C   UNL A   1      40.538  27.463  28.795  1.00  0.00     0.074 A 
ATOM     49  C   UNL A   1      42.599  26.705  27.660  1.00  0.00     0.049 A 
ATOM     50  N   UNL A   1      40.868  28.692  29.104  1.00  0.00    -0.248 NA
ATOM     51  C   UNL A   1      39.191  27.081  29.251  1.00  0.00     0.031 C 
ATOM     52  C   UNL A   1      43.474  25.775  26.948  1.00  0.00     0.029 A 
ATOM     53  N   UNL A   1      43.372  27.826  27.833  1.00  0.00    -0.354 N 
ATOM     54  C   UNL A   1      39.763  29.237  29.752  1.00  0.00     0.074 A 
ATOM     55  C   UNL A   1      38.742  28.215  29.774  1.00  0.00     0.031 C 
ATOM     56  C   UNL A   1      44.683  26.333  26.806  1.00  0.00     0.029 A 
ATOM     57  C   UNL A   1      44.647  27.694  27.334  1.00  0.00     0.049 A 
ATOM     58  H   UNL A   1      43.044  28.645  28.271  1.00  0.00     0.167 HD
ATOM     59  C   UNL A   1      39.620  30.473  30.290  1.00  0.00     0.034 A 
ATOM     60  C   UNL A   1      45.670  28.571  27.285  1.00  0.00     0.034 A 
ATOM     61  C   UNL A   1      40.663  31.468  30.304  1.00  0.00     0.049 A 
ATOM     62  C   UNL A   1      45.485  29.939  27.881  1.00  0.00     0.074 A 
ATOM     63  C   UNL A   1      40.625  32.734  30.860  1.00  0.00     0.029 A 
ATOM     64  N   UNL A   1      41.926  31.312  29.753  1.00  0.00    -0.354 N 
ATOM     65  N   UNL A   1      44.440  30.428  28.506  1.00  0.00    -0.248 NA
ATOM     66  C   UNL A   1      46.607  30.880  27.763  1.00  0.00     0.031 C 
ATOM     67  C   UNL A   1      41.845  33.361  30.602  1.00  0.00     0.029 A 
ATOM     68  C   UNL A   1      42.668  32.467  29.936  1.00  0.00     0.049 A 
ATOM     69  H   UNL A   1      42.247  30.500  29.299  1.00  0.00     0.167 HD
ATOM     70  C   UNL A   1      44.777  31.731  28.858  1.00  0.00     0.074 A 
ATOM     71  C   UNL A   1      46.138  31.942  28.407  1.00  0.00     0.031 C 
ATOM     72  C   UNL A   1      44.024  32.669  29.486  1.00  0.00     0.034 A 
BRANCH  59  73
ATOM     73  C   UNL A   1      38.300  30.843  30.922  1.00  0.00     0.023 A 
ATOM     74  C   UNL A   1      37.346  31.566  30.181  1.00  0.00     0.031 A 
ATOM     75  C   UNL A   1      38.041  30.601  32.282  1.00  0.00     0.131 A 
ATOM     76  C   UNL A   1      36.190  32.046  30.812  1.00  0.00     0.055 A 
ATOM     77  C   UNL A   1      36.872  31.052  32.898  1.00  0.00     0.041 A 
ATOM     78  F   UNL A   1      38.920  29.914  33.031  1.00  0.00    -0.206 F 
ATOM     79  C   UNL A   1      35.946  31.788  32.164  1.00  0.00     0.022 A 
BRANCH  76  80
ATOM     80  S   UNL A   1      34.989  33.071  29.920  1.00  0.00     0.124 S 
ATOM     81  O   UNL A   1      34.091  33.483  30.997  1.00  0.00    -0.237 OA
ATOM     82  O   UNL A   1      35.834  34.129  29.375  1.00  0.00    -0.237 OA
ATOM     83  O   UNL A   1      34.406  32.160  28.942  1.00  0.00    -0.744 OA
ENDBRANCH  76  80
ENDBRANCH  59  73
BRANCH  60  84
ATOM     84  C   UNL A   1      46.957  28.135  26.670  1.00  0.00     0.023 A 
ATOM     85  C   UNL A   1      47.163  28.249  25.283  1.00  0.00     0.031 A 
ATOM     86  C   UNL A   1      47.928  27.465  27.431  1.00  0.00     0.131 A 
ATOM     87  C   UNL A   1      48.261  27.617  24.687  1.00  0.00     0.055 A 
ATOM     88  C   UNL A   1      49.065  26.906  26.842  1.00  0.00     0.041 A 
ATOM     89  F   UNL A   1      47.770  27.321  28.756  1.00  0.00    -0.206 F 
ATOM     90  C   UNL A   1      49.222  26.959  25.460  1.00  0.00     0.022 A 
BRANCH  87  91
ATOM     91  S   UNL A   1      48.379  27.476  22.882  1.00  0.00     0.124 S 
ATOM     92  O   UNL A   1      48.304  26.032  22.683  1.00  0.00    -0.237 OA
ATOM     93  O   UNL A   1      47.210  28.236  22.445  1.00  0.00    -0.237 OA
ATOM     94  O   UNL A   1      49.665  28.091  22.572  1.00  0.00    -0.744 OA
ENDBRANCH  87  91
ENDBRANCH  60  84
BRANCH  72  95
ATOM     95  C   UNL A   1      44.626  34.030  29.724  1.00  0.00     0.023 A 
ATOM     96  C   UNL A   1      44.629  34.991  28.694  1.00  0.00     0.031 A 
ATOM     97  C   UNL A   1      45.327  34.316  30.907  1.00  0.00     0.131 A 
ATOM     98  C   UNL A   1      45.353  36.179  28.855  1.00  0.00     0.055 A 
ATOM     99  C   UNL A   1      46.012  35.520  31.079  1.00  0.00     0.041 A 
ATOM    100  F   UNL A   1      45.359  33.426  31.912  1.00  0.00    -0.206 F 
ATOM    101  C   UNL A   1      46.039  36.451  30.044  1.00  0.00     0.022 A 
BRANCH  98 102
ATOM    102  S   UNL A   1      45.502  37.375  27.500  1.00  0.00     0.124 S 
ATOM    103  O   UNL A   1      44.111  37.775  27.297  1.00  0.00    -0.237 OA
ATOM    104  O   UNL A   1      46.365  38.398  28.086  1.00  0.00    -0.237 OA
ATOM    105  O   UNL A   1      46.093  36.603  26.412  1.00  0.00    -0.744 OA
ENDBRANCH  98 102
ENDBRANCH  72  95
ENDBRANCH  46  47
ENDBRANCH  38  41
ENDBRANCH  36  37
ENDBRANCH   1  36
TORSDOF 18
ENDMDL
MODEL 3
REMARK VINA RESULT:     -12.9      4.708      9.856
REMARK SMILES CN1N[C@H](C(=O)N[C@@H](CC2=c3ccccc3=NC2)C(=O)NCCCCNC(=O)c2ccc(-c3c4nc(c(-c5cc(S(=O)(=O)[O-])ccc5F)c5ccc([nH]5)c(-c5cc(S(=O)(=O)[O-])ccc5F)c5nc(c(-c6cc(S(=O)(=O)[O-])ccc6F)c6ccc3[nH]6)C=C5)C=C4)cc2)c2ccccc2C1=O
REMARK SMILES IDX 24 1 23 2 22 3 21 4 19 5 20 6 8 8 7 9 5 10 6 11 4 13 1 14
REMARK SMILES IDX 2 15 3 16 98 17 97 19 99 20 92 21 96 22 93 23 95 24 94 25
REMARK SMILES IDX 9 26 10 27 11 28 18 29 12 30 16 31 17 32 13 33 15 34 14 35
REMARK SMILES IDX 25 36 26 37 27 38 28 40 29 41 30 42 91 43 31 44 90 45 32 46
REMARK SMILES IDX 33 47 34 48 84 49 35 50 89 51 83 52 85 53 36 54 88 55 82 56
REMARK SMILES IDX 81 57 37 59 69 60 49 61 68 62 50 63 53 64 67 65 86 66 51 67
REMARK SMILES IDX 52 68 66 70 87 71 54 72 38 73 39 74 47 75 40 76 46 77 48 78
REMARK SMILES IDX 45 79 41 80 42 81 43 82 44 83 70 84 71 85 79 86 72 87 78 88
REMARK SMILES IDX 80 89 77 90 73 91 74 92 75 93 76 94 55 95 56 96 64 97 57 98
REMARK SMILES IDX 63 99 65 100 62 101 58 102 59 103 60 104 61 105
REMARK H PARENT 21 7 7 12 3 18 26 39 85 58 53 69
REMARK Flexibility Score: inf
ROOT
ATOM      1  C   UNL A   1      31.692  30.753  26.931  1.00  0.00     0.023 C 
ENDROOT
BRANCH   1   2
ATOM      2  C   UNL A   1      32.102  29.504  26.161  1.00  0.00     0.023 C 
BRANCH   2   3
ATOM      3  C   UNL A   1      32.516  28.313  27.010  1.00  0.00     0.116 C 
BRANCH   3   4
ATOM      4  N   UNL A   1      33.534  27.455  26.468  1.00  0.00    -0.354 N 
ATOM      5  C   UNL A   1      33.342  26.291  25.770  1.00  0.00     0.242 C 
ATOM      6  O   UNL A   1      34.246  25.949  25.000  1.00  0.00    -0.273 OA
ATOM      7  H   UNL A   1      34.468  27.733  26.613  1.00  0.00     0.163 HD
BRANCH   5   8
ATOM      8  C   UNL A   1      31.989  25.513  25.780  1.00  0.00     0.175 C 
BRANCH   8   9
ATOM      9  N   UNL A   1      31.929  24.405  26.750  1.00  0.00    -0.342 N 
ATOM     10  C   UNL A   1      32.736  23.317  26.924  1.00  0.00     0.244 C 
ATOM     11  O   UNL A   1      32.529  22.620  27.925  1.00  0.00    -0.273 OA
ATOM     12  H   UNL A   1      31.176  24.457  27.382  1.00  0.00     0.164 HD
BRANCH  10  13
ATOM     13  C   UNL A   1      33.805  22.888  25.892  1.00  0.00     0.195 C 
ATOM     14  C   UNL A   1      37.419  23.512  25.666  1.00  0.00     0.169 C 
ATOM     15  N   UNL A   1      36.198  22.730  25.703  1.00  0.00    -0.276 N 
ATOM     16  N   UNL A   1      35.121  23.193  26.495  1.00  0.00    -0.215 NA
ATOM     17  C   UNL A   1      36.200  21.420  25.214  1.00  0.00     0.268 C 
ATOM     18  H   UNL A   1      35.205  24.203  26.606  1.00  0.00     0.149 HD
ATOM     19  C   UNL A   1      34.875  20.737  25.156  1.00  0.00     0.046 A 
ATOM     20  O   UNL A   1      37.206  20.859  24.786  1.00  0.00    -0.268 OA
ATOM     21  C   UNL A   1      33.698  21.462  25.415  1.00  0.00    -0.007 A 
ATOM     22  C   UNL A   1      34.810  19.401  24.744  1.00  0.00     0.014 A 
ATOM     23  C   UNL A   1      32.461  20.861  25.136  1.00  0.00     0.007 A 
ATOM     24  C   UNL A   1      33.572  18.798  24.535  1.00  0.00     0.001 A 
ATOM     25  C   UNL A   1      32.401  19.534  24.707  1.00  0.00     0.000 A 
ENDBRANCH  10  13
ENDBRANCH   8   9
BRANCH   8  26
ATOM     26  C   UNL A   1      30.783  26.523  25.848  1.00  0.00     0.068 C 
BRANCH  26  27
ATOM     27  C   UNL A   1      30.023  26.785  24.574  1.00  0.00    -0.037 C 
ATOM     28  C   UNL A   1      30.283  27.566  23.524  1.00  0.00     0.001 A 
ATOM     29  C   UNL A   1      28.660  26.185  24.373  1.00  0.00     0.174 C 
ATOM     30  C   UNL A   1      31.393  28.233  22.934  1.00  0.00     0.010 A 
ATOM     31  C   UNL A   1      28.904  27.931  23.136  1.00  0.00     0.065 A 
ATOM     32  N   UNL A   1      27.934  27.174  23.548  1.00  0.00    -0.280 NA
ATOM     33  C   UNL A   1      31.185  29.342  22.207  1.00  0.00     0.001 A 
ATOM     34  C   UNL A   1      28.753  29.240  22.460  1.00  0.00     0.028 A 
ATOM     35  C   UNL A   1      29.856  29.911  22.088  1.00  0.00     0.002 A 
ENDBRANCH  26  27
ENDBRANCH   8  26
ENDBRANCH   5   8
ENDBRANCH   3   4
ENDBRANCH   2   3
ENDBRANCH   1   2
BRANCH   1  36
ATOM     36  C   UNL A   1      32.127  32.089  26.335  1.00  0.00     0.116 C 
BRANCH  36  37
ATOM     37  N   UNL A   1      32.148  33.202  27.283  1.00  0.00    -0.352 N 
ATOM     38  C   UNL A   1      33.157  33.624  28.124  1.00  0.00     0.251 C 
ATOM     39  H   UNL A   1      31.319  33.729  27.327  1.00  0.00     0.163 HD
ATOM     40  O   UNL A   1      32.981  34.593  28.860  1.00  0.00    -0.269 OA
BRANCH  38  41
ATOM     41  C   UNL A   1      34.407  32.840  28.190  1.00  0.00     0.039 A 
ATOM     42  C   UNL A   1      34.371  31.506  28.588  1.00  0.00     0.014 A 
ATOM     43  C   UNL A   1      35.626  33.506  28.041  1.00  0.00     0.014 A 
ATOM     44  C   UNL A   1      35.524  30.934  29.109  1.00  0.00     0.010 A 
ATOM     45  C   UNL A   1      36.803  32.880  28.458  1.00  0.00     0.010 A 
ATOM     46  C   UNL A   1      36.747  31.629  29.088  1.00  0.00    -0.014 A 
BRANCH  46  47
ATOM     47  C   UNL A   1      37.928  31.056  29.791  1.00  0.00     0.031 A 
ATOM     48  C   UNL A   1      38.187  31.359  31.247  1.00  0.00     0.074 A 
ATOM     49  C   UNL A   1      38.728  30.193  29.136  1.00  0.00     0.049 A 
ATOM     50  N   UNL A   1      39.155  30.932  32.017  1.00  0.00    -0.248 NA
ATOM     51  C   UNL A   1      37.243  32.260  31.930  1.00  0.00     0.031 C 
ATOM     52  C   UNL A   1      38.564  29.810  27.734  1.00  0.00     0.029 A 
ATOM     53  N   UNL A   1      39.807  29.459  29.559  1.00  0.00    -0.354 N 
ATOM     54  C   UNL A   1      38.961  31.538  33.254  1.00  0.00     0.074 A 
ATOM     55  C   UNL A   1      37.795  32.382  33.131  1.00  0.00     0.031 C 
ATOM     56  C   UNL A   1      39.462  28.864  27.431  1.00  0.00     0.029 A 
ATOM     57  C   UNL A   1      40.324  28.635  28.587  1.00  0.00     0.049 A 
ATOM     58  H   UNL A   1      40.176  29.518  30.470  1.00  0.00     0.167 HD
ATOM     59  C   UNL A   1      39.683  31.393  34.392  1.00  0.00     0.034 A 
ATOM     60  C   UNL A   1      41.384  27.802  28.608  1.00  0.00     0.034 A 
ATOM     61  C   UNL A   1      40.817  30.512  34.517  1.00  0.00     0.049 A 
ATOM     62  C   UNL A   1      42.175  27.664  29.880  1.00  0.00     0.074 A 
ATOM     63  C   UNL A   1      41.587  30.267  35.640  1.00  0.00     0.029 A 
ATOM     64  N   UNL A   1      41.335  29.725  33.499  1.00  0.00    -0.354 N 
ATOM     65  N   UNL A   1      41.964  28.230  31.044  1.00  0.00    -0.248 NA
ATOM     66  C   UNL A   1      43.351  26.784  29.846  1.00  0.00     0.031 C 
ATOM     67  C   UNL A   1      42.600  29.373  35.289  1.00  0.00     0.029 A 
ATOM     68  C   UNL A   1      42.429  29.013  33.962  1.00  0.00     0.049 A 
ATOM     69  H   UNL A   1      40.977  29.679  32.583  1.00  0.00     0.167 HD
ATOM     70  C   UNL A   1      42.976  27.775  31.882  1.00  0.00     0.074 A 
ATOM     71  C   UNL A   1      43.780  26.857  31.100  1.00  0.00     0.031 C 
ATOM     72  C   UNL A   1      43.223  28.098  33.177  1.00  0.00     0.034 A 
BRANCH  59  73
ATOM     73  C   UNL A   1      39.286  32.188  35.613  1.00  0.00     0.023 A 
ATOM     74  C   UNL A   1      38.551  31.572  36.643  1.00  0.00     0.031 A 
ATOM     75  C   UNL A   1      39.517  33.573  35.696  1.00  0.00     0.131 A 
ATOM     76  C   UNL A   1      38.048  32.344  37.699  1.00  0.00     0.055 A 
ATOM     77  C   UNL A   1      39.042  34.331  36.768  1.00  0.00     0.041 A 
ATOM     78  F   UNL A   1      40.215  34.207  34.740  1.00  0.00    -0.206 F 
ATOM     79  C   UNL A   1      38.293  33.718  37.769  1.00  0.00     0.022 A 
BRANCH  76  80
ATOM     80  S   UNL A   1      37.007  31.607  38.989  1.00  0.00     0.124 S 
ATOM     81  O   UNL A   1      37.854  31.748  40.171  1.00  0.00    -0.237 OA
ATOM     82  O   UNL A   1      35.828  32.468  38.960  1.00  0.00    -0.237 OA
ATOM     83  O   UNL A   1      36.800  30.237  38.535  1.00  0.00    -0.744 OA
ENDBRANCH  76  80
ENDBRANCH  59  73
BRANCH  60  84
ATOM     84  C   UNL A   1      41.709  27.025  27.377  1.00  0.00     0.023 A 
ATOM     85  C   UNL A   1      41.499  25.635  27.331  1.00  0.00     0.031 A 
ATOM     86  C   UNL A   1      42.370  27.631  26.297  1.00  0.00     0.131 A 
ATOM     87  C   UNL A   1      42.032  24.884  26.277  1.00  0.00     0.055 A 
ATOM     88  C   UNL A   1      42.828  26.888  25.206  1.00  0.00     0.041 A 
ATOM     89  F   UNL A   1      42.604  28.953  26.301  1.00  0.00    -0.206 F 
ATOM     90  C   UNL A   1      42.682  25.503  25.205  1.00  0.00     0.022 A 
BRANCH  87  91
ATOM     91  S   UNL A   1      42.055  23.071  26.352  1.00  0.00     0.124 S 
ATOM     92  O   UNL A   1      40.649  22.758  26.587  1.00  0.00    -0.237 OA
ATOM     93  O   UNL A   1      42.568  22.723  25.029  1.00  0.00    -0.237 OA
ATOM     94  O   UNL A   1      42.961  22.784  27.459  1.00  0.00    -0.744 OA
ENDBRANCH  87  91
ENDBRANCH  60  84
BRANCH  72  95
ATOM     95  C   UNL A   1      44.419  27.478  33.855  1.00  0.00     0.023 A 
ATOM     96  C   UNL A   1      44.303  26.222  34.480  1.00  0.00     0.031 A 
ATOM     97  C   UNL A   1      45.616  28.196  34.012  1.00  0.00     0.131 A 
ATOM     98  C   UNL A   1      45.356  25.739  35.267  1.00  0.00     0.055 A 
ATOM     99  C   UNL A   1      46.679  27.691  34.763  1.00  0.00     0.041 A 
ATOM    100  F   UNL A   1      45.767  29.402  33.441  1.00  0.00    -0.206 F 
ATOM    101  C   UNL A   1      46.545  26.463  35.406  1.00  0.00     0.022 A 
BRANCH  98 102
ATOM    102  S   UNL A   1      45.191  24.195  36.206  1.00  0.00     0.124 S 
ATOM    103  O   UNL A   1      45.385  24.656  37.579  1.00  0.00    -0.237 OA
ATOM    104  O   UNL A   1      43.833  23.777  35.874  1.00  0.00    -0.237 OA
ATOM    105  O   UNL A   1      46.256  23.347  35.679  1.00  0.00    -0.744 OA
ENDBRANCH  98 102
ENDBRANCH  72  95
ENDBRANCH  46  47
ENDBRANCH  38  41
ENDBRANCH  36  37
ENDBRANCH   1  36
TORSDOF 18
ENDMDL
