MODEL 1
REMARK VINA RESULT:     -12.4      0.000      0.000
REMARK SMILES CNC(=O)[C@H](C)Nc1ccc(C(F)(F)F)cc1C(=O)NCCCCNC(=O)c1ccc(-c2c3nc(c(-c4cc(S(=O)(=O)[O-])ccc4F)c4ccc([nH]4)c(-c4cc(S(=O)(=O)[O-])ccc4F)c4nc(c(-c5cc(S(=O)(=O)[O-])ccc5F)c5ccc2[nH]5)C=C4)C=C3)cc1
REMARK SMILES IDX 22 1 21 2 20 3 18 4 19 5 17 7 8 8 9 9 10 10 16 11 11 12 7 13
REMARK SMILES IDX 5 15 6 16 3 17 1 18 2 19 4 21 12 22 13 23 14 24 15 25 23 26
REMARK SMILES IDX 24 27 25 28 26 29 27 31 28 32 29 33 90 34 30 35 89 36 31 37
REMARK SMILES IDX 32 38 33 39 83 40 34 41 88 42 82 43 84 44 35 45 87 46 81 47
REMARK SMILES IDX 80 48 36 50 68 51 48 52 67 53 49 54 52 55 66 56 85 57 50 58
REMARK SMILES IDX 51 59 65 61 86 62 53 63 37 64 38 65 46 66 39 67 45 68 47 69
REMARK SMILES IDX 44 70 40 71 41 72 42 73 43 74 69 75 70 76 78 77 71 78 77 79
REMARK SMILES IDX 79 80 76 81 72 82 73 83 74 84 75 85 54 86 55 87 63 88 56 89
REMARK SMILES IDX 62 90 64 91 61 92 57 93 58 94 59 95 60 96
REMARK H PARENT 20 6 7 14 2 20 25 30 84 49 52 60
REMARK Flexibility Score: inf
ROOT
ATOM      1  C   UNL A   1      35.239  21.643  26.468  1.00  0.00     0.023 C 
ENDROOT
BRANCH   1   2
ATOM      2  C   UNL A   1      34.551  22.999  26.772  1.00  0.00     0.116 C 
BRANCH   2   3
ATOM      3  N   UNL A   1      33.186  22.989  27.246  1.00  0.00    -0.352 N 
ATOM      4  C   UNL A   1      32.024  22.713  26.553  1.00  0.00     0.253 C 
ATOM      5  O   UNL A   1      30.938  22.951  27.079  1.00  0.00    -0.269 OA
ATOM      6  H   UNL A   1      33.068  23.211  28.198  1.00  0.00     0.163 HD
BRANCH   4   7
ATOM      7  C   UNL A   1      32.014  22.211  25.148  1.00  0.00     0.063 A 
ATOM      8  C   UNL A   1      32.040  23.007  23.983  1.00  0.00     0.048 A 
ATOM      9  C   UNL A   1      32.052  22.334  22.740  1.00  0.00     0.027 A 
ATOM     10  C   UNL A   1      32.174  20.951  22.637  1.00  0.00     0.015 A 
ATOM     11  C   UNL A   1      32.162  20.806  25.036  1.00  0.00     0.029 A 
ATOM     12  C   UNL A   1      32.283  20.173  23.788  1.00  0.00     0.056 A 
BRANCH   8  13
ATOM     13  N   UNL A   1      32.203  24.376  23.873  1.00  0.00    -0.373 N 
ATOM     14  H   UNL A   1      32.621  24.836  24.636  1.00  0.00     0.161 HD
BRANCH  13  15
ATOM     15  C   UNL A   1      31.813  25.206  22.737  1.00  0.00     0.165 C 
ATOM     16  C   UNL A   1      30.723  26.196  23.129  1.00  0.00     0.041 C 
BRANCH  15  17
ATOM     17  C   UNL A   1      33.007  25.968  22.181  1.00  0.00     0.241 C 
ATOM     18  C   UNL A   1      33.443  27.482  24.190  1.00  0.00     0.142 C 
ATOM     19  N   UNL A   1      33.753  26.820  22.954  1.00  0.00    -0.357 N 
ATOM     20  H   UNL A   1      34.653  27.009  22.603  1.00  0.00     0.163 HD
ATOM     21  O   UNL A   1      33.309  25.844  20.990  1.00  0.00    -0.273 OA
ENDBRANCH  15  17
ENDBRANCH  13  15
ENDBRANCH   8  13
BRANCH  12  22
ATOM     22  C   UNL A   1      32.592  18.703  23.649  1.00  0.00     0.416 C 
ATOM     23  F   UNL A   1      32.342  18.235  22.395  1.00  0.00    -0.166 F 
ATOM     24  F   UNL A   1      33.908  18.432  23.884  1.00  0.00    -0.166 F 
ATOM     25  F   UNL A   1      31.890  17.903  24.496  1.00  0.00    -0.166 F 
ENDBRANCH  12  22
ENDBRANCH   4   7
ENDBRANCH   2   3
ENDBRANCH   1   2
BRANCH   1  26
ATOM     26  C   UNL A   1      36.021  21.350  25.175  1.00  0.00     0.023 C 
BRANCH  26  27
ATOM     27  C   UNL A   1      37.521  21.672  24.997  1.00  0.00     0.116 C 
BRANCH  27  28
ATOM     28  N   UNL A   1      38.494  20.715  25.512  1.00  0.00    -0.352 N 
ATOM     29  C   UNL A   1      39.695  20.911  26.165  1.00  0.00     0.251 C 
ATOM     30  H   UNL A   1      38.254  19.771  25.369  1.00  0.00     0.163 HD
ATOM     31  O   UNL A   1      40.472  19.988  26.354  1.00  0.00    -0.269 OA
BRANCH  29  32
ATOM     32  C   UNL A   1      39.956  22.242  26.744  1.00  0.00     0.039 A 
ATOM     33  C   UNL A   1      40.875  22.401  27.782  1.00  0.00     0.014 A 
ATOM     34  C   UNL A   1      39.283  23.342  26.207  1.00  0.00     0.014 A 
ATOM     35  C   UNL A   1      41.236  23.692  28.171  1.00  0.00     0.010 A 
ATOM     36  C   UNL A   1      39.693  24.620  26.541  1.00  0.00     0.010 A 
ATOM     37  C   UNL A   1      40.705  24.803  27.493  1.00  0.00    -0.014 A 
BRANCH  37  38
ATOM     38  C   UNL A   1      41.260  26.165  27.662  1.00  0.00     0.031 A 
ATOM     39  C   UNL A   1      42.641  26.484  27.174  1.00  0.00     0.074 A 
ATOM     40  C   UNL A   1      40.567  27.048  28.408  1.00  0.00     0.049 A 
ATOM     41  N   UNL A   1      43.360  27.558  27.368  1.00  0.00    -0.248 NA
ATOM     42  C   UNL A   1      43.318  25.431  26.404  1.00  0.00     0.031 C 
ATOM     43  C   UNL A   1      39.245  26.806  28.994  1.00  0.00     0.029 A 
ATOM     44  N   UNL A   1      40.882  28.315  28.823  1.00  0.00    -0.354 N 
ATOM     45  C   UNL A   1      44.585  27.305  26.764  1.00  0.00     0.074 A 
ATOM     46  C   UNL A   1      44.525  25.952  26.248  1.00  0.00     0.031 C 
ATOM     47  C   UNL A   1      38.853  27.898  29.667  1.00  0.00     0.029 A 
ATOM     48  C   UNL A   1      39.913  28.897  29.606  1.00  0.00     0.049 A 
ATOM     49  H   UNL A   1      41.724  28.767  28.584  1.00  0.00     0.167 HD
ATOM     50  C   UNL A   1      45.652  28.133  26.641  1.00  0.00     0.034 A 
ATOM     51  C   UNL A   1      39.888  30.096  30.215  1.00  0.00     0.034 A 
ATOM     52  C   UNL A   1      45.675  29.478  27.164  1.00  0.00     0.049 A 
ATOM     53  C   UNL A   1      41.081  31.000  30.065  1.00  0.00     0.074 A 
ATOM     54  C   UNL A   1      46.663  30.439  27.040  1.00  0.00     0.029 A 
ATOM     55  N   UNL A   1      44.660  30.049  27.926  1.00  0.00    -0.354 N 
ATOM     56  N   UNL A   1      42.208  30.778  29.431  1.00  0.00    -0.248 NA
ATOM     57  C   UNL A   1      40.996  32.317  30.707  1.00  0.00     0.031 C 
ATOM     58  C   UNL A   1      46.271  31.567  27.772  1.00  0.00     0.029 A 
ATOM     59  C   UNL A   1      45.010  31.337  28.300  1.00  0.00     0.049 A 
ATOM     60  H   UNL A   1      43.817  29.602  28.165  1.00  0.00     0.167 HD
ATOM     61  C   UNL A   1      42.954  31.943  29.565  1.00  0.00     0.074 A 
ATOM     62  C   UNL A   1      42.148  32.864  30.344  1.00  0.00     0.031 C 
ATOM     63  C   UNL A   1      44.189  32.232  29.081  1.00  0.00     0.034 A 
BRANCH  50  64
ATOM     64  C   UNL A   1      46.875  27.584  25.944  1.00  0.00     0.023 A 
ATOM     65  C   UNL A   1      47.200  27.954  24.626  1.00  0.00     0.031 A 
ATOM     66  C   UNL A   1      47.690  26.628  26.576  1.00  0.00     0.131 A 
ATOM     67  C   UNL A   1      48.240  27.300  23.950  1.00  0.00     0.055 A 
ATOM     68  C   UNL A   1      48.783  26.047  25.927  1.00  0.00     0.041 A 
ATOM     69  F   UNL A   1      47.424  26.222  27.827  1.00  0.00    -0.206 F 
ATOM     70  C   UNL A   1      49.050  26.365  24.599  1.00  0.00     0.022 A 
BRANCH  67  71
ATOM     71  S   UNL A   1      48.404  27.559  22.162  1.00  0.00     0.124 S 
ATOM     72  O   UNL A   1      47.124  28.185  21.835  1.00  0.00    -0.237 OA
ATOM     73  O   UNL A   1      49.577  28.422  22.074  1.00  0.00    -0.237 OA
ATOM     74  O   UNL A   1      48.581  26.209  21.633  1.00  0.00    -0.744 OA
ENDBRANCH  67  71
ENDBRANCH  50  64
BRANCH  51  75
ATOM     75  C   UNL A   1      38.694  30.517  30.998  1.00  0.00     0.023 A 
ATOM     76  C   UNL A   1      37.642  31.205  30.374  1.00  0.00     0.031 A 
ATOM     77  C   UNL A   1      38.585  30.243  32.372  1.00  0.00     0.131 A 
ATOM     78  C   UNL A   1      36.539  31.627  31.130  1.00  0.00     0.055 A 
ATOM     79  C   UNL A   1      37.467  30.630  33.112  1.00  0.00     0.041 A 
ATOM     80  F   UNL A   1      39.557  29.573  33.010  1.00  0.00    -0.206 F 
ATOM     81  C   UNL A   1      36.438  31.336  32.493  1.00  0.00     0.022 A 
BRANCH  78  82
ATOM     82  S   UNL A   1      35.254  32.613  30.313  1.00  0.00     0.124 S 
ATOM     83  O   UNL A   1      36.004  33.790  29.893  1.00  0.00    -0.237 OA
ATOM     84  O   UNL A   1      34.817  31.717  29.248  1.00  0.00    -0.237 OA
ATOM     85  O   UNL A   1      34.274  32.842  31.373  1.00  0.00    -0.744 OA
ENDBRANCH  78  82
ENDBRANCH  51  75
BRANCH  63  86
ATOM     86  C   UNL A   1      44.706  33.623  29.335  1.00  0.00     0.023 A 
ATOM     87  C   UNL A   1      44.573  34.648  28.383  1.00  0.00     0.031 A 
ATOM     88  C   UNL A   1      45.346  33.919  30.551  1.00  0.00     0.131 A 
ATOM     89  C   UNL A   1      45.112  35.915  28.648  1.00  0.00     0.055 A 
ATOM     90  C   UNL A   1      45.836  35.195  30.829  1.00  0.00     0.041 A 
ATOM     91  F   UNL A   1      45.500  32.972  31.490  1.00  0.00    -0.206 F 
ATOM     92  C   UNL A   1      45.729  36.199  29.870  1.00  0.00     0.022 A 
BRANCH  89  93
ATOM     93  S   UNL A   1      45.055  37.176  27.346  1.00  0.00     0.124 S 
ATOM     94  O   UNL A   1      45.532  38.362  28.050  1.00  0.00    -0.237 OA
ATOM     95  O   UNL A   1      45.955  36.627  26.338  1.00  0.00    -0.237 OA
ATOM     96  O   UNL A   1      43.644  37.208  26.962  1.00  0.00    -0.744 OA
ENDBRANCH  89  93
ENDBRANCH  63  86
ENDBRANCH  37  38
ENDBRANCH  29  32
ENDBRANCH  27  28
ENDBRANCH  26  27
ENDBRANCH   1  26
TORSDOF 18
ENDMDL
MODEL 2
REMARK VINA RESULT:     -12.3      1.994      7.757
REMARK SMILES CNC(=O)[C@H](C)Nc1ccc(C(F)(F)F)cc1C(=O)NCCCCNC(=O)c1ccc(-c2c3nc(c(-c4cc(S(=O)(=O)[O-])ccc4F)c4ccc([nH]4)c(-c4cc(S(=O)(=O)[O-])ccc4F)c4nc(c(-c5cc(S(=O)(=O)[O-])ccc5F)c5ccc2[nH]5)C=C4)C=C3)cc1
REMARK SMILES IDX 22 1 21 2 20 3 18 4 19 5 17 7 8 8 9 9 10 10 16 11 11 12 7 13
REMARK SMILES IDX 5 15 6 16 3 17 1 18 2 19 4 21 12 22 13 23 14 24 15 25 23 26
REMARK SMILES IDX 24 27 25 28 26 29 27 31 28 32 29 33 90 34 30 35 89 36 31 37
REMARK SMILES IDX 32 38 33 39 83 40 34 41 88 42 82 43 84 44 35 45 87 46 81 47
REMARK SMILES IDX 80 48 36 50 68 51 48 52 67 53 49 54 52 55 66 56 85 57 50 58
REMARK SMILES IDX 51 59 65 61 86 62 53 63 37 64 38 65 46 66 39 67 45 68 47 69
REMARK SMILES IDX 44 70 40 71 41 72 42 73 43 74 69 75 70 76 78 77 71 78 77 79
REMARK SMILES IDX 79 80 76 81 72 82 73 83 74 84 75 85 54 86 55 87 63 88 56 89
REMARK SMILES IDX 62 90 64 91 61 92 57 93 58 94 59 95 60 96
REMARK H PARENT 20 6 7 14 2 20 25 30 84 49 52 60
REMARK Flexibility Score: inf
ROOT
ATOM      1  C   UNL A   1      35.250  21.487  26.325  1.00  0.00     0.023 C 
ENDROOT
BRANCH   1   2
ATOM      2  C   UNL A   1      34.685  22.895  26.650  1.00  0.00     0.116 C 
BRANCH   2   3
ATOM      3  N   UNL A   1      33.343  22.996  27.173  1.00  0.00    -0.352 N 
ATOM      4  C   UNL A   1      32.138  22.797  26.527  1.00  0.00     0.253 C 
ATOM      5  O   UNL A   1      31.093  23.124  27.087  1.00  0.00    -0.269 OA
ATOM      6  H   UNL A   1      33.277  23.242  28.124  1.00  0.00     0.163 HD
BRANCH   4   7
ATOM      7  C   UNL A   1      32.038  22.273  25.134  1.00  0.00     0.063 A 
ATOM      8  C   UNL A   1      31.923  23.052  23.962  1.00  0.00     0.048 A 
ATOM      9  C   UNL A   1      31.867  22.362  22.730  1.00  0.00     0.027 A 
ATOM     10  C   UNL A   1      32.056  20.986  22.632  1.00  0.00     0.015 A 
ATOM     11  C   UNL A   1      32.253  20.877  25.025  1.00  0.00     0.029 A 
ATOM     12  C   UNL A   1      32.303  20.233  23.778  1.00  0.00     0.056 A 
BRANCH   8  13
ATOM     13  N   UNL A   1      32.001  24.426  23.825  1.00  0.00    -0.373 N 
ATOM     14  H   UNL A   1      31.186  24.940  24.030  1.00  0.00     0.161 HD
BRANCH  13  15
ATOM     15  C   UNL A   1      33.172  25.189  23.405  1.00  0.00     0.165 C 
ATOM     16  C   UNL A   1      34.420  24.316  23.393  1.00  0.00     0.041 C 
BRANCH  15  17
ATOM     17  C   UNL A   1      32.967  25.792  22.024  1.00  0.00     0.241 C 
ATOM     18  C   UNL A   1      31.372  27.675  22.679  1.00  0.00     0.142 C 
ATOM     19  N   UNL A   1      32.300  26.975  21.836  1.00  0.00    -0.357 N 
ATOM     20  H   UNL A   1      32.490  27.421  20.979  1.00  0.00     0.163 HD
ATOM     21  O   UNL A   1      33.386  25.194  21.027  1.00  0.00    -0.273 OA
ENDBRANCH  15  17
ENDBRANCH  13  15
ENDBRANCH   8  13
BRANCH  12  22
ATOM     22  C   UNL A   1      32.679  18.779  23.629  1.00  0.00     0.416 C 
ATOM     23  F   UNL A   1      31.915  17.962  24.406  1.00  0.00    -0.166 F 
ATOM     24  F   UNL A   1      32.507  18.334  22.352  1.00  0.00    -0.166 F 
ATOM     25  F   UNL A   1      33.972  18.502  23.949  1.00  0.00    -0.166 F 
ENDBRANCH  12  22
ENDBRANCH   4   7
ENDBRANCH   2   3
ENDBRANCH   1   2
BRANCH   1  26
ATOM     26  C   UNL A   1      36.134  21.180  25.103  1.00  0.00     0.023 C 
BRANCH  26  27
ATOM     27  C   UNL A   1      37.640  21.512  25.038  1.00  0.00     0.116 C 
BRANCH  27  28
ATOM     28  N   UNL A   1      38.588  20.475  25.434  1.00  0.00    -0.352 N 
ATOM     29  C   UNL A   1      39.805  20.564  26.081  1.00  0.00     0.251 C 
ATOM     30  H   UNL A   1      38.314  19.559  25.201  1.00  0.00     0.163 HD
ATOM     31  O   UNL A   1      40.552  19.601  26.160  1.00  0.00    -0.269 OA
BRANCH  29  32
ATOM     32  C   UNL A   1      40.121  21.819  26.788  1.00  0.00     0.039 A 
ATOM     33  C   UNL A   1      41.001  21.826  27.871  1.00  0.00     0.014 A 
ATOM     34  C   UNL A   1      39.540  23.003  26.328  1.00  0.00     0.014 A 
ATOM     35  C   UNL A   1      41.423  23.053  28.388  1.00  0.00     0.010 A 
ATOM     36  C   UNL A   1      40.011  24.218  26.792  1.00  0.00     0.010 A 
ATOM     37  C   UNL A   1      40.990  24.251  27.794  1.00  0.00    -0.014 A 
BRANCH  37  38
ATOM     38  C   UNL A   1      41.618  25.554  28.107  1.00  0.00     0.031 A 
ATOM     39  C   UNL A   1      40.823  26.635  28.776  1.00  0.00     0.074 A 
ATOM     40  C   UNL A   1      42.853  25.799  27.626  1.00  0.00     0.049 A 
ATOM     41  N   UNL A   1      41.139  27.885  28.987  1.00  0.00    -0.248 NA
ATOM     42  C   UNL A   1      39.473  26.265  29.224  1.00  0.00     0.031 C 
ATOM     43  C   UNL A   1      43.681  24.836  26.893  1.00  0.00     0.029 A 
ATOM     44  N   UNL A   1      43.620  26.933  27.657  1.00  0.00    -0.354 N 
ATOM     45  C   UNL A   1      40.019  28.462  29.573  1.00  0.00     0.074 A 
ATOM     46  C   UNL A   1      39.000  27.434  29.630  1.00  0.00     0.031 C 
ATOM     47  C   UNL A   1      44.849  25.413  26.570  1.00  0.00     0.029 A 
ATOM     48  C   UNL A   1      44.834  26.797  27.025  1.00  0.00     0.049 A 
ATOM     49  H   UNL A   1      43.330  27.769  28.092  1.00  0.00     0.167 HD
ATOM     50  C   UNL A   1      39.867  29.729  30.033  1.00  0.00     0.034 A 
ATOM     51  C   UNL A   1      45.818  27.693  26.826  1.00  0.00     0.034 A 
ATOM     52  C   UNL A   1      40.907  30.727  29.965  1.00  0.00     0.049 A 
ATOM     53  C   UNL A   1      45.630  29.092  27.346  1.00  0.00     0.074 A 
ATOM     54  C   UNL A   1      40.903  32.019  30.461  1.00  0.00     0.029 A 
ATOM     55  N   UNL A   1      42.139  30.545  29.345  1.00  0.00    -0.354 N 
ATOM     56  N   UNL A   1      44.593  29.609  27.962  1.00  0.00    -0.248 NA
ATOM     57  C   UNL A   1      46.744  30.025  27.147  1.00  0.00     0.031 C 
ATOM     58  C   UNL A   1      42.107  32.634  30.094  1.00  0.00     0.029 A 
ATOM     59  C   UNL A   1      42.891  31.707  29.425  1.00  0.00     0.049 A 
ATOM     60  H   UNL A   1      42.435  29.712  28.913  1.00  0.00     0.167 HD
ATOM     61  C   UNL A   1      44.944  30.920  28.260  1.00  0.00     0.074 A 
ATOM     62  C   UNL A   1      46.289  31.114  27.752  1.00  0.00     0.031 C 
ATOM     63  C   UNL A   1      44.228  31.875  28.905  1.00  0.00     0.034 A 
BRANCH  50  64
ATOM     64  C   UNL A   1      38.521  30.095  30.613  1.00  0.00     0.023 A 
ATOM     65  C   UNL A   1      37.525  30.712  29.833  1.00  0.00     0.031 A 
ATOM     66  C   UNL A   1      38.249  29.888  31.977  1.00  0.00     0.131 A 
ATOM     67  C   UNL A   1      36.355  31.192  30.440  1.00  0.00     0.055 A 
ATOM     68  C   UNL A   1      37.042  30.287  32.557  1.00  0.00     0.041 A 
ATOM     69  F   UNL A   1      39.164  29.319  32.778  1.00  0.00    -0.206 F 
ATOM     70  C   UNL A   1      36.095  30.963  31.793  1.00  0.00     0.022 A 
BRANCH  67  71
ATOM     71  S   UNL A   1      35.265  32.274  29.475  1.00  0.00     0.124 S 
ATOM     72  O   UNL A   1      34.740  31.348  28.473  1.00  0.00    -0.237 OA
ATOM     73  O   UNL A   1      34.311  32.736  30.477  1.00  0.00    -0.237 OA
ATOM     74  O   UNL A   1      36.168  33.296  28.954  1.00  0.00    -0.744 OA
ENDBRANCH  67  71
ENDBRANCH  50  64
BRANCH  51  75
ATOM     75  C   UNL A   1      47.069  27.291  26.126  1.00  0.00     0.023 A 
ATOM     76  C   UNL A   1      48.138  26.734  26.844  1.00  0.00     0.031 A 
ATOM     77  C   UNL A   1      47.218  27.457  24.738  1.00  0.00     0.131 A 
ATOM     78  C   UNL A   1      49.324  26.393  26.178  1.00  0.00     0.055 A 
ATOM     79  C   UNL A   1      48.385  27.078  24.074  1.00  0.00     0.041 A 
ATOM     80  F   UNL A   1      46.217  27.970  24.004  1.00  0.00    -0.206 F 
ATOM     81  C   UNL A   1      49.452  26.551  24.797  1.00  0.00     0.022 A 
BRANCH  78  82
ATOM     82  S   UNL A   1      50.723  25.783  27.159  1.00  0.00     0.124 S 
ATOM     83  O   UNL A   1      50.338  24.398  27.399  1.00  0.00    -0.237 OA
ATOM     84  O   UNL A   1      51.844  25.990  26.249  1.00  0.00    -0.237 OA
ATOM     85  O   UNL A   1      50.714  26.647  28.338  1.00  0.00    -0.744 OA
ENDBRANCH  78  82
ENDBRANCH  51  75
BRANCH  63  86
ATOM     86  C   UNL A   1      44.917  33.192  29.143  1.00  0.00     0.023 A 
ATOM     87  C   UNL A   1      45.724  33.412  30.272  1.00  0.00     0.031 A 
ATOM     88  C   UNL A   1      44.755  34.242  28.223  1.00  0.00     0.131 A 
ATOM     89  C   UNL A   1      46.309  34.671  30.474  1.00  0.00     0.055 A 
ATOM     90  C   UNL A   1      45.379  35.476  28.404  1.00  0.00     0.041 A 
ATOM     91  F   UNL A   1      43.991  34.081  27.131  1.00  0.00    -0.206 F 
ATOM     92  C   UNL A   1      46.153  35.699  29.539  1.00  0.00     0.022 A 
BRANCH  89  93
ATOM     93  S   UNL A   1      47.225  34.971  32.009  1.00  0.00     0.124 S 
ATOM     94  O   UNL A   1      46.738  36.290  32.401  1.00  0.00    -0.237 OA
ATOM     95  O   UNL A   1      46.799  33.858  32.851  1.00  0.00    -0.237 OA
ATOM     96  O   UNL A   1      48.624  34.926  31.588  1.00  0.00    -0.744 OA
ENDBRANCH  89  93
ENDBRANCH  63  86
ENDBRANCH  37  38
ENDBRANCH  29  32
ENDBRANCH  27  28
ENDBRANCH  26  27
ENDBRANCH   1  26
TORSDOF 18
ENDMDL
MODEL 3
REMARK VINA RESULT:     -12.2      2.747      3.679
REMARK SMILES CNC(=O)[C@H](C)Nc1ccc(C(F)(F)F)cc1C(=O)NCCCCNC(=O)c1ccc(-c2c3nc(c(-c4cc(S(=O)(=O)[O-])ccc4F)c4ccc([nH]4)c(-c4cc(S(=O)(=O)[O-])ccc4F)c4nc(c(-c5cc(S(=O)(=O)[O-])ccc5F)c5ccc2[nH]5)C=C4)C=C3)cc1
REMARK SMILES IDX 22 1 21 2 20 3 18 4 19 5 17 7 8 8 9 9 10 10 16 11 11 12 7 13
REMARK SMILES IDX 5 15 6 16 3 17 1 18 2 19 4 21 12 22 13 23 14 24 15 25 23 26
REMARK SMILES IDX 24 27 25 28 26 29 27 31 28 32 29 33 90 34 30 35 89 36 31 37
REMARK SMILES IDX 32 38 33 39 83 40 34 41 88 42 82 43 84 44 35 45 87 46 81 47
REMARK SMILES IDX 80 48 36 50 68 51 48 52 67 53 49 54 52 55 66 56 85 57 50 58
REMARK SMILES IDX 51 59 65 61 86 62 53 63 37 64 38 65 46 66 39 67 45 68 47 69
REMARK SMILES IDX 44 70 40 71 41 72 42 73 43 74 69 75 70 76 78 77 71 78 77 79
REMARK SMILES IDX 79 80 76 81 72 82 73 83 74 84 75 85 54 86 55 87 63 88 56 89
REMARK SMILES IDX 62 90 64 91 61 92 57 93 58 94 59 95 60 96
REMARK H PARENT 20 6 7 14 2 20 25 30 84 49 52 60
REMARK Flexibility Score: inf
ROOT
ATOM      1  C   UNL A   1      35.433  21.908  25.916  1.00  0.00     0.023 C 
ENDROOT
BRANCH   1   2
ATOM      2  C   UNL A   1      35.531  23.452  25.801  1.00  0.00     0.116 C 
BRANCH   2   3
ATOM      3  N   UNL A   1      35.392  24.058  24.497  1.00  0.00    -0.352 N 
ATOM      4  C   UNL A   1      34.418  24.922  24.037  1.00  0.00     0.253 C 
ATOM      5  O   UNL A   1      34.356  25.175  22.835  1.00  0.00    -0.269 OA
ATOM      6  H   UNL A   1      36.089  23.820  23.844  1.00  0.00     0.163 HD
BRANCH   4   7
ATOM      7  C   UNL A   1      33.371  25.513  24.920  1.00  0.00     0.063 A 
ATOM      8  C   UNL A   1      32.264  24.828  25.466  1.00  0.00     0.048 A 
ATOM      9  C   UNL A   1      31.396  25.565  26.304  1.00  0.00     0.027 A 
ATOM     10  C   UNL A   1      31.670  26.870  26.705  1.00  0.00     0.015 A 
ATOM     11  C   UNL A   1      33.656  26.833  25.351  1.00  0.00     0.029 A 
ATOM     12  C   UNL A   1      32.834  27.503  26.272  1.00  0.00     0.056 A 
BRANCH   8  13
ATOM     13  N   UNL A   1      31.971  23.477  25.417  1.00  0.00    -0.373 N 
ATOM     14  H   UNL A   1      32.193  22.946  26.215  1.00  0.00     0.161 HD
BRANCH  13  15
ATOM     15  C   UNL A   1      31.367  22.763  24.297  1.00  0.00     0.165 C 
ATOM     16  C   UNL A   1      30.702  23.729  23.324  1.00  0.00     0.041 C 
BRANCH  15  17
ATOM     17  C   UNL A   1      32.404  21.935  23.552  1.00  0.00     0.241 C 
ATOM     18  C   UNL A   1      32.443  19.912  25.108  1.00  0.00     0.142 C 
ATOM     19  N   UNL A   1      32.680  20.636  23.892  1.00  0.00    -0.357 N 
ATOM     20  H   UNL A   1      33.114  20.110  23.181  1.00  0.00     0.163 HD
ATOM     21  O   UNL A   1      33.043  22.445  22.626  1.00  0.00    -0.273 OA
ENDBRANCH  15  17
ENDBRANCH  13  15
ENDBRANCH   8  13
BRANCH  12  22
ATOM     22  C   UNL A   1      33.197  28.844  26.859  1.00  0.00     0.416 C 
ATOM     23  F   UNL A   1      33.707  28.741  28.118  1.00  0.00    -0.166 F 
ATOM     24  F   UNL A   1      34.158  29.480  26.128  1.00  0.00    -0.166 F 
ATOM     25  F   UNL A   1      32.156  29.715  26.944  1.00  0.00    -0.166 F 
ENDBRANCH  12  22
ENDBRANCH   4   7
ENDBRANCH   2   3
ENDBRANCH   1   2
BRANCH   1  26
ATOM     26  C   UNL A   1      36.287  20.932  25.088  1.00  0.00     0.023 C 
BRANCH  26  27
ATOM     27  C   UNL A   1      37.804  21.108  24.862  1.00  0.00     0.116 C 
BRANCH  27  28
ATOM     28  N   UNL A   1      38.706  20.136  25.471  1.00  0.00    -0.352 N 
ATOM     29  C   UNL A   1      39.862  20.312  26.204  1.00  0.00     0.251 C 
ATOM     30  H   UNL A   1      38.446  19.196  25.335  1.00  0.00     0.163 HD
ATOM     31  O   UNL A   1      40.592  19.371  26.472  1.00  0.00    -0.269 OA
BRANCH  29  32
ATOM     32  C   UNL A   1      40.125  21.650  26.767  1.00  0.00     0.039 A 
ATOM     33  C   UNL A   1      41.096  21.831  27.753  1.00  0.00     0.014 A 
ATOM     34  C   UNL A   1      39.398  22.733  26.268  1.00  0.00     0.014 A 
ATOM     35  C   UNL A   1      41.449  23.132  28.120  1.00  0.00     0.010 A 
ATOM     36  C   UNL A   1      39.796  24.021  26.578  1.00  0.00     0.010 A 
ATOM     37  C   UNL A   1      40.856  24.229  27.472  1.00  0.00    -0.014 A 
BRANCH  37  38
ATOM     38  C   UNL A   1      41.387  25.603  27.609  1.00  0.00     0.031 A 
ATOM     39  C   UNL A   1      42.770  25.929  27.130  1.00  0.00     0.074 A 
ATOM     40  C   UNL A   1      40.672  26.496  28.321  1.00  0.00     0.049 A 
ATOM     41  N   UNL A   1      43.470  27.019  27.302  1.00  0.00    -0.248 NA
ATOM     42  C   UNL A   1      43.472  24.865  26.398  1.00  0.00     0.031 C 
ATOM     43  C   UNL A   1      39.346  26.250  28.897  1.00  0.00     0.029 A 
ATOM     44  N   UNL A   1      40.963  27.779  28.704  1.00  0.00    -0.354 N 
ATOM     45  C   UNL A   1      44.707  26.768  26.721  1.00  0.00     0.074 A 
ATOM     46  C   UNL A   1      44.674  25.401  26.243  1.00  0.00     0.031 C 
ATOM     47  C   UNL A   1      38.929  27.355  29.535  1.00  0.00     0.029 A 
ATOM     48  C   UNL A   1      39.975  28.368  29.458  1.00  0.00     0.049 A 
ATOM     49  H   UNL A   1      41.801  28.237  28.463  1.00  0.00     0.167 HD
ATOM     50  C   UNL A   1      45.763  27.609  26.588  1.00  0.00     0.034 A 
ATOM     51  C   UNL A   1      39.924  29.583  30.033  1.00  0.00     0.034 A 
ATOM     52  C   UNL A   1      45.758  28.969  27.072  1.00  0.00     0.049 A 
ATOM     53  C   UNL A   1      41.105  30.501  29.871  1.00  0.00     0.074 A 
ATOM     54  C   UNL A   1      46.734  29.941  26.934  1.00  0.00     0.029 A 
ATOM     55  N   UNL A   1      44.726  29.544  27.805  1.00  0.00    -0.354 N 
ATOM     56  N   UNL A   1      42.244  30.279  29.258  1.00  0.00    -0.248 NA
ATOM     57  C   UNL A   1      40.992  31.833  30.475  1.00  0.00     0.031 C 
ATOM     58  C   UNL A   1      46.315  31.083  27.629  1.00  0.00     0.029 A 
ATOM     59  C   UNL A   1      45.051  30.848  28.147  1.00  0.00     0.049 A 
ATOM     60  H   UNL A   1      43.886  29.092  28.047  1.00  0.00     0.167 HD
ATOM     61  C   UNL A   1      42.971  31.458  29.369  1.00  0.00     0.074 A 
ATOM     62  C   UNL A   1      42.141  32.387  30.111  1.00  0.00     0.031 C 
ATOM     63  C   UNL A   1      44.206  31.752  28.893  1.00  0.00     0.034 A 
BRANCH  50  64
ATOM     64  C   UNL A   1      47.003  27.059  25.922  1.00  0.00     0.023 A 
ATOM     65  C   UNL A   1      47.970  26.338  26.647  1.00  0.00     0.031 A 
ATOM     66  C   UNL A   1      47.259  27.314  24.564  1.00  0.00     0.131 A 
ATOM     67  C   UNL A   1      49.186  25.990  26.041  1.00  0.00     0.055 A 
ATOM     68  C   UNL A   1      48.433  26.884  23.941  1.00  0.00     0.041 A 
ATOM     69  F   UNL A   1      46.383  28.011  23.822  1.00  0.00    -0.206 F 
ATOM     70  C   UNL A   1      49.415  26.237  24.686  1.00  0.00     0.022 A 
BRANCH  67  71
ATOM     71  S   UNL A   1      50.528  25.372  27.094  1.00  0.00     0.124 S 
ATOM     72  O   UNL A   1      49.844  24.340  27.870  1.00  0.00    -0.237 OA
ATOM     73  O   UNL A   1      51.501  24.896  26.117  1.00  0.00    -0.237 OA
ATOM     74  O   UNL A   1      50.935  26.548  27.858  1.00  0.00    -0.744 OA
ENDBRANCH  67  71
ENDBRANCH  50  64
BRANCH  51  75
ATOM     75  C   UNL A   1      38.714  30.008  30.788  1.00  0.00     0.023 A 
ATOM     76  C   UNL A   1      37.721  30.778  30.164  1.00  0.00     0.031 A 
ATOM     77  C   UNL A   1      38.531  29.655  32.136  1.00  0.00     0.131 A 
ATOM     78  C   UNL A   1      36.602  31.201  30.897  1.00  0.00     0.055 A 
ATOM     79  C   UNL A   1      37.397  30.045  32.850  1.00  0.00     0.041 A 
ATOM     80  F   UNL A   1      39.445  28.906  32.773  1.00  0.00    -0.206 F 
ATOM     81  C   UNL A   1      36.428  30.832  32.233  1.00  0.00     0.022 A 
BRANCH  78  82
ATOM     82  S   UNL A   1      35.398  32.290  30.088  1.00  0.00     0.124 S 
ATOM     83  O   UNL A   1      34.383  32.434  31.124  1.00  0.00    -0.237 OA
ATOM     84  O   UNL A   1      36.202  33.474  29.807  1.00  0.00    -0.237 OA
ATOM     85  O   UNL A   1      34.986  31.526  28.912  1.00  0.00    -0.744 OA
ENDBRANCH  78  82
ENDBRANCH  51  75
BRANCH  63  86
ATOM     86  C   UNL A   1      44.700  33.157  29.113  1.00  0.00     0.023 A 
ATOM     87  C   UNL A   1      44.277  34.226  28.305  1.00  0.00     0.031 A 
ATOM     88  C   UNL A   1      45.612  33.423  30.150  1.00  0.00     0.131 A 
ATOM     89  C   UNL A   1      44.801  35.509  28.521  1.00  0.00     0.055 A 
ATOM     90  C   UNL A   1      46.091  34.710  30.391  1.00  0.00     0.041 A 
ATOM     91  F   UNL A   1      46.047  32.434  30.946  1.00  0.00    -0.206 F 
ATOM     92  C   UNL A   1      45.692  35.760  29.569  1.00  0.00     0.022 A 
BRANCH  89  93
ATOM     93  S   UNL A   1      44.350  36.839  27.374  1.00  0.00     0.124 S 
ATOM     94  O   UNL A   1      43.529  36.132  26.397  1.00  0.00    -0.237 OA
ATOM     95  O   UNL A   1      43.644  37.776  28.242  1.00  0.00    -0.237 OA
ATOM     96  O   UNL A   1      45.640  37.313  26.875  1.00  0.00    -0.744 OA
ENDBRANCH  89  93
ENDBRANCH  63  86
ENDBRANCH  37  38
ENDBRANCH  29  32
ENDBRANCH  27  28
ENDBRANCH  26  27
ENDBRANCH   1  26
TORSDOF 18
ENDMDL
