MODEL 1
REMARK VINA RESULT:     -12.8      0.000      0.000
REMARK SMILES CCSc1ccc(-c2cc(Cl)cc3c2O[C@H](C(F)(F)F)C(C(=O)NCCCCNC(=O)c2ccc(-c4c5nc(c(-c6cc(S(=O)(=O)[O-])ccc6F)c6ccc([nH]6)c(-c6cc(S(=O)(=O)[O-])ccc6F)c6nc(c(-c7cc(S(=O)(=O)[O-])ccc7F)c7ccc4[nH]7)C=C6)C=C5)cc2)=C3)cc1
REMARK SMILES IDX 26 1 25 2 24 3 22 4 23 5 21 7 8 8 9 9 14 10 10 11 13 12
REMARK SMILES IDX 15 13 11 14 12 15 95 16 16 17 7 18 4 19 5 20 97 21 6 22
REMARK SMILES IDX 96 23 3 24 2 25 1 26 17 27 18 28 19 29 20 30 27 31 28 32
REMARK SMILES IDX 29 33 30 34 31 36 32 37 33 38 94 39 34 40 93 41 35 42 36 43
REMARK SMILES IDX 37 44 87 45 38 46 92 47 86 48 88 49 39 50 91 51 85 52 84 53
REMARK SMILES IDX 40 55 72 56 52 57 71 58 53 59 56 60 70 61 89 62 54 63 55 64
REMARK SMILES IDX 69 66 90 67 57 68 41 69 42 70 50 71 43 72 49 73 51 74 48 75
REMARK SMILES IDX 44 76 45 77 46 78 47 79 73 80 74 81 82 82 75 83 81 84 83 85
REMARK SMILES IDX 80 86 76 87 77 88 78 89 79 90 58 91 59 92 67 93 60 94 66 95
REMARK SMILES IDX 68 96 65 97 61 98 62 99 63 100 64 101
REMARK H PARENT 24 6 29 35 88 54 56 65
REMARK Flexibility Score: inf
ROOT
ATOM      1  C   UNL A   1      36.712  21.896  24.819  1.00  0.00     0.023 C 
ENDROOT
BRANCH   1   2
ATOM      2  C   UNL A   1      35.670  22.075  25.929  1.00  0.00     0.116 C 
BRANCH   2   3
ATOM      3  N   UNL A   1      35.347  23.478  26.074  1.00  0.00    -0.352 N 
ATOM      4  C   UNL A   1      34.482  24.230  25.357  1.00  0.00     0.251 C 
ATOM      5  O   UNL A   1      34.727  25.420  25.194  1.00  0.00    -0.270 OA
ATOM      6  H   UNL A   1      35.823  23.950  26.795  1.00  0.00     0.163 HD
BRANCH   4   7
ATOM      7  C   UNL A   1      33.219  23.592  24.870  1.00  0.00     0.067 C 
ATOM      8  C   UNL A   1      31.075  26.994  24.284  1.00  0.00     0.026 A 
ATOM      9  C   UNL A   1      31.222  27.805  25.438  1.00  0.00     0.033 A 
ATOM     10  C   UNL A   1      31.486  25.659  24.399  1.00  0.00     0.135 A 
ATOM     11  C   UNL A   1      31.601  27.287  26.674  1.00  0.00     0.042 A 
ATOM     12  C   UNL A   1      31.763  25.126  25.683  1.00  0.00     0.019 A 
ATOM     13  O   UNL A   1      31.680  24.839  23.299  1.00  0.00    -0.475 OA
ATOM     14  Cl  UNL A   1      31.778  28.338  28.021  1.00  0.00    -0.084 Cl
ATOM     15  C   UNL A   1      31.808  25.928  26.819  1.00  0.00     0.032 A 
ATOM     16  C   UNL A   1      32.211  23.717  25.757  1.00  0.00     0.025 C 
ATOM     17  C   UNL A   1      32.868  23.949  23.428  1.00  0.00     0.314 C 
BRANCH   8  18
ATOM     18  C   UNL A   1      30.299  27.611  23.180  1.00  0.00    -0.015 A 
ATOM     19  C   UNL A   1      28.793  29.699  21.993  1.00  0.00     0.007 A 
ATOM     20  C   UNL A   1      30.166  29.590  21.757  1.00  0.00     0.015 A 
ATOM     21  C   UNL A   1      28.153  28.684  22.706  1.00  0.00     0.015 A 
ATOM     22  C   UNL A   1      30.907  28.544  22.320  1.00  0.00     0.010 A 
ATOM     23  C   UNL A   1      28.896  27.638  23.278  1.00  0.00     0.010 A 
BRANCH  19  24
ATOM     24  S   UNL A   1      27.998  31.236  21.539  1.00  0.00    -0.126 SA
BRANCH  24  25
ATOM     25  C   UNL A   1      27.935  32.142  23.115  1.00  0.00     0.071 C 
ATOM     26  C   UNL A   1      29.064  31.718  24.036  1.00  0.00     0.016 C 
ENDBRANCH  24  25
ENDBRANCH  19  24
ENDBRANCH   8  18
BRANCH  17  27
ATOM     27  C   UNL A   1      32.679  22.647  22.622  1.00  0.00     0.429 C 
ATOM     28  F   UNL A   1      33.426  21.625  23.100  1.00  0.00    -0.167 F 
ATOM     29  F   UNL A   1      31.385  22.245  22.635  1.00  0.00    -0.167 F 
ATOM     30  F   UNL A   1      33.017  22.789  21.314  1.00  0.00    -0.167 F 
ENDBRANCH  17  27
ENDBRANCH   4   7
ENDBRANCH   2   3
ENDBRANCH   1   2
BRANCH   1  31
ATOM     31  C   UNL A   1      37.656  20.697  24.997  1.00  0.00     0.023 C 
BRANCH  31  32
ATOM     32  C   UNL A   1      38.945  21.001  25.753  1.00  0.00     0.116 C 
BRANCH  32  33
ATOM     33  N   UNL A   1      39.794  19.826  25.869  1.00  0.00    -0.352 N 
ATOM     34  C   UNL A   1      41.153  19.754  26.066  1.00  0.00     0.251 C 
ATOM     35  H   UNL A   1      39.332  18.961  25.794  1.00  0.00     0.163 HD
ATOM     36  O   UNL A   1      41.732  18.679  25.929  1.00  0.00    -0.269 OA
BRANCH  34  37
ATOM     37  C   UNL A   1      41.915  20.975  26.410  1.00  0.00     0.039 A 
ATOM     38  C   UNL A   1      42.295  21.847  25.387  1.00  0.00     0.014 A 
ATOM     39  C   UNL A   1      42.228  21.274  27.739  1.00  0.00     0.014 A 
ATOM     40  C   UNL A   1      42.910  23.060  25.705  1.00  0.00     0.010 A 
ATOM     41  C   UNL A   1      42.781  22.511  28.059  1.00  0.00     0.010 A 
ATOM     42  C   UNL A   1      43.110  23.427  27.046  1.00  0.00    -0.014 A 
BRANCH  42  43
ATOM     43  C   UNL A   1      43.601  24.783  27.414  1.00  0.00     0.031 A 
ATOM     44  C   UNL A   1      42.647  25.823  27.935  1.00  0.00     0.074 A 
ATOM     45  C   UNL A   1      44.893  25.101  27.185  1.00  0.00     0.049 A 
ATOM     46  N   UNL A   1      42.867  27.085  28.198  1.00  0.00    -0.248 NA
ATOM     47  C   UNL A   1      41.260  25.394  28.167  1.00  0.00     0.031 C 
ATOM     48  C   UNL A   1      45.903  24.188  26.642  1.00  0.00     0.029 A 
ATOM     49  N   UNL A   1      45.576  26.281  27.352  1.00  0.00    -0.354 N 
ATOM     50  C   UNL A   1      41.644  27.609  28.607  1.00  0.00     0.074 A 
ATOM     51  C   UNL A   1      40.680  26.532  28.522  1.00  0.00     0.031 C 
ATOM     52  C   UNL A   1      47.070  24.839  26.527  1.00  0.00     0.029 A 
ATOM     53  C   UNL A   1      46.885  26.229  26.931  1.00  0.00     0.049 A 
ATOM     54  H   UNL A   1      45.166  27.090  27.737  1.00  0.00     0.167 HD
ATOM     55  C   UNL A   1      41.360  28.867  29.022  1.00  0.00     0.034 A 
ATOM     56  C   UNL A   1      47.824  27.195  26.845  1.00  0.00     0.034 A 
ATOM     57  C   UNL A   1      42.342  29.921  29.121  1.00  0.00     0.049 A 
ATOM     58  C   UNL A   1      47.468  28.595  27.282  1.00  0.00     0.074 A 
ATOM     59  C   UNL A   1      42.180  31.198  29.631  1.00  0.00     0.029 A 
ATOM     60  N   UNL A   1      43.655  29.832  28.683  1.00  0.00    -0.354 N 
ATOM     61  N   UNL A   1      46.328  29.047  27.752  1.00  0.00    -0.248 NA
ATOM     62  C   UNL A   1      48.521  29.613  27.178  1.00  0.00     0.031 C 
ATOM     63  C   UNL A   1      43.368  31.906  29.423  1.00  0.00     0.029 A 
ATOM     64  C   UNL A   1      44.298  31.049  28.858  1.00  0.00     0.049 A 
ATOM     65  H   UNL A   1      44.070  29.024  28.303  1.00  0.00     0.167 HD
ATOM     66  C   UNL A   1      46.538  30.397  28.018  1.00  0.00     0.074 A 
ATOM     67  C   UNL A   1      47.917  30.680  27.679  1.00  0.00     0.031 C 
ATOM     68  C   UNL A   1      45.668  31.322  28.498  1.00  0.00     0.034 A 
BRANCH  55  69
ATOM     69  C   UNL A   1      39.929  29.191  29.371  1.00  0.00     0.023 A 
ATOM     70  C   UNL A   1      39.498  29.327  30.701  1.00  0.00     0.031 A 
ATOM     71  C   UNL A   1      38.985  29.395  28.348  1.00  0.00     0.131 A 
ATOM     72  C   UNL A   1      38.151  29.607  30.975  1.00  0.00     0.055 A 
ATOM     73  C   UNL A   1      37.663  29.743  28.624  1.00  0.00     0.041 A 
ATOM     74  F   UNL A   1      39.335  29.261  27.059  1.00  0.00    -0.206 F 
ATOM     75  C   UNL A   1      37.235  29.842  29.945  1.00  0.00     0.022 A 
BRANCH  72  76
ATOM     76  S   UNL A   1      37.585  29.557  32.697  1.00  0.00     0.124 S 
ATOM     77  O   UNL A   1      38.671  30.253  33.384  1.00  0.00    -0.237 OA
ATOM     78  O   UNL A   1      36.312  30.264  32.632  1.00  0.00    -0.237 OA
ATOM     79  O   UNL A   1      37.492  28.126  32.986  1.00  0.00    -0.744 OA
ENDBRANCH  72  76
ENDBRANCH  55  69
BRANCH  56  80
ATOM     80  C   UNL A   1      49.172  26.898  26.275  1.00  0.00     0.023 A 
ATOM     81  C   UNL A   1      49.538  27.353  24.999  1.00  0.00     0.031 A 
ATOM     82  C   UNL A   1      50.092  26.094  26.975  1.00  0.00     0.131 A 
ATOM     83  C   UNL A   1      50.763  26.957  24.438  1.00  0.00     0.055 A 
ATOM     84  C   UNL A   1      51.335  25.754  26.439  1.00  0.00     0.041 A 
ATOM     85  F   UNL A   1      49.795  25.630  28.199  1.00  0.00    -0.206 F 
ATOM     86  C   UNL A   1      51.669  26.173  25.155  1.00  0.00     0.022 A 
BRANCH  83  87
ATOM     87  S   UNL A   1      51.104  27.386  22.709  1.00  0.00     0.124 S 
ATOM     88  O   UNL A   1      50.968  28.837  22.731  1.00  0.00    -0.237 OA
ATOM     89  O   UNL A   1      52.457  26.870  22.532  1.00  0.00    -0.237 OA
ATOM     90  O   UNL A   1      50.064  26.672  21.970  1.00  0.00    -0.744 OA
ENDBRANCH  83  87
ENDBRANCH  56  80
BRANCH  68  91
ATOM     91  C   UNL A   1      46.194  32.720  28.703  1.00  0.00     0.023 A 
ATOM     92  C   UNL A   1      46.047  33.714  27.720  1.00  0.00     0.031 A 
ATOM     93  C   UNL A   1      46.844  33.065  29.902  1.00  0.00     0.131 A 
ATOM     94  C   UNL A   1      46.579  34.994  27.936  1.00  0.00     0.055 A 
ATOM     95  C   UNL A   1      47.320  34.356  30.135  1.00  0.00     0.041 A 
ATOM     96  F   UNL A   1      47.016  32.154  30.874  1.00  0.00    -0.206 F 
ATOM     97  C   UNL A   1      47.197  35.326  29.145  1.00  0.00     0.022 A 
BRANCH  94  98
ATOM     98  S   UNL A   1      46.512  36.204  26.587  1.00  0.00     0.124 S 
ATOM     99  O   UNL A   1      46.327  35.347  25.420  1.00  0.00    -0.237 OA
ATOM    100  O   UNL A   1      45.369  37.030  26.960  1.00  0.00    -0.237 OA
ATOM    101  O   UNL A   1      47.810  36.874  26.663  1.00  0.00    -0.744 OA
ENDBRANCH  94  98
ENDBRANCH  68  91
ENDBRANCH  42  43
ENDBRANCH  34  37
ENDBRANCH  32  33
ENDBRANCH  31  32
ENDBRANCH   1  31
TORSDOF 18
ENDMDL
MODEL 2
REMARK VINA RESULT:     -12.4      1.837      2.179
REMARK SMILES CCSc1ccc(-c2cc(Cl)cc3c2O[C@H](C(F)(F)F)C(C(=O)NCCCCNC(=O)c2ccc(-c4c5nc(c(-c6cc(S(=O)(=O)[O-])ccc6F)c6ccc([nH]6)c(-c6cc(S(=O)(=O)[O-])ccc6F)c6nc(c(-c7cc(S(=O)(=O)[O-])ccc7F)c7ccc4[nH]7)C=C6)C=C5)cc2)=C3)cc1
REMARK SMILES IDX 26 1 25 2 24 3 22 4 23 5 21 7 8 8 9 9 14 10 10 11 13 12
REMARK SMILES IDX 15 13 11 14 12 15 95 16 16 17 7 18 4 19 5 20 97 21 6 22
REMARK SMILES IDX 96 23 3 24 2 25 1 26 17 27 18 28 19 29 20 30 27 31 28 32
REMARK SMILES IDX 29 33 30 34 31 36 32 37 33 38 94 39 34 40 93 41 35 42 36 43
REMARK SMILES IDX 37 44 87 45 38 46 92 47 86 48 88 49 39 50 91 51 85 52 84 53
REMARK SMILES IDX 40 55 72 56 52 57 71 58 53 59 56 60 70 61 89 62 54 63 55 64
REMARK SMILES IDX 69 66 90 67 57 68 41 69 42 70 50 71 43 72 49 73 51 74 48 75
REMARK SMILES IDX 44 76 45 77 46 78 47 79 73 80 74 81 82 82 75 83 81 84 83 85
REMARK SMILES IDX 80 86 76 87 77 88 78 89 79 90 58 91 59 92 67 93 60 94 66 95
REMARK SMILES IDX 68 96 65 97 61 98 62 99 63 100 64 101
REMARK H PARENT 24 6 29 35 88 54 56 65
REMARK Flexibility Score: inf
ROOT
ATOM      1  C   UNL A   1      36.375  20.813  25.294  1.00  0.00     0.023 C 
ENDROOT
BRANCH   1   2
ATOM      2  C   UNL A   1      35.823  22.051  26.011  1.00  0.00     0.116 C 
BRANCH   2   3
ATOM      3  N   UNL A   1      35.801  23.174  25.098  1.00  0.00    -0.352 N 
ATOM      4  C   UNL A   1      34.914  23.454  24.117  1.00  0.00     0.251 C 
ATOM      5  O   UNL A   1      35.306  24.045  23.116  1.00  0.00    -0.270 OA
ATOM      6  H   UNL A   1      36.533  23.824  25.207  1.00  0.00     0.163 HD
BRANCH   4   7
ATOM      7  C   UNL A   1      33.475  23.107  24.337  1.00  0.00     0.067 C 
ATOM      8  C   UNL A   1      31.941  26.850  23.945  1.00  0.00     0.026 A 
ATOM      9  C   UNL A   1      32.730  27.728  24.732  1.00  0.00     0.033 A 
ATOM     10  C   UNL A   1      32.115  25.478  24.172  1.00  0.00     0.135 A 
ATOM     11  C   UNL A   1      33.520  27.281  25.787  1.00  0.00     0.042 A 
ATOM     12  C   UNL A   1      32.835  25.048  25.314  1.00  0.00     0.019 A 
ATOM     13  O   UNL A   1      31.648  24.510  23.295  1.00  0.00    -0.475 OA
ATOM     14  Cl  UNL A   1      34.464  28.405  26.681  1.00  0.00    -0.084 Cl
ATOM     15  C   UNL A   1      33.524  25.941  26.129  1.00  0.00     0.032 A 
ATOM     16  C   UNL A   1      33.009  23.591  25.506  1.00  0.00     0.025 C 
ATOM     17  C   UNL A   1      32.589  23.368  23.123  1.00  0.00     0.314 C 
BRANCH   8  18
ATOM     18  C   UNL A   1      30.879  27.508  23.146  1.00  0.00    -0.015 A 
ATOM     19  C   UNL A   1      28.817  29.413  22.743  1.00  0.00     0.007 A 
ATOM     20  C   UNL A   1      30.121  29.677  22.317  1.00  0.00     0.015 A 
ATOM     21  C   UNL A   1      28.518  28.143  23.240  1.00  0.00     0.015 A 
ATOM     22  C   UNL A   1      31.136  28.727  22.490  1.00  0.00     0.010 A 
ATOM     23  C   UNL A   1      29.537  27.192  23.421  1.00  0.00     0.010 A 
BRANCH  19  24
ATOM     24  S   UNL A   1      27.676  30.789  22.809  1.00  0.00    -0.126 SA
BRANCH  24  25
ATOM     25  C   UNL A   1      28.478  32.033  21.753  1.00  0.00     0.071 C 
ATOM     26  C   UNL A   1      27.986  31.935  20.321  1.00  0.00     0.016 C 
ENDBRANCH  24  25
ENDBRANCH  19  24
ENDBRANCH   8  18
BRANCH  17  27
ATOM     27  C   UNL A   1      31.831  22.071  22.769  1.00  0.00     0.429 C 
ATOM     28  F   UNL A   1      30.488  22.239  22.755  1.00  0.00    -0.167 F 
ATOM     29  F   UNL A   1      32.195  21.606  21.550  1.00  0.00    -0.167 F 
ATOM     30  F   UNL A   1      32.081  21.064  23.647  1.00  0.00    -0.167 F 
ENDBRANCH  17  27
ENDBRANCH   4   7
ENDBRANCH   2   3
ENDBRANCH   1   2
BRANCH   1  31
ATOM     31  C   UNL A   1      37.819  20.943  24.786  1.00  0.00     0.023 C 
BRANCH  31  32
ATOM     32  C   UNL A   1      38.872  21.104  25.877  1.00  0.00     0.116 C 
BRANCH  32  33
ATOM     33  N   UNL A   1      39.728  19.933  25.980  1.00  0.00    -0.352 N 
ATOM     34  C   UNL A   1      41.093  19.867  26.130  1.00  0.00     0.251 C 
ATOM     35  H   UNL A   1      39.266  19.065  25.935  1.00  0.00     0.163 HD
ATOM     36  O   UNL A   1      41.669  18.791  25.989  1.00  0.00    -0.269 OA
BRANCH  34  37
ATOM     37  C   UNL A   1      41.863  21.094  26.428  1.00  0.00     0.039 A 
ATOM     38  C   UNL A   1      42.242  21.929  25.374  1.00  0.00     0.014 A 
ATOM     39  C   UNL A   1      42.186  21.436  27.745  1.00  0.00     0.014 A 
ATOM     40  C   UNL A   1      42.865  23.149  25.647  1.00  0.00     0.010 A 
ATOM     41  C   UNL A   1      42.748  22.681  28.020  1.00  0.00     0.010 A 
ATOM     42  C   UNL A   1      43.075  23.560  26.975  1.00  0.00    -0.014 A 
BRANCH  42  43
ATOM     43  C   UNL A   1      43.575  24.925  27.293  1.00  0.00     0.031 A 
ATOM     44  C   UNL A   1      42.643  25.969  27.844  1.00  0.00     0.074 A 
ATOM     45  C   UNL A   1      44.852  25.246  26.993  1.00  0.00     0.049 A 
ATOM     46  N   UNL A   1      42.867  27.237  28.074  1.00  0.00    -0.248 NA
ATOM     47  C   UNL A   1      41.271  25.536  28.154  1.00  0.00     0.031 C 
ATOM     48  C   UNL A   1      45.839  24.330  26.416  1.00  0.00     0.029 A 
ATOM     49  N   UNL A   1      45.535  26.433  27.105  1.00  0.00    -0.354 N 
ATOM     50  C   UNL A   1      41.663  27.760  28.535  1.00  0.00     0.074 A 
ATOM     51  C   UNL A   1      40.703  26.677  28.518  1.00  0.00     0.031 C 
ATOM     52  C   UNL A   1      46.995  24.985  26.230  1.00  0.00     0.029 A 
ATOM     53  C   UNL A   1      46.822  26.380  26.619  1.00  0.00     0.049 A 
ATOM     54  H   UNL A   1      45.140  27.246  27.497  1.00  0.00     0.167 HD
ATOM     55  C   UNL A   1      41.393  29.024  28.943  1.00  0.00     0.034 A 
ATOM     56  C   UNL A   1      47.748  27.350  26.469  1.00  0.00     0.034 A 
ATOM     57  C   UNL A   1      42.371  30.085  28.973  1.00  0.00     0.049 A 
ATOM     58  C   UNL A   1      47.406  28.755  26.899  1.00  0.00     0.074 A 
ATOM     59  C   UNL A   1      42.227  31.370  29.469  1.00  0.00     0.029 A 
ATOM     60  N   UNL A   1      43.661  29.996  28.471  1.00  0.00    -0.354 N 
ATOM     61  N   UNL A   1      46.289  29.209  27.419  1.00  0.00    -0.248 NA
ATOM     62  C   UNL A   1      48.446  29.778  26.724  1.00  0.00     0.031 C 
ATOM     63  C   UNL A   1      43.398  32.081  29.188  1.00  0.00     0.029 A 
ATOM     64  C   UNL A   1      44.304  31.219  28.591  1.00  0.00     0.049 A 
ATOM     65  H   UNL A   1      44.062  29.184  28.084  1.00  0.00     0.167 HD
ATOM     66  C   UNL A   1      46.503  30.565  27.650  1.00  0.00     0.074 A 
ATOM     67  C   UNL A   1      47.861  30.849  27.237  1.00  0.00     0.031 C 
ATOM     68  C   UNL A   1      45.652  31.493  28.158  1.00  0.00     0.034 A 
BRANCH  55  69
ATOM     69  C   UNL A   1      39.979  29.346  29.359  1.00  0.00     0.023 A 
ATOM     70  C   UNL A   1      39.601  29.437  30.708  1.00  0.00     0.031 A 
ATOM     71  C   UNL A   1      38.998  29.594  28.381  1.00  0.00     0.131 A 
ATOM     72  C   UNL A   1      38.268  29.717  31.044  1.00  0.00     0.055 A 
ATOM     73  C   UNL A   1      37.691  29.942  28.720  1.00  0.00     0.041 A 
ATOM     74  F   UNL A   1      39.297  29.504  27.075  1.00  0.00    -0.206 F 
ATOM     75  C   UNL A   1      37.316  29.996  30.059  1.00  0.00     0.022 A 
BRANCH  72  76
ATOM     76  S   UNL A   1      37.769  29.610  32.784  1.00  0.00     0.124 S 
ATOM     77  O   UNL A   1      37.404  28.199  32.899  1.00  0.00    -0.237 OA
ATOM     78  O   UNL A   1      38.980  30.016  33.486  1.00  0.00    -0.237 OA
ATOM     79  O   UNL A   1      36.648  30.545  32.878  1.00  0.00    -0.744 OA
ENDBRANCH  72  76
ENDBRANCH  55  69
BRANCH  56  80
ATOM     80  C   UNL A   1      49.067  27.051  25.836  1.00  0.00     0.023 A 
ATOM     81  C   UNL A   1      50.180  26.690  26.611  1.00  0.00     0.031 A 
ATOM     82  C   UNL A   1      49.251  27.190  24.447  1.00  0.00     0.131 A 
ATOM     83  C   UNL A   1      51.437  26.535  26.004  1.00  0.00     0.055 A 
ATOM     84  C   UNL A   1      50.489  26.974  23.839  1.00  0.00     0.041 A 
ATOM     85  F   UNL A   1      48.222  27.535  23.656  1.00  0.00    -0.206 F 
ATOM     86  C   UNL A   1      51.596  26.661  24.622  1.00  0.00     0.022 A 
BRANCH  83  87
ATOM     87  S   UNL A   1      52.887  26.282  27.064  1.00  0.00     0.124 S 
ATOM     88  O   UNL A   1      53.383  24.996  26.586  1.00  0.00    -0.237 OA
ATOM     89  O   UNL A   1      53.704  27.446  26.739  1.00  0.00    -0.237 OA
ATOM     90  O   UNL A   1      52.325  26.272  28.412  1.00  0.00    -0.744 OA
ENDBRANCH  83  87
ENDBRANCH  56  80
BRANCH  68  91
ATOM     91  C   UNL A   1      46.180  32.897  28.312  1.00  0.00     0.023 A 
ATOM     92  C   UNL A   1      46.844  33.310  29.480  1.00  0.00     0.031 A 
ATOM     93  C   UNL A   1      46.024  33.832  27.274  1.00  0.00     0.131 A 
ATOM     94  C   UNL A   1      47.292  34.635  29.598  1.00  0.00     0.055 A 
ATOM     95  C   UNL A   1      46.523  35.132  27.373  1.00  0.00     0.041 A 
ATOM     96  F   UNL A   1      45.393  33.494  26.137  1.00  0.00    -0.206 F 
ATOM     97  C   UNL A   1      47.153  35.542  28.544  1.00  0.00     0.022 A 
BRANCH  94  98
ATOM     98  S   UNL A   1      48.002  35.177  31.176  1.00  0.00     0.124 S 
ATOM     99  O   UNL A   1      48.081  33.923  31.919  1.00  0.00    -0.237 OA
ATOM    100  O   UNL A   1      49.276  35.757  30.766  1.00  0.00    -0.237 OA
ATOM    101  O   UNL A   1      47.020  36.136  31.682  1.00  0.00    -0.744 OA
ENDBRANCH  94  98
ENDBRANCH  68  91
ENDBRANCH  42  43
ENDBRANCH  34  37
ENDBRANCH  32  33
ENDBRANCH  31  32
ENDBRANCH   1  31
TORSDOF 18
ENDMDL
MODEL 3
REMARK VINA RESULT:     -12.4      1.710      2.231
REMARK SMILES CCSc1ccc(-c2cc(Cl)cc3c2O[C@H](C(F)(F)F)C(C(=O)NCCCCNC(=O)c2ccc(-c4c5nc(c(-c6cc(S(=O)(=O)[O-])ccc6F)c6ccc([nH]6)c(-c6cc(S(=O)(=O)[O-])ccc6F)c6nc(c(-c7cc(S(=O)(=O)[O-])ccc7F)c7ccc4[nH]7)C=C6)C=C5)cc2)=C3)cc1
REMARK SMILES IDX 26 1 25 2 24 3 22 4 23 5 21 7 8 8 9 9 14 10 10 11 13 12
REMARK SMILES IDX 15 13 11 14 12 15 95 16 16 17 7 18 4 19 5 20 97 21 6 22
REMARK SMILES IDX 96 23 3 24 2 25 1 26 17 27 18 28 19 29 20 30 27 31 28 32
REMARK SMILES IDX 29 33 30 34 31 36 32 37 33 38 94 39 34 40 93 41 35 42 36 43
REMARK SMILES IDX 37 44 87 45 38 46 92 47 86 48 88 49 39 50 91 51 85 52 84 53
REMARK SMILES IDX 40 55 72 56 52 57 71 58 53 59 56 60 70 61 89 62 54 63 55 64
REMARK SMILES IDX 69 66 90 67 57 68 41 69 42 70 50 71 43 72 49 73 51 74 48 75
REMARK SMILES IDX 44 76 45 77 46 78 47 79 73 80 74 81 82 82 75 83 81 84 83 85
REMARK SMILES IDX 80 86 76 87 77 88 78 89 79 90 58 91 59 92 67 93 60 94 66 95
REMARK SMILES IDX 68 96 65 97 61 98 62 99 63 100 64 101
REMARK H PARENT 24 6 29 35 88 54 56 65
REMARK Flexibility Score: inf
ROOT
ATOM      1  C   UNL A   1      34.731  21.197  25.674  1.00  0.00     0.023 C 
ENDROOT
BRANCH   1   2
ATOM      2  C   UNL A   1      34.948  22.076  26.912  1.00  0.00     0.116 C 
BRANCH   2   3
ATOM      3  N   UNL A   1      34.951  23.471  26.524  1.00  0.00    -0.352 N 
ATOM      4  C   UNL A   1      34.209  24.093  25.581  1.00  0.00     0.251 C 
ATOM      5  O   UNL A   1      34.690  25.051  24.986  1.00  0.00    -0.270 OA
ATOM      6  H   UNL A   1      35.581  24.046  27.017  1.00  0.00     0.163 HD
BRANCH   4   7
ATOM      7  C   UNL A   1      32.800  23.636  25.369  1.00  0.00     0.067 C 
ATOM      8  C   UNL A   1      31.206  27.231  24.343  1.00  0.00     0.026 A 
ATOM      9  C   UNL A   1      31.651  28.190  25.289  1.00  0.00     0.033 A 
ATOM     10  C   UNL A   1      31.395  25.884  24.680  1.00  0.00     0.135 A 
ATOM     11  C   UNL A   1      32.107  27.836  26.556  1.00  0.00     0.042 A 
ATOM     12  C   UNL A   1      31.757  25.544  26.007  1.00  0.00     0.019 A 
ATOM     13  O   UNL A   1      31.289  24.859  23.752  1.00  0.00    -0.475 OA
ATOM     14  Cl  UNL A   1      32.649  29.055  27.638  1.00  0.00    -0.084 Cl
ATOM     15  C   UNL A   1      32.098  26.510  26.948  1.00  0.00     0.032 A 
ATOM     16  C   UNL A   1      31.964  24.111  26.315  1.00  0.00     0.025 C 
ATOM     17  C   UNL A   1      32.314  23.793  23.931  1.00  0.00     0.314 C 
BRANCH   8  18
ATOM     18  C   UNL A   1      30.398  27.781  23.227  1.00  0.00    -0.015 A 
ATOM     19  C   UNL A   1      28.831  29.783  21.972  1.00  0.00     0.007 A 
ATOM     20  C   UNL A   1      30.201  29.687  21.715  1.00  0.00     0.015 A 
ATOM     21  C   UNL A   1      28.223  28.792  22.745  1.00  0.00     0.015 A 
ATOM     22  C   UNL A   1      30.972  28.683  22.311  1.00  0.00     0.010 A 
ATOM     23  C   UNL A   1      28.997  27.788  23.351  1.00  0.00     0.010 A 
BRANCH  19  24
ATOM     24  S   UNL A   1      27.999  31.282  21.462  1.00  0.00    -0.126 SA
BRANCH  24  25
ATOM     25  C   UNL A   1      27.857  32.217  23.016  1.00  0.00     0.071 C 
ATOM     26  C   UNL A   1      29.083  32.020  23.888  1.00  0.00     0.016 C 
ENDBRANCH  24  25
ENDBRANCH  19  24
ENDBRANCH   8  18
BRANCH  17  27
ATOM     27  C   UNL A   1      31.793  22.430  23.427  1.00  0.00     0.429 C 
ATOM     28  F   UNL A   1      30.637  22.538  22.733  1.00  0.00    -0.167 F 
ATOM     29  F   UNL A   1      32.698  21.827  22.618  1.00  0.00    -0.167 F 
ATOM     30  F   UNL A   1      31.552  21.557  24.440  1.00  0.00    -0.167 F 
ENDBRANCH  17  27
ENDBRANCH   4   7
ENDBRANCH   2   3
ENDBRANCH   1   2
BRANCH   1  31
ATOM     31  C   UNL A   1      36.008  20.829  24.903  1.00  0.00     0.023 C 
BRANCH  31  32
ATOM     32  C   UNL A   1      37.292  21.439  25.457  1.00  0.00     0.116 C 
BRANCH  32  33
ATOM     33  N   UNL A   1      38.324  20.435  25.659  1.00  0.00    -0.352 N 
ATOM     34  C   UNL A   1      39.607  20.594  26.126  1.00  0.00     0.251 C 
ATOM     35  H   UNL A   1      38.069  19.513  25.429  1.00  0.00     0.163 HD
ATOM     36  O   UNL A   1      40.407  19.665  26.034  1.00  0.00    -0.269 OA
BRANCH  34  37
ATOM     37  C   UNL A   1      40.027  21.888  26.707  1.00  0.00     0.039 A 
ATOM     38  C   UNL A   1      40.955  21.892  27.752  1.00  0.00     0.014 A 
ATOM     39  C   UNL A   1      39.531  23.094  26.204  1.00  0.00     0.014 A 
ATOM     40  C   UNL A   1      41.451  23.107  28.231  1.00  0.00     0.010 A 
ATOM     41  C   UNL A   1      40.074  24.301  26.638  1.00  0.00     0.010 A 
ATOM     42  C   UNL A   1      41.055  24.320  27.643  1.00  0.00    -0.014 A 
BRANCH  42  43
ATOM     43  C   UNL A   1      41.697  25.609  28.017  1.00  0.00     0.031 A 
ATOM     44  C   UNL A   1      40.906  26.681  28.714  1.00  0.00     0.074 A 
ATOM     45  C   UNL A   1      42.972  25.844  27.639  1.00  0.00     0.049 A 
ATOM     46  N   UNL A   1      41.260  27.904  29.016  1.00  0.00    -0.248 NA
ATOM     47  C   UNL A   1      39.528  26.342  29.102  1.00  0.00     0.031 C 
ATOM     48  C   UNL A   1      43.827  24.896  26.920  1.00  0.00     0.029 A 
ATOM     49  N   UNL A   1      43.765  26.957  27.780  1.00  0.00    -0.354 N 
ATOM     50  C   UNL A   1      40.145  28.488  29.609  1.00  0.00     0.074 A 
ATOM     51  C   UNL A   1      39.093  27.494  29.591  1.00  0.00     0.031 C 
ATOM     52  C   UNL A   1      45.020  25.465  26.689  1.00  0.00     0.029 A 
ATOM     53  C   UNL A   1      45.002  26.835  27.189  1.00  0.00     0.049 A 
ATOM     54  H   UNL A   1      43.475  27.767  28.259  1.00  0.00     0.167 HD
ATOM     55  C   UNL A   1      40.020  29.735  30.127  1.00  0.00     0.034 A 
ATOM     56  C   UNL A   1      45.999  27.732  27.034  1.00  0.00     0.034 A 
ATOM     57  C   UNL A   1      41.089  30.704  30.153  1.00  0.00     0.049 A 
ATOM     58  C   UNL A   1      45.817  29.123  27.590  1.00  0.00     0.074 A 
ATOM     59  C   UNL A   1      41.098  31.954  30.750  1.00  0.00     0.029 A 
ATOM     60  N   UNL A   1      42.325  30.547  29.544  1.00  0.00    -0.354 N 
ATOM     61  N   UNL A   1      44.786  29.627  28.230  1.00  0.00    -0.248 NA
ATOM     62  C   UNL A   1      46.929  30.065  27.406  1.00  0.00     0.031 C 
ATOM     63  C   UNL A   1      42.305  32.584  30.427  1.00  0.00     0.029 A 
ATOM     64  C   UNL A   1      43.082  31.699  29.699  1.00  0.00     0.049 A 
ATOM     65  H   UNL A   1      42.622  29.737  29.069  1.00  0.00     0.167 HD
ATOM     66  C   UNL A   1      45.138  30.938  28.539  1.00  0.00     0.074 A 
ATOM     67  C   UNL A   1      46.482  31.139  28.040  1.00  0.00     0.031 C 
ATOM     68  C   UNL A   1      44.414  31.892  29.179  1.00  0.00     0.034 A 
BRANCH  55  69
ATOM     69  C   UNL A   1      38.676  30.141  30.677  1.00  0.00     0.023 A 
ATOM     70  C   UNL A   1      37.743  30.861  29.911  1.00  0.00     0.031 A 
ATOM     71  C   UNL A   1      38.312  29.775  31.986  1.00  0.00     0.131 A 
ATOM     72  C   UNL A   1      36.515  31.235  30.477  1.00  0.00     0.055 A 
ATOM     73  C   UNL A   1      37.061  30.089  32.518  1.00  0.00     0.041 A 
ATOM     74  F   UNL A   1      39.169  29.103  32.770  1.00  0.00    -0.206 F 
ATOM     75  C   UNL A   1      36.157  30.832  31.766  1.00  0.00     0.022 A 
BRANCH  72  76
ATOM     76  S   UNL A   1      35.431  32.348  29.541  1.00  0.00     0.124 S 
ATOM     77  O   UNL A   1      34.326  32.540  30.478  1.00  0.00    -0.237 OA
ATOM     78  O   UNL A   1      36.286  33.506  29.315  1.00  0.00    -0.237 OA
ATOM     79  O   UNL A   1      35.096  31.575  28.345  1.00  0.00    -0.744 OA
ENDBRANCH  72  76
ENDBRANCH  55  69
BRANCH  56  80
ATOM     80  C   UNL A   1      47.235  27.374  26.277  1.00  0.00     0.023 A 
ATOM     81  C   UNL A   1      47.389  27.724  24.927  1.00  0.00     0.031 A 
ATOM     82  C   UNL A   1      48.256  26.614  26.880  1.00  0.00     0.131 A 
ATOM     83  C   UNL A   1      48.505  27.268  24.207  1.00  0.00     0.055 A 
ATOM     84  C   UNL A   1      49.395  26.217  26.176  1.00  0.00     0.041 A 
ATOM     85  F   UNL A   1      48.163  26.250  28.169  1.00  0.00    -0.206 F 
ATOM     86  C   UNL A   1      49.515  26.530  24.826  1.00  0.00     0.022 A 
BRANCH  83  87
ATOM     87  S   UNL A   1      48.559  27.557  22.417  1.00  0.00     0.124 S 
ATOM     88  O   UNL A   1      47.293  28.244  22.189  1.00  0.00    -0.237 OA
ATOM     89  O   UNL A   1      49.764  28.369  22.280  1.00  0.00    -0.237 OA
ATOM     90  O   UNL A   1      48.649  26.210  21.858  1.00  0.00    -0.744 OA
ENDBRANCH  83  87
ENDBRANCH  56  80
BRANCH  68  91
ATOM     91  C   UNL A   1      45.075  33.230  29.390  1.00  0.00     0.023 A 
ATOM     92  C   UNL A   1      45.142  34.188  28.364  1.00  0.00     0.031 A 
ATOM     93  C   UNL A   1      45.638  33.556  30.637  1.00  0.00     0.131 A 
ATOM     94  C   UNL A   1      45.794  35.410  28.590  1.00  0.00     0.055 A 
ATOM     95  C   UNL A   1      46.233  34.795  30.875  1.00  0.00     0.041 A 
ATOM     96  F   UNL A   1      45.606  32.677  31.652  1.00  0.00    -0.206 F 
ATOM     97  C   UNL A   1      46.322  35.727  29.844  1.00  0.00     0.022 A 
BRANCH  94  98
ATOM     98  S   UNL A   1      46.001  36.557  27.201  1.00  0.00     0.124 S 
ATOM     99  O   UNL A   1      47.437  36.820  27.237  1.00  0.00    -0.237 OA
ATOM    100  O   UNL A   1      45.525  35.770  26.069  1.00  0.00    -0.237 OA
ATOM    101  O   UNL A   1      45.154  37.692  27.564  1.00  0.00    -0.744 OA
ENDBRANCH  94  98
ENDBRANCH  68  91
ENDBRANCH  42  43
ENDBRANCH  34  37
ENDBRANCH  32  33
ENDBRANCH  31  32
ENDBRANCH   1  31
TORSDOF 18
ENDMDL
