MODEL 1
REMARK VINA RESULT:     -12.4      0.000      0.000
REMARK SMILES O=C(NCCCCNC(=O)[C@H]1CCCCN1S(=O)(=O)c1cc[nH]c1)c1ccc(-c2c3nc(c(-c4cc(S(=O)(=O)[O-])ccc4F)c4ccc([nH]4)c(-c4cc(S(=O)(=O)[O-])ccc4F)c4nc(c(-c5cc(S(=O)(=O)[O-])ccc5F)c5ccc2[nH]5)C=C4)C=C3)cc1
REMARK SMILES IDX 5 1 4 2 3 3 1 4 2 5 25 7 26 8 87 9 27 10 86 11 28 12 29 13
REMARK SMILES IDX 30 14 80 15 31 16 85 17 79 18 81 19 32 20 84 21 78 22 77 23
REMARK SMILES IDX 33 25 65 26 45 27 64 28 46 29 49 30 63 31 82 32 47 33 48 34
REMARK SMILES IDX 62 36 83 37 50 38 34 39 35 40 43 41 36 42 42 43 44 44 41 45
REMARK SMILES IDX 37 46 38 47 39 48 40 49 66 50 67 51 75 52 68 53 74 54 76 55
REMARK SMILES IDX 73 56 69 57 70 58 71 59 72 60 51 61 52 62 60 63 53 64 59 65
REMARK SMILES IDX 61 66 58 67 54 68 55 69 56 70 57 71 6 72 7 73 8 74 9 75
REMARK SMILES IDX 10 77 11 78 12 79 16 80 13 81 15 82 14 83 17 84 18 85 19 86
REMARK SMILES IDX 20 87 21 88 24 89 22 90 23 91
REMARK H PARENT 3 6 81 24 49 35 8 76 23 92
REMARK Flexibility Score: inf
ROOT
ATOM      1  C   UNL A   1      36.697  23.157  25.411  1.00  0.00     0.023 C 
ENDROOT
BRANCH   1   2
ATOM      2  C   UNL A   1      37.623  23.984  26.307  1.00  0.00     0.116 C 
BRANCH   2   3
ATOM      3  N   UNL A   1      39.022  23.603  26.301  1.00  0.00    -0.352 N 
ATOM      4  O   UNL A   1      41.184  23.514  26.849  1.00  0.00    -0.269 OA
ATOM      5  C   UNL A   1      40.135  24.157  26.883  1.00  0.00     0.251 C 
ATOM      6  H   UNL A   1      39.211  22.791  25.778  1.00  0.00     0.163 HD
BRANCH   5   7
ATOM      7  C   UNL A   1      40.136  25.526  27.457  1.00  0.00     0.039 A 
ATOM      8  C   UNL A   1      39.931  25.792  28.811  1.00  0.00     0.014 A 
ATOM      9  C   UNL A   1      40.345  26.595  26.571  1.00  0.00     0.014 A 
ATOM     10  C   UNL A   1      39.794  27.099  29.254  1.00  0.00     0.010 A 
ATOM     11  C   UNL A   1      40.260  27.915  27.017  1.00  0.00     0.010 A 
ATOM     12  C   UNL A   1      39.972  28.163  28.362  1.00  0.00    -0.014 A 
BRANCH  12  13
ATOM     13  C   UNL A   1      40.194  29.489  28.984  1.00  0.00     0.031 A 
ATOM     14  C   UNL A   1      38.804  30.129  29.295  1.00  0.00     0.074 A 
ATOM     15  C   UNL A   1      41.486  29.953  29.064  1.00  0.00     0.049 A 
ATOM     16  N   UNL A   1      38.403  31.360  29.201  1.00  0.00    -0.248 NA
ATOM     17  C   UNL A   1      37.645  29.238  29.622  1.00  0.00     0.031 C 
ATOM     18  C   UNL A   1      42.702  29.166  28.736  1.00  0.00     0.029 A 
ATOM     19  N   UNL A   1      42.059  31.160  29.425  1.00  0.00    -0.354 N 
ATOM     20  C   UNL A   1      37.089  31.424  29.738  1.00  0.00     0.074 A 
ATOM     21  C   UNL A   1      36.621  30.078  29.791  1.00  0.00     0.031 C 
ATOM     22  C   UNL A   1      43.826  29.924  28.825  1.00  0.00     0.029 A 
ATOM     23  C   UNL A   1      43.479  31.272  29.239  1.00  0.00     0.049 A 
ATOM     24  H   UNL A   1      41.523  31.901  29.789  1.00  0.00     0.167 HD
ATOM     25  C   UNL A   1      36.568  32.560  30.296  1.00  0.00     0.034 A 
ATOM     26  C   UNL A   1      44.290  32.380  29.379  1.00  0.00     0.034 A 
ATOM     27  C   UNL A   1      37.526  33.608  30.174  1.00  0.00     0.049 A 
ATOM     28  C   UNL A   1      43.388  33.376  29.974  1.00  0.00     0.074 A 
ATOM     29  C   UNL A   1      38.042  34.281  29.100  1.00  0.00     0.029 A 
ATOM     30  N   UNL A   1      38.336  33.815  31.271  1.00  0.00    -0.354 N 
ATOM     31  N   UNL A   1      42.994  33.370  31.209  1.00  0.00    -0.248 NA
ATOM     32  C   UNL A   1      42.845  34.436  29.113  1.00  0.00     0.031 C 
ATOM     33  C   UNL A   1      39.404  34.383  29.441  1.00  0.00     0.029 A 
ATOM     34  C   UNL A   1      39.591  34.047  30.790  1.00  0.00     0.049 A 
ATOM     35  H   UNL A   1      38.061  33.797  32.216  1.00  0.00     0.167 HD
ATOM     36  C   UNL A   1      41.914  34.210  31.170  1.00  0.00     0.074 A 
ATOM     37  C   UNL A   1      42.095  35.065  30.015  1.00  0.00     0.031 C 
ATOM     38  C   UNL A   1      40.722  33.769  31.648  1.00  0.00     0.034 A 
BRANCH  25  39
ATOM     39  C   UNL A   1      35.431  32.824  31.264  1.00  0.00     0.023 A 
ATOM     40  C   UNL A   1      34.566  33.889  30.896  1.00  0.00     0.031 A 
ATOM     41  C   UNL A   1      35.374  32.424  32.603  1.00  0.00     0.131 A 
ATOM     42  C   UNL A   1      33.918  34.668  31.859  1.00  0.00     0.055 A 
ATOM     43  C   UNL A   1      34.626  33.139  33.553  1.00  0.00     0.041 A 
ATOM     44  F   UNL A   1      36.091  31.393  33.066  1.00  0.00    -0.206 F 
ATOM     45  C   UNL A   1      33.944  34.303  33.196  1.00  0.00     0.022 A 
BRANCH  42  46
ATOM     46  S   UNL A   1      33.294  36.294  31.339  1.00  0.00     0.124 S 
ATOM     47  O   UNL A   1      31.905  36.234  31.782  1.00  0.00    -0.237 OA
ATOM     48  O   UNL A   1      34.162  37.206  32.080  1.00  0.00    -0.237 OA
ATOM     49  O   UNL A   1      33.493  36.285  29.892  1.00  0.00    -0.744 OA
ENDBRANCH  42  46
ENDBRANCH  25  39
BRANCH  26  50
ATOM     50  C   UNL A   1      45.709  32.922  29.112  1.00  0.00     0.023 A 
ATOM     51  C   UNL A   1      46.306  33.245  27.879  1.00  0.00     0.031 A 
ATOM     52  C   UNL A   1      46.545  33.224  30.247  1.00  0.00     0.131 A 
ATOM     53  C   UNL A   1      47.584  33.900  27.845  1.00  0.00     0.055 A 
ATOM     54  C   UNL A   1      47.728  33.961  30.212  1.00  0.00     0.041 A 
ATOM     55  F   UNL A   1      46.263  32.800  31.486  1.00  0.00    -0.206 F 
ATOM     56  C   UNL A   1      48.250  34.321  29.001  1.00  0.00     0.022 A 
BRANCH  53  57
ATOM     57  S   UNL A   1      48.469  34.241  26.288  1.00  0.00     0.124 S 
ATOM     58  O   UNL A   1      49.179  35.475  26.607  1.00  0.00    -0.237 OA
ATOM     59  O   UNL A   1      49.293  33.052  26.108  1.00  0.00    -0.237 OA
ATOM     60  O   UNL A   1      47.388  34.390  25.312  1.00  0.00    -0.744 OA
ENDBRANCH  53  57
ENDBRANCH  26  50
BRANCH  38  61
ATOM     61  C   UNL A   1      40.813  32.705  32.743  1.00  0.00     0.023 A 
ATOM     62  C   UNL A   1      40.673  31.339  32.419  1.00  0.00     0.031 A 
ATOM     63  C   UNL A   1      40.924  32.995  34.114  1.00  0.00     0.131 A 
ATOM     64  C   UNL A   1      40.619  30.350  33.424  1.00  0.00     0.055 A 
ATOM     65  C   UNL A   1      40.871  32.015  35.119  1.00  0.00     0.041 A 
ATOM     66  F   UNL A   1      41.075  34.247  34.538  1.00  0.00    -0.206 F 
ATOM     67  C   UNL A   1      40.715  30.682  34.775  1.00  0.00     0.022 A 
BRANCH  64  68
ATOM     68  S   UNL A   1      40.444  28.607  32.951  1.00  0.00     0.124 S 
ATOM     69  O   UNL A   1      39.094  28.557  32.400  1.00  0.00    -0.237 OA
ATOM     70  O   UNL A   1      41.531  28.426  31.996  1.00  0.00    -0.237 OA
ATOM     71  O   UNL A   1      40.617  27.889  34.215  1.00  0.00    -0.744 OA
ENDBRANCH  64  68
ENDBRANCH  38  61
ENDBRANCH  12  13
ENDBRANCH   5   7
ENDBRANCH   2   3
ENDBRANCH   1   2
BRANCH   1  72
ATOM     72  C   UNL A   1      35.909  23.954  24.369  1.00  0.00     0.023 C 
BRANCH  72  73
ATOM     73  C   UNL A   1      34.603  23.309  23.925  1.00  0.00     0.116 C 
BRANCH  73  74
ATOM     74  N   UNL A   1      33.652  24.293  23.440  1.00  0.00    -0.355 N 
ATOM     75  C   UNL A   1      32.924  25.233  24.099  1.00  0.00     0.238 C 
ATOM     76  H   UNL A   1      33.511  24.278  22.466  1.00  0.00     0.163 HD
ATOM     77  O   UNL A   1      32.201  25.961  23.413  1.00  0.00    -0.273 OA
BRANCH  75  78
ATOM     78  C   UNL A   1      33.071  25.422  25.615  1.00  0.00     0.162 C 
ATOM     79  C   UNL A   1      33.751  26.768  25.893  1.00  0.00     0.030 C 
ATOM     80  N   UNL A   1      31.792  25.307  26.395  1.00  0.00    -0.185 NA
ATOM     81  C   UNL A   1      32.820  27.955  25.673  1.00  0.00     0.004 C 
ATOM     82  C   UNL A   1      30.853  26.431  26.147  1.00  0.00     0.103 C 
ATOM     83  C   UNL A   1      31.526  27.767  26.450  1.00  0.00     0.017 C 
BRANCH  80  84
ATOM     84  S   UNL A   1      31.108  23.738  26.232  1.00  0.00     0.245 S 
ATOM     85  O   UNL A   1      30.124  23.552  27.265  1.00  0.00    -0.207 OA
ATOM     86  O   UNL A   1      30.778  23.570  24.824  1.00  0.00    -0.207 OA
BRANCH  84  87
ATOM     87  C   UNL A   1      32.309  22.534  26.554  1.00  0.00     0.100 A 
ATOM     88  C   UNL A   1      33.276  22.597  27.594  1.00  0.00     0.041 A 
ATOM     89  C   UNL A   1      32.482  21.323  25.911  1.00  0.00     0.104 A 
ATOM     90  C   UNL A   1      34.028  21.444  27.528  1.00  0.00     0.083 A 
ATOM     91  N   UNL A   1      33.516  20.662  26.524  1.00  0.00    -0.366 N 
ATOM     92  H   UNL A   1      33.841  19.766  26.279  1.00  0.00     0.165 HD
ENDBRANCH  84  87
ENDBRANCH  80  84
ENDBRANCH  75  78
ENDBRANCH  73  74
ENDBRANCH  72  73
ENDBRANCH   1  72
TORSDOF 16
ENDMDL
MODEL 2
REMARK VINA RESULT:     -11.9      1.692      2.834
REMARK SMILES O=C(NCCCCNC(=O)[C@H]1CCCCN1S(=O)(=O)c1cc[nH]c1)c1ccc(-c2c3nc(c(-c4cc(S(=O)(=O)[O-])ccc4F)c4ccc([nH]4)c(-c4cc(S(=O)(=O)[O-])ccc4F)c4nc(c(-c5cc(S(=O)(=O)[O-])ccc5F)c5ccc2[nH]5)C=C4)C=C3)cc1
REMARK SMILES IDX 5 1 4 2 3 3 1 4 2 5 25 7 26 8 87 9 27 10 86 11 28 12 29 13
REMARK SMILES IDX 30 14 80 15 31 16 85 17 79 18 81 19 32 20 84 21 78 22 77 23
REMARK SMILES IDX 33 25 65 26 45 27 64 28 46 29 49 30 63 31 82 32 47 33 48 34
REMARK SMILES IDX 62 36 83 37 50 38 34 39 35 40 43 41 36 42 42 43 44 44 41 45
REMARK SMILES IDX 37 46 38 47 39 48 40 49 66 50 67 51 75 52 68 53 74 54 76 55
REMARK SMILES IDX 73 56 69 57 70 58 71 59 72 60 51 61 52 62 60 63 53 64 59 65
REMARK SMILES IDX 61 66 58 67 54 68 55 69 56 70 57 71 6 72 7 73 8 74 9 75
REMARK SMILES IDX 10 77 11 78 12 79 16 80 13 81 15 82 14 83 17 84 18 85 19 86
REMARK SMILES IDX 20 87 21 88 24 89 22 90 23 91
REMARK H PARENT 3 6 81 24 49 35 8 76 23 92
REMARK Flexibility Score: inf
ROOT
ATOM      1  C   UNL A   1      36.353  24.106  25.246  1.00  0.00     0.023 C 
ENDROOT
BRANCH   1   2
ATOM      2  C   UNL A   1      37.158  23.800  26.512  1.00  0.00     0.116 C 
BRANCH   2   3
ATOM      3  N   UNL A   1      38.553  23.455  26.312  1.00  0.00    -0.352 N 
ATOM      4  O   UNL A   1      40.771  23.412  26.565  1.00  0.00    -0.269 OA
ATOM      5  C   UNL A   1      39.721  24.027  26.752  1.00  0.00     0.251 C 
ATOM      6  H   UNL A   1      38.689  22.657  25.751  1.00  0.00     0.163 HD
BRANCH   5   7
ATOM      7  C   UNL A   1      39.767  25.384  27.350  1.00  0.00     0.039 A 
ATOM      8  C   UNL A   1      39.497  25.643  28.694  1.00  0.00     0.014 A 
ATOM      9  C   UNL A   1      40.091  26.452  26.497  1.00  0.00     0.014 A 
ATOM     10  C   UNL A   1      39.409  26.949  29.152  1.00  0.00     0.010 A 
ATOM     11  C   UNL A   1      40.056  27.768  26.961  1.00  0.00     0.010 A 
ATOM     12  C   UNL A   1      39.703  28.013  28.291  1.00  0.00    -0.014 A 
BRANCH  12  13
ATOM     13  C   UNL A   1      39.964  29.315  28.948  1.00  0.00     0.031 A 
ATOM     14  C   UNL A   1      38.596  30.017  29.217  1.00  0.00     0.074 A 
ATOM     15  C   UNL A   1      41.273  29.712  29.090  1.00  0.00     0.049 A 
ATOM     16  N   UNL A   1      38.260  31.268  29.133  1.00  0.00    -0.248 NA
ATOM     17  C   UNL A   1      37.381  29.180  29.478  1.00  0.00     0.031 C 
ATOM     18  C   UNL A   1      42.462  28.872  28.795  1.00  0.00     0.029 A 
ATOM     19  N   UNL A   1      41.889  30.882  29.499  1.00  0.00    -0.354 N 
ATOM     20  C   UNL A   1      36.930  31.388  29.618  1.00  0.00     0.074 A 
ATOM     21  C   UNL A   1      36.394  30.067  29.623  1.00  0.00     0.031 C 
ATOM     22  C   UNL A   1      43.617  29.571  28.945  1.00  0.00     0.029 A 
ATOM     23  C   UNL A   1      43.320  30.926  29.373  1.00  0.00     0.049 A 
ATOM     24  H   UNL A   1      41.376  31.642  29.857  1.00  0.00     0.167 HD
ATOM     25  C   UNL A   1      36.443  32.538  30.178  1.00  0.00     0.034 A 
ATOM     26  C   UNL A   1      44.178  31.989  29.568  1.00  0.00     0.034 A 
ATOM     27  C   UNL A   1      37.455  33.538  30.116  1.00  0.00     0.049 A 
ATOM     28  C   UNL A   1      43.302  33.018  30.147  1.00  0.00     0.074 A 
ATOM     29  C   UNL A   1      38.047  34.205  29.078  1.00  0.00     0.029 A 
ATOM     30  N   UNL A   1      38.228  33.684  31.249  1.00  0.00    -0.354 N 
ATOM     31  N   UNL A   1      42.857  33.008  31.365  1.00  0.00    -0.248 NA
ATOM     32  C   UNL A   1      42.847  34.119  29.287  1.00  0.00     0.031 C 
ATOM     33  C   UNL A   1      39.398  34.233  29.475  1.00  0.00     0.029 A 
ATOM     34  C   UNL A   1      39.512  33.863  30.824  1.00  0.00     0.049 A 
ATOM     35  H   UNL A   1      37.914  33.663  32.181  1.00  0.00     0.167 HD
ATOM     36  C   UNL A   1      41.822  33.901  31.300  1.00  0.00     0.074 A 
ATOM     37  C   UNL A   1      42.093  34.769  30.171  1.00  0.00     0.031 C 
ATOM     38  C   UNL A   1      40.591  33.512  31.720  1.00  0.00     0.034 A 
BRANCH  25  39
ATOM     39  C   UNL A   1      35.281  32.840  31.105  1.00  0.00     0.023 A 
ATOM     40  C   UNL A   1      34.471  33.939  30.712  1.00  0.00     0.031 A 
ATOM     41  C   UNL A   1      35.159  32.435  32.438  1.00  0.00     0.131 A 
ATOM     42  C   UNL A   1      33.818  34.738  31.655  1.00  0.00     0.055 A 
ATOM     43  C   UNL A   1      34.403  33.173  33.364  1.00  0.00     0.041 A 
ATOM     44  F   UNL A   1      35.818  31.375  32.920  1.00  0.00    -0.206 F 
ATOM     45  C   UNL A   1      33.780  34.364  32.990  1.00  0.00     0.022 A 
BRANCH  42  46
ATOM     46  S   UNL A   1      33.277  36.390  31.124  1.00  0.00     0.124 S 
ATOM     47  O   UNL A   1      34.111  37.255  31.951  1.00  0.00    -0.237 OA
ATOM     48  O   UNL A   1      33.593  36.371  29.698  1.00  0.00    -0.237 OA
ATOM     49  O   UNL A   1      31.851  36.397  31.444  1.00  0.00    -0.744 OA
ENDBRANCH  42  46
ENDBRANCH  25  39
BRANCH  26  50
ATOM     50  C   UNL A   1      45.632  32.465  29.370  1.00  0.00     0.023 A 
ATOM     51  C   UNL A   1      46.351  32.605  28.168  1.00  0.00     0.031 A 
ATOM     52  C   UNL A   1      46.366  32.905  30.530  1.00  0.00     0.131 A 
ATOM     53  C   UNL A   1      47.646  33.227  28.171  1.00  0.00     0.055 A 
ATOM     54  C   UNL A   1      47.569  33.609  30.511  1.00  0.00     0.041 A 
ATOM     55  F   UNL A   1      45.955  32.660  31.781  1.00  0.00    -0.206 F 
ATOM     56  C   UNL A   1      48.213  33.790  29.319  1.00  0.00     0.022 A 
BRANCH  53  57
ATOM     57  S   UNL A   1      48.684  33.335  26.676  1.00  0.00     0.124 S 
ATOM     58  O   UNL A   1      47.756  33.906  25.705  1.00  0.00    -0.237 OA
ATOM     59  O   UNL A   1      49.783  34.194  27.097  1.00  0.00    -0.237 OA
ATOM     60  O   UNL A   1      49.057  31.942  26.423  1.00  0.00    -0.744 OA
ENDBRANCH  53  57
ENDBRANCH  26  50
BRANCH  38  61
ATOM     61  C   UNL A   1      40.585  32.424  32.796  1.00  0.00     0.023 A 
ATOM     62  C   UNL A   1      40.518  31.064  32.429  1.00  0.00     0.031 A 
ATOM     63  C   UNL A   1      40.532  32.684  34.177  1.00  0.00     0.131 A 
ATOM     64  C   UNL A   1      40.376  30.051  33.400  1.00  0.00     0.055 A 
ATOM     65  C   UNL A   1      40.390  31.680  35.147  1.00  0.00     0.041 A 
ATOM     66  F   UNL A   1      40.601  33.928  34.641  1.00  0.00    -0.206 F 
ATOM     67  C   UNL A   1      40.309  30.352  34.760  1.00  0.00     0.022 A 
BRANCH  64  68
ATOM     68  S   UNL A   1      40.300  28.315  32.873  1.00  0.00     0.124 S 
ATOM     69  O   UNL A   1      41.392  28.223  31.911  1.00  0.00    -0.237 OA
ATOM     70  O   UNL A   1      40.491  27.594  34.127  1.00  0.00    -0.237 OA
ATOM     71  O   UNL A   1      38.961  28.189  32.296  1.00  0.00    -0.744 OA
ENDBRANCH  64  68
ENDBRANCH  38  61
ENDBRANCH  12  13
ENDBRANCH   5   7
ENDBRANCH   2   3
ENDBRANCH   1   2
BRANCH   1  72
ATOM     72  C   UNL A   1      34.874  24.425  25.472  1.00  0.00     0.023 C 
BRANCH  72  73
ATOM     73  C   UNL A   1      34.071  24.667  24.200  1.00  0.00     0.116 C 
BRANCH  73  74
ATOM     74  N   UNL A   1      34.175  26.044  23.751  1.00  0.00    -0.355 N 
ATOM     75  C   UNL A   1      33.470  27.153  24.099  1.00  0.00     0.238 C 
ATOM     76  H   UNL A   1      34.876  26.201  23.078  1.00  0.00     0.163 HD
ATOM     77  O   UNL A   1      33.798  28.214  23.561  1.00  0.00    -0.273 OA
BRANCH  75  78
ATOM     78  C   UNL A   1      32.377  27.085  25.175  1.00  0.00     0.162 C 
ATOM     79  C   UNL A   1      32.973  27.502  26.526  1.00  0.00     0.030 C 
ATOM     80  N   UNL A   1      31.141  27.885  24.875  1.00  0.00    -0.185 NA
ATOM     81  C   UNL A   1      33.206  29.006  26.628  1.00  0.00     0.004 C 
ATOM     82  C   UNL A   1      31.370  29.352  24.918  1.00  0.00     0.103 C 
ATOM     83  C   UNL A   1      31.937  29.766  26.273  1.00  0.00     0.017 C 
BRANCH  80  84
ATOM     84  S   UNL A   1      30.365  27.311  23.452  1.00  0.00     0.245 S 
ATOM     85  O   UNL A   1      31.362  27.081  22.441  1.00  0.00    -0.207 OA
ATOM     86  O   UNL A   1      29.446  26.262  23.872  1.00  0.00    -0.207 OA
BRANCH  84  87
ATOM     87  C   UNL A   1      29.353  28.550  22.791  1.00  0.00     0.100 A 
ATOM     88  C   UNL A   1      29.798  29.624  21.973  1.00  0.00     0.041 A 
ATOM     89  C   UNL A   1      27.980  28.662  22.897  1.00  0.00     0.104 A 
ATOM     90  C   UNL A   1      28.692  30.374  21.639  1.00  0.00     0.083 A 
ATOM     91  N   UNL A   1      27.588  29.762  22.177  1.00  0.00    -0.366 N 
ATOM     92  H   UNL A   1      26.658  30.066  22.065  1.00  0.00     0.165 HD
ENDBRANCH  84  87
ENDBRANCH  80  84
ENDBRANCH  75  78
ENDBRANCH  73  74
ENDBRANCH  72  73
ENDBRANCH   1  72
TORSDOF 16
ENDMDL
MODEL 3
REMARK VINA RESULT:     -11.6      3.883      8.295
REMARK SMILES O=C(NCCCCNC(=O)[C@H]1CCCCN1S(=O)(=O)c1cc[nH]c1)c1ccc(-c2c3nc(c(-c4cc(S(=O)(=O)[O-])ccc4F)c4ccc([nH]4)c(-c4cc(S(=O)(=O)[O-])ccc4F)c4nc(c(-c5cc(S(=O)(=O)[O-])ccc5F)c5ccc2[nH]5)C=C4)C=C3)cc1
REMARK SMILES IDX 5 1 4 2 3 3 1 4 2 5 25 7 26 8 87 9 27 10 86 11 28 12 29 13
REMARK SMILES IDX 30 14 80 15 31 16 85 17 79 18 81 19 32 20 84 21 78 22 77 23
REMARK SMILES IDX 33 25 65 26 45 27 64 28 46 29 49 30 63 31 82 32 47 33 48 34
REMARK SMILES IDX 62 36 83 37 50 38 34 39 35 40 43 41 36 42 42 43 44 44 41 45
REMARK SMILES IDX 37 46 38 47 39 48 40 49 66 50 67 51 75 52 68 53 74 54 76 55
REMARK SMILES IDX 73 56 69 57 70 58 71 59 72 60 51 61 52 62 60 63 53 64 59 65
REMARK SMILES IDX 61 66 58 67 54 68 55 69 56 70 57 71 6 72 7 73 8 74 9 75
REMARK SMILES IDX 10 77 11 78 12 79 16 80 13 81 15 82 14 83 17 84 18 85 19 86
REMARK SMILES IDX 20 87 21 88 24 89 22 90 23 91
REMARK H PARENT 3 6 81 24 49 35 8 76 23 92
REMARK Flexibility Score: inf
ROOT
ATOM      1  C   UNL A   1      33.746  28.191  27.231  1.00  0.00     0.023 C 
ENDROOT
BRANCH   1   2
ATOM      2  C   UNL A   1      33.908  29.661  26.833  1.00  0.00     0.116 C 
BRANCH   2   3
ATOM      3  N   UNL A   1      34.003  30.610  27.926  1.00  0.00    -0.352 N 
ATOM      4  O   UNL A   1      34.874  31.993  29.446  1.00  0.00    -0.269 OA
ATOM      5  C   UNL A   1      35.060  31.039  28.691  1.00  0.00     0.251 C 
ATOM      6  H   UNL A   1      33.144  31.026  28.166  1.00  0.00     0.163 HD
BRANCH   5   7
ATOM      7  C   UNL A   1      36.368  30.339  28.706  1.00  0.00     0.039 A 
ATOM      8  C   UNL A   1      37.259  30.349  27.632  1.00  0.00     0.014 A 
ATOM      9  C   UNL A   1      36.702  29.626  29.869  1.00  0.00     0.014 A 
ATOM     10  C   UNL A   1      38.393  29.551  27.656  1.00  0.00     0.010 A 
ATOM     11  C   UNL A   1      37.868  28.860  29.922  1.00  0.00     0.010 A 
ATOM     12  C   UNL A   1      38.708  28.817  28.805  1.00  0.00    -0.014 A 
BRANCH  12  13
ATOM     13  C   UNL A   1      40.101  28.320  28.885  1.00  0.00     0.031 A 
ATOM     14  C   UNL A   1      41.047  29.536  29.137  1.00  0.00     0.074 A 
ATOM     15  C   UNL A   1      40.324  26.989  28.623  1.00  0.00     0.049 A 
ATOM     16  N   UNL A   1      42.232  29.792  28.673  1.00  0.00    -0.248 NA
ATOM     17  C   UNL A   1      40.536  30.714  29.909  1.00  0.00     0.031 C 
ATOM     18  C   UNL A   1      39.267  25.962  28.431  1.00  0.00     0.029 A 
ATOM     19  N   UNL A   1      41.459  26.213  28.457  1.00  0.00    -0.354 N 
ATOM     20  C   UNL A   1      42.703  30.963  29.325  1.00  0.00     0.074 A 
ATOM     21  C   UNL A   1      41.555  31.576  29.909  1.00  0.00     0.031 C 
ATOM     22  C   UNL A   1      39.797  24.757  28.096  1.00  0.00     0.029 A 
ATOM     23  C   UNL A   1      41.245  24.850  28.053  1.00  0.00     0.049 A 
ATOM     24  H   UNL A   1      42.362  26.575  28.606  1.00  0.00     0.167 HD
ATOM     25  C   UNL A   1      44.033  31.225  29.514  1.00  0.00     0.034 A 
ATOM     26  C   UNL A   1      42.172  23.897  27.685  1.00  0.00     0.034 A 
ATOM     27  C   UNL A   1      44.792  30.185  28.904  1.00  0.00     0.049 A 
ATOM     28  C   UNL A   1      43.454  24.541  28.008  1.00  0.00     0.074 A 
ATOM     29  C   UNL A   1      44.975  29.802  27.603  1.00  0.00     0.029 A 
ATOM     30  N   UNL A   1      45.195  29.164  29.738  1.00  0.00    -0.354 N 
ATOM     31  N   UNL A   1      43.921  24.693  29.208  1.00  0.00    -0.248 NA
ATOM     32  C   UNL A   1      44.256  25.102  26.912  1.00  0.00     0.031 C 
ATOM     33  C   UNL A   1      44.935  28.398  27.699  1.00  0.00     0.029 A 
ATOM     34  C   UNL A   1      45.028  28.003  29.042  1.00  0.00     0.049 A 
ATOM     35  H   UNL A   1      45.536  29.256  30.657  1.00  0.00     0.167 HD
ATOM     36  C   UNL A   1      44.883  25.649  29.023  1.00  0.00     0.074 A 
ATOM     37  C   UNL A   1      45.269  25.584  27.628  1.00  0.00     0.031 C 
ATOM     38  C   UNL A   1      44.844  26.774  29.782  1.00  0.00     0.034 A 
BRANCH  25  39
ATOM     39  C   UNL A   1      44.798  32.118  30.472  1.00  0.00     0.023 A 
ATOM     40  C   UNL A   1      44.129  32.398  31.693  1.00  0.00     0.031 A 
ATOM     41  C   UNL A   1      45.855  32.973  30.142  1.00  0.00     0.131 A 
ATOM     42  C   UNL A   1      44.322  33.606  32.370  1.00  0.00     0.055 A 
ATOM     43  C   UNL A   1      46.127  34.129  30.893  1.00  0.00     0.041 A 
ATOM     44  F   UNL A   1      46.607  32.783  29.051  1.00  0.00    -0.206 F 
ATOM     45  C   UNL A   1      45.320  34.484  31.975  1.00  0.00     0.022 A 
BRANCH  42  46
ATOM     46  S   UNL A   1      43.060  34.098  33.581  1.00  0.00     0.124 S 
ATOM     47  O   UNL A   1      43.712  33.760  34.842  1.00  0.00    -0.237 OA
ATOM     48  O   UNL A   1      42.908  35.524  33.303  1.00  0.00    -0.237 OA
ATOM     49  O   UNL A   1      41.910  33.270  33.226  1.00  0.00    -0.744 OA
ENDBRANCH  42  46
ENDBRANCH  25  39
BRANCH  26  50
ATOM     50  C   UNL A   1      42.333  22.498  27.055  1.00  0.00     0.023 A 
ATOM     51  C   UNL A   1      43.384  22.013  26.256  1.00  0.00     0.031 A 
ATOM     52  C   UNL A   1      41.338  21.499  27.359  1.00  0.00     0.131 A 
ATOM     53  C   UNL A   1      43.439  20.622  25.901  1.00  0.00     0.055 A 
ATOM     54  C   UNL A   1      41.457  20.133  27.110  1.00  0.00     0.041 A 
ATOM     55  F   UNL A   1      40.159  21.800  27.917  1.00  0.00    -0.206 F 
ATOM     56  C   UNL A   1      42.526  19.681  26.388  1.00  0.00     0.022 A 
BRANCH  53  57
ATOM     57  S   UNL A   1      44.702  19.947  24.773  1.00  0.00     0.124 S 
ATOM     58  O   UNL A   1      45.940  20.293  25.464  1.00  0.00    -0.237 OA
ATOM     59  O   UNL A   1      44.372  18.528  24.716  1.00  0.00    -0.237 OA
ATOM     60  O   UNL A   1      44.468  20.680  23.528  1.00  0.00    -0.744 OA
ENDBRANCH  53  57
ENDBRANCH  26  50
BRANCH  38  61
ATOM     61  C   UNL A   1      44.196  26.610  31.158  1.00  0.00     0.023 A 
ATOM     62  C   UNL A   1      43.126  27.444  31.542  1.00  0.00     0.031 A 
ATOM     63  C   UNL A   1      44.667  25.732  32.149  1.00  0.00     0.131 A 
ATOM     64  C   UNL A   1      42.600  27.405  32.850  1.00  0.00     0.055 A 
ATOM     65  C   UNL A   1      44.148  25.688  33.453  1.00  0.00     0.041 A 
ATOM     66  F   UNL A   1      45.663  24.888  31.897  1.00  0.00    -0.206 F 
ATOM     67  C   UNL A   1      43.108  26.531  33.811  1.00  0.00     0.022 A 
BRANCH  64  68
ATOM     68  S   UNL A   1      41.219  28.496  33.290  1.00  0.00     0.124 S 
ATOM     69  O   UNL A   1      40.180  28.097  32.347  1.00  0.00    -0.237 OA
ATOM     70  O   UNL A   1      40.978  28.157  34.688  1.00  0.00    -0.237 OA
ATOM     71  O   UNL A   1      41.760  29.840  33.074  1.00  0.00    -0.744 OA
ENDBRANCH  64  68
ENDBRANCH  38  61
ENDBRANCH  12  13
ENDBRANCH   5   7
ENDBRANCH   2   3
ENDBRANCH   1   2
BRANCH   1  72
ATOM     72  C   UNL A   1      33.507  27.222  26.072  1.00  0.00     0.023 C 
BRANCH  72  73
ATOM     73  C   UNL A   1      32.041  26.926  25.779  1.00  0.00     0.116 C 
BRANCH  73  74
ATOM     74  N   UNL A   1      31.554  25.797  26.552  1.00  0.00    -0.355 N 
ATOM     75  C   UNL A   1      31.965  24.502  26.602  1.00  0.00     0.238 C 
ATOM     76  H   UNL A   1      30.794  26.006  27.143  1.00  0.00     0.163 HD
ATOM     77  O   UNL A   1      31.367  23.757  27.383  1.00  0.00    -0.273 OA
BRANCH  75  78
ATOM     78  C   UNL A   1      33.173  24.029  25.781  1.00  0.00     0.162 C 
ATOM     79  C   UNL A   1      34.328  23.691  26.732  1.00  0.00     0.030 C 
ATOM     80  N   UNL A   1      32.898  22.879  24.855  1.00  0.00    -0.185 NA
ATOM     81  C   UNL A   1      34.114  22.376  27.475  1.00  0.00     0.004 C 
ATOM     82  C   UNL A   1      32.633  21.604  25.570  1.00  0.00     0.103 C 
ATOM     83  C   UNL A   1      33.797  21.257  26.495  1.00  0.00     0.017 C 
BRANCH  80  84
ATOM     84  S   UNL A   1      31.726  23.305  23.671  1.00  0.00     0.245 S 
ATOM     85  O   UNL A   1      31.748  22.320  22.623  1.00  0.00    -0.207 OA
ATOM     86  O   UNL A   1      30.503  23.628  24.391  1.00  0.00    -0.207 OA
BRANCH  84  87
ATOM     87  C   UNL A   1      32.186  24.780  22.891  1.00  0.00     0.100 A 
ATOM     88  C   UNL A   1      33.515  25.146  22.545  1.00  0.00     0.041 A 
ATOM     89  C   UNL A   1      31.356  25.786  22.434  1.00  0.00     0.104 A 
ATOM     90  C   UNL A   1      33.457  26.375  21.926  1.00  0.00     0.083 A 
ATOM     91  N   UNL A   1      32.137  26.740  21.834  1.00  0.00    -0.366 N 
ATOM     92  H   UNL A   1      31.803  27.560  21.404  1.00  0.00     0.165 HD
ENDBRANCH  84  87
ENDBRANCH  80  84
ENDBRANCH  75  78
ENDBRANCH  73  74
ENDBRANCH  72  73
ENDBRANCH   1  72
TORSDOF 16
ENDMDL
