MODEL 1
REMARK VINA RESULT:     -12.3      0.000      0.000
REMARK SMILES C/C(=N\[NH+]=C1\NC(=O)[C@H](CC(=O)NCCCCNC(=O)c2ccc(-c3c4nc(c(-c5cc(S(=O)(=O)[O-])ccc5F)c5ccc([nH]5)c(-c5cc(S(=O)(=O)[O-])ccc5F)c5nc(c(-c6cc(S(=O)(=O)[O-])ccc6F)c6ccc3[nH]6)C=C5)C=C4)cc2)S1)c1ccc([N+](=O)[O-])cc1
REMARK SMILES IDX 15 1 14 2 13 3 11 4 12 5 10 7 9 8 4 9 5 10 6 12 84 13 7 14
REMARK SMILES IDX 8 16 3 17 1 18 2 19 85 20 86 21 93 22 87 23 92 24 88 25
REMARK SMILES IDX 89 26 90 27 91 28 16 29 17 30 18 31 19 32 20 34 21 35 22 36
REMARK SMILES IDX 83 37 23 38 82 39 24 40 25 41 26 42 76 43 27 44 81 45 75 46
REMARK SMILES IDX 77 47 28 48 80 49 74 50 73 51 29 53 61 54 41 55 60 56 42 57
REMARK SMILES IDX 45 58 59 59 78 60 43 61 44 62 58 64 79 65 46 66 30 67 31 68
REMARK SMILES IDX 39 69 32 70 38 71 40 72 37 73 33 74 34 75 35 76 36 77 62 78
REMARK SMILES IDX 63 79 71 80 64 81 70 82 72 83 69 84 65 85 66 86 67 87 68 88
REMARK SMILES IDX 47 89 48 90 56 91 49 92 55 93 57 94 54 95 50 96 51 97 52 98
REMARK SMILES IDX 53 99
REMARK H PARENT 13 6 4 11 6 15 18 33 77 52 45 63
REMARK Flexibility Score: inf
ROOT
ATOM      1  C   UNL A   1      31.348  31.046  26.019  1.00  0.00     0.023 C 
ENDROOT
BRANCH   1   2
ATOM      2  C   UNL A   1      31.582  29.904  25.029  1.00  0.00     0.116 C 
BRANCH   2   3
ATOM      3  N   UNL A   1      30.530  29.811  24.028  1.00  0.00    -0.356 N 
ATOM      4  C   UNL A   1      30.476  29.088  22.874  1.00  0.00     0.221 C 
ATOM      5  O   UNL A   1      29.484  29.169  22.152  1.00  0.00    -0.275 OA
ATOM      6  H   UNL A   1      29.731  30.355  24.215  1.00  0.00     0.163 HD
BRANCH   4   7
ATOM      7  C   UNL A   1      31.647  28.222  22.472  1.00  0.00     0.127 C 
BRANCH   7   8
ATOM      8  C   UNL A   1      31.806  27.058  23.437  1.00  0.00     0.183 C 
ATOM      9  N   UNL A   1      33.504  23.778  22.341  1.00  0.00    -0.142 N 
ATOM     10  C   UNL A   1      32.910  24.902  22.555  1.00  0.00     0.337 C 
ATOM     11  H   UNL A   1      33.102  23.074  21.781  1.00  0.00     0.343 HD
ATOM     12  N   UNL A   1      31.581  24.963  22.336  1.00  0.00    -0.202 N 
ATOM     13  S   UNL A   1      33.495  26.350  23.323  1.00  0.00    -0.020 SA
ATOM     14  C   UNL A   1      30.918  25.890  23.077  1.00  0.00     0.322 C 
ATOM     15  H   UNL A   1      31.125  24.381  21.687  1.00  0.00     0.316 HD
ATOM     16  O   UNL A   1      29.767  25.741  23.461  1.00  0.00    -0.246 OA
BRANCH   9  17
ATOM     17  N   UNL A   1      34.744  23.615  22.946  1.00  0.00    -0.090 NA
ATOM     18  C   UNL A   1      33.449  22.192  24.543  1.00  0.00     0.071 C 
ATOM     19  C   UNL A   1      34.728  22.791  23.962  1.00  0.00     0.088 C 
BRANCH  19  20
ATOM     20  C   UNL A   1      36.022  22.451  24.638  1.00  0.00    -0.000 A 
ATOM     21  C   UNL A   1      36.713  23.448  25.343  1.00  0.00     0.017 A 
ATOM     22  C   UNL A   1      36.578  21.166  24.548  1.00  0.00     0.017 A 
ATOM     23  C   UNL A   1      37.950  23.172  25.937  1.00  0.00     0.086 A 
ATOM     24  C   UNL A   1      37.817  20.885  25.129  1.00  0.00     0.086 A 
ATOM     25  C   UNL A   1      38.503  21.891  25.817  1.00  0.00     0.269 A 
BRANCH  25  26
ATOM     26  N   UNL A   1      39.816  21.599  26.402  1.00  0.00     0.062 N 
ATOM     27  O   UNL A   1      40.306  20.481  26.193  1.00  0.00    -0.258 OA
ATOM     28  O   UNL A   1      40.357  22.490  27.074  1.00  0.00    -0.258 OA
ENDBRANCH  25  26
ENDBRANCH  19  20
ENDBRANCH   9  17
ENDBRANCH   7   8
ENDBRANCH   4   7
ENDBRANCH   2   3
ENDBRANCH   1   2
BRANCH   1  29
ATOM     29  C   UNL A   1      32.259  31.032  27.240  1.00  0.00     0.023 C 
BRANCH  29  30
ATOM     30  C   UNL A   1      33.356  32.085  27.212  1.00  0.00     0.116 C 
BRANCH  30  31
ATOM     31  N   UNL A   1      32.850  33.427  27.472  1.00  0.00    -0.352 N 
ATOM     32  C   UNL A   1      33.199  34.303  28.478  1.00  0.00     0.251 C 
ATOM     33  H   UNL A   1      32.166  33.752  26.845  1.00  0.00     0.163 HD
ATOM     34  O   UNL A   1      32.554  35.322  28.658  1.00  0.00    -0.269 OA
BRANCH  32  35
ATOM     35  C   UNL A   1      34.343  33.959  29.348  1.00  0.00     0.039 A 
ATOM     36  C   UNL A   1      34.126  33.175  30.481  1.00  0.00     0.014 A 
ATOM     37  C   UNL A   1      35.634  34.355  28.991  1.00  0.00     0.014 A 
ATOM     38  C   UNL A   1      35.223  32.711  31.211  1.00  0.00     0.010 A 
ATOM     39  C   UNL A   1      36.723  33.818  29.663  1.00  0.00     0.010 A 
ATOM     40  C   UNL A   1      36.529  32.988  30.779  1.00  0.00    -0.014 A 
BRANCH  40  41
ATOM     41  C   UNL A   1      37.718  32.427  31.470  1.00  0.00     0.031 A 
ATOM     42  C   UNL A   1      38.474  31.290  30.840  1.00  0.00     0.074 A 
ATOM     43  C   UNL A   1      38.053  32.873  32.697  1.00  0.00     0.049 A 
ATOM     44  N   UNL A   1      39.446  30.567  31.332  1.00  0.00    -0.248 NA
ATOM     45  C   UNL A   1      38.047  30.889  29.490  1.00  0.00     0.031 C 
ATOM     46  C   UNL A   1      37.362  33.938  33.430  1.00  0.00     0.029 A 
ATOM     47  N   UNL A   1      39.047  32.474  33.555  1.00  0.00    -0.354 N 
ATOM     48  C   UNL A   1      39.732  29.610  30.363  1.00  0.00     0.074 A 
ATOM     49  C   UNL A   1      38.784  29.807  29.287  1.00  0.00     0.031 C 
ATOM     50  C   UNL A   1      37.969  34.123  34.614  1.00  0.00     0.029 A 
ATOM     51  C   UNL A   1      39.057  33.159  34.748  1.00  0.00     0.049 A 
ATOM     52  H   UNL A   1      39.695  31.766  33.336  1.00  0.00     0.167 HD
ATOM     53  C   UNL A   1      40.710  28.673  30.360  1.00  0.00     0.034 A 
ATOM     54  C   UNL A   1      39.842  33.013  35.834  1.00  0.00     0.034 A 
ATOM     55  C   UNL A   1      41.660  28.510  31.433  1.00  0.00     0.049 A 
ATOM     56  C   UNL A   1      40.914  31.953  35.816  1.00  0.00     0.074 A 
ATOM     57  C   UNL A   1      42.737  27.643  31.508  1.00  0.00     0.029 A 
ATOM     58  N   UNL A   1      41.646  29.228  32.622  1.00  0.00    -0.354 N 
ATOM     59  N   UNL A   1      41.205  31.089  34.871  1.00  0.00    -0.248 NA
ATOM     60  C   UNL A   1      41.763  31.851  37.009  1.00  0.00     0.031 C 
ATOM     61  C   UNL A   1      43.334  27.794  32.765  1.00  0.00     0.029 A 
ATOM     62  C   UNL A   1      42.673  28.802  33.449  1.00  0.00     0.049 A 
ATOM     63  H   UNL A   1      40.999  29.936  32.846  1.00  0.00     0.167 HD
ATOM     64  C   UNL A   1      42.289  30.358  35.347  1.00  0.00     0.074 A 
ATOM     65  C   UNL A   1      42.607  30.893  36.656  1.00  0.00     0.031 C 
ATOM     66  C   UNL A   1      42.964  29.339  34.758  1.00  0.00     0.034 A 
BRANCH  53  67
ATOM     67  C   UNL A   1      40.779  27.747  29.170  1.00  0.00     0.023 A 
ATOM     68  C   UNL A   1      41.706  27.948  28.133  1.00  0.00     0.031 A 
ATOM     69  C   UNL A   1      39.878  26.675  29.046  1.00  0.00     0.131 A 
ATOM     70  C   UNL A   1      41.656  27.149  26.981  1.00  0.00     0.055 A 
ATOM     71  C   UNL A   1      39.889  25.827  27.936  1.00  0.00     0.041 A 
ATOM     72  F   UNL A   1      38.955  26.445  29.994  1.00  0.00    -0.206 F 
ATOM     73  C   UNL A   1      40.770  26.073  26.887  1.00  0.00     0.022 A 
BRANCH  70  74
ATOM     74  S   UNL A   1      42.657  27.633  25.549  1.00  0.00     0.124 S 
ATOM     75  O   UNL A   1      43.951  27.902  26.172  1.00  0.00    -0.237 OA
ATOM     76  O   UNL A   1      42.589  26.448  24.701  1.00  0.00    -0.237 OA
ATOM     77  O   UNL A   1      41.966  28.812  25.031  1.00  0.00    -0.744 OA
ENDBRANCH  70  74
ENDBRANCH  53  67
BRANCH  54  78
ATOM     78  C   UNL A   1      39.642  33.875  37.035  1.00  0.00     0.023 A 
ATOM     79  C   UNL A   1      38.976  33.385  38.168  1.00  0.00     0.031 A 
ATOM     80  C   UNL A   1      40.080  35.211  37.051  1.00  0.00     0.131 A 
ATOM     81  C   UNL A   1      38.727  34.237  39.256  1.00  0.00     0.055 A 
ATOM     82  C   UNL A   1      39.873  36.040  38.154  1.00  0.00     0.041 A 
ATOM     83  F   UNL A   1      40.729  35.726  35.995  1.00  0.00    -0.206 F 
ATOM     84  C   UNL A   1      39.181  35.558  39.262  1.00  0.00     0.022 A 
BRANCH  81  85
ATOM     85  S   UNL A   1      37.728  33.613  40.635  1.00  0.00     0.124 S 
ATOM     86  O   UNL A   1      38.668  32.722  41.306  1.00  0.00    -0.237 OA
ATOM     87  O   UNL A   1      37.391  34.843  41.344  1.00  0.00    -0.237 OA
ATOM     88  O   UNL A   1      36.605  32.954  39.971  1.00  0.00    -0.744 OA
ENDBRANCH  81  85
ENDBRANCH  54  78
BRANCH  66  89
ATOM     89  C   UNL A   1      44.132  28.765  35.517  1.00  0.00     0.023 A 
ATOM     90  C   UNL A   1      43.969  27.714  36.437  1.00  0.00     0.031 A 
ATOM     91  C   UNL A   1      45.425  29.281  35.321  1.00  0.00     0.131 A 
ATOM     92  C   UNL A   1      45.073  27.244  37.162  1.00  0.00     0.055 A 
ATOM     93  C   UNL A   1      46.530  28.772  36.004  1.00  0.00     0.041 A 
ATOM     94  F   UNL A   1      45.636  30.285  34.455  1.00  0.00    -0.206 F 
ATOM     95  C   UNL A   1      46.355  27.755  36.939  1.00  0.00     0.022 A 
BRANCH  92  96
ATOM     96  S   UNL A   1      44.802  26.004  38.457  1.00  0.00     0.124 S 
ATOM     97  O   UNL A   1      43.739  26.618  39.245  1.00  0.00    -0.237 OA
ATOM     98  O   UNL A   1      44.424  24.824  37.686  1.00  0.00    -0.237 OA
ATOM     99  O   UNL A   1      46.099  25.918  39.125  1.00  0.00    -0.744 OA
ENDBRANCH  92  96
ENDBRANCH  66  89
ENDBRANCH  40  41
ENDBRANCH  32  35
ENDBRANCH  30  31
ENDBRANCH  29  30
ENDBRANCH   1  29
TORSDOF 18
ENDMDL
MODEL 2
REMARK VINA RESULT:     -12.1      5.540     11.873
REMARK SMILES C/C(=N\[NH+]=C1\NC(=O)[C@H](CC(=O)NCCCCNC(=O)c2ccc(-c3c4nc(c(-c5cc(S(=O)(=O)[O-])ccc5F)c5ccc([nH]5)c(-c5cc(S(=O)(=O)[O-])ccc5F)c5nc(c(-c6cc(S(=O)(=O)[O-])ccc6F)c6ccc3[nH]6)C=C5)C=C4)cc2)S1)c1ccc([N+](=O)[O-])cc1
REMARK SMILES IDX 15 1 14 2 13 3 11 4 12 5 10 7 9 8 4 9 5 10 6 12 84 13 7 14
REMARK SMILES IDX 8 16 3 17 1 18 2 19 85 20 86 21 93 22 87 23 92 24 88 25
REMARK SMILES IDX 89 26 90 27 91 28 16 29 17 30 18 31 19 32 20 34 21 35 22 36
REMARK SMILES IDX 83 37 23 38 82 39 24 40 25 41 26 42 76 43 27 44 81 45 75 46
REMARK SMILES IDX 77 47 28 48 80 49 74 50 73 51 29 53 61 54 41 55 60 56 42 57
REMARK SMILES IDX 45 58 59 59 78 60 43 61 44 62 58 64 79 65 46 66 30 67 31 68
REMARK SMILES IDX 39 69 32 70 38 71 40 72 37 73 33 74 34 75 35 76 36 77 62 78
REMARK SMILES IDX 63 79 71 80 64 81 70 82 72 83 69 84 65 85 66 86 67 87 68 88
REMARK SMILES IDX 47 89 48 90 56 91 49 92 55 93 57 94 54 95 50 96 51 97 52 98
REMARK SMILES IDX 53 99
REMARK H PARENT 13 6 4 11 6 15 18 33 77 52 45 63
REMARK Flexibility Score: inf
ROOT
ATOM      1  C   UNL A   1      36.985  20.203  25.019  1.00  0.00     0.023 C 
ENDROOT
BRANCH   1   2
ATOM      2  C   UNL A   1      35.646  20.875  25.327  1.00  0.00     0.116 C 
BRANCH   2   3
ATOM      3  N   UNL A   1      34.524  20.188  24.706  1.00  0.00    -0.356 N 
ATOM      4  C   UNL A   1      33.183  20.396  24.841  1.00  0.00     0.221 C 
ATOM      5  O   UNL A   1      32.393  19.678  24.230  1.00  0.00    -0.275 OA
ATOM      6  H   UNL A   1      34.771  19.459  24.093  1.00  0.00     0.163 HD
BRANCH   4   7
ATOM      7  C   UNL A   1      32.677  21.479  25.764  1.00  0.00     0.127 C 
BRANCH   7   8
ATOM      8  C   UNL A   1      32.688  22.828  25.060  1.00  0.00     0.183 C 
ATOM      9  N   UNL A   1      30.631  25.794  26.406  1.00  0.00    -0.142 N 
ATOM     10  C   UNL A   1      31.221  24.709  26.037  1.00  0.00     0.337 C 
ATOM     11  H   UNL A   1      29.658  25.914  26.317  1.00  0.00     0.343 HD
ATOM     12  N   UNL A   1      30.570  23.900  25.178  1.00  0.00    -0.202 N 
ATOM     13  S   UNL A   1      32.865  24.189  26.277  1.00  0.00    -0.020 SA
ATOM     14  C   UNL A   1      31.370  23.134  24.390  1.00  0.00     0.322 C 
ATOM     15  H   UNL A   1      29.588  23.866  25.125  1.00  0.00     0.316 HD
ATOM     16  O   UNL A   1      31.073  22.810  23.249  1.00  0.00    -0.246 OA
BRANCH   9  17
ATOM     17  N   UNL A   1      31.448  26.785  26.939  1.00  0.00    -0.090 NA
ATOM     18  C   UNL A   1      31.230  27.779  24.654  1.00  0.00     0.071 C 
ATOM     19  C   UNL A   1      31.673  27.777  26.115  1.00  0.00     0.088 C 
BRANCH  19  20
ATOM     20  C   UNL A   1      32.455  28.958  26.605  1.00  0.00    -0.000 A 
ATOM     21  C   UNL A   1      33.777  28.776  27.041  1.00  0.00     0.017 A 
ATOM     22  C   UNL A   1      31.883  30.237  26.671  1.00  0.00     0.017 A 
ATOM     23  C   UNL A   1      34.511  29.851  27.553  1.00  0.00     0.086 A 
ATOM     24  C   UNL A   1      32.606  31.314  27.191  1.00  0.00     0.086 A 
ATOM     25  C   UNL A   1      33.916  31.116  27.637  1.00  0.00     0.269 A 
BRANCH  25  26
ATOM     26  N   UNL A   1      34.663  32.243  28.207  1.00  0.00     0.062 N 
ATOM     27  O   UNL A   1      35.205  32.079  29.308  1.00  0.00    -0.258 OA
ATOM     28  O   UNL A   1      34.704  33.296  27.553  1.00  0.00    -0.258 OA
ENDBRANCH  25  26
ENDBRANCH  19  20
ENDBRANCH   9  17
ENDBRANCH   7   8
ENDBRANCH   4   7
ENDBRANCH   2   3
ENDBRANCH   1   2
BRANCH   1  29
ATOM     29  C   UNL A   1      38.183  21.145  24.989  1.00  0.00     0.023 C 
BRANCH  29  30
ATOM     30  C   UNL A   1      39.121  21.000  26.177  1.00  0.00     0.116 C 
BRANCH  30  31
ATOM     31  N   UNL A   1      39.947  19.802  26.095  1.00  0.00    -0.352 N 
ATOM     32  C   UNL A   1      41.321  19.698  26.098  1.00  0.00     0.251 C 
ATOM     33  H   UNL A   1      39.457  18.951  26.028  1.00  0.00     0.163 HD
ATOM     34  O   UNL A   1      41.859  18.633  25.848  1.00  0.00    -0.269 OA
BRANCH  32  35
ATOM     35  C   UNL A   1      42.121  20.910  26.377  1.00  0.00     0.039 A 
ATOM     36  C   UNL A   1      42.442  21.771  25.326  1.00  0.00     0.014 A 
ATOM     37  C   UNL A   1      42.480  21.222  27.690  1.00  0.00     0.014 A 
ATOM     38  C   UNL A   1      43.050  22.996  25.609  1.00  0.00     0.010 A 
ATOM     39  C   UNL A   1      43.000  22.477  27.975  1.00  0.00     0.010 A 
ATOM     40  C   UNL A   1      43.288  23.378  26.939  1.00  0.00    -0.014 A 
BRANCH  40  41
ATOM     41  C   UNL A   1      43.839  24.714  27.282  1.00  0.00     0.031 A 
ATOM     42  C   UNL A   1      42.925  25.773  27.833  1.00  0.00     0.074 A 
ATOM     43  C   UNL A   1      45.128  24.998  27.009  1.00  0.00     0.049 A 
ATOM     44  N   UNL A   1      43.167  27.036  28.068  1.00  0.00    -0.248 NA
ATOM     45  C   UNL A   1      41.542  25.360  28.119  1.00  0.00     0.031 C 
ATOM     46  C   UNL A   1      46.097  24.066  26.428  1.00  0.00     0.029 A 
ATOM     47  N   UNL A   1      45.842  26.160  27.166  1.00  0.00    -0.354 N 
ATOM     48  C   UNL A   1      41.961  27.576  28.505  1.00  0.00     0.074 A 
ATOM     49  C   UNL A   1      40.978  26.515  28.438  1.00  0.00     0.031 C 
ATOM     50  C   UNL A   1      47.283  24.685  26.300  1.00  0.00     0.029 A 
ATOM     51  C   UNL A   1      47.147  26.069  26.741  1.00  0.00     0.049 A 
ATOM     52  H   UNL A   1      45.457  26.981  27.549  1.00  0.00     0.167 HD
ATOM     53  C   UNL A   1      41.705  28.831  28.946  1.00  0.00     0.034 A 
ATOM     54  C   UNL A   1      48.119  27.003  26.695  1.00  0.00     0.034 A 
ATOM     55  C   UNL A   1      42.705  29.867  29.028  1.00  0.00     0.049 A 
ATOM     56  C   UNL A   1      47.807  28.397  27.176  1.00  0.00     0.074 A 
ATOM     57  C   UNL A   1      42.578  31.152  29.525  1.00  0.00     0.029 A 
ATOM     58  N   UNL A   1      44.020  29.736  28.598  1.00  0.00    -0.354 N 
ATOM     59  N   UNL A   1      46.675  28.879  27.635  1.00  0.00    -0.248 NA
ATOM     60  C   UNL A   1      48.905  29.371  27.134  1.00  0.00     0.031 C 
ATOM     61  C   UNL A   1      43.795  31.816  29.339  1.00  0.00     0.029 A 
ATOM     62  C   UNL A   1      44.704  30.926  28.788  1.00  0.00     0.049 A 
ATOM     63  H   UNL A   1      44.408  28.917  28.213  1.00  0.00     0.167 HD
ATOM     64  C   UNL A   1      46.933  30.207  27.960  1.00  0.00     0.074 A 
ATOM     65  C   UNL A   1      48.330  30.444  27.659  1.00  0.00     0.031 C 
ATOM     66  C   UNL A   1      46.094  31.146  28.466  1.00  0.00     0.034 A 
BRANCH  53  67
ATOM     67  C   UNL A   1      40.285  29.146  29.350  1.00  0.00     0.023 A 
ATOM     68  C   UNL A   1      39.872  29.096  30.693  1.00  0.00     0.031 A 
ATOM     69  C   UNL A   1      39.319  29.459  28.378  1.00  0.00     0.131 A 
ATOM     70  C   UNL A   1      38.518  29.266  31.018  1.00  0.00     0.055 A 
ATOM     71  C   UNL A   1      37.988  29.714  28.717  1.00  0.00     0.041 A 
ATOM     72  F   UNL A   1      39.648  29.503  27.077  1.00  0.00    -0.206 F 
ATOM     73  C   UNL A   1      37.577  29.601  30.042  1.00  0.00     0.022 A 
BRANCH  70  74
ATOM     74  S   UNL A   1      37.982  28.890  32.709  1.00  0.00     0.124 S 
ATOM     75  O   UNL A   1      36.664  29.520  32.747  1.00  0.00    -0.237 OA
ATOM     76  O   UNL A   1      37.995  27.432  32.728  1.00  0.00    -0.237 OA
ATOM     77  O   UNL A   1      38.997  29.535  33.541  1.00  0.00    -0.744 OA
ENDBRANCH  70  74
ENDBRANCH  53  67
BRANCH  54  78
ATOM     78  C   UNL A   1      49.471  26.664  26.164  1.00  0.00     0.023 A 
ATOM     79  C   UNL A   1      49.887  27.130  24.908  1.00  0.00     0.031 A 
ATOM     80  C   UNL A   1      50.349  25.837  26.887  1.00  0.00     0.131 A 
ATOM     81  C   UNL A   1      51.131  26.732  24.392  1.00  0.00     0.055 A 
ATOM     82  C   UNL A   1      51.605  25.484  26.390  1.00  0.00     0.041 A 
ATOM     83  F   UNL A   1      50.001  25.370  28.097  1.00  0.00    -0.206 F 
ATOM     84  C   UNL A   1      51.997  25.923  25.129  1.00  0.00     0.022 A 
BRANCH  81  85
ATOM     85  S   UNL A   1      51.567  27.228  22.702  1.00  0.00     0.124 S 
ATOM     86  O   UNL A   1      51.869  28.644  22.875  1.00  0.00    -0.237 OA
ATOM     87  O   UNL A   1      52.704  26.358  22.416  1.00  0.00    -0.237 OA
ATOM     88  O   UNL A   1      50.356  26.935  21.939  1.00  0.00    -0.744 OA
ENDBRANCH  81  85
ENDBRANCH  54  78
BRANCH  66  89
ATOM     89  C   UNL A   1      46.683  32.504  28.752  1.00  0.00     0.023 A 
ATOM     90  C   UNL A   1      46.620  33.547  27.812  1.00  0.00     0.031 A 
ATOM     91  C   UNL A   1      47.321  32.753  29.980  1.00  0.00     0.131 A 
ATOM     92  C   UNL A   1      47.227  34.779  28.097  1.00  0.00     0.055 A 
ATOM     93  C   UNL A   1      47.874  33.998  30.280  1.00  0.00     0.041 A 
ATOM     94  F   UNL A   1      47.409  31.790  30.912  1.00  0.00    -0.206 F 
ATOM     95  C   UNL A   1      47.839  35.016  29.331  1.00  0.00     0.022 A 
BRANCH  92  96
ATOM     96  S   UNL A   1      47.272  36.047  26.802  1.00  0.00     0.124 S 
ATOM     97  O   UNL A   1      46.002  35.827  26.118  1.00  0.00    -0.237 OA
ATOM     98  O   UNL A   1      47.375  37.281  27.575  1.00  0.00    -0.237 OA
ATOM     99  O   UNL A   1      48.462  35.703  26.025  1.00  0.00    -0.744 OA
ENDBRANCH  92  96
ENDBRANCH  66  89
ENDBRANCH  40  41
ENDBRANCH  32  35
ENDBRANCH  30  31
ENDBRANCH  29  30
ENDBRANCH   1  29
TORSDOF 18
ENDMDL
MODEL 3
REMARK VINA RESULT:     -12.0      2.680      3.544
REMARK SMILES C/C(=N\[NH+]=C1\NC(=O)[C@H](CC(=O)NCCCCNC(=O)c2ccc(-c3c4nc(c(-c5cc(S(=O)(=O)[O-])ccc5F)c5ccc([nH]5)c(-c5cc(S(=O)(=O)[O-])ccc5F)c5nc(c(-c6cc(S(=O)(=O)[O-])ccc6F)c6ccc3[nH]6)C=C5)C=C4)cc2)S1)c1ccc([N+](=O)[O-])cc1
REMARK SMILES IDX 15 1 14 2 13 3 11 4 12 5 10 7 9 8 4 9 5 10 6 12 84 13 7 14
REMARK SMILES IDX 8 16 3 17 1 18 2 19 85 20 86 21 93 22 87 23 92 24 88 25
REMARK SMILES IDX 89 26 90 27 91 28 16 29 17 30 18 31 19 32 20 34 21 35 22 36
REMARK SMILES IDX 83 37 23 38 82 39 24 40 25 41 26 42 76 43 27 44 81 45 75 46
REMARK SMILES IDX 77 47 28 48 80 49 74 50 73 51 29 53 61 54 41 55 60 56 42 57
REMARK SMILES IDX 45 58 59 59 78 60 43 61 44 62 58 64 79 65 46 66 30 67 31 68
REMARK SMILES IDX 39 69 32 70 38 71 40 72 37 73 33 74 34 75 35 76 36 77 62 78
REMARK SMILES IDX 63 79 71 80 64 81 70 82 72 83 69 84 65 85 66 86 67 87 68 88
REMARK SMILES IDX 47 89 48 90 56 91 49 92 55 93 57 94 54 95 50 96 51 97 52 98
REMARK SMILES IDX 53 99
REMARK H PARENT 13 6 4 11 6 15 18 33 77 52 45 63
REMARK Flexibility Score: inf
ROOT
ATOM      1  C   UNL A   1      31.033  29.673  24.721  1.00  0.00     0.023 C 
ENDROOT
BRANCH   1   2
ATOM      2  C   UNL A   1      30.788  28.916  23.414  1.00  0.00     0.116 C 
BRANCH   2   3
ATOM      3  N   UNL A   1      29.570  28.122  23.452  1.00  0.00    -0.356 N 
ATOM      4  C   UNL A   1      29.375  26.830  23.839  1.00  0.00     0.221 C 
ATOM      5  O   UNL A   1      28.249  26.339  23.774  1.00  0.00    -0.275 OA
ATOM      6  H   UNL A   1      28.759  28.592  23.152  1.00  0.00     0.163 HD
BRANCH   4   7
ATOM      7  C   UNL A   1      30.546  25.999  24.310  1.00  0.00     0.127 C 
BRANCH   7   8
ATOM      8  C   UNL A   1      31.073  25.131  23.177  1.00  0.00     0.183 C 
ATOM      9  N   UNL A   1      34.135  22.846  23.680  1.00  0.00    -0.142 N 
ATOM     10  C   UNL A   1      33.163  23.693  23.635  1.00  0.00     0.337 C 
ATOM     11  H   UNL A   1      35.076  23.134  23.709  1.00  0.00     0.343 HD
ATOM     12  N   UNL A   1      33.443  24.950  23.237  1.00  0.00    -0.202 N 
ATOM     13  S   UNL A   1      31.448  23.440  23.782  1.00  0.00    -0.020 SA
ATOM     14  C   UNL A   1      32.408  25.615  22.660  1.00  0.00     0.322 C 
ATOM     15  H   UNL A   1      34.331  25.357  23.358  1.00  0.00     0.316 HD
ATOM     16  O   UNL A   1      32.556  26.444  21.773  1.00  0.00    -0.246 OA
BRANCH   9  17
ATOM     17  N   UNL A   1      33.776  21.503  23.685  1.00  0.00    -0.090 NA
ATOM     18  C   UNL A   1      35.413  21.378  25.572  1.00  0.00     0.071 C 
ATOM     19  C   UNL A   1      34.338  20.815  24.646  1.00  0.00     0.088 C 
BRANCH  19  20
ATOM     20  C   UNL A   1      33.953  19.377  24.823  1.00  0.00    -0.000 A 
ATOM     21  C   UNL A   1      32.770  19.060  25.507  1.00  0.00     0.017 A 
ATOM     22  C   UNL A   1      34.770  18.339  24.352  1.00  0.00     0.017 A 
ATOM     23  C   UNL A   1      32.415  17.725  25.734  1.00  0.00     0.086 A 
ATOM     24  C   UNL A   1      34.429  17.004  24.583  1.00  0.00     0.086 A 
ATOM     25  C   UNL A   1      33.255  16.701  25.280  1.00  0.00     0.269 A 
BRANCH  25  26
ATOM     26  N   UNL A   1      32.913  15.298  25.544  1.00  0.00     0.062 N 
ATOM     27  O   UNL A   1      31.758  15.045  25.913  1.00  0.00    -0.258 OA
ATOM     28  O   UNL A   1      33.803  14.450  25.385  1.00  0.00    -0.258 OA
ENDBRANCH  25  26
ENDBRANCH  19  20
ENDBRANCH   9  17
ENDBRANCH   7   8
ENDBRANCH   4   7
ENDBRANCH   2   3
ENDBRANCH   1   2
BRANCH   1  29
ATOM     29  C   UNL A   1      31.877  28.924  25.746  1.00  0.00     0.023 C 
BRANCH  29  30
ATOM     30  C   UNL A   1      33.098  29.693  26.230  1.00  0.00     0.116 C 
BRANCH  30  31
ATOM     31  N   UNL A   1      32.788  31.073  26.578  1.00  0.00    -0.352 N 
ATOM     32  C   UNL A   1      33.478  31.932  27.406  1.00  0.00     0.251 C 
ATOM     33  H   UNL A   1      31.974  31.443  26.167  1.00  0.00     0.163 HD
ATOM     34  O   UNL A   1      32.991  33.001  27.730  1.00  0.00    -0.269 OA
BRANCH  32  35
ATOM     35  C   UNL A   1      34.801  31.510  27.915  1.00  0.00     0.039 A 
ATOM     36  C   UNL A   1      35.841  32.439  27.962  1.00  0.00     0.014 A 
ATOM     37  C   UNL A   1      34.977  30.217  28.412  1.00  0.00     0.014 A 
ATOM     38  C   UNL A   1      37.037  32.093  28.594  1.00  0.00     0.010 A 
ATOM     39  C   UNL A   1      36.131  29.908  29.118  1.00  0.00     0.010 A 
ATOM     40  C   UNL A   1      37.173  30.844  29.219  1.00  0.00    -0.014 A 
BRANCH  40  41
ATOM     41  C   UNL A   1      38.391  30.481  29.987  1.00  0.00     0.031 A 
ATOM     42  C   UNL A   1      39.357  29.480  29.415  1.00  0.00     0.074 A 
ATOM     43  C   UNL A   1      38.573  30.975  31.228  1.00  0.00     0.049 A 
ATOM     44  N   UNL A   1      40.400  28.923  29.973  1.00  0.00    -0.248 NA
ATOM     45  C   UNL A   1      39.085  29.016  28.046  1.00  0.00     0.031 C 
ATOM     46  C   UNL A   1      37.677  31.914  31.907  1.00  0.00     0.029 A 
ATOM     47  N   UNL A   1      39.564  30.741  32.149  1.00  0.00    -0.354 N 
ATOM     48  C   UNL A   1      40.895  28.025  29.032  1.00  0.00     0.074 A 
ATOM     49  C   UNL A   1      39.996  28.067  27.899  1.00  0.00     0.031 C 
ATOM     50  C   UNL A   1      38.171  32.194  33.124  1.00  0.00     0.029 A 
ATOM     51  C   UNL A   1      39.389  31.418  33.333  1.00  0.00     0.049 A 
ATOM     52  H   UNL A   1      40.329  30.146  31.977  1.00  0.00     0.167 HD
ATOM     53  C   UNL A   1      42.009  27.257  29.099  1.00  0.00     0.034 A 
ATOM     54  C   UNL A   1      40.119  31.400  34.467  1.00  0.00     0.034 A 
ATOM     55  C   UNL A   1      42.905  27.249  30.229  1.00  0.00     0.049 A 
ATOM     56  C   UNL A   1      41.346  30.526  34.524  1.00  0.00     0.074 A 
ATOM     57  C   UNL A   1      44.100  26.566  30.378  1.00  0.00     0.029 A 
ATOM     58  N   UNL A   1      42.702  27.955  31.408  1.00  0.00    -0.354 N 
ATOM     59  N   UNL A   1      41.830  29.721  33.607  1.00  0.00    -0.248 NA
ATOM     60  C   UNL A   1      42.125  30.562  35.769  1.00  0.00     0.031 C 
ATOM     61  C   UNL A   1      44.586  26.811  31.667  1.00  0.00     0.029 A 
ATOM     62  C   UNL A   1      43.731  27.700  32.300  1.00  0.00     0.049 A 
ATOM     63  H   UNL A   1      41.937  28.549  31.585  1.00  0.00     0.167 HD
ATOM     64  C   UNL A   1      42.985  29.173  34.156  1.00  0.00     0.074 A 
ATOM     65  C   UNL A   1      43.132  29.751  35.476  1.00  0.00     0.031 C 
ATOM     66  C   UNL A   1      43.850  28.276  33.619  1.00  0.00     0.034 A 
BRANCH  53  67
ATOM     67  C   UNL A   1      42.299  26.355  27.923  1.00  0.00     0.023 A 
ATOM     68  C   UNL A   1      41.822  25.034  27.873  1.00  0.00     0.031 A 
ATOM     69  C   UNL A   1      43.099  26.806  26.858  1.00  0.00     0.131 A 
ATOM     70  C   UNL A   1      42.219  24.183  26.831  1.00  0.00     0.055 A 
ATOM     71  C   UNL A   1      43.419  25.980  25.777  1.00  0.00     0.041 A 
ATOM     72  F   UNL A   1      43.600  28.051  26.859  1.00  0.00    -0.206 F 
ATOM     73  C   UNL A   1      42.994  24.655  25.768  1.00  0.00     0.022 A 
BRANCH  70  74
ATOM     74  S   UNL A   1      41.837  22.416  26.965  1.00  0.00     0.124 S 
ATOM     75  O   UNL A   1      41.306  22.127  25.634  1.00  0.00    -0.237 OA
ATOM     76  O   UNL A   1      43.139  21.834  27.274  1.00  0.00    -0.237 OA
ATOM     77  O   UNL A   1      40.854  22.359  28.045  1.00  0.00    -0.744 OA
ENDBRANCH  70  74
ENDBRANCH  53  67
BRANCH  54  78
ATOM     78  C   UNL A   1      39.710  32.218  35.645  1.00  0.00     0.023 A 
ATOM     79  C   UNL A   1      38.874  31.682  36.636  1.00  0.00     0.031 A 
ATOM     80  C   UNL A   1      40.116  33.557  35.776  1.00  0.00     0.131 A 
ATOM     81  C   UNL A   1      38.435  32.494  37.695  1.00  0.00     0.055 A 
ATOM     82  C   UNL A   1      39.715  34.346  36.855  1.00  0.00     0.041 A 
ATOM     83  F   UNL A   1      40.921  34.116  34.858  1.00  0.00    -0.206 F 
ATOM     84  C   UNL A   1      38.859  33.819  37.817  1.00  0.00     0.022 A 
BRANCH  81  85
ATOM     85  S   UNL A   1      37.233  31.812  38.870  1.00  0.00     0.124 S 
ATOM     86  O   UNL A   1      37.084  30.445  38.384  1.00  0.00    -0.237 OA
ATOM     87  O   UNL A   1      37.931  31.970  40.141  1.00  0.00    -0.237 OA
ATOM     88  O   UNL A   1      36.062  32.669  38.695  1.00  0.00    -0.744 OA
ENDBRANCH  81  85
ENDBRANCH  54  78
BRANCH  66  89
ATOM     89  C   UNL A   1      45.046  27.896  34.454  1.00  0.00     0.023 A 
ATOM     90  C   UNL A   1      45.025  26.781  35.308  1.00  0.00     0.031 A 
ATOM     91  C   UNL A   1      46.221  28.667  34.397  1.00  0.00     0.131 A 
ATOM     92  C   UNL A   1      46.141  26.493  36.108  1.00  0.00     0.055 A 
ATOM     93  C   UNL A   1      47.348  28.344  35.153  1.00  0.00     0.041 A 
ATOM     94  F   UNL A   1      46.294  29.744  33.599  1.00  0.00    -0.206 F 
ATOM     95  C   UNL A   1      47.308  27.258  36.023  1.00  0.00     0.022 A 
BRANCH  92  96
ATOM     96  S   UNL A   1      46.022  25.147  37.317  1.00  0.00     0.124 S 
ATOM     97  O   UNL A   1      44.856  25.545  38.100  1.00  0.00    -0.237 OA
ATOM     98  O   UNL A   1      45.848  23.975  36.466  1.00  0.00    -0.237 OA
ATOM     99  O   UNL A   1      47.297  25.212  38.028  1.00  0.00    -0.744 OA
ENDBRANCH  92  96
ENDBRANCH  66  89
ENDBRANCH  40  41
ENDBRANCH  32  35
ENDBRANCH  30  31
ENDBRANCH  29  30
ENDBRANCH   1  29
TORSDOF 18
ENDMDL
